data_PCOD8068247
_publ_section_title
;
Structure prediction by ZEFSAII (Michael W. Deem and Ramdas Pophale) SiO2 
 PCOD8068247
Probable space group: P 21/M
;
_chemical_formula_sum "Si O2"
_cell_formula_units_Z 28
_cell_length_a 25.553933
_cell_length_b 9.091871
_cell_length_c 17.831577
_cell_angle_alpha 90.000000
_cell_angle_beta 25.375644
_cell_angle_gamma 90.000000
_cell_volume 1775.429280
_symmetry_space_group_name_H-M "P 21/M"
_symmetry_group_IT_number 11
_symmetry_cell_setting 'monoclinic'
loop_
_space_group_symop_operation_xyz
x,y,z
-x,1/2+y,-z
-x,-y,-z
x,1/2-y,z
loop_
_atom_site_type_symbol
_atom_site_label
_atom_site_fract_x
_atom_site_fract_y
_atom_site_fract_z
Si Si1 0.300738 0.580492 0.475148
Si Si2 0.571842 0.079202 0.296809
Si Si3 0.873303 0.420430 0.173582
Si Si4 0.658044 0.418194 0.345564
Si Si5 0.366921 0.581027 0.232760
Si Si6 0.391679 0.581383 0.040400
Si Si7 0.422520 0.076686 0.857459
O O1 0.302547 0.750000 0.495705
O O2 0.198806 0.508726 0.661237
O O3 0.269325 0.555858 0.427118
O O4 0.437365 0.521668 0.314891
O O5 0.564222 0.250000 0.286966
O O6 0.658701 0.048161 0.255898
O O7 0.435955 0.022194 0.489573
O O8 0.629954 0.993680 0.150867
O O9 0.901817 0.250000 0.149553
O O10 0.792929 0.446472 0.202932
O O11 0.000000 0.500000 0.000000
O O12 0.616472 0.250000 0.414358
O O13 0.417281 0.750000 0.174921
O O14 0.473520 0.464188 0.107895
O O15 0.309698 0.558973 0.223034
O O16 0.390722 0.750000 0.015663
O O17 0.347125 0.483758 0.027527
O O18 0.406567 0.250000 0.875003
#
# Coordination Sequence:
#
# PCOD8068247 Si02
#       7
#     4   4   4   4   4   4   4
#     4   8  14  26  42  55  75 111 145 168 204 255
#     4  10  18  27  44  66  85 107 143 181 210 252
#     4  10  19  32  46  61  84 114 148 180 213 249
#     4   9  18  32  45  60  85 115 140 172 221 263
#     4   8  14  24  37  53  76 110 141 167 207 254
#     4   9  15  22  34  56  82 105 138 175 202 241
#     4  10  17  27  41  57  83 116 143 166 210 260
#
# _framework density 15.770834000000001
#
# number of rings (size 3 to 8) (size 9 to 14) (size 15 to 20)
#    0.000    2.857    1.429    2.143    0.000    1.714 
#    0.000    0.714    0.000    0.000    0.000    0.000 
#    0.000    1.143    0.000    2.286    0.000    3.429 
#
# Total GULP energy -346873.927248 kJ/mol
# GULP energy per Si atom -12388.354545 kJ/mol
# Density = 1.573494 g / cm^3
# Si number density = 15.770834 Si / 1000 Ang^3
#
#
#
# Elastic Constant Matrix: (Units=GPa)
#
#
# Indices 1 2 3 4 5 6 
#
# 1 122.6879 48.3014 46.1893 0.0000 33.6095 0.0000
# 2 48.3014 67.6923 19.2801 0.0000 11.4568 0.0000
# 3 46.1893 19.2801 52.4030 0.0000 12.6645 0.0000
# 4 0.0000 0.0000 0.0000 17.2265 0.0000 4.5440
# 5 33.6095 11.4568 12.6645 0.0000 28.4730 0.0000
# 6 0.0000 0.0000 0.0000 4.5440 0.0000 24.2301
#
#
#
# Elastic Compliance Matrix: (Units=1/GPa)
#
#
# Indices 1 2 3 4 5 6 
#
# 1 0.019510 -0.008398 -0.010485 0.000000 -0.014987 0.000000
# 2 -0.008398 0.020628 -0.000646 0.000000 0.001901 0.000000
# 3 -0.010485 -0.000646 0.028580 0.000000 -0.000076 0.000000
# 4 0.000000 0.000000 0.000000 0.061071 0.000000 -0.011453
# 5 -0.014987 0.001901 -0.000076 0.000000 0.052080 0.000000
# 6 0.000000 0.000000 0.000000 -0.011453 0.000000 0.043419
#
#
# Mechanical properties :
#
#
# Convention : Reuss Voigt Hill
#
# Bulk Modulus (GPa) = 33.71587 52.25830 42.98709
# Shear Modulus (GPa) = 18.23265 22.58676 20.40970
#
# Velocity S-wave (km/s) = 3.40383 3.78853 3.60132
# Velocity P-wave (km/s) = 6.07233 7.23500 6.67901
#
# Compressibility (1/GPa) = 0.02965962
#
# Stress axis : x y z
#
# Youngs Moduli (GPa) = 51.25601 48.47849 34.98898
#
# Poissons Ratio (x) = 0.40715 0.36685
# Poissons Ratio (y) = 0.43047 0.02261
# Poissons Ratio (z) = 0.53740 0.03132
#
# Static dielectric constant tensor:
#      x y z
#    x 3.367910 0.000000 0.554210 
#    y 0.000000 2.972920 0.000000 
#    z 0.554210 0.000000 2.744820 
# 
# 
# High freq. dielectric constant tensor:
#      x y z
#    x 1.610570 0.000000 0.049480 
#    y 0.000000 1.604480 0.000000 
#    z 0.049480 0.000000 1.543840 
# 
# From -- ./inp_files/61688.got.cif
#   From: 2010.06.25/outbox.cif.g09.slc.cpg/sg11_31_cif.got.tgz:61688.got - 2010.06.27 23:14:04.
