data_PCOD8068160
_publ_section_title
;
Structure prediction by ZEFSAII (Michael W. Deem and Ramdas Pophale) SiO2 
 PCOD8068160
Probable space group: P 21/M
;
_chemical_formula_sum "Si O2"
_cell_formula_units_Z 28
_cell_length_a 12.150178
_cell_length_b 19.422513
_cell_length_c 12.822453
_cell_angle_alpha 90.000000
_cell_angle_beta 32.687280
_cell_angle_gamma 90.000000
_cell_volume 1634.165176
_symmetry_space_group_name_H-M "P 21/M"
_symmetry_group_IT_number 11
_symmetry_cell_setting 'monoclinic'
loop_
_space_group_symop_operation_xyz
x,y,z
-x,1/2+y,-z
-x,-y,-z
x,1/2-y,z
loop_
_atom_site_type_symbol
_atom_site_label
_atom_site_fract_x
_atom_site_fract_y
_atom_site_fract_z
Si Si1 0.737404 0.960226 0.909085
Si Si2 0.220667 0.830569 0.058345
Si Si3 0.911138 0.566652 0.376232
Si Si4 0.193641 0.066655 0.925654
Si Si5 0.207254 0.592630 0.861748
Si Si6 0.586544 0.919956 0.817478
Si Si7 0.402437 0.072861 0.556568
O O1 0.696479 0.912098 0.841756
O O2 0.743148 0.911520 0.007735
O O3 0.954542 0.997767 0.721225
O O4 0.554224 0.013246 0.070833
O O5 0.197353 0.750000 0.091288
O O6 0.059521 0.867149 0.264013
O O7 0.162825 0.852389 0.987033
O O8 0.451560 0.852591 0.902063
O O9 0.754761 0.570568 0.595095
O O10 0.795926 0.565382 0.357319
O O11 0.333232 0.102273 0.724750
O O12 0.216284 0.983466 0.905186
O O13 0.963922 0.092507 0.090622
O O14 0.421195 0.617424 0.639161
O O15 0.500000 0.000000 0.500000
#
# Coordination Sequence:
#
# PCOD8068160 Si02
#       7
#     4   4   4   4   4   4   4
#     4  10  19  31  51  78 107 135 161 204 265 318
#     4  11  22  36  52  72 103 141 179 213 244 292
#     4  11  18  33  49  78 108 131 169 209 258 305
#     4  10  16  29  49  76 107 130 157 205 261 310
#     4  10  17  31  47  75 105 132 166 206 253 301
#     4  10  20  34  50  74 106 135 171 211 253 302
#     4  10  17  25  50  76 107 135 156 200 261 314
#
# _framework density 17.134132000000001
#
# number of rings (size 3 to 8) (size 9 to 14) (size 15 to 20)
#    0.000    1.714    5.714    3.000    0.000    0.571 
#    0.000    0.000    0.000    0.857    0.000    2.000 
#    0.000    0.000    0.000    0.000    0.000    0.000 
#
# Total GULP energy -347078.826860 kJ/mol
# GULP energy per Si atom -12395.672388 kJ/mol
# Density = 1.709513 g / cm^3
# Si number density = 17.134132 Si / 1000 Ang^3
#
#
#
# Elastic Constant Matrix: (Units=GPa)
#
#
# Indices 1 2 3 4 5 6 
#
# 1 129.5992 17.5917 43.3459 0.0000 13.0593 0.0000
# 2 17.5917 38.4240 13.7796 0.0000 0.7229 0.0000
# 3 43.3459 13.7796 112.2404 0.0000 -3.3882 0.0000
# 4 0.0000 0.0000 0.0000 8.0043 0.0000 0.7298
# 5 13.0593 0.7229 -3.3882 0.0000 30.4410 0.0000
# 6 0.0000 0.0000 0.0000 0.7298 0.0000 13.3583
#
#
#
# Elastic Compliance Matrix: (Units=1/GPa)
#
#
# Indices 1 2 3 4 5 6 
#
# 1 0.009775 -0.003125 -0.003527 0.000000 -0.004512 0.000000
# 2 -0.003125 0.028255 -0.002249 0.000000 0.000419 0.000000
# 3 -0.003527 -0.002249 0.010631 0.000000 0.002750 0.000000
# 4 0.000000 0.000000 0.000000 0.125558 0.000000 -0.006860
# 5 -0.004512 0.000419 0.002750 0.000000 0.035082 0.000000
# 6 0.000000 0.000000 0.000000 -0.006860 0.000000 0.075235
#
#
# Mechanical properties :
#
#
# Convention : Reuss Voigt Hill
#
# Bulk Modulus (GPa) = 32.40785 47.74422 40.07603
# Shear Modulus (GPa) = 15.99360 24.06381 20.02870
#
# Velocity S-wave (km/s) = 3.05853 3.75165 3.42268
# Velocity P-wave (km/s) = 5.60608 6.83315 6.24980
#
# Compressibility (1/GPa) = 0.03085672
#
# Stress axis : x y z
#
# Youngs Moduli (GPa) = 102.30451 35.39200 94.06601
#
# Poissons Ratio (x) = 0.11061 0.33181
# Poissons Ratio (y) = 0.31973 0.21157
# Poissons Ratio (z) = 0.36087 0.07960
#
# Static dielectric constant tensor:
#      x y z
#    x 3.519530 0.000000 0.073950 
#    y 0.000000 2.540760 0.000000 
#    z 0.073950 0.000000 -0.941450 
# 
# 
# High freq. dielectric constant tensor:
#      x y z
#    x 1.672390 0.000000 -0.003870 
#    y 0.000000 1.581760 0.000000 
#    z -0.003870 0.000000 1.685280 
# 
# From -- ./inp_files/36253.got.cif
#   From: 2010.06.25/outbox.cif.g09.slc.cpg/sg11_19_cif.got.tgz:36253.got - 2010.06.27 23:14:04.
