data_PCOD8068562
_publ_section_title
;
Structure prediction by ZEFSAII (Michael W. Deem and Ramdas Pophale) SiO2 
 PCOD8068562
Probable space group: P 21/M
;
_chemical_formula_sum "Si O2"
_cell_formula_units_Z 32
_cell_length_a 12.630853
_cell_length_b 9.341860
_cell_length_c 23.512730
_cell_angle_alpha 90.000000
_cell_angle_beta 46.650542
_cell_angle_gamma 90.000000
_cell_volume 2017.489613
_symmetry_space_group_name_H-M "P 21/M"
_symmetry_group_IT_number 11
_symmetry_cell_setting 'monoclinic'
loop_
_space_group_symop_operation_xyz
x,y,z
-x,1/2+y,-z
-x,-y,-z
x,1/2-y,z
loop_
_atom_site_type_symbol
_atom_site_label
_atom_site_fract_x
_atom_site_fract_y
_atom_site_fract_z
Si Si1 0.252498 0.080504 0.665055
Si Si2 0.097055 0.912276 0.005991
Si Si3 0.602204 0.086227 0.703762
Si Si4 0.816836 0.583508 0.432915
Si Si5 0.566347 0.085946 0.585323
Si Si6 0.930797 0.416153 0.577484
Si Si7 0.863735 0.582248 0.174367
Si Si8 0.658797 0.082092 0.161802
O O1 0.250883 0.250000 0.665056
O O2 0.188053 0.020682 0.629509
O O3 0.418748 0.027264 0.610830
O O4 0.153656 0.027140 0.754379
O O5 0.065056 0.750000 0.001458
O O6 0.266928 0.944184 0.928490
O O7 0.034746 0.941671 0.092868
O O8 0.000000 0.000000 0.000000
O O9 0.590260 0.250000 0.728638
O O10 0.547940 0.069352 0.659386
O O11 0.767318 0.029823 0.649365
O O12 0.500419 0.988975 0.781327
O O13 0.776105 0.750000 0.448218
O O14 0.700840 0.506539 0.515258
O O15 0.977080 0.556858 0.399195
O O16 0.596728 0.250000 0.557482
O O17 0.928461 0.250000 0.560700
O O18 0.000000 0.500000 0.500000
O O19 0.819371 0.750000 0.185734
O O20 0.756436 0.492063 0.174134
O O21 0.643895 0.250000 0.181138
#
# Coordination Sequence:
#
# PCOD8068562 Si02
#       8
#     4   4   4   4   4   4   4   4
#     4   9  17  29  45  65  88 115 146 175 207 256
#     4   8  15  25  40  62  88 116 143 171 208 256
#     4  10  19  31  46  63  85 118 151 175 213 266
#     4  10  20  32  46  65  86 110 145 187 221 246
#     4  10  18  30  46  63  87 117 147 174 208 262
#     4  10  20  33  48  64  84 111 146 186 222 257
#     4   9  15  28  46  62  88 124 147 165 209 267
#     4  10  18  27  41  67  94 112 142 185 217 248
#
# _framework density 15.861295999999999
#
# number of rings (size 3 to 8) (size 9 to 14) (size 15 to 20)
#    0.000    2.500    2.500    0.750    0.000    1.500 
#    0.000    0.625    0.000    0.000    0.000    0.875 
#    0.000    0.000    0.000    0.000    0.000    0.000 
#
# Total GULP energy -396519.567814 kJ/mol
# GULP energy per Si atom -12391.236494 kJ/mol
# Density = 1.582519 g / cm^3
# Si number density = 15.861296 Si / 1000 Ang^3
#
#
#
# Elastic Constant Matrix: (Units=GPa)
#
#
# Indices 1 2 3 4 5 6 
#
# 1 76.8516 21.4523 36.1759 0.0000 -14.1768 0.0000
# 2 21.4523 45.8458 41.6702 0.0000 -9.9145 0.0000
# 3 36.1759 41.6702 117.4611 0.0000 -24.2890 0.0000
# 4 0.0000 0.0000 0.0000 22.4978 0.0000 -5.4992
# 5 -14.1768 -9.9145 -24.2890 0.0000 18.0812 0.0000
# 6 0.0000 0.0000 0.0000 -5.4992 0.0000 13.8334
#
#
#
# Elastic Compliance Matrix: (Units=1/GPa)
#
#
# Indices 1 2 3 4 5 6 
#
# 1 0.016603 -0.004269 -0.001926 0.000000 0.008089 0.000000
# 2 -0.004269 0.033424 -0.010309 0.000000 0.001133 0.000000
# 3 -0.001926 -0.010309 0.015622 0.000000 0.013823 0.000000
# 4 0.000000 0.000000 0.000000 0.049233 0.000000 0.019572
# 5 0.008089 0.001133 0.013823 0.000000 0.080838 0.000000
# 6 0.000000 0.000000 0.000000 0.019572 0.000000 0.080069
#
#
# Mechanical properties :
#
#
# Convention : Reuss Voigt Hill
#
# Bulk Modulus (GPa) = 30.63530 48.75059 39.69294
# Shear Modulus (GPa) = 15.64080 20.27316 17.95698
#
# Velocity S-wave (km/s) = 3.14363 3.57900 3.36836
# Velocity P-wave (km/s) = 5.70377 6.91963 6.34091
#
# Compressibility (1/GPa) = 0.03264208
#
# Stress axis : x y z
#
# Youngs Moduli (GPa) = 60.23158 29.91827 64.01191
#
# Poissons Ratio (x) = 0.12771 0.12330
# Poissons Ratio (y) = 0.25710 0.65988
# Poissons Ratio (z) = 0.11602 0.30842
#
# Static dielectric constant tensor:
#      x y z
#    x 2.914180 0.000000 -0.021160 
#    y 0.000000 2.908790 0.000000 
#    z -0.021160 0.000000 3.528100 
# 
# 
# High freq. dielectric constant tensor:
#      x y z
#    x 1.571940 0.000000 -0.009790 
#    y 0.000000 1.600720 0.000000 
#    z -0.009790 0.000000 1.619560 
# 
# From -- ./inp_files/43748.got.cif
#   From: 2010.06.25/outbox.cif.g09.slc.cpg/sg11_22_cif.got.tgz:43748.got - 2010.06.27 23:14:04.
