data_PCOD8068763
_publ_section_title
;
Structure prediction by ZEFSAII (Michael W. Deem and Ramdas Pophale) SiO2 
 PCOD8068763
Probable space group: P 21/M
;
_chemical_formula_sum "Si O2"
_cell_formula_units_Z 32
_cell_length_a 28.745470
_cell_length_b 8.921209
_cell_length_c 19.620866
_cell_angle_alpha 90.000000
_cell_angle_beta 23.454066
_cell_angle_gamma 90.000000
_cell_volume 2002.669843
_symmetry_space_group_name_H-M "P 21/M"
_symmetry_group_IT_number 11
_symmetry_cell_setting 'monoclinic'
loop_
_space_group_symop_operation_xyz
x,y,z
-x,1/2+y,-z
-x,-y,-z
x,1/2-y,z
loop_
_atom_site_type_symbol
_atom_site_label
_atom_site_fract_x
_atom_site_fract_y
_atom_site_fract_z
Si Si1 0.756655 0.072851 0.902189
Si Si2 0.935228 0.081660 0.892952
Si Si3 0.338812 0.916593 0.753505
Si Si4 0.021578 0.925467 0.310368
Si Si5 0.326254 0.576675 0.619266
Si Si6 0.916817 0.573344 0.056908
Si Si7 0.111369 0.425838 0.384206
Si Si8 0.429135 0.422425 0.760479
O O1 0.758287 0.250000 0.892644
O O2 0.860951 0.010938 0.810802
O O3 0.773714 0.001990 0.803320
O O4 0.632126 0.021896 0.099289
O O5 0.980470 0.250000 0.848905
O O6 0.996828 0.012054 0.741846
O O7 0.960281 0.976643 0.923710
O O8 0.799976 0.085914 0.056694
O O9 0.386797 0.750000 0.707079
O O10 0.376524 0.966073 0.626620
O O11 0.385542 0.036540 0.743881
O O12 0.044422 0.750000 0.272082
O O13 0.904963 0.957239 0.512508
O O14 0.284760 0.750000 0.676541
O O15 0.430636 0.550464 0.424873
O O16 0.215744 0.475810 0.748642
O O17 0.925933 0.750000 0.049992
O O18 0.000000 0.500000 0.000000
O O19 0.112989 0.250000 0.366873
O O20 0.000000 0.500000 0.500000
O O21 0.398672 0.250000 0.815010
#
# Coordination Sequence:
#
# PCOD8068763 Si02
#       8
#     4   4   4   4   4   4   4   4
#     4  10  18  29  41  57  86 126 161 190 228 264
#     4   9  16  30  48  67  91 121 151 185 227 270
#     4   9  16  28  44  60  88 123 150 181 224 267
#     4   8  14  26  43  60  85 119 152 186 226 264
#     4   9  20  35  47  63  88 118 149 186 229 270
#     4  11  22  36  53  71  89 114 146 186 231 277
#     4   9  16  26  40  60  84 117 157 192 226 265
#     4  11  20  28  42  64  90 119 155 193 224 261
#
# _framework density 15.978669999999999
#
# number of rings (size 3 to 8) (size 9 to 14) (size 15 to 20)
#    0.000    2.500    1.250    4.125    0.000    3.000 
#    0.000    1.250    0.000    0.000    0.000    0.000 
#    0.000    1.000    0.000    3.000    0.000    4.000 
#
# Total GULP energy -396567.974563 kJ/mol
# GULP energy per Si atom -12392.749205 kJ/mol
# Density = 1.594230 g / cm^3
# Si number density = 15.978670 Si / 1000 Ang^3
#
#
#
# Elastic Constant Matrix: (Units=GPa)
#
#
# Indices 1 2 3 4 5 6 
#
# 1 71.3306 38.4533 50.3595 0.0000 17.0526 0.0000
# 2 38.4533 89.9147 42.2984 0.0000 10.8422 0.0000
# 3 50.3595 42.2984 92.3573 0.0000 32.7579 0.0000
# 4 0.0000 0.0000 0.0000 24.3775 0.0000 4.3331
# 5 17.0526 10.8422 32.7579 0.0000 23.1907 0.0000
# 6 0.0000 0.0000 0.0000 4.3331 0.0000 21.5694
#
#
#
# Elastic Compliance Matrix: (Units=1/GPa)
#
#
# Indices 1 2 3 4 5 6 
#
# 1 0.024683 -0.005397 -0.010911 0.000000 -0.000214 0.000000
# 2 -0.005397 0.015663 -0.006094 0.000000 0.005254 0.000000
# 3 -0.010911 -0.006094 0.031487 0.000000 -0.033605 0.000000
# 4 0.000000 0.000000 0.000000 0.042540 0.000000 -0.008546
# 5 -0.000214 0.005254 -0.033605 0.000000 0.088290 0.000000
# 6 0.000000 0.000000 0.000000 -0.008546 0.000000 0.048079
#
#
# Mechanical properties :
#
#
# Convention : Reuss Voigt Hill
#
# Bulk Modulus (GPa) = 36.99777 57.31388 47.15583
# Shear Modulus (GPa) = 16.41724 21.99360 19.20542
#
# Velocity S-wave (km/s) = 3.20886 3.71406 3.47066
# Velocity P-wave (km/s) = 6.07732 7.37151 6.75548
#
# Compressibility (1/GPa) = 0.02702865
#
# Stress axis : x y z
#
# Youngs Moduli (GPa) = 40.51307 63.84391 31.75909
#
# Poissons Ratio (x) = 0.34460 0.34652
# Poissons Ratio (y) = 0.21867 0.19354
# Poissons Ratio (z) = 0.44204 0.38906
#
# Static dielectric constant tensor:
#      x y z
#    x 2.998610 0.000000 0.545500 
#    y 0.000000 3.046740 0.000000 
#    z 0.545500 0.000000 3.264300 
# 
# 
# High freq. dielectric constant tensor:
#      x y z
#    x 1.571970 0.000000 0.039190 
#    y 0.000000 1.613590 0.000000 
#    z 0.039190 0.000000 1.603470 
# 
# From -- ./inp_files/67413.got.cif
#   From: 2010.06.25/outbox.cif.g09.slc.cpg/sg11_34_cif.got.tgz:67413.got - 2010.06.27 23:14:04.
