data_PCOD8068873
_publ_section_title
;
Structure prediction by ZEFSAII (Michael W. Deem and Ramdas Pophale) SiO2 
 PCOD8068873
Probable space group: P 21/M
;
_chemical_formula_sum "Si O2"
_cell_formula_units_Z 32
_cell_length_a 15.795080
_cell_length_b 9.037960
_cell_length_c 15.801274
_cell_angle_alpha 90.000000
_cell_angle_beta 54.827951
_cell_angle_gamma 90.000000
_cell_volume 1843.880618
_symmetry_space_group_name_H-M "P 21/M"
_symmetry_group_IT_number 11
_symmetry_cell_setting 'monoclinic'
loop_
_space_group_symop_operation_xyz
x,y,z
-x,1/2+y,-z
-x,-y,-z
x,1/2-y,z
loop_
_atom_site_type_symbol
_atom_site_label
_atom_site_fract_x
_atom_site_fract_y
_atom_site_fract_z
Si Si1 0.862329 0.425760 0.911509
Si Si2 0.442923 0.076806 0.156596
Si Si3 0.172824 0.921927 0.882495
Si Si4 0.651727 0.077097 0.943866
Si Si5 0.387255 0.922572 0.677046
Si Si6 0.723796 0.076788 0.424336
Si Si7 0.576077 0.076304 0.654743
Si Si8 0.931525 0.425842 0.226883
O O1 0.871149 0.250000 0.906284
O O2 0.759807 0.475857 0.920907
O O3 0.961773 0.495827 0.807975
O O4 0.856556 0.492729 0.010107
O O5 0.424316 0.250000 0.174509
O O6 0.363974 0.012087 0.133390
O O7 0.416804 0.005950 0.261087
O O8 0.560946 0.039318 0.062973
O O9 0.150268 0.750000 0.900544
O O10 0.293855 0.949183 0.796290
O O11 0.102490 0.985096 0.846735
O O12 0.651047 0.250000 0.922322
O O13 0.420182 0.750000 0.657170
O O14 0.352802 0.984283 0.604772
O O15 0.481161 0.022379 0.653194
O O16 0.726504 0.250000 0.404591
O O17 0.681018 0.038294 0.541879
O O18 0.842067 0.020604 0.344306
O O19 0.565209 0.250000 0.677119
O O20 0.946492 0.250000 0.220316
#
# Coordination Sequence:
#
# PCOD8068873 Si02
#       8
#     4   4   4   4   4   4   4   4
#     4  10  18  29  47  71  97 124 154 190 237 283
#     4  10  20  35  54  74  96 124 156 189 230 285
#     4   8  15  28  46  67  96 131 159 187 229 280
#     4   9  19  35  53  73  99 126 150 186 239 290
#     4   9  16  30  49  68  94 130 167 196 229 279
#     4   8  17  32  48  66  94 132 166 197 236 278
#     4  11  20  30  47  72  99 126 158 197 241 283
#     4   9  17  31  48  66  92 129 168 197 224 266
#
# _framework density 17.354704000000002
#
# number of rings (size 3 to 8) (size 9 to 14) (size 15 to 20)
#    0.000    2.750    0.000    3.750    0.000    3.000 
#    0.000    6.250    0.000    0.750    0.000    0.000 
#    0.000    0.000    0.000    0.000    0.000    0.000 
#
# Total GULP energy -396693.182094 kJ/mol
# GULP energy per Si atom -12396.661940 kJ/mol
# Density = 1.731520 g / cm^3
# Si number density = 17.354704 Si / 1000 Ang^3
#
#
#
# Elastic Constant Matrix: (Units=GPa)
#
#
# Indices 1 2 3 4 5 6 
#
# 1 120.1363 39.8554 69.1751 0.0000 -10.0360 0.0000
# 2 39.8554 39.4784 38.9818 0.0000 3.2286 0.0000
# 3 69.1751 38.9818 120.2389 0.0000 5.0747 0.0000
# 4 0.0000 0.0000 0.0000 23.7254 0.0000 -0.3541
# 5 -10.0360 3.2286 5.0747 0.0000 20.7912 0.0000
# 6 0.0000 0.0000 0.0000 -0.3541 0.0000 27.9481
#
#
#
# Elastic Compliance Matrix: (Units=1/GPa)
#
#
# Indices 1 2 3 4 5 6 
#
# 1 0.016814 -0.011595 -0.006398 0.000000 0.011478 0.000000
# 2 -0.011595 0.045423 -0.007600 0.000000 -0.010796 0.000000
# 3 -0.006398 -0.007600 0.014694 0.000000 -0.005495 0.000000
# 4 0.000000 0.000000 0.000000 0.042157 0.000000 0.000534
# 5 0.011478 -0.010796 -0.005495 0.000000 0.056655 0.000000
# 6 0.000000 0.000000 0.000000 0.000534 0.000000 0.035787
#
#
# Mechanical properties :
#
#
# Convention : Reuss Voigt Hill
#
# Bulk Modulus (GPa) = 38.84425 63.98648 51.41536
# Shear Modulus (GPa) = 18.42990 23.28236 20.85613
#
# Velocity S-wave (km/s) = 3.26230 3.66670 3.47040
# Velocity P-wave (km/s) = 6.05155 7.40784 6.76378
#
# Compressibility (1/GPa) = 0.02574384
#
# Stress axis : x y z
#
# Youngs Moduli (GPa) = 59.47547 22.01518 68.05616
#
# Poissons Ratio (x) = 0.25526 0.43545
# Poissons Ratio (y) = 0.68961 0.51723
# Poissons Ratio (z) = 0.38055 0.16731
#
# Static dielectric constant tensor:
#      x y z
#    x 3.187240 0.000000 -0.038050 
#    y 0.000000 2.967660 0.000000 
#    z -0.038050 0.000000 3.444160 
# 
# 
# High freq. dielectric constant tensor:
#      x y z
#    x 1.658030 0.000000 -0.007660 
#    y 0.000000 1.648240 0.000000 
#    z -0.007660 0.000000 1.669340 
# 
# From -- ./inp_files/51615.got.cif
#   From: 2010.06.25/outbox.cif.g09.slc.cpg/sg11_26_cif.got.tgz:51615.got - 2010.06.27 23:14:04.
