data_PCOD8068987
_publ_section_title
;
Structure prediction by ZEFSAII (Michael W. Deem and Ramdas Pophale) SiO2 
 PCOD8068987
Probable space group: P 21/M
;
_chemical_formula_sum "Si O2"
_cell_formula_units_Z 32
_cell_length_a 12.818241
_cell_length_b 8.817829
_cell_length_c 22.498297
_cell_angle_alpha 90.000000
_cell_angle_beta 124.908002
_cell_angle_gamma 90.000000
_cell_volume 2085.411260
_symmetry_space_group_name_H-M "P 21/M"
_symmetry_group_IT_number 11
_symmetry_cell_setting 'monoclinic'
loop_
_space_group_symop_operation_xyz
x,y,z
-x,1/2+y,-z
-x,-y,-z
x,1/2-y,z
loop_
_atom_site_type_symbol
_atom_site_label
_atom_site_fract_x
_atom_site_fract_y
_atom_site_fract_z
Si Si1 0.321246 0.572190 0.702615
Si Si2 0.200937 0.423843 0.079596
Si Si3 0.465024 0.928486 0.164278
Si Si4 0.427587 0.570211 0.920860
Si Si5 0.871560 0.922102 0.285884
Si Si6 0.903364 0.921787 0.424544
Si Si7 0.956029 0.424737 0.071609
Si Si8 0.867110 0.073724 0.170510
O O1 0.336763 0.750000 0.698831
O O2 0.458559 0.493286 0.753276
O O3 0.251343 0.530261 0.742368
O O4 0.235744 0.503760 0.620511
O O5 0.246471 0.250000 0.090017
O O6 0.318863 0.533314 0.129462
O O7 0.103086 0.447024 0.102134
O O8 0.133095 0.467585 0.996144
O O9 0.484273 0.750000 0.165669
O O10 0.510165 0.006141 0.118465
O O11 0.444322 0.750000 0.926685
O O12 0.279993 0.523854 0.879631
O O13 0.500000 0.500000 0.000000
O O14 0.825077 0.750000 0.260915
O O15 0.958684 0.929957 0.374424
O O16 0.937809 0.985456 0.248005
O O17 0.884255 0.750000 0.439476
O O18 0.000000 0.000000 0.500000
O O19 0.913181 0.250000 0.048278
O O20 0.938607 0.475125 0.133945
O O21 0.883332 0.250000 0.187878
#
# Coordination Sequence:
#
# PCOD8068987 Si02
#       8
#     4   4   4   4   4   4   4   4
#     4  10  18  30  46  65  91 122 153 186 228 272
#     4  10  20  34  51  68  88 117 157 201 247 290
#     4  12  22  33  47  64  91 121 156 195 234 280
#     4  11  21  30  43  64  89 116 148 184 230 282
#     4   9  18  29  43  65  92 121 152 183 220 267
#     4   9  17  28  44  67  96 129 160 186 219 263
#     4   9  19  35  51  69  90 115 154 202 246 289
#     4  10  19  31  47  64  88 120 151 187 234 280
#
# _framework density 15.344696000000001
#
# number of rings (size 3 to 8) (size 9 to 14) (size 15 to 20)
#    0.750    1.250    1.250    4.125    0.000    2.500 
#    0.000    0.000    0.000    0.000    0.000    0.000 
#    0.000    1.000    0.000    3.000    0.000    4.625 
#
# Total GULP energy -396570.851858 kJ/mol
# GULP energy per Si atom -12392.839121 kJ/mol
# Density = 1.530977 g / cm^3
# Si number density = 15.344696 Si / 1000 Ang^3
#
#
#
# Elastic Constant Matrix: (Units=GPa)
#
#
# Indices 1 2 3 4 5 6 
#
# 1 68.1731 29.4760 36.7901 0.0000 -1.8183 0.0000
# 2 29.4760 95.5923 44.5029 0.0000 1.2395 0.0000
# 3 36.7901 44.5029 95.8947 0.0000 1.7679 0.0000
# 4 0.0000 0.0000 0.0000 29.5599 0.0000 -0.3283
# 5 -1.8183 1.2395 1.7679 0.0000 15.8026 0.0000
# 6 0.0000 0.0000 0.0000 -0.3283 0.0000 18.3530
#
#
#
# Elastic Compliance Matrix: (Units=1/GPa)
#
#
# Indices 1 2 3 4 5 6 
#
# 1 0.019384 -0.003226 -0.005998 0.000000 0.003154 0.000000
# 2 -0.003226 0.013883 -0.005189 0.000000 -0.000880 0.000000
# 3 -0.005998 -0.005189 0.015174 0.000000 -0.001981 0.000000
# 4 0.000000 0.000000 0.000000 0.033836 0.000000 0.000605
# 5 0.003154 -0.000880 -0.001981 0.000000 0.063934 0.000000
# 6 0.000000 0.000000 0.000000 0.000605 0.000000 0.054498
#
#
# Mechanical properties :
#
#
# Convention : Reuss Voigt Hill
#
# Bulk Modulus (GPa) = 50.97977 53.46646 52.22311
# Shear Modulus (GPa) = 21.17984 22.66915 21.92450
#
# Velocity S-wave (km/s) = 3.71923 3.84777 3.78405
# Velocity P-wave (km/s) = 7.19297 7.39322 7.29378
#
# Compressibility (1/GPa) = 0.01961562
#
# Stress axis : x y z
#
# Youngs Moduli (GPa) = 51.58835 72.03099 65.90280
#
# Poissons Ratio (x) = 0.23235 0.39528
# Poissons Ratio (y) = 0.16641 0.34197
# Poissons Ratio (z) = 0.30942 0.37377
#
# Static dielectric constant tensor:
#      x y z
#    x 2.779760 0.000000 -0.003030 
#    y 0.000000 3.025850 0.000000 
#    z -0.003030 0.000000 2.877760 
# 
# 
# High freq. dielectric constant tensor:
#      x y z
#    x 1.554020 0.000000 -0.002460 
#    y 0.000000 1.606200 0.000000 
#    z -0.002460 0.000000 1.573590 
# 
# From -- ./inp_files/68339.got.cif
#   From: 2010.06.25/outbox.cif.g09.slc.cpg/sg11_35_cif.got.tgz:68339.got - 2010.06.27 23:14:04.
