data_PCOD8068642
_publ_section_title
;
Structure prediction by ZEFSAII (Michael W. Deem and Ramdas Pophale) SiO2 
 PCOD8068642
Probable space group: P 21/M
;
_chemical_formula_sum "Si O2"
_cell_formula_units_Z 32
_cell_length_a 16.300329
_cell_length_b 9.000093
_cell_length_c 20.516043
_cell_angle_alpha 90.000000
_cell_angle_beta 138.254811
_cell_angle_gamma 90.000000
_cell_volume 2003.978992
_symmetry_space_group_name_H-M "P 21/M"
_symmetry_group_IT_number 11
_symmetry_cell_setting 'monoclinic'
loop_
_space_group_symop_operation_xyz
x,y,z
-x,1/2+y,-z
-x,-y,-z
x,1/2-y,z
loop_
_atom_site_type_symbol
_atom_site_label
_atom_site_fract_x
_atom_site_fract_y
_atom_site_fract_z
Si Si1 0.284201 0.426824 0.013157
Si Si2 0.818136 0.913939 0.913218
Si Si3 0.893830 0.420198 0.476056
Si Si4 0.509583 0.926310 0.075816
Si Si5 0.919677 0.085050 0.862419
Si Si6 0.999034 0.920956 0.649053
Si Si7 0.039734 0.575892 0.820845
Si Si8 0.254535 0.579585 0.732690
O O1 0.292652 0.250000 0.007280
O O2 0.166084 0.486332 0.904272
O O3 0.273824 0.466700 0.083967
O O4 0.404185 0.509017 0.059253
O O5 0.780971 0.750000 0.866834
O O6 0.814049 0.022034 0.848269
O O7 0.953473 0.909104 0.023719
O O8 0.929817 0.250000 0.504751
O O9 0.890192 0.490791 0.546382
O O10 0.769239 0.438336 0.359445
O O11 0.000000 0.500000 0.500000
O O12 0.495669 0.750000 0.061193
O O13 0.639562 0.966113 0.184860
O O14 0.500000 0.000000 0.000000
O O15 0.880399 0.250000 0.816648
O O16 0.934879 0.979720 0.808633
O O17 0.975120 0.750000 0.620168
O O18 0.988503 0.957952 0.718804
O O19 0.134220 0.965349 0.702962
O O20 0.065594 0.750000 0.847207
O O21 0.292727 0.750000 0.771254
#
# Coordination Sequence:
#
# PCOD8068642 Si02
#       8
#     4   4   4   4   4   4   4   4
#     4  10  20  33  47  63  85 115 151 189 223 259
#     4   8  15  27  42  59  80 109 144 180 219 259
#     4   9  17  29  47  66  85 110 140 178 220 261
#     4  12  24  35  48  65  87 118 152 186 221 256
#     4   9  16  25  39  60  85 114 146 179 215 257
#     4   9  18  30  45  65  89 116 145 179 219 261
#     4  10  18  28  43  64  92 122 149 180 218 261
#     4   9  18  33  48  64  87 114 147 185 222 258
#
# _framework density 15.96823
#
# number of rings (size 3 to 8) (size 9 to 14) (size 15 to 20)
#    0.000    2.500    0.000    4.875    0.000    8.000 
#    0.000    0.000    0.000    0.000    0.000    0.000 
#    0.000    1.000    0.000    3.250    0.000    4.250 
#
# Total GULP energy -396649.206948 kJ/mol
# GULP energy per Si atom -12395.287717 kJ/mol
# Density = 1.593189 g / cm^3
# Si number density = 15.968230 Si / 1000 Ang^3
#
#
#
# Elastic Constant Matrix: (Units=GPa)
#
#
# Indices 1 2 3 4 5 6 
#
# 1 107.2238 55.3184 39.5762 0.0000 -14.9207 0.0000
# 2 55.3184 111.2398 46.5502 0.0000 -12.3496 0.0000
# 3 39.5762 46.5502 67.6087 0.0000 -15.5933 0.0000
# 4 0.0000 0.0000 0.0000 25.2293 0.0000 -3.9582
# 5 -14.9207 -12.3496 -15.5933 0.0000 16.6813 0.0000
# 6 0.0000 0.0000 0.0000 -3.9582 0.0000 27.8074
#
#
#
# Elastic Compliance Matrix: (Units=1/GPa)
#
#
# Indices 1 2 3 4 5 6 
#
# 1 0.013885 -0.004809 -0.003536 0.000000 0.005554 0.000000
# 2 -0.004809 0.014325 -0.007132 0.000000 -0.000363 0.000000
# 3 -0.003536 -0.007132 0.025273 0.000000 0.015182 0.000000
# 4 0.000000 0.000000 0.000000 0.040542 0.000000 0.005771
# 5 0.005554 -0.000363 0.015182 0.000000 0.078839 0.000000
# 6 0.000000 0.000000 0.000000 0.005771 0.000000 0.036783
#
#
# Mechanical properties :
#
#
# Convention : Reuss Voigt Hill
#
# Bulk Modulus (GPa) = 44.38552 63.21799 53.80176
# Shear Modulus (GPa) = 20.15234 23.58543 21.86888
#
# Velocity S-wave (km/s) = 3.55636 3.84737 3.70472
# Velocity P-wave (km/s) = 6.68730 7.70793 7.21569
#
# Compressibility (1/GPa) = 0.02252987
#
# Stress axis : x y z
#
# Youngs Moduli (GPa) = 72.01911 69.80758 39.56787
#
# Poissons Ratio (x) = 0.33568 0.13992
# Poissons Ratio (y) = 0.34631 0.28220
# Poissons Ratio (z) = 0.25467 0.49787
#
# Static dielectric constant tensor:
#      x y z
#    x 3.132060 0.000000 -0.251220 
#    y 0.000000 3.329910 0.000000 
#    z -0.251220 0.000000 2.888100 
# 
# 
# High freq. dielectric constant tensor:
#      x y z
#    x 1.602870 0.000000 -0.026610 
#    y 0.000000 1.629220 0.000000 
#    z -0.026610 0.000000 1.572170 
# 
# From -- ./inp_files/65222.got.cif
#   From: 2010.06.25/outbox.cif.g09.slc.cpg/sg11_33_cif.got.tgz:65222.got - 2010.06.27 23:14:04.
