data_PCOD8068499
_publ_section_title
;
Structure prediction by ZEFSAII (Michael W. Deem and Ramdas Pophale) SiO2 
 PCOD8068499
Probable space group: P 21/M
;
_chemical_formula_sum "Si O2"
_cell_formula_units_Z 32
_cell_length_a 13.631475
_cell_length_b 9.356221
_cell_length_c 18.118590
_cell_angle_alpha 90.000000
_cell_angle_beta 110.270356
_cell_angle_gamma 90.000000
_cell_volume 2167.715009
_symmetry_space_group_name_H-M "P 21/M"
_symmetry_group_IT_number 11
_symmetry_cell_setting 'monoclinic'
loop_
_space_group_symop_operation_xyz
x,y,z
-x,1/2+y,-z
-x,-y,-z
x,1/2-y,z
loop_
_atom_site_type_symbol
_atom_site_label
_atom_site_fract_x
_atom_site_fract_y
_atom_site_fract_z
Si Si1 0.915316 0.415722 0.884470
Si Si2 0.114753 0.583813 0.954313
Si Si3 0.511344 0.583136 0.727113
Si Si4 0.716021 0.417738 0.739637
Si Si5 0.349607 0.592178 0.433452
Si Si6 0.421715 0.089673 0.576724
Si Si7 0.496717 0.586546 0.890990
Si Si8 0.343339 0.916856 0.977988
O O1 0.940813 0.250000 0.882434
O O2 0.824314 0.463691 0.805118
O O3 0.020321 0.500188 0.890688
O O4 0.878703 0.453809 0.957419
O O5 0.094063 0.750000 0.935976
O O6 0.222975 0.532862 0.945181
O O7 0.519579 0.750000 0.707613
O O8 0.625162 0.512374 0.751681
O O9 0.427939 0.505589 0.652130
O O10 0.468291 0.561545 0.798454
O O11 0.689957 0.250000 0.746258
O O12 0.726156 0.449640 0.654444
O O13 0.321890 0.750000 0.456469
O O14 0.465933 0.592796 0.431557
O O15 0.339021 0.480525 0.497899
O O16 0.383854 0.250000 0.586158
O O17 0.527616 0.750000 0.914186
O O18 0.395314 0.543512 0.913012
O O19 0.596323 0.493257 0.939668
O O20 0.348740 0.750000 0.997453
#
# Coordination Sequence:
#
# PCOD8068499 Si02
#       8
#     4   4   4   4   4   4   4   4
#     4   9  17  28  41  58  79 102 131 164 194 228
#     4   9  17  28  42  58  77 104 133 161 195 231
#     4  10  18  26  38  57  81 106 132 164 197 228
#     4   9  17  28  41  57  78 106 136 163 194 232
#     4   8  14  24  37  53  74 100 130 161 191 226
#     4   9  16  25  37  53  75 104 134 159 188 230
#     4   9  18  29  41  60  81 102 132 167 199 231
#     4   9  17  30  45  58  77 105 134 164 198 236
#
# _framework density 14.762088
#
# number of rings (size 3 to 8) (size 9 to 14) (size 15 to 20)
#    0.000    3.000    0.000    2.250    0.000    6.000 
#    0.000    2.500    0.000    0.000    0.000    0.000 
#    0.000    1.000    0.000    2.000    0.000    3.000 
#
# Total GULP energy -396720.900458 kJ/mol
# GULP energy per Si atom -12397.528139 kJ/mol
# Density = 1.472849 g / cm^3
# Si number density = 14.762088 Si / 1000 Ang^3
#
#
#
# Elastic Constant Matrix: (Units=GPa)
#
#
# Indices 1 2 3 4 5 6 
#
# 1 66.8275 33.2821 38.3999 0.0000 5.6854 0.0000
# 2 33.2821 70.7090 49.6407 0.0000 1.5847 0.0000
# 3 38.3999 49.6407 108.3148 0.0000 10.3379 0.0000
# 4 0.0000 0.0000 0.0000 25.5981 0.0000 3.3525
# 5 5.6854 1.5847 10.3379 0.0000 16.4211 0.0000
# 6 0.0000 0.0000 0.0000 3.3525 0.0000 17.8933
#
#
#
# Elastic Compliance Matrix: (Units=1/GPa)
#
#
# Indices 1 2 3 4 5 6 
#
# 1 0.021064 -0.007166 -0.003781 0.000000 -0.004221 0.000000
# 2 -0.007166 0.023573 -0.008812 0.000000 0.005754 0.000000
# 3 -0.003781 -0.008812 0.015326 0.000000 -0.007489 0.000000
# 4 0.000000 0.000000 0.000000 0.040048 0.000000 -0.007503
# 5 -0.004221 0.005754 -0.007489 0.000000 0.066518 0.000000
# 6 0.000000 0.000000 0.000000 -0.007503 0.000000 0.057293
#
#
# Mechanical properties :
#
#
# Convention : Reuss Voigt Hill
#
# Bulk Modulus (GPa) = 48.91002 54.27741 51.59371
# Shear Modulus (GPa) = 18.50787 20.28441 19.39614
#
# Velocity S-wave (km/s) = 3.54467 3.71089 3.62873
# Velocity P-wave (km/s) = 7.06803 7.43027 7.25141
#
# Compressibility (1/GPa) = 0.02044571
#
# Stress axis : x y z
#
# Youngs Moduli (GPa) = 47.47361 42.42137 65.24819
#
# Poissons Ratio (x) = 0.30399 0.24668
# Poissons Ratio (y) = 0.34020 0.57498
# Poissons Ratio (z) = 0.17948 0.37382
#
# Static dielectric constant tensor:
#      x y z
#    x 2.606430 0.000000 0.039750 
#    y 0.000000 2.983830 0.000000 
#    z 0.039750 0.000000 2.995500 
# 
# 
# High freq. dielectric constant tensor:
#      x y z
#    x 1.516760 0.000000 0.004150 
#    y 0.000000 1.573180 0.000000 
#    z 0.004150 0.000000 1.563970 
# 
# From -- ./inp_files/52972.got.cif
#   From: 2010.06.25/outbox.cif.g09.slc.cpg/sg11_27_cif.got.tgz:52972.got - 2010.06.27 23:14:04.
