data_PCOD8068983
_publ_section_title
;
Structure prediction by ZEFSAII (Michael W. Deem and Ramdas Pophale) SiO2 
 PCOD8068983
Probable space group: P 21/M
;
_chemical_formula_sum "Si O2"
_cell_formula_units_Z 24
_cell_length_a 15.309430
_cell_length_b 13.196968
_cell_length_c 9.978251
_cell_angle_alpha 90.000000
_cell_angle_beta 39.896707
_cell_angle_gamma 90.000000
_cell_volume 1293.064876
_symmetry_space_group_name_H-M "P 21/M"
_symmetry_group_IT_number 11
_symmetry_cell_setting 'monoclinic'
loop_
_space_group_symop_operation_xyz
x,y,z
-x,1/2+y,-z
-x,-y,-z
x,1/2-y,z
loop_
_atom_site_type_symbol
_atom_site_label
_atom_site_fract_x
_atom_site_fract_y
_atom_site_fract_z
Si Si1 0.320038 0.470682 0.272495
Si Si2 0.143048 0.630315 0.871707
Si Si3 0.485199 0.130325 0.871806
Si Si4 0.454721 0.869917 0.499932
Si Si5 0.350439 0.130599 0.500118
Si Si6 0.092437 0.029280 0.727627
O O1 0.387323 0.582574 0.195916
O O2 0.398892 0.406140 0.295863
O O3 0.158054 0.476862 0.500050
O O4 0.345073 0.414557 0.101250
O O5 0.126558 0.750000 0.882310
O O6 0.299021 0.596572 0.706559
O O7 0.083153 0.582621 0.804173
O O8 0.053788 0.585409 0.101105
O O9 0.491194 0.250000 0.882373
O O10 0.494188 0.096663 0.706854
O O11 0.465000 0.750000 0.500111
O O12 0.551970 0.919370 0.499954
O O13 0.358267 0.250000 0.500239
O O14 0.194646 0.093801 0.704317
#
# Coordination Sequence:
#
# PCOD8068983 Si02
#       6
#     4   4   4   4   4   4
#     4   9  19  30  47  71  92 126 162 188 237 284
#     4  10  18  30  45  69  99 123 154 199 236 278
#     4  10  18  30  45  69  99 123 154 199 236 278
#     4   9  17  29  49  74  96 123 155 195 243 276
#     4   9  17  31  48  72  98 121 158 199 234 276
#     4   9  19  30  47  71  92 126 162 188 237 284
#
# _framework density 18.560554
#
# number of rings (size 3 to 8) (size 9 to 14) (size 15 to 20)
#    1.000    1.667    1.667    1.000    0.000    2.667 
#    0.000    0.000    0.000    0.000    4.333    4.667 
#    0.000    0.000    0.000    0.000    0.000    0.000 
#
# Total GULP energy -297323.462623 kJ/mol
# GULP energy per Si atom -12388.477609 kJ/mol
# Density = 1.851831 g / cm^3
# Si number density = 18.560554 Si / 1000 Ang^3
#
#
#
# Elastic Constant Matrix: (Units=GPa)
#
#
# Indices 1 2 3 4 5 6 
#
# 1 40.5342 0.6845 18.2642 0.0000 -0.2136 0.0000
# 2 0.6845 48.7301 14.4432 0.0000 -0.6879 0.0000
# 3 18.2642 14.4432 159.0784 0.0000 -5.6775 0.0000
# 4 0.0000 0.0000 0.0000 27.6856 0.0000 -0.3457
# 5 -0.2136 -0.6879 -5.6775 0.0000 13.7898 0.0000
# 6 0.0000 0.0000 0.0000 -0.3457 0.0000 20.8137
#
#
#
# Elastic Compliance Matrix: (Units=1/GPa)
#
#
# Indices 1 2 3 4 5 6 
#
# 1 0.026039 0.000532 -0.003068 0.000000 -0.000833 0.000000
# 2 0.000532 0.021101 -0.001968 0.000000 0.000251 0.000000
# 3 -0.003068 -0.001968 0.006913 0.000000 0.002701 0.000000
# 4 0.000000 0.000000 0.000000 0.036127 0.000000 0.000600
# 5 -0.000833 0.000251 0.002701 0.000000 0.073629 0.000000
# 6 0.000000 0.000000 0.000000 0.000600 0.000000 0.048055
#
#
# Mechanical properties :
#
#
# Convention : Reuss Voigt Hill
#
# Bulk Modulus (GPa) = 22.19964 35.01405 28.60685
# Shear Modulus (GPa) = 21.19651 26.78787 23.99219
#
# Velocity S-wave (km/s) = 3.38304 3.80316 3.59924
# Velocity P-wave (km/s) = 5.21983 6.17989 5.72004
#
# Compressibility (1/GPa) = 0.04504577
#
# Stress axis : x y z
#
# Youngs Moduli (GPa) = 38.40330 47.39214 144.64510
#
# Poissons Ratio (x) = -0.02520 0.44372
# Poissons Ratio (y) = -0.02042 0.28464
# Poissons Ratio (z) = 0.11781 0.09326
#
# Static dielectric constant tensor:
#      x y z
#    x 3.017790 0.000000 -0.029620 
#    y 0.000000 3.456580 0.000000 
#    z -0.029620 0.000000 3.602320 
# 
# 
# High freq. dielectric constant tensor:
#      x y z
#    x 1.655710 0.000000 -0.003660 
#    y 0.000000 1.740910 0.000000 
#    z -0.003660 0.000000 1.728230 
# 
# From -- ./inp_files/21981.got.cif
#   From: 2010.06.25/outbox.cif.g09.slc.cpg/sg11_11_cif.got.tgz:21981.got - 2010.06.27 23:14:04.
