data_PCOD8068686
_publ_section_title
;
Structure prediction by ZEFSAII (Michael W. Deem and Ramdas Pophale) SiO2 
 PCOD8068686
Probable space group: P 21/M
;
_chemical_formula_sum "Si O2"
_cell_formula_units_Z 28
_cell_length_a 17.697504
_cell_length_b 9.048426
_cell_length_c 25.418354
_cell_angle_alpha 90.000000
_cell_angle_beta 154.614904
_cell_angle_gamma 90.000000
_cell_volume 1744.962536
_symmetry_space_group_name_H-M "P 21/M"
_symmetry_group_IT_number 11
_symmetry_cell_setting 'monoclinic'
loop_
_space_group_symop_operation_xyz
x,y,z
-x,1/2+y,-z
-x,-y,-z
x,1/2-y,z
loop_
_atom_site_type_symbol
_atom_site_label
_atom_site_fract_x
_atom_site_fract_y
_atom_site_fract_z
Si Si1 0.281387 0.077359 0.909827
Si Si2 0.024808 0.418843 0.086259
Si Si3 0.685220 0.077655 0.172669
Si Si4 0.827880 0.417054 0.060548
Si Si5 0.722702 0.918703 0.839182
Si Si6 0.496622 0.921958 0.220601
Si Si7 0.180621 0.574937 0.629283
O O1 0.256882 0.250000 0.889173
O O2 0.221271 0.006047 0.816851
O O3 0.159562 0.021129 0.880804
O O4 0.481326 0.029665 0.048678
O O5 0.959546 0.250000 0.031996
O O6 0.225889 0.439286 0.190813
O O7 0.005825 0.440070 0.137531
O O8 0.901960 0.541036 0.982256
O O9 0.701569 0.250000 0.171838
O O10 0.780631 0.030602 0.286169
O O11 0.811321 0.250000 0.070617
O O12 0.658969 0.457114 0.918339
O O13 0.670529 0.750000 0.818721
O O14 0.564118 0.023205 0.759379
O O15 0.544157 0.750000 0.253135
O O16 0.667983 0.013257 0.312995
O O17 0.169515 0.750000 0.615141
O O18 0.000000 0.500000 0.500000
#
# Coordination Sequence:
#
# PCOD8068686 Si02
#       7
#     4   4   4   4   4   4   4
#     4  10  18  28  45  67  89 115 151 187 222 268
#     4   8  15  25  36  56  84 117 150 180 218 265
#     4   9  19  33  46  63  88 116 148 185 227 270
#     4   9  16  26  41  61  89 120 150 182 220 266
#     4   9  15  24  39  57  82 114 149 186 221 261
#     4  10  19  30  44  62  86 118 154 187 225 270
#     4  11  22  36  51  68  90 117 153 192 231 270
#
# _framework density 16.046191
#
# number of rings (size 3 to 8) (size 9 to 14) (size 15 to 20)
#    0.000    2.571    1.429    2.571    0.000    4.571 
#    0.000    0.000    0.000    0.000    0.000    0.000 
#    0.000    1.143    0.000    3.429    0.000    4.857 
#
# Total GULP energy -347019.350330 kJ/mol
# GULP energy per Si atom -12393.548226 kJ/mol
# Density = 1.600967 g / cm^3
# Si number density = 16.046191 Si / 1000 Ang^3
#
#
#
# Elastic Constant Matrix: (Units=GPa)
#
#
# Indices 1 2 3 4 5 6 
#
# 1 151.9042 54.4850 42.7869 0.0000 11.5184 0.0000
# 2 54.4850 65.8450 28.4188 0.0000 2.4329 0.0000
# 3 42.7869 28.4188 48.7804 0.0000 0.7666 0.0000
# 4 0.0000 0.0000 0.0000 17.8267 0.0000 2.5641
# 5 11.5184 2.4329 0.7666 0.0000 13.7043 0.0000
# 6 0.0000 0.0000 0.0000 2.5641 0.0000 29.4993
#
#
#
# Elastic Compliance Matrix: (Units=1/GPa)
#
#
# Indices 1 2 3 4 5 6 
#
# 1 0.011136 -0.006360 -0.005938 0.000000 -0.007898 0.000000
# 2 -0.006360 0.024040 -0.008451 0.000000 0.001550 0.000000
# 3 -0.005938 -0.008451 0.030557 0.000000 0.004782 0.000000
# 4 0.000000 0.000000 0.000000 0.056806 0.000000 -0.004938
# 5 -0.007898 0.001550 0.004782 0.000000 0.079066 0.000000
# 6 0.000000 0.000000 0.000000 -0.004938 0.000000 0.034328
#
#
# Mechanical properties :
#
#
# Convention : Reuss Voigt Hill
#
# Bulk Modulus (GPa) = 41.26417 57.54565 49.40491
# Shear Modulus (GPa) = 17.51255 21.59534 19.55394
#
# Velocity S-wave (km/s) = 3.30719 3.67253 3.49464
# Velocity P-wave (km/s) = 6.35256 7.34327 6.86581
#
# Compressibility (1/GPa) = 0.02423410
#
# Stress axis : x y z
#
# Youngs Moduli (GPa) = 89.80088 41.59733 32.72549
#
# Poissons Ratio (x) = 0.26455 0.19433
# Poissons Ratio (y) = 0.57111 0.27658
# Poissons Ratio (z) = 0.53327 0.35156
#
# Static dielectric constant tensor:
#      x y z
#    x 3.449230 0.000000 0.170930 
#    y 0.000000 3.102970 0.000000 
#    z 0.170930 0.000000 2.559790 
# 
# 
# High freq. dielectric constant tensor:
#      x y z
#    x 1.637170 0.000000 0.015520 
#    y 0.000000 1.630360 0.000000 
#    z 0.015520 0.000000 1.536400 
# 
# From -- ./inp_files/61707.got.cif
#   From: 2010.06.25/outbox.cif.g09.slc.cpg/sg11_31_cif.got.tgz:61707.got - 2010.06.27 23:14:04.
