data_PCOD8068174
_publ_section_title
;
Structure prediction by ZEFSAII (Michael W. Deem and Ramdas Pophale) SiO2 
 PCOD8068174
Probable space group: P 21/M
;
_chemical_formula_sum "Si O2"
_cell_formula_units_Z 28
_cell_length_a 8.492804
_cell_length_b 14.422202
_cell_length_c 17.119004
_cell_angle_alpha 90.000000
_cell_angle_beta 38.097939
_cell_angle_gamma 90.000000
_cell_volume 1293.753863
_symmetry_space_group_name_H-M "P 21/M"
_symmetry_group_IT_number 11
_symmetry_cell_setting 'monoclinic'
loop_
_space_group_symop_operation_xyz
x,y,z
-x,1/2+y,-z
-x,-y,-z
x,1/2-y,z
loop_
_atom_site_type_symbol
_atom_site_label
_atom_site_fract_x
_atom_site_fract_y
_atom_site_fract_z
Si Si1 0.910796 0.641651 0.711986
Si Si2 0.937374 0.400199 0.559958
Si Si3 0.480034 0.357866 0.825357
Si Si4 0.270889 0.059181 0.058853
Si Si5 0.575666 0.646454 0.697983
Si Si6 0.409425 0.853708 0.441034
Si Si7 0.240643 0.024435 0.786136
O O1 0.924447 0.750000 0.692046
O O2 0.838036 0.619612 0.828059
O O3 0.706242 0.605778 0.726907
O O4 0.200574 0.604452 0.583806
O O5 0.774989 0.399014 0.704480
O O6 0.737982 0.345408 0.583468
O O7 0.000000 0.500000 0.500000
O O8 0.208415 0.347534 0.455188
O O9 0.474931 0.250000 0.807624
O O10 0.286866 0.410779 0.842676
O O11 0.375897 0.371477 0.952849
O O12 0.059664 0.988328 0.108319
O O13 0.500000 0.000000 0.000000
O O14 0.460260 0.750000 0.754505
O O15 0.355956 0.577650 0.756235
O O16 0.508704 0.750000 0.425319
O O17 0.641008 0.926645 0.338128
#
# Coordination Sequence:
#
# PCOD8068174 Si02
#       7
#     4   4   4   4   4   4   4
#     4   9  20  39  60  87 124 163 199 242 309 376
#     4  10  16  31  61  94 124 149 196 255 315 360
#     4  11  23  42  66  93 127 165 207 255 306 368
#     4  12  27  41  59  84 127 172 211 248 306 373
#     4  10  19  34  63  95 122 154 201 260 314 363
#     4   9  18  35  63  92 120 156 201 257 312 365
#     4  11  22  40  63  93 118 157 212 264 310 356
#
# _framework density 21.642448000000002
#
# number of rings (size 3 to 8) (size 9 to 14) (size 15 to 20)
#    0.000    1.714    2.857    5.143    2.000    1.714 
#    0.000    4.286    0.000    1.714    0.000    0.000 
#    0.000    0.000    0.000    0.000    0.000    0.000 
#
# Total GULP energy -346958.494979 kJ/mol
# GULP energy per Si atom -12391.374821 kJ/mol
# Density = 2.159319 g / cm^3
# Si number density = 21.642448 Si / 1000 Ang^3
#
#
#
# Elastic Constant Matrix: (Units=GPa)
#
#
# Indices 1 2 3 4 5 6 
#
# 1 71.2346 33.8475 46.8471 0.0000 -10.0999 0.0000
# 2 33.8475 121.7831 44.9018 0.0000 -8.2232 0.0000
# 3 46.8471 44.9018 150.0728 0.0000 20.2103 0.0000
# 4 0.0000 0.0000 0.0000 33.9623 0.0000 7.5852
# 5 -10.0999 -8.2232 20.2103 0.0000 29.8242 0.0000
# 6 0.0000 0.0000 0.0000 7.5852 0.0000 13.5587
#
#
#
# Elastic Compliance Matrix: (Units=1/GPa)
#
#
# Indices 1 2 3 4 5 6 
#
# 1 0.022010 -0.002443 -0.007761 0.000000 0.012039 0.000000
# 2 -0.002443 0.010188 -0.002809 0.000000 0.003885 0.000000
# 3 -0.007761 -0.002809 0.011428 0.000000 -0.011147 0.000000
# 4 0.000000 0.000000 0.000000 0.033649 0.000000 -0.018824
# 5 0.012039 0.003885 -0.011147 0.000000 0.046232 0.000000
# 6 0.000000 0.000000 0.000000 -0.018824 0.000000 0.084284
#
#
# Mechanical properties :
#
#
# Convention : Reuss Voigt Hill
#
# Bulk Modulus (GPa) = 56.81801 66.03148 61.42475
# Shear Modulus (GPa) = 20.86085 29.96864 25.41475
#
# Velocity S-wave (km/s) = 3.10802 3.72521 3.43053
# Velocity P-wave (km/s) = 6.26017 7.00567 6.64338
#
# Compressibility (1/GPa) = 0.01760005
#
# Stress axis : x y z
#
# Youngs Moduli (GPa) = 45.43413 98.15171 87.50615
#
# Poissons Ratio (x) = 0.23976 0.67915
# Poissons Ratio (y) = 0.11099 0.24581
# Poissons Ratio (z) = 0.35262 0.27571
#
# Static dielectric constant tensor:
#      x y z
#    x 3.225170 0.000000 -0.556780 
#    y 0.000000 3.891130 0.000000 
#    z -0.556780 0.000000 3.080080 
# 
# 
# High freq. dielectric constant tensor:
#      x y z
#    x 1.799880 0.000000 0.000960 
#    y 0.000000 1.858190 0.000000 
#    z 0.000960 0.000000 1.863880 
# 
# From -- ./inp_files/58118.got.cif
#   From: 2010.06.25/outbox.cif.g09.slc.cpg/sg11_30_cif.got.tgz:58118.got - 2010.06.27 23:14:04.
