data_PCOD8068064
_publ_section_title
;
Structure prediction by ZEFSAII (Michael W. Deem and Ramdas Pophale) SiO2 
 PCOD8068064
Probable space group: P 2/M
;
_chemical_formula_sum "Si O2"
_cell_formula_units_Z 26
_cell_length_a 30.000000
_cell_length_b 9.000000
_cell_length_c 30.000000
_cell_angle_alpha 90.000000
_cell_angle_beta 170.000000
_cell_angle_gamma 90.000000
_cell_volume 1406.550239
_symmetry_space_group_name_H-M "P 2/M"
_symmetry_group_IT_number 10
_symmetry_cell_setting 'monoclinic'
loop_
_space_group_symop_operation_xyz
x,y,z
-x,y,-z
-x,-y,-z
x,-y,z
loop_
_atom_site_type_symbol
_atom_site_label
_atom_site_fract_x
_atom_site_fract_y
_atom_site_fract_z
Si Si1 0.312084 0.663230 0.194862
Si Si2 0.472632 0.181120 0.068047
Si Si3 0.568217 0.318130 0.875123
Si Si4 0.164323 0.679512 0.328808
Si Si5 0.090089 0.819082 0.351474
Si Si6 0.002915 0.673781 0.449922
Si Si7 0.265189 0.500000 0.234744
O O1 0.322764 0.500000 0.183497
O O2 0.580250 0.738627 0.445133
O O3 0.281143 0.646786 0.218439
O O4 0.066469 0.740062 0.930017
O O5 0.414908 0.255077 0.058603
O O6 0.747955 0.239808 0.322727
O O7 0.470901 0.000000 0.068344
O O8 0.250144 0.240785 0.816354
O O9 0.566283 0.500000 0.872037
O O10 0.308808 0.251871 0.598258
O O11 0.815649 0.253109 0.093292
O O12 0.160423 0.500000 0.331548
O O13 0.152784 0.767533 0.363442
O O14 0.084534 0.000000 0.350130
O O15 0.005048 0.500000 0.436520
O O16 0.000000 0.683058 0.500000
O O17 0.500000 0.500000 0.500000
O O18 0.000000 0.500000 0.000000
#
# Coordination Sequence:
#
# PCOD8068064 Si02
#       7
#     4   4   4   4   4   4   2
#     4   8  17  27  45  72 103 147 181 231 279 349
#     4  12  25  42  65  92 126 159 195 253 306 353
#     4  12  25  44  64  88 118 161 207 239 299 367
#     4  10  17  33  51  73 107 149 190 226 289 344
#     4  12  25  40  61  90 122 153 201 258 301 349
#     4  11  24  43  66  93 123 160 203 245 297 365
#     4  10  16  26  44  74 116 148 182 240 308 346
#
# _framework density 18.484942
#
# number of rings (size 3 to 8) (size 9 to 14) (size 15 to 20)
#    0.462    0.769    0.000    7.846    0.000    4.308 
#    0.000    0.000    0.000    0.000    0.000    0.000 
#    0.000   12.308    0.000    0.000    0.000    0.000 
#
# Total GULP energy -322196.333557 kJ/mol
# GULP energy per Si atom -12392.166675 kJ/mol
# Density = 1.844287 g / cm^3
# Si number density = 18.484942 Si / 1000 Ang^3
#
#
#
# Elastic Constant Matrix: (Units=GPa)
#
#
# Indices 1 2 3 4 5 6 
#
# 1 101.7502 25.8237 19.5467 0.0000 2.9599 0.0000
# 2 25.8237 147.2862 31.4877 0.0000 1.1470 0.0000
# 3 19.5467 31.4877 130.3824 0.0000 2.1974 0.0000
# 4 0.0000 0.0000 0.0000 33.1020 0.0000 -0.7215
# 5 2.9599 1.1470 2.1974 0.0000 49.7719 0.0000
# 6 0.0000 0.0000 0.0000 -0.7215 0.0000 24.7333
#
#
#
# Elastic Compliance Matrix: (Units=1/GPa)
#
#
# Indices 1 2 3 4 5 6 
#
# 1 0.010471 -0.001580 -0.001179 0.000000 -0.000534 0.000000
# 2 -0.001580 0.007398 -0.001550 0.000000 -0.000008 0.000000
# 3 -0.001179 -0.001550 0.008225 0.000000 -0.000257 0.000000
# 4 0.000000 0.000000 0.000000 0.030229 0.000000 0.000882
# 5 -0.000534 -0.000008 -0.000257 0.000000 0.020135 0.000000
# 6 0.000000 0.000000 0.000000 0.000882 0.000000 0.040457
#
#
# Mechanical properties :
#
#
# Convention : Reuss Voigt Hill
#
# Bulk Modulus (GPa) = 57.21870 59.23724 58.22797
# Shear Modulus (GPa) = 38.06405 41.69215 39.87810
#
# Velocity S-wave (km/s) = 4.54276 4.75433 4.64974
# Velocity P-wave (km/s) = 7.65094 7.89012 7.77145
#
# Compressibility (1/GPa) = 0.01747680
#
# Stress axis : x y z
#
# Youngs Moduli (GPa) = 95.50209 135.17517 121.57874
#
# Poissons Ratio (x) = 0.21352 0.14338
# Poissons Ratio (y) = 0.15086 0.18840
# Poissons Ratio (z) = 0.11263 0.20947
#
# Static dielectric constant tensor:
#      x y z
#    x 3.536660 0.000000 -0.153060 
#    y 0.000000 3.635840 0.000000 
#    z -0.153060 0.000000 1.843650 
# 
# 
# High freq. dielectric constant tensor:
#      x y z
#    x 1.735900 0.000000 0.001820 
#    y 0.000000 1.712310 0.000000 
#    z 0.001820 0.000000 1.758870 
# 
# From -- ./inp_files/95964.got.cif
#   From: 2010.06.25/outbox.ucp.g09.slc.cvg/sg10_48_cif.got.tgz:95964.got - 2010.06.28 13:37:52.
