data_PCOD8068558
_publ_section_title
;
Structure prediction by ZEFSAII (Michael W. Deem and Ramdas Pophale) SiO2 
 PCOD8068558
Probable space group: P 21/M
;
_chemical_formula_sum "Si O2"
_cell_formula_units_Z 28
_cell_length_a 17.194592
_cell_length_b 9.083127
_cell_length_c 14.601292
_cell_angle_alpha 90.000000
_cell_angle_beta 49.759148
_cell_angle_gamma 90.000000
_cell_volume 1740.740676
_symmetry_space_group_name_H-M "P 21/M"
_symmetry_group_IT_number 11
_symmetry_cell_setting 'monoclinic'
loop_
_space_group_symop_operation_xyz
x,y,z
-x,1/2+y,-z
-x,-y,-z
x,1/2-y,z
loop_
_atom_site_type_symbol
_atom_site_label
_atom_site_fract_x
_atom_site_fract_y
_atom_site_fract_z
Si Si1 0.375018 0.423177 0.413595
Si Si2 0.108619 0.575183 0.918837
Si Si3 0.577976 0.923121 0.819074
Si Si4 0.244146 0.416651 0.956042
Si Si5 0.427639 0.086097 0.682931
Si Si6 0.256657 0.421600 0.672129
Si Si7 0.628117 0.578154 0.978482
O O1 0.382307 0.250000 0.410487
O O2 0.363410 0.479945 0.317271
O O3 0.479416 0.476147 0.379203
O O4 0.277144 0.468934 0.550515
O O5 0.098186 0.750000 0.924636
O O6 0.168784 0.521320 0.782850
O O7 0.164631 0.527785 0.970314
O O8 0.000000 0.500000 0.000000
O O9 0.561338 0.750000 0.826103
O O10 0.643279 0.966087 0.859937
O O11 0.466736 0.992711 0.906933
O O12 0.200898 0.250000 0.979673
O O13 0.267770 0.458809 0.044477
O O14 0.353699 0.428899 0.825712
O O15 0.472977 0.250000 0.642869
O O16 0.363409 0.047919 0.641371
O O17 0.224926 0.250000 0.707076
O O18 0.602721 0.750000 0.007324
#
# Coordination Sequence:
#
# PCOD8068558 Si02
#       7
#     4   4   4   4   4   4   4
#     4  10  18  27  41  63  93 126 159 192 223 258
#     4  11  22  36  54  73  91 112 143 187 235 282
#     4   9  17  26  40  64  93 126 164 197 223 258
#     4   9  17  30  47  67  93 125 157 189 229 273
#     4   9  16  26  40  59  88 125 161 189 220 263
#     4   9  19  33  45  62  91 124 153 186 227 272
#     4   9  16  28  43  61  91 129 161 192 229 263
#
# _framework density 16.085107000000001
#
# number of rings (size 3 to 8) (size 9 to 14) (size 15 to 20)
#    0.000    2.571    1.429    2.571    0.000    3.429 
#    0.000    0.000    0.000    0.000    0.000    1.000 
#    0.000    0.000    0.000    0.000    0.000    0.000 
#
# Total GULP energy -346971.464999 kJ/mol
# GULP energy per Si atom -12391.838036 kJ/mol
# Density = 1.604850 g / cm^3
# Si number density = 16.085107 Si / 1000 Ang^3
#
#
#
# Elastic Constant Matrix: (Units=GPa)
#
#
# Indices 1 2 3 4 5 6 
#
# 1 86.7491 39.8626 68.4188 0.0000 14.0468 0.0000
# 2 39.8626 57.4015 43.2692 0.0000 4.1285 0.0000
# 3 68.4188 43.2692 96.0311 0.0000 16.5891 0.0000
# 4 0.0000 0.0000 0.0000 20.2416 0.0000 -2.7457
# 5 14.0468 4.1285 16.5891 0.0000 23.8612 0.0000
# 6 0.0000 0.0000 0.0000 -2.7457 0.0000 22.1730
#
#
#
# Elastic Compliance Matrix: (Units=1/GPa)
#
#
# Indices 1 2 3 4 5 6 
#
# 1 0.028243 -0.007096 -0.016212 0.000000 -0.004128 0.000000
# 2 -0.007096 0.028541 -0.008720 0.000000 0.005302 0.000000
# 3 -0.016212 -0.008720 0.027257 0.000000 -0.007897 0.000000
# 4 0.000000 0.000000 0.000000 0.050247 0.000000 0.006222
# 5 -0.004128 0.005302 -0.007897 0.000000 0.048912 0.000000
# 6 0.000000 0.000000 0.000000 0.006222 0.000000 0.045870
#
#
# Mechanical properties :
#
#
# Convention : Reuss Voigt Hill
#
# Bulk Modulus (GPa) = 50.03733 60.36478 55.20106
# Shear Modulus (GPa) = 16.67854 19.16390 17.92122
#
# Velocity S-wave (km/s) = 3.22358 3.45542 3.34151
# Velocity P-wave (km/s) = 6.71049 7.31640 7.01999
#
# Compressibility (1/GPa) = 0.01998508
#
# Stress axis : x y z
#
# Youngs Moduli (GPa) = 35.40751 35.03762 36.68821
#
# Poissons Ratio (x) = 0.24863 0.59477
# Poissons Ratio (y) = 0.25125 0.31992
# Poissons Ratio (z) = 0.57401 0.30553
#
# Static dielectric constant tensor:
#      x y z
#    x 3.256710 0.000000 0.638270 
#    y 0.000000 2.724830 0.000000 
#    z 0.638270 0.000000 3.404840 
# 
# 
# High freq. dielectric constant tensor:
#      x y z
#    x 1.600710 0.000000 0.031220 
#    y 0.000000 1.616000 0.000000 
#    z 0.031220 0.000000 1.598090 
# 
# From -- ./inp_files/42606.got.cif
#   From: 2010.06.25/outbox.cif.g09.slc.cpg/sg11_22_cif.got.tgz:42606.got - 2010.06.27 23:14:04.
