data_PCOD8068325
_publ_section_title
;
Structure prediction by ZEFSAII (Michael W. Deem and Ramdas Pophale) SiO2 
 PCOD8068325
Probable space group: P 21/M
;
_chemical_formula_sum "Si O2"
_cell_formula_units_Z 28
_cell_length_a 12.314532
_cell_length_b 10.466763
_cell_length_c 22.041907
_cell_angle_alpha 90.000000
_cell_angle_beta 143.251057
_cell_angle_gamma 90.000000
_cell_volume 1699.830423
_symmetry_space_group_name_H-M "P 21/M"
_symmetry_group_IT_number 11
_symmetry_cell_setting 'monoclinic'
loop_
_space_group_symop_operation_xyz
x,y,z
-x,1/2+y,-z
-x,-y,-z
x,1/2-y,z
loop_
_atom_site_type_symbol
_atom_site_label
_atom_site_fract_x
_atom_site_fract_y
_atom_site_fract_z
Si Si1 0.340706 0.602280 0.424286
Si Si2 0.063324 0.396843 0.979734
Si Si3 0.250496 0.894222 0.249702
Si Si4 0.865716 0.102703 0.546721
Si Si5 0.580395 0.002114 0.325928
Si Si6 0.480370 0.389887 0.161790
Si Si7 0.278372 0.392053 0.723860
O O1 0.500000 0.500000 0.500000
O O2 0.412602 0.750000 0.460129
O O3 0.235835 0.576840 0.314519
O O4 0.199561 0.573724 0.414490
O O5 0.037507 0.250000 0.991841
O O6 0.946529 0.420834 0.866868
O O7 0.271099 0.423128 0.056004
O O8 0.000000 0.500000 0.000000
O O9 0.312538 0.750000 0.265948
O O10 0.403383 0.978771 0.286690
O O11 0.849147 0.250000 0.522996
O O12 0.072722 0.057169 0.633656
O O13 0.745784 0.029614 0.444362
O O14 0.648006 0.885637 0.312879
O O15 0.524759 0.115339 0.254206
O O16 0.527635 0.250000 0.155767
O O17 0.601043 0.503083 0.184934
O O18 0.295800 0.250000 0.760352
#
# Coordination Sequence:
#
# PCOD8068325 Si02
#       7
#     4   4   4   4   4   4   4
#     4  10  20  35  51  70  96 131 167 199 236 284
#     4  10  18  31  48  72 100 129 161 198 244 295
#     4  10  19  31  49  73 101 130 163 198 241 291
#     4  10  19  32  49  69  96 130 164 198 235 288
#     4  10  17  28  49  70 101 122 157 196 243 286
#     4   9  19  30  46  71  98 126 157 194 244 289
#     4   9  19  32  48  70  97 127 160 197 243 289
#
# _framework density 16.472231000000001
#
# number of rings (size 3 to 8) (size 9 to 14) (size 15 to 20)
#    0.857    1.429    2.857    1.286    0.000    0.571 
#    0.000    2.143    0.000    0.857    0.000    0.000 
#    0.000    0.000    0.000    0.000    0.000    0.000 
#
# Total GULP energy -346881.924938 kJ/mol
# GULP energy per Si atom -12388.640176 kJ/mol
# Density = 1.643474 g / cm^3
# Si number density = 16.472231 Si / 1000 Ang^3
#
#
#
# Elastic Constant Matrix: (Units=GPa)
#
#
# Indices 1 2 3 4 5 6 
#
# 1 56.5513 18.7368 32.1989 0.0000 11.6272 0.0000
# 2 18.7368 79.2039 48.7882 0.0000 16.0166 0.0000
# 3 32.1989 48.7882 106.9954 0.0000 19.0891 0.0000
# 4 0.0000 0.0000 0.0000 23.1452 0.0000 8.7319
# 5 11.6272 16.0166 19.0891 0.0000 30.3279 0.0000
# 6 0.0000 0.0000 0.0000 8.7319 0.0000 14.0790
#
#
#
# Elastic Compliance Matrix: (Units=1/GPa)
#
#
# Indices 1 2 3 4 5 6 
#
# 1 0.021994 -0.000983 -0.005361 0.000000 -0.004539 0.000000
# 2 -0.000983 0.018235 -0.007174 0.000000 -0.004738 0.000000
# 3 -0.005361 -0.007174 0.014856 0.000000 -0.003507 0.000000
# 4 0.000000 0.000000 0.000000 0.056403 0.000000 -0.034981
# 5 -0.004539 -0.004738 -0.003507 0.000000 0.039423 0.000000
# 6 0.000000 0.000000 0.000000 -0.034981 0.000000 0.092723
#
#
# Mechanical properties :
#
#
# Convention : Reuss Voigt Hill
#
# Bulk Modulus (GPa) = 35.65008 49.13315 42.39161
# Shear Modulus (GPa) = 17.85587 23.04555 20.45071
#
# Velocity S-wave (km/s) = 3.29598 3.74445 3.52735
# Velocity P-wave (km/s) = 6.01450 6.97045 6.51005
#
# Compressibility (1/GPa) = 0.02805043
#
# Stress axis : x y z
#
# Youngs Moduli (GPa) = 45.46632 54.83876 67.31131
#
# Poissons Ratio (x) = 0.05391 0.36085
# Poissons Ratio (y) = 0.04469 0.48288
# Poissons Ratio (z) = 0.24374 0.39341
#
# Static dielectric constant tensor:
#      x y z
#    x 2.975160 0.000000 0.094310 
#    y 0.000000 3.160880 0.000000 
#    z 0.094310 0.000000 3.172500 
# 
# 
# High freq. dielectric constant tensor:
#      x y z
#    x 1.611820 0.000000 0.015510 
#    y 0.000000 1.631480 0.000000 
#    z 0.015510 0.000000 1.632470 
# 
# From -- ./inp_files/64545.got.cif
#   From: 2010.06.25/outbox.cif.g09.slc.cpg/sg11_33_cif.got.tgz:64545.got - 2010.06.27 23:14:04.
