data_PCOD8068046
_publ_section_title
;
Structure prediction by ZEFSAII (Michael W. Deem and Ramdas Pophale) SiO2 
 PCOD8068046
Probable space group: P 2/M
;
_chemical_formula_sum "Si O2"
_cell_formula_units_Z 28
_cell_length_a 29.451310
_cell_length_b 9.274048
_cell_length_c 9.281774
_cell_angle_alpha 90.000000
_cell_angle_beta 141.988930
_cell_angle_gamma 90.000000
_cell_volume 1561.184757
_symmetry_space_group_name_H-M "P 2/M"
_symmetry_group_IT_number 10
_symmetry_cell_setting 'monoclinic'
loop_
_space_group_symop_operation_xyz
x,y,z
-x,y,-z
-x,-y,-z
x,-y,z
loop_
_atom_site_type_symbol
_atom_site_label
_atom_site_fract_x
_atom_site_fract_y
_atom_site_fract_z
Si Si1 0.072721 0.666870 0.099929
Si Si2 0.927280 0.333129 0.236327
Si Si3 0.214449 0.162810 0.457476
Si Si4 0.500000 0.671409 0.337329
Si Si5 0.357343 0.668265 0.811188
Si Si6 0.785551 0.162810 0.885232
Si Si7 0.642657 0.668265 0.524472
O O1 0.089283 0.500000 0.173545
O O2 0.060154 0.694904 0.900386
O O3 0.141482 0.757632 0.333071
O O4 0.000000 0.720384 0.000000
O O5 0.910720 0.500000 0.227138
O O6 0.000000 0.279611 0.500000
O O7 0.858517 0.242371 0.125660
O O8 0.286593 0.246150 0.693798
O O9 0.213894 0.166447 0.284735
O O10 0.215586 0.000000 0.519713
O O11 0.500000 0.731536 0.500000
O O12 0.499998 0.500000 0.335159
O O13 0.572397 0.727711 0.436000
O O14 0.427603 0.727713 0.074016
O O15 0.343080 0.500000 0.803753
O O16 0.371985 0.698472 0.679962
O O17 0.713406 0.246148 0.760832
O O18 0.784416 0.000000 0.941790
O O19 0.656920 0.500000 0.588352
#
# Coordination Sequence:
#
# PCOD8068046 Si02
#       7
#     4   4   4   4   4   4   4
#     4   9  17  30  48  69  92 118 149 185 224 265
#     4   9  17  30  48  69  92 118 149 185 224 265
#     4   9  17  29  46  68  92 118 150 187 224 262
#     4   9  17  29  46  69  94 118 146 183 226 268
#     4   9  16  28  48  70  89 113 149 189 224 261
#     4   9  17  29  46  68  92 118 150 187 224 262
#     4   9  16  28  48  70  89 113 149 189 224 261
#
# _framework density 17.935096000000001
#
# number of rings (size 3 to 8) (size 9 to 14) (size 15 to 20)
#    0.000    3.000    0.000    1.286    0.000    5.714 
#    0.000    2.143    0.000   13.714    0.000    0.000 
#    0.000    0.000    0.000    0.000    0.000    0.000 
#
# Total GULP energy -347200.631622 kJ/mol
# GULP energy per Si atom -12400.022558 kJ/mol
# Density = 1.789427 g / cm^3
# Si number density = 17.935096 Si / 1000 Ang^3
#
#
#
# Elastic Constant Matrix: (Units=GPa)
#
#
# Indices 1 2 3 4 5 6 
#
# 1 102.1654 50.1682 67.8522 0.0000 36.5391 0.0000
# 2 50.1682 84.6368 64.7764 0.0000 25.5502 0.0000
# 3 67.8522 64.7764 146.4112 0.0000 40.8487 0.0000
# 4 0.0000 0.0000 0.0000 10.1358 0.0000 -0.3243
# 5 36.5391 25.5502 40.8487 0.0000 35.1391 0.0000
# 6 0.0000 0.0000 0.0000 -0.3243 0.0000 10.3204
#
#
#
# Elastic Compliance Matrix: (Units=1/GPa)
#
#
# Indices 1 2 3 4 5 6 
#
# 1 0.018627 -0.005073 -0.002980 0.000000 -0.012217 0.000000
# 2 -0.005073 0.020030 -0.005801 0.000000 -0.002546 0.000000
# 3 -0.002980 -0.005801 0.012930 0.000000 -0.007714 0.000000
# 4 0.000000 0.000000 0.000000 0.098759 0.000000 0.003103
# 5 -0.012217 -0.002546 -0.007714 0.000000 0.051982 0.000000
# 6 0.000000 0.000000 0.000000 0.003103 0.000000 0.096993
#
#
# Mechanical properties :
#
#
# Convention : Reuss Voigt Hill
#
# Bulk Modulus (GPa) = 41.87392 77.64520 59.75956
# Shear Modulus (GPa) = 14.92592 21.14683 18.03638
#
# Velocity S-wave (km/s) = 2.88795 3.43749 3.17463
# Velocity P-wave (km/s) = 5.87524 7.69035 6.84324
#
# Compressibility (1/GPa) = 0.02388121
#
# Stress axis : x y z
#
# Youngs Moduli (GPa) = 53.68449 49.92465 77.34170
#
# Poissons Ratio (x) = 0.25325 0.23045
# Poissons Ratio (y) = 0.27232 0.44863
# Poissons Ratio (z) = 0.15996 0.28959
#
# Static dielectric constant tensor:
#      x y z
#    x 3.222190 0.000000 0.257630 
#    y 0.000000 3.212620 0.000000 
#    z 0.257630 0.000000 3.369490 
# 
# 
# High freq. dielectric constant tensor:
#      x y z
#    x 1.676410 0.000000 0.026170 
#    y 0.000000 1.675030 0.000000 
#    z 0.026170 0.000000 1.691370 
# 
# From -- ./inp_files/37284.got.cif
#   From: 2010.06.25/outbox.cif.g09.slc.cpg/sg10_19_cif.got.tgz:37284.got - 2010.06.27 22:07:45.
