data_PCOD8068471
_publ_section_title
;
Structure prediction by ZEFSAII (Michael W. Deem and Ramdas Pophale) SiO2 
 PCOD8068471
Probable space group: P 21/M
;
_chemical_formula_sum "Si O2"
_cell_formula_units_Z 24
_cell_length_a 15.653558
_cell_length_b 15.004081
_cell_length_c 9.807127
_cell_angle_alpha 90.000000
_cell_angle_beta 146.423567
_cell_angle_gamma 90.000000
_cell_volume 1273.877896
_symmetry_space_group_name_H-M "P 21/M"
_symmetry_group_IT_number 11
_symmetry_cell_setting 'monoclinic'
loop_
_space_group_symop_operation_xyz
x,y,z
-x,1/2+y,-z
-x,-y,-z
x,1/2-y,z
loop_
_atom_site_type_symbol
_atom_site_label
_atom_site_fract_x
_atom_site_fract_y
_atom_site_fract_z
Si Si1 0.445693 0.353058 0.274365
Si Si2 0.433985 0.592683 0.853977
Si Si3 0.847939 0.994369 0.474486
Si Si4 0.807388 0.987988 0.106396
Si Si5 0.652382 0.847228 0.352763
Si Si6 0.591213 0.147679 0.753205
O O1 0.399715 0.250000 0.194098
O O2 0.533089 0.391963 0.260074
O O3 0.561520 0.366392 0.553922
O O4 0.291233 0.410040 0.095401
O O5 0.248253 0.586029 0.626317
O O6 0.500000 0.500000 0.000000
O O7 0.518954 0.665788 0.059161
O O8 0.785868 0.916489 0.491264
O O9 0.026413 0.011254 0.745929
O O10 0.825959 0.962912 0.289699
O O11 0.729857 0.084679 0.986148
O O12 0.729537 0.750000 0.475269
O O13 0.566477 0.878104 0.376893
O O14 0.637803 0.250000 0.846791
#
# Coordination Sequence:
#
# PCOD8068471 Si02
#       6
#     4   4   4   4   4   4
#     4  11  22  38  60  84 113 152 193 233 284 339
#     4  10  17  34  55  79 108 139 188 232 267 333
#     4  10  21  33  55  85 115 143 184 234 287 341
#     4  11  20  37  56  82 119 148 180 237 289 335
#     4  10  18  34  57  80 109 148 194 236 272 328
#     4  10  22  38  59  85 112 151 197 235 277 337
#
# _framework density 18.840109000000002
#
# number of rings (size 3 to 8) (size 9 to 14) (size 15 to 20)
#    0.000    1.667    5.000    2.000    0.000    0.667 
#    0.000    7.500    0.000    4.000    0.000    0.000 
#    0.000    0.000    0.000    0.000    0.000    0.000 
#
# Total GULP energy -297513.305838 kJ/mol
# GULP energy per Si atom -12396.387743 kJ/mol
# Density = 1.879723 g / cm^3
# Si number density = 18.840109 Si / 1000 Ang^3
#
#
#
# Elastic Constant Matrix: (Units=GPa)
#
#
# Indices 1 2 3 4 5 6 
#
# 1 111.1780 34.3371 36.7163 0.0000 8.1989 0.0000
# 2 34.3371 87.7669 31.0757 0.0000 13.0508 0.0000
# 3 36.7163 31.0757 54.6124 0.0000 9.4028 0.0000
# 4 0.0000 0.0000 0.0000 20.8477 0.0000 -3.8114
# 5 8.1989 13.0508 9.4028 0.0000 43.2740 0.0000
# 6 0.0000 0.0000 0.0000 -3.8114 0.0000 26.2053
#
#
#
# Elastic Compliance Matrix: (Units=1/GPa)
#
#
# Indices 1 2 3 4 5 6 
#
# 1 0.011917 -0.002273 -0.006698 0.000000 -0.000117 0.000000
# 2 -0.002273 0.014998 -0.006546 0.000000 -0.002670 0.000000
# 3 -0.006698 -0.006546 0.026990 0.000000 -0.002621 0.000000
# 4 0.000000 0.000000 0.000000 0.049277 0.000000 0.007167
# 5 -0.000117 -0.002670 -0.002621 0.000000 0.024506 0.000000
# 6 0.000000 0.000000 0.000000 0.007167 0.000000 0.039203
#
#
# Mechanical properties :
#
#
# Convention : Reuss Voigt Hill
#
# Bulk Modulus (GPa) = 43.72521 50.86839 47.29680
# Shear Modulus (GPa) = 24.32490 28.16062 26.24276
#
# Velocity S-wave (km/s) = 3.59712 3.87035 3.73623
# Velocity P-wave (km/s) = 6.36485 6.85795 6.61600
#
# Compressibility (1/GPa) = 0.02287010
#
# Stress axis : x y z
#
# Youngs Moduli (GPa) = 83.91030 66.67539 37.05010
#
# Poissons Ratio (x) = 0.15158 0.24818
# Poissons Ratio (y) = 0.19076 0.24253
# Poissons Ratio (z) = 0.56207 0.43646
#
# Static dielectric constant tensor:
#      x y z
#    x 3.621730 0.000000 0.068910 
#    y 0.000000 3.625990 0.000000 
#    z 0.068910 0.000000 3.426000 
# 
# 
# High freq. dielectric constant tensor:
#      x y z
#    x 1.736540 0.000000 -0.008790 
#    y 0.000000 1.732520 0.000000 
#    z -0.008790 0.000000 1.706200 
# 
# From -- ./inp_files/22325.got.cif
#   From: 2010.06.25/outbox.cif.g09.slc.cpg/sg11_12_cif.got.tgz:22325.got - 2010.06.27 23:14:04.
