data_PCOD8068735
_publ_section_title
;
Structure prediction by ZEFSAII (Michael W. Deem and Ramdas Pophale) SiO2 
 PCOD8068735
Probable space group: P 21/M
;
_chemical_formula_sum "Si O2"
_cell_formula_units_Z 32
_cell_length_a 15.752005
_cell_length_b 9.017544
_cell_length_c 14.683481
_cell_angle_alpha 90.000000
_cell_angle_beta 62.574763
_cell_angle_gamma 90.000000
_cell_volume 1851.299113
_symmetry_space_group_name_H-M "P 21/M"
_symmetry_group_IT_number 11
_symmetry_cell_setting 'monoclinic'
loop_
_space_group_symop_operation_xyz
x,y,z
-x,1/2+y,-z
-x,-y,-z
x,1/2-y,z
loop_
_atom_site_type_symbol
_atom_site_label
_atom_site_fract_x
_atom_site_fract_y
_atom_site_fract_z
Si Si1 0.608823 0.423635 0.855381
Si Si2 0.226377 0.574670 0.355728
Si Si3 0.144760 0.574396 0.779621
Si Si4 0.066904 0.417958 0.321798
Si Si5 0.766521 0.424915 0.079590
Si Si6 0.069617 0.419114 0.109119
Si Si7 0.148861 0.573761 0.578996
Si Si8 0.610201 0.576282 0.041918
O O1 0.622053 0.250000 0.868441
O O2 0.675016 0.480107 0.739361
O O3 0.500114 0.461564 0.882757
O O4 0.641406 0.509092 0.929793
O O5 0.223868 0.750000 0.357786
O O6 0.135739 0.523042 0.343844
O O7 0.218805 0.514754 0.463981
O O8 0.136500 0.750000 0.776393
O O9 0.218134 0.527024 0.822453
O O10 0.179992 0.511428 0.663558
O O11 0.037438 0.518527 0.855433
O O12 0.077762 0.250000 0.352114
O O13 0.095348 0.426528 0.202374
O O14 0.959183 0.477148 0.389706
O O15 0.752835 0.250000 0.076362
O O16 0.671281 0.505492 0.092631
O O17 0.858954 0.472615 0.977733
O O18 0.081560 0.250000 0.067804
O O19 0.150726 0.750000 0.582076
O O20 0.630402 0.750000 0.028655
#
# Coordination Sequence:
#
# PCOD8068735 Si02
#       8
#     4   4   4   4   4   4   4   4
#     4   9  19  34  50  71  94 114 145 187 226 267
#     4  10  18  28  47  70  89 113 148 189 225 258
#     4   8  16  30  46  65  91 122 155 188 220 261
#     4   9  17  28  43  65  94 124 149 174 212 268
#     4  11  20  29  46  70  92 117 153 193 225 259
#     4   9  17  30  46  65  92 125 155 182 220 268
#     4   8  15  29  46  64  89 121 153 182 216 260
#     4  10  20  34  50  67  92 123 147 176 226 280
#
# _framework density 17.285160000000001
#
# number of rings (size 3 to 8) (size 9 to 14) (size 15 to 20)
#    0.000    2.750    0.000    3.750    0.000    3.500 
#    0.000    0.625    0.000    4.500    0.000    0.000 
#    0.000    0.000    0.000    0.000    0.000    0.500 
#
# Total GULP energy -396662.049215 kJ/mol
# GULP energy per Si atom -12395.689038 kJ/mol
# Density = 1.724582 g / cm^3
# Si number density = 17.285160 Si / 1000 Ang^3
#
#
#
# Elastic Constant Matrix: (Units=GPa)
#
#
# Indices 1 2 3 4 5 6 
#
# 1 112.6646 27.9594 70.1084 0.0000 13.1168 0.0000
# 2 27.9594 28.0955 29.1871 0.0000 2.1790 0.0000
# 3 70.1084 29.1871 139.0203 0.0000 -0.1311 0.0000
# 4 0.0000 0.0000 0.0000 16.4102 0.0000 -0.6104
# 5 13.1168 2.1790 -0.1311 0.0000 17.4513 0.0000
# 6 0.0000 0.0000 0.0000 -0.6104 0.0000 24.8974
#
#
#
# Elastic Compliance Matrix: (Units=1/GPa)
#
#
# Indices 1 2 3 4 5 6 
#
# 1 0.016347 -0.008723 -0.006423 0.000000 -0.011246 0.000000
# 2 -0.008723 0.050761 -0.006258 0.000000 0.000171 0.000000
# 3 -0.006423 -0.006258 0.011752 0.000000 0.005697 0.000000
# 4 0.000000 0.000000 0.000000 0.060994 0.000000 0.001495
# 5 -0.011246 0.000171 0.005697 0.000000 0.065776 0.000000
# 6 0.000000 0.000000 0.000000 0.001495 0.000000 0.040202
#
#
# Mechanical properties :
#
#
# Convention : Reuss Voigt Hill
#
# Bulk Modulus (GPa) = 27.73785 59.36557 43.55171
# Shear Modulus (GPa) = 16.63029 21.92014 19.27521
#
# Velocity S-wave (km/s) = 3.10516 3.56497 3.34298
# Velocity P-wave (km/s) = 5.37941 7.16692 6.33651
#
# Compressibility (1/GPa) = 0.03605182
#
# Stress axis : x y z
#
# Youngs Moduli (GPa) = 61.17431 19.69997 85.09497
#
# Poissons Ratio (x) = 0.17184 0.54656
# Poissons Ratio (y) = 0.53362 0.53254
# Poissons Ratio (z) = 0.39292 0.12329
#
# Static dielectric constant tensor:
#      x y z
#    x 3.226160 0.000000 0.138680 
#    y 0.000000 2.999050 0.000000 
#    z 0.138680 0.000000 3.625110 
# 
# 
# High freq. dielectric constant tensor:
#      x y z
#    x 1.654100 0.000000 0.008110 
#    y 0.000000 1.645410 0.000000 
#    z 0.008110 0.000000 1.667550 
# 
# From -- ./inp_files/51669.got.cif
#   From: 2010.06.25/outbox.cif.g09.slc.cpg/sg11_26_cif.got.tgz:51669.got - 2010.06.27 23:14:04.
