data_PCOD8068508
_publ_section_title
;
Structure prediction by ZEFSAII (Michael W. Deem and Ramdas Pophale) SiO2 
 PCOD8068508
Probable space group: P 21/M
;
_chemical_formula_sum "Si O2"
_cell_formula_units_Z 28
_cell_length_a 14.308472
_cell_length_b 9.446559
_cell_length_c 16.863243
_cell_angle_alpha 90.000000
_cell_angle_beta 129.557268
_cell_angle_gamma 90.000000
_cell_volume 1757.340255
_symmetry_space_group_name_H-M "P 21/M"
_symmetry_group_IT_number 11
_symmetry_cell_setting 'monoclinic'
loop_
_space_group_symop_operation_xyz
x,y,z
-x,1/2+y,-z
-x,-y,-z
x,1/2-y,z
loop_
_atom_site_type_symbol
_atom_site_label
_atom_site_fract_x
_atom_site_fract_y
_atom_site_fract_z
Si Si1 0.193462 0.088413 0.076958
Si Si2 0.574892 0.410843 0.777386
Si Si3 0.550479 0.589690 0.136973
Si Si4 0.087927 0.914202 0.885268
Si Si5 0.821885 0.908898 0.748276
Si Si6 0.684154 0.413617 0.090927
Si Si7 0.588465 0.415032 0.604156
O O1 0.202162 0.250000 0.053198
O O2 0.149728 0.076635 0.143408
O O3 0.324741 0.019058 0.138940
O O4 0.099156 0.006190 0.970838
O O5 0.624517 0.250000 0.813797
O O6 0.459154 0.433009 0.772863
O O7 0.539254 0.438739 0.666885
O O8 0.584592 0.750000 0.134542
O O9 0.657061 0.494006 0.158630
O O10 0.419705 0.550238 0.029091
O O11 0.109783 0.750000 0.919216
O O12 0.186468 0.964496 0.873588
O O13 0.952030 0.936483 0.776563
O O14 0.773772 0.750000 0.703002
O O15 0.723830 0.023111 0.666741
O O16 0.688126 0.250000 0.114658
O O17 0.500000 0.500000 0.500000
O O18 0.590877 0.250000 0.582248
#
# Coordination Sequence:
#
# PCOD8068508 Si02
#       7
#     4   4   4   4   4   4   4
#     4  10  18  26  40  65  92 119 154 192 220 254
#     4   9  17  31  48  65  88 123 155 182 224 275
#     4   9  16  28  43  61  87 119 157 191 220 259
#     4  10  18  30  44  60  90 129 158 183 219 269
#     4   9  19  32  46  65  90 120 154 187 223 268
#     4   9  17  27  41  61  88 123 158 188 220 257
#     4  10  20  34  53  72  93 116 145 186 231 277
#
# _framework density 15.933168999999999
#
# number of rings (size 3 to 8) (size 9 to 14) (size 15 to 20)
#    0.000    2.571    1.429    1.286    0.000    2.857 
#    0.000    0.000    0.000    0.000    0.000    1.000 
#    0.000    0.000    0.000    0.000    0.000    0.000 
#
# Total GULP energy -347113.166702 kJ/mol
# GULP energy per Si atom -12396.898811 kJ/mol
# Density = 1.589690 g / cm^3
# Si number density = 15.933169 Si / 1000 Ang^3
#
#
#
# Elastic Constant Matrix: (Units=GPa)
#
#
# Indices 1 2 3 4 5 6 
#
# 1 102.0832 44.9504 38.7982 0.0000 10.5316 0.0000
# 2 44.9504 88.3628 47.4008 0.0000 6.9454 0.0000
# 3 38.7982 47.4008 67.6110 0.0000 5.7759 0.0000
# 4 0.0000 0.0000 0.0000 24.4457 0.0000 -0.4150
# 5 10.5316 6.9454 5.7759 0.0000 14.8370 0.0000
# 6 0.0000 0.0000 0.0000 -0.4150 0.0000 24.8420
#
#
#
# Elastic Compliance Matrix: (Units=1/GPa)
#
#
# Indices 1 2 3 4 5 6 
#
# 1 0.014021 -0.004188 -0.004579 0.000000 -0.006209 0.000000
# 2 -0.004188 0.019584 -0.011169 0.000000 -0.001847 0.000000
# 3 -0.004579 -0.011169 0.025368 0.000000 -0.001397 0.000000
# 4 0.000000 0.000000 0.000000 0.040919 0.000000 0.000684
# 5 -0.006209 -0.001847 -0.001397 0.000000 0.073215 0.000000
# 6 0.000000 0.000000 0.000000 0.000684 0.000000 0.040266
#
#
# Mechanical properties :
#
#
# Convention : Reuss Voigt Hill
#
# Bulk Modulus (GPa) = 52.35468 57.81728 55.08598
# Shear Modulus (GPa) = 19.25955 21.28546 20.27251
#
# Velocity S-wave (km/s) = 3.48051 3.65899 3.57087
# Velocity P-wave (km/s) = 7.00587 7.36323 7.18677
#
# Compressibility (1/GPa) = 0.01910049
#
# Stress axis : x y z
#
# Youngs Moduli (GPa) = 71.32123 51.06217 39.41979
#
# Poissons Ratio (x) = 0.21385 0.18052
# Poissons Ratio (y) = 0.29869 0.44028
# Poissons Ratio (z) = 0.32661 0.57031
#
# Static dielectric constant tensor:
#      x y z
#    x 3.165350 0.000000 -0.010530 
#    y 0.000000 3.138450 0.000000 
#    z -0.010530 0.000000 2.659470 
# 
# 
# High freq. dielectric constant tensor:
#      x y z
#    x 1.611380 0.000000 0.002880 
#    y 0.000000 1.621010 0.000000 
#    z 0.002880 0.000000 1.561410 
# 
# From -- ./inp_files/42612.got.cif
#   From: 2010.06.25/outbox.cif.g09.slc.cpg/sg11_22_cif.got.tgz:42612.got - 2010.06.27 23:14:04.
