data_PCOD8068076
_publ_section_title
;
Structure prediction by ZEFSAII (Michael W. Deem and Ramdas Pophale) SiO2 
 PCOD8068076
Probable space group: P 2/M
;
_chemical_formula_sum "Si O2"
_cell_formula_units_Z 24
_cell_length_a 24.000000
_cell_length_b 9.000000
_cell_length_c 18.000000
_cell_angle_alpha 90.000000
_cell_angle_beta 160.000000
_cell_angle_gamma 90.000000
_cell_volume 1329.774317
_symmetry_space_group_name_H-M "P 2/M"
_symmetry_group_IT_number 10
_symmetry_cell_setting 'monoclinic'
loop_
_space_group_symop_operation_xyz
x,y,z
-x,y,-z
-x,-y,-z
x,-y,z
loop_
_atom_site_type_symbol
_atom_site_label
_atom_site_fract_x
_atom_site_fract_y
_atom_site_fract_z
Si Si1 0.909337 0.822121 0.485353
Si Si2 0.735908 0.330741 0.651062
Si Si3 0.766492 0.679164 0.168546
Si Si4 0.131688 0.172164 0.396853
Si Si5 0.550609 0.824576 0.297312
Si Si6 0.058658 0.332677 0.958133
O O1 0.774885 0.748824 0.262186
O O2 0.858477 0.780288 0.505101
O O3 0.082825 0.746267 0.688215
O O4 0.918417 0.000000 0.483938
O O5 0.670616 0.500000 0.573324
O O6 0.597978 0.226615 0.440701
O O7 0.896566 0.324227 0.803190
O O8 0.788509 0.273618 0.799967
O O9 0.774730 0.500000 0.181837
O O10 0.603458 0.731960 0.923596
O O11 0.302121 0.218468 0.573197
O O12 0.973691 0.243160 0.158301
O O13 0.101384 0.000000 0.350411
O O14 0.512594 0.000000 0.249704
O O15 0.098274 0.500000 0.984161
#
# Coordination Sequence:
#
# PCOD8068076 Si02
#       6
#     4   4   4   4   4   4
#     4  10  20  37  56  73  96 129 164 202 245 294
#     4   8  14  26  43  68  99 132 165 198 236 284
#     4  11  22  36  53  74  97 127 166 205 243 294
#     4   9  19  32  50  76 103 129 163 202 243 289
#     4  10  19  32  50  75 103 132 163 201 245 288
#     4   8  14  25  44  68  99 133 163 196 239 285
#
# _framework density 18.048175000000001
#
# number of rings (size 3 to 8) (size 9 to 14) (size 15 to 20)
#    0.000    2.667    0.000    4.500    0.000    3.333 
#    0.000    6.667    0.000    1.000    0.000    7.000 
#    0.000    0.000    0.000    0.000    0.000    0.000 
#
# Total GULP energy -297430.361349 kJ/mol
# GULP energy per Si atom -12392.931723 kJ/mol
# Density = 1.800710 g / cm^3
# Si number density = 18.048175 Si / 1000 Ang^3
#
#
#
# Elastic Constant Matrix: (Units=GPa)
#
#
# Indices 1 2 3 4 5 6 
#
# 1 33.5950 25.5586 42.2022 0.0000 -15.4644 0.0000
# 2 25.5586 105.9501 58.8002 0.0000 -14.8007 0.0000
# 3 42.2022 58.8002 137.4791 0.0000 -36.7123 0.0000
# 4 0.0000 0.0000 0.0000 36.2270 0.0000 -11.4721
# 5 -15.4644 -14.8007 -36.7123 0.0000 24.2631 0.0000
# 6 0.0000 0.0000 0.0000 -11.4721 0.0000 24.2611
#
#
#
# Elastic Compliance Matrix: (Units=1/GPa)
#
#
# Indices 1 2 3 4 5 6 
#
# 1 0.053546 -0.005153 -0.009999 0.000000 0.015855 0.000000
# 2 -0.005153 0.012881 -0.004541 0.000000 -0.002298 0.000000
# 3 -0.009999 -0.004541 0.016518 0.000000 0.015850 0.000000
# 4 0.000000 0.000000 0.000000 0.032465 0.000000 0.015351
# 5 0.015855 -0.002298 0.015850 0.000000 0.073901 0.000000
# 6 0.000000 0.000000 0.000000 0.015351 0.000000 0.048477
#
#
# Mechanical properties :
#
#
# Convention : Reuss Voigt Hill
#
# Bulk Modulus (GPa) = 22.95747 58.90513 40.93130
# Shear Modulus (GPa) = 17.14125 26.98114 22.06119
#
# Velocity S-wave (km/s) = 3.08514 3.87065 3.50001
# Velocity P-wave (km/s) = 5.04366 7.25841 6.24992
#
# Compressibility (1/GPa) = 0.04355881
#
# Stress axis : x y z
#
# Youngs Moduli (GPa) = 18.67549 77.63657 60.53954
#
# Poissons Ratio (x) = 0.40004 0.60536
# Poissons Ratio (y) = 0.09623 0.27490
# Poissons Ratio (z) = 0.18674 0.35254
#
# Static dielectric constant tensor:
#      x y z
#    x 3.441350 0.000000 -0.457590 
#    y 0.000000 3.472620 0.000000 
#    z -0.457590 0.000000 3.567900 
# 
# 
# High freq. dielectric constant tensor:
#      x y z
#    x 1.677950 0.000000 -0.035760 
#    y 0.000000 1.706690 0.000000 
#    z -0.035760 0.000000 1.704140 
# 
# From -- ./inp_files/45170.got.cif
#   From: 2010.06.25/outbox.ucp.g09.slc.cvg/sg10_23_cif.got.tgz:45170.got - 2010.06.28 13:37:52.
