data_PCOD8068216
_publ_section_title
;
Structure prediction by ZEFSAII (Michael W. Deem and Ramdas Pophale) SiO2 
 PCOD8068216
Probable space group: P 21/M
;
_chemical_formula_sum "Si O2"
_cell_formula_units_Z 32
_cell_length_a 24.336138
_cell_length_b 9.247374
_cell_length_c 12.151143
_cell_angle_alpha 90.000000
_cell_angle_beta 131.256835
_cell_angle_gamma 90.000000
_cell_volume 2055.734811
_symmetry_space_group_name_H-M "P 21/M"
_symmetry_group_IT_number 11
_symmetry_cell_setting 'monoclinic'
loop_
_space_group_symop_operation_xyz
x,y,z
-x,1/2+y,-z
-x,-y,-z
x,1/2-y,z
loop_
_atom_site_type_symbol
_atom_site_label
_atom_site_fract_x
_atom_site_fract_y
_atom_site_fract_z
Si Si1 0.037657 0.417403 0.951669
Si Si2 0.375418 0.589913 0.153464
Si Si3 0.001145 0.084791 0.662396
Si Si4 0.526764 0.919848 0.427378
Si Si5 0.337456 0.586003 0.359423
Si Si6 0.242471 0.416755 0.923990
Si Si7 0.113976 0.916658 0.666865
Si Si8 0.798005 0.917528 0.878385
O O1 0.034759 0.250000 0.977075
O O2 0.993466 0.451078 0.781063
O O3 0.121289 0.468101 0.048674
O O4 0.000000 0.500000 0.000000
O O5 0.355602 0.750000 0.084095
O O6 0.462382 0.559540 0.250873
O O7 0.360040 0.580554 0.262555
O O8 0.325374 0.475788 0.022396
O O9 0.029551 0.250000 0.683848
O O10 0.922226 0.063631 0.501342
O O11 0.060018 0.978813 0.687586
O O12 0.539773 0.750000 0.469137
O O13 0.500000 0.000000 0.500000
O O14 0.602706 0.995392 0.490207
O O15 0.333918 0.750000 0.399165
O O16 0.258365 0.511656 0.268071
O O17 0.243597 0.250000 0.893668
O O18 0.190722 0.499224 0.769082
O O19 0.211380 0.446273 0.004377
O O20 0.128377 0.750000 0.713950
O O21 0.783769 0.750000 0.833291
#
# Coordination Sequence:
#
# PCOD8068216 Si02
#       8
#     4   4   4   4   4   4   4   4
#     4  10  20  34  48  63  84 110 141 177 218 259
#     4   8  15  24  33  50  75 102 136 170 198 238
#     4   9  18  33  46  61  84 108 136 172 215 257
#     4   9  15  23  34  49  71 100 134 169 203 240
#     4   9  16  24  36  53  73  98 133 173 205 241
#     4  10  17  26  40  57  81 110 137 170 211 249
#     4  10  18  27  45  65  83 107 137 175 212 251
#     4   9  17  29  42  55  77 107 137 171 210 251
#
# _framework density 15.566210999999999
#
# number of rings (size 3 to 8) (size 9 to 14) (size 15 to 20)
#    0.000    2.750    1.250    2.250    0.000    5.500 
#    0.000    0.000    0.000    0.000    0.000    0.000 
#    0.000    0.000    0.000    1.125    0.000   13.625 
#
# Total GULP energy -396643.396700 kJ/mol
# GULP energy per Si atom -12395.106147 kJ/mol
# Density = 1.553078 g / cm^3
# Si number density = 15.566211 Si / 1000 Ang^3
#
#
#
# Elastic Constant Matrix: (Units=GPa)
#
#
# Indices 1 2 3 4 5 6 
#
# 1 46.0870 34.5795 46.7435 0.0000 12.9041 0.0000
# 2 34.5795 111.3994 68.9429 0.0000 21.5695 0.0000
# 3 46.7435 68.9429 105.7090 0.0000 28.2663 0.0000
# 4 0.0000 0.0000 0.0000 26.9845 0.0000 8.8705
# 5 12.9041 21.5695 28.2663 0.0000 25.2040 0.0000
# 6 0.0000 0.0000 0.0000 8.8705 0.0000 20.5896
#
#
#
# Elastic Compliance Matrix: (Units=1/GPa)
#
#
# Indices 1 2 3 4 5 6 
#
# 1 0.039741 -0.002426 -0.015862 0.000000 -0.000481 0.000000
# 2 -0.002426 0.015328 -0.008211 0.000000 -0.002667 0.000000
# 3 -0.015862 -0.008211 0.025394 0.000000 -0.013331 0.000000
# 4 0.000000 0.000000 0.000000 0.043173 0.000000 -0.018600
# 5 -0.000481 -0.002667 -0.013331 0.000000 0.057156 0.000000
# 6 0.000000 0.000000 0.000000 -0.018600 0.000000 0.056581
#
#
# Mechanical properties :
#
#
# Convention : Reuss Voigt Hill
#
# Bulk Modulus (GPa) = 36.41038 62.63633 49.52336
# Shear Modulus (GPa) = 16.69307 22.08427 19.38867
#
# Velocity S-wave (km/s) = 3.27829 3.77069 3.53308
# Velocity P-wave (km/s) = 6.14581 7.69958 6.96615
#
# Compressibility (1/GPa) = 0.02746469
#
# Stress axis : x y z
#
# Youngs Moduli (GPa) = 25.16266 65.24189 39.37974
#
# Poissons Ratio (x) = 0.15828 0.62465
# Poissons Ratio (y) = 0.06105 0.32333
# Poissons Ratio (z) = 0.39914 0.53568
#
# Static dielectric constant tensor:
#      x y z
#    x 2.611160 0.000000 0.488140 
#    y 0.000000 3.116800 0.000000 
#    z 0.488140 0.000000 3.214210 
# 
# 
# High freq. dielectric constant tensor:
#      x y z
#    x 1.534910 0.000000 0.047140 
#    y 0.000000 1.611420 0.000000 
#    z 0.047140 0.000000 1.591340 
# 
# From -- ./inp_files/43762.got.cif
#   From: 2010.06.25/outbox.cif.g09.slc.cpg/sg11_22_cif.got.tgz:43762.got - 2010.06.27 23:14:04.
