data_PCOD8068400
_publ_section_title
;
Structure prediction by ZEFSAII (Michael W. Deem and Ramdas Pophale) SiO2 
 PCOD8068400
Probable space group: P 21/M
;
_chemical_formula_sum "Si O2"
_cell_formula_units_Z 32
_cell_length_a 10.388876
_cell_length_b 20.602745
_cell_length_c 9.319984
_cell_angle_alpha 90.000000
_cell_angle_beta 114.127303
_cell_angle_gamma 90.000000
_cell_volume 1820.572905
_symmetry_space_group_name_H-M "P 21/M"
_symmetry_group_IT_number 11
_symmetry_cell_setting 'monoclinic'
loop_
_space_group_symop_operation_xyz
x,y,z
-x,1/2+y,-z
-x,-y,-z
x,1/2-y,z
loop_
_atom_site_type_symbol
_atom_site_label
_atom_site_fract_x
_atom_site_fract_y
_atom_site_fract_z
Si Si1 0.028759 0.105312 0.539580
Si Si2 0.650613 0.177488 0.435100
Si Si3 0.207161 0.996537 0.530660
Si Si4 0.846490 0.176540 0.259365
Si Si5 0.927683 0.176062 0.746561
Si Si6 0.496593 0.951649 0.631845
Si Si7 0.196914 0.020060 0.194982
Si Si8 0.075108 0.901929 0.972851
O O1 0.904003 0.053240 0.453479
O O2 0.991281 0.164361 0.415515
O O3 0.037263 0.131568 0.706136
O O4 0.175577 0.070211 0.567379
O O5 0.586141 0.250000 0.420415
O O6 0.711747 0.167280 0.302355
O O7 0.774377 0.167579 0.606669
O O8 0.531208 0.124342 0.418129
O O9 0.361786 0.977058 0.661841
O O10 0.198990 0.989759 0.354773
O O11 0.852096 0.250000 0.203706
O O12 0.840245 0.126929 0.123698
O O13 0.978921 0.250000 0.763733
O O14 0.927660 0.153558 0.909307
O O15 0.647529 0.954378 0.779615
O O16 0.500000 0.000000 0.500000
O O17 0.085221 0.078955 0.140755
O O18 0.157610 0.965362 0.062458
#
# Coordination Sequence:
#
# PCOD8068400 Si02
#       8
#     4   4   4   4   4   4   4   4
#     4  10  17  30  54  79  99 128 172 220 264 294
#     4   9  18  35  57  80 103 135 180 225 262 310
#     4  10  17  30  54  78 102 129 169 224 262 303
#     4  10  19  32  54  78 104 136 175 218 260 313
#     4  10  18  31  53  78 102 135 173 210 259 318
#     4  10  18  33  54  80 105 137 179 221 263 317
#     4  10  21  32  51  74 109 137 169 219 268 316
#     4  11  20  35  49  78 109 134 172 220 267 313
#
# _framework density 17.576885000000001
#
# number of rings (size 3 to 8) (size 9 to 14) (size 15 to 20)
#    0.000    2.000    5.000    2.250    0.000    0.000 
#    0.000    1.875    0.000    0.000    0.000    0.000 
#    0.000    0.000    0.000    0.000    0.000    0.000 
#
# Total GULP energy -396590.694355 kJ/mol
# GULP energy per Si atom -12393.459199 kJ/mol
# Density = 1.753688 g / cm^3
# Si number density = 17.576885 Si / 1000 Ang^3
#
#
#
# Elastic Constant Matrix: (Units=GPa)
#
#
# Indices 1 2 3 4 5 6 
#
# 1 72.2031 42.9033 27.0474 0.0000 16.4391 0.0000
# 2 42.9033 116.4023 24.1955 0.0000 4.4411 0.0000
# 3 27.0474 24.1955 64.0943 0.0000 -3.8856 0.0000
# 4 0.0000 0.0000 0.0000 27.6278 0.0000 -7.9704
# 5 16.4391 4.4411 -3.8856 0.0000 28.6278 0.0000
# 6 0.0000 0.0000 0.0000 -7.9704 0.0000 32.9574
#
#
#
# Elastic Compliance Matrix: (Units=1/GPa)
#
#
# Indices 1 2 3 4 5 6 
#
# 1 0.024164 -0.006593 -0.008558 0.000000 -0.014015 0.000000
# 2 -0.006593 0.011229 -0.001344 0.000000 0.001861 0.000000
# 3 -0.008558 -0.001344 0.020197 0.000000 0.007864 0.000000
# 4 0.000000 0.000000 0.000000 0.038910 0.000000 0.009410
# 5 -0.014015 0.001861 0.007864 0.000000 0.043757 0.000000
# 6 0.000000 0.000000 0.000000 0.009410 0.000000 0.032618
#
#
# Mechanical properties :
#
#
# Convention : Reuss Voigt Hill
#
# Bulk Modulus (GPa) = 44.24537 48.99913 46.62225
# Shear Modulus (GPa) = 23.65197 28.41285 26.03241
#
# Velocity S-wave (km/s) = 3.67226 4.02492 3.85263
# Velocity P-wave (km/s) = 6.57326 7.03829 6.80975
#
# Compressibility (1/GPa) = 0.02260123
#
# Stress axis : x y z
#
# Youngs Moduli (GPa) = 41.38414 89.05359 49.51109
#
# Poissons Ratio (x) = 0.58711 0.42371
# Poissons Ratio (y) = 0.27283 0.06655
# Poissons Ratio (z) = 0.35416 0.11970
#
# Static dielectric constant tensor:
#      x y z
#    x 3.379300 0.000000 0.035370 
#    y 0.000000 3.533220 0.000000 
#    z 0.035370 0.000000 3.105420 
# 
# 
# High freq. dielectric constant tensor:
#      x y z
#    x 1.653130 0.000000 -0.012480 
#    y 0.000000 1.695070 0.000000 
#    z -0.012480 0.000000 1.654850 
# 
# From -- ./inp_files/19207.got.cif
#   From: 2010.06.25/outbox.cif.g09.slc.cpg/sg11_10_cif.got.tgz:19207.got - 2010.06.27 23:14:04.
