data_PCOD8068033
_publ_section_title
;
Structure prediction by ZEFSAII (Michael W. Deem and Ramdas Pophale) SiO2 
 PCOD8068033
Probable space group: P 2/M
;
_chemical_formula_sum "Si O2"
_cell_formula_units_Z 24
_cell_length_a 19.713954
_cell_length_b 7.818911
_cell_length_c 25.508878
_cell_angle_alpha 90.000000
_cell_angle_beta 18.815897
_cell_angle_gamma 90.000000
_cell_volume 1268.175154
_symmetry_space_group_name_H-M "P 2/M"
_symmetry_group_IT_number 10
_symmetry_cell_setting 'monoclinic'
loop_
_space_group_symop_operation_xyz
x,y,z
-x,y,-z
-x,-y,-z
x,-y,z
loop_
_atom_site_type_symbol
_atom_site_label
_atom_site_fract_x
_atom_site_fract_y
_atom_site_fract_z
Si Si1 0.155260 0.000000 0.257864
Si Si2 0.952868 0.689615 0.358429
Si Si3 0.161291 0.796214 0.838680
Si Si4 0.953902 0.202850 0.191754
Si Si5 0.628739 0.797146 0.516856
Si Si6 0.497390 0.000000 0.915796
Si Si7 0.707474 0.310389 0.981166
O O1 0.008921 0.830937 0.361272
O O2 0.269239 0.000000 0.230720
O O3 0.326182 0.000000 0.086901
O O4 0.961265 0.500000 0.377704
O O5 0.723046 0.721491 0.501754
O O6 0.118699 0.707857 0.190630
O O7 0.089964 0.726517 0.834253
O O8 0.393080 0.726504 0.682613
O O9 0.164137 0.000000 0.835839
O O10 0.000000 0.725528 0.000000
O O11 0.763223 0.264759 0.368352
O O12 0.176422 0.278528 0.048457
O O13 0.971507 0.000000 0.180000
O O14 0.634499 0.000000 0.516933
O O15 0.472064 0.169056 0.898210
O O16 0.605158 0.500000 0.055792
#
# Coordination Sequence:
#
# PCOD8068033 Si02
#       7
#     2   4   4   4   4   2   4
#     4   9  16  26  40  61  91 122 150 185 231 279
#     4   9  16  26  41  62  88 119 155 191 226 270
#     4   9  17  27  42  67  94 119 153 196 237 275
#     4   9  15  26  44  63  87 122 160 193 227 271
#     4   9  15  26  44  63  87 122 160 193 227 271
#     4   9  16  26  40  61  91 122 150 185 231 279
#     4   9  16  26  41  62  88 119 155 191 226 270
#
# _framework density 18.924831000000001
#
# number of rings (size 3 to 8) (size 9 to 14) (size 15 to 20)
#    0.000    3.000    1.667    0.500    0.000    2.667 
#    0.000    4.167    0.000    6.000    0.000    0.000 
#    0.000    2.667    0.000    3.000    0.000    3.333 
#
# Total GULP energy -297503.424905 kJ/mol
# GULP energy per Si atom -12395.976038 kJ/mol
# Density = 1.888176 g / cm^3
# Si number density = 18.924831 Si / 1000 Ang^3
#
#
#
# Elastic Constant Matrix: (Units=GPa)
#
#
# Indices 1 2 3 4 5 6 
#
# 1 124.7667 62.8940 68.2701 0.0000 -45.0568 0.0000
# 2 62.8940 104.6872 32.7169 0.0000 -26.3819 0.0000
# 3 68.2701 32.7169 57.1524 0.0000 -13.9710 0.0000
# 4 0.0000 0.0000 0.0000 5.2301 0.0000 -2.3932
# 5 -45.0568 -26.3819 -13.9710 0.0000 29.6707 0.0000
# 6 0.0000 0.0000 0.0000 -2.3932 0.0000 7.9693
#
#
#
# Elastic Compliance Matrix: (Units=1/GPa)
#
#
# Indices 1 2 3 4 5 6 
#
# 1 0.080957 -0.004375 -0.073568 0.000000 0.084408 0.000000
# 2 -0.004375 0.013919 -0.001515 0.000000 0.005019 0.000000
# 3 -0.073568 -0.001515 0.088829 0.000000 -0.071238 0.000000
# 4 0.000000 0.000000 0.000000 0.221660 0.000000 0.066566
# 5 0.084408 0.005019 -0.071238 0.000000 0.132802 0.000000
# 6 0.000000 0.000000 0.000000 0.066566 0.000000 0.145473
#
#
# Mechanical properties :
#
#
# Convention : Reuss Voigt Hill
#
# Bulk Modulus (GPa) = 40.33885 68.26312 54.30098
# Shear Modulus (GPa) = 5.87669 16.75571 11.31620
#
# Velocity S-wave (km/s) = 1.76409 2.97877 2.44797
# Velocity P-wave (km/s) = 5.05084 6.92674 6.06179
#
# Compressibility (1/GPa) = 0.02479000
#
# Stress axis : x y z
#
# Youngs Moduli (GPa) = 12.35217 71.84442 11.25757
#
# Poissons Ratio (x) = 0.31430 0.82820
# Poissons Ratio (y) = 0.05404 0.01706
# Poissons Ratio (z) = 0.90872 0.10886
#
# Static dielectric constant tensor:
#      x y z
#    x 3.485690 0.000000 -0.315860 
#    y 0.000000 3.413600 0.000000 
#    z -0.315860 0.000000 3.124660 
# 
# 
# High freq. dielectric constant tensor:
#      x y z
#    x 1.721300 0.000000 -0.035170 
#    y 0.000000 1.730730 0.000000 
#    z -0.035170 0.000000 1.681100 
# 
# From -- ./inp_files/80139.got.cif
#   From: 2010.06.25/outbox.cif.g09.slc.cpg/sg10_41_cif.got.tgz:80139.got - 2010.06.27 22:07:45.
