data_PCOD8068368
_publ_section_title
;
Structure prediction by ZEFSAII (Michael W. Deem and Ramdas Pophale) SiO2 
 PCOD8068368
Probable space group: P 21/M
;
_chemical_formula_sum "Si O2"
_cell_formula_units_Z 24
_cell_length_a 9.669023
_cell_length_b 18.340279
_cell_length_c 9.963511
_cell_angle_alpha 90.000000
_cell_angle_beta 126.973148
_cell_angle_gamma 90.000000
_cell_volume 1411.571405
_symmetry_space_group_name_H-M "P 21/M"
_symmetry_group_IT_number 11
_symmetry_cell_setting 'monoclinic'
loop_
_space_group_symop_operation_xyz
x,y,z
-x,1/2+y,-z
-x,-y,-z
x,1/2-y,z
loop_
_atom_site_type_symbol
_atom_site_label
_atom_site_fract_x
_atom_site_fract_y
_atom_site_fract_z
Si Si1 0.138089 0.946595 0.014714
Si Si2 0.600481 0.609532 0.514731
Si Si3 0.248036 0.831813 0.298671
Si Si4 0.041102 0.420690 0.360201
Si Si5 0.543000 0.525844 0.727872
Si Si6 0.821179 0.423482 0.480977
O O1 0.170714 0.879395 0.133413
O O2 0.312893 0.994126 0.086284
O O3 0.077649 0.912480 0.839660
O O4 0.000000 0.000000 0.000000
O O5 0.458716 0.673279 0.415631
O O6 0.784961 0.628397 0.554343
O O7 0.632463 0.589262 0.689945
O O8 0.511290 0.539557 0.399095
O O9 0.174660 0.750000 0.243362
O O10 0.191610 0.864428 0.409191
O O11 0.091266 0.505135 0.404710
O O12 0.938366 0.391345 0.429725
O O13 0.368097 0.557694 0.693636
#
# Coordination Sequence:
#
# PCOD8068368 Si02
#       6
#     4   4   4   4   4   4
#     4  11  17  29  53  79 101 132 168 220 256 293
#     4   8  14  28  47  68  92 127 166 199 232 297
#     4  10  20  35  51  68  98 140 174 205 260 317
#     4  10  17  29  53  82 101 121 169 218 254 289
#     4   8  14  26  46  70 100 126 158 199 246 292
#     4   9  18  31  49  77 104 131 163 208 256 308
#
# _framework density 17.002326
#
# number of rings (size 3 to 8) (size 9 to 14) (size 15 to 20)
#    0.000    2.667    3.333    2.000    0.000    0.667 
#    0.000    2.500    0.000    0.000    0.000    0.000 
#    0.000    0.000    0.000    0.000    0.000    0.000 
#
# Total GULP energy -297350.020700 kJ/mol
# GULP energy per Si atom -12389.584196 kJ/mol
# Density = 1.696363 g / cm^3
# Si number density = 17.002326 Si / 1000 Ang^3
#
#
#
# Elastic Constant Matrix: (Units=GPa)
#
#
# Indices 1 2 3 4 5 6 
#
# 1 125.9163 34.5211 50.5196 0.0000 -1.2915 0.0000
# 2 34.5211 65.2304 28.8866 0.0000 -0.2310 0.0000
# 3 50.5196 28.8866 99.8553 0.0000 2.4517 0.0000
# 4 0.0000 0.0000 0.0000 13.6337 0.0000 1.6554
# 5 -1.2915 -0.2310 2.4517 0.0000 22.9587 0.0000
# 6 0.0000 0.0000 0.0000 1.6554 0.0000 12.4053
#
#
#
# Elastic Compliance Matrix: (Units=1/GPa)
#
#
# Indices 1 2 3 4 5 6 
#
# 1 0.010732 -0.003739 -0.004373 0.000000 0.001033 0.000000
# 2 -0.003739 0.018898 -0.003584 0.000000 0.000363 0.000000
# 3 -0.004373 -0.003584 0.013306 0.000000 -0.001703 0.000000
# 4 0.000000 0.000000 0.000000 0.074556 0.000000 -0.009949
# 5 0.001033 0.000363 -0.001703 0.000000 0.043800 0.000000
# 6 0.000000 0.000000 0.000000 -0.009949 0.000000 0.081938
#
#
# Mechanical properties :
#
#
# Convention : Reuss Voigt Hill
#
# Bulk Modulus (GPa) = 51.17087 57.65073 54.41080
# Shear Modulus (GPa) = 18.30585 21.60452 19.95519
#
# Velocity S-wave (km/s) = 3.28482 3.56853 3.42961
# Velocity P-wave (km/s) = 6.67446 7.13865 6.91046
#
# Compressibility (1/GPa) = 0.01954237
#
# Stress axis : x y z
#
# Youngs Moduli (GPa) = 93.17751 52.91692 75.15601
#
# Poissons Ratio (x) = 0.19787 0.32868
# Poissons Ratio (y) = 0.34842 0.26935
# Poissons Ratio (z) = 0.40750 0.18965
#
# Static dielectric constant tensor:
#      x y z
#    x 3.476350 0.000000 0.230230 
#    y 0.000000 2.838440 0.000000 
#    z 0.230230 0.000000 3.173310 
# 
# 
# High freq. dielectric constant tensor:
#      x y z
#    x 1.662790 0.000000 0.014740 
#    y 0.000000 1.609180 0.000000 
#    z 0.014740 0.000000 1.643730 
# 
# From -- ./inp_files/13281.got.cif
#   From: 2010.06.25/outbox.cif.g09.slc.cpg/sg11_7_cif.got.tgz:13281.got - 2010.06.27 23:14:04.
