data_PCOD8068059
_publ_section_title
;
Structure prediction by ZEFSAII (Michael W. Deem and Ramdas Pophale) SiO2 
 PCOD8068059
Probable space group: P 2/M
;
_chemical_formula_sum "Si O2"
_cell_formula_units_Z 28
_cell_length_a 7.984115
_cell_length_b 9.385313
_cell_length_c 28.659238
_cell_angle_alpha 90.000000
_cell_angle_beta 45.448899
_cell_angle_gamma 90.000000
_cell_volume 1530.386976
_symmetry_space_group_name_H-M "P 2/M"
_symmetry_group_IT_number 10
_symmetry_cell_setting 'monoclinic'
loop_
_space_group_symop_operation_xyz
x,y,z
-x,y,-z
-x,-y,-z
x,-y,z
loop_
_atom_site_type_symbol
_atom_site_label
_atom_site_fract_x
_atom_site_fract_y
_atom_site_fract_z
Si Si1 0.488626 0.167334 0.641470
Si Si2 0.926366 0.339267 0.568352
Si Si3 0.330494 0.152252 0.492157
Si Si4 0.881905 0.167517 0.126135
Si Si5 0.512950 0.832116 0.870884
Si Si6 0.799513 0.659502 0.001417
Si Si7 0.040584 0.167900 0.783150
O O1 0.692458 0.254394 0.628209
O O2 0.517156 0.207400 0.581571
O O3 0.236921 0.224582 0.708571
O O4 0.516617 0.000000 0.646739
O O5 0.898696 0.500000 0.591045
O O6 0.000000 0.326426 0.500000
O O7 0.145957 0.263669 0.549946
O O8 0.500000 0.117696 0.500000
O O9 0.208533 0.000000 0.501819
O O10 0.634331 0.203797 0.147869
O O11 0.878901 0.216965 0.180705
O O12 0.099914 0.253739 0.062027
O O13 0.935092 0.000000 0.110669
O O14 0.784677 0.779501 0.814963
O O15 0.495446 0.000000 0.884927
O O16 0.413937 0.748013 0.934825
O O17 0.717296 0.500000 0.002350
O O18 0.000000 0.645312 0.000000
O O19 0.035574 0.000000 0.783417
#
# Coordination Sequence:
#
# PCOD8068059 Si02
#       7
#     4   4   4   4   4   4   4
#     4   9  17  32  50  69  98 128 159 201 244 289
#     4   9  17  30  49  70  93 125 160 195 237 285
#     4   9  17  30  49  76 101 125 159 201 247 291
#     4   9  17  31  50  71  94 125 163 199 243 292
#     4   9  17  31  50  70  95 125 160 201 243 288
#     4   9  17  30  49  72  97 125 159 202 247 286
#     4   9  18  32  49  72  98 127 163 202 242 288
#
# _framework density 18.296026000000001
#
# number of rings (size 3 to 8) (size 9 to 14) (size 15 to 20)
#    0.000    3.000    0.000    0.857    0.000    4.286 
#    2.571    5.000    0.000    0.000    0.000    0.000 
#    0.000    0.000    0.000    0.000    0.000    0.000 
#
# Total GULP energy -346883.639407 kJ/mol
# GULP energy per Si atom -12388.701407 kJ/mol
# Density = 1.825438 g / cm^3
# Si number density = 18.296026 Si / 1000 Ang^3
#
#
#
# Elastic Constant Matrix: (Units=GPa)
#
#
# Indices 1 2 3 4 5 6 
#
# 1 88.9076 27.9027 54.0308 0.0000 -14.5871 0.0000
# 2 27.9027 73.0615 42.5682 0.0000 -14.9042 0.0000
# 3 54.0308 42.5682 125.2942 0.0000 -26.1669 0.0000
# 4 0.0000 0.0000 0.0000 6.8468 0.0000 2.5286
# 5 -14.5871 -14.9042 -26.1669 0.0000 28.9040 0.0000
# 6 0.0000 0.0000 0.0000 2.5286 0.0000 5.8735
#
#
#
# Elastic Compliance Matrix: (Units=1/GPa)
#
#
# Indices 1 2 3 4 5 6 
#
# 1 0.015670 -0.002389 -0.005613 0.000000 0.001595 0.000000
# 2 -0.002389 0.017891 -0.004160 0.000000 0.004254 0.000000
# 3 -0.005613 -0.004160 0.013288 0.000000 0.007052 0.000000
# 4 0.000000 0.000000 0.000000 0.173665 0.000000 -0.074766
# 5 0.001595 0.004254 0.007052 0.000000 0.043980 0.000000
# 6 0.000000 0.000000 0.000000 -0.074766 0.000000 0.202444
#
#
# Mechanical properties :
#
#
# Convention : Reuss Voigt Hill
#
# Bulk Modulus (GPa) = 44.39369 59.58519 51.98944
# Shear Modulus (GPa) = 10.02469 19.17565 14.60017
#
# Velocity S-wave (km/s) = 2.34330 3.24091 2.82795
# Velocity P-wave (km/s) = 5.62478 6.82955 6.25623
#
# Compressibility (1/GPa) = 0.02252572
#
# Stress axis : x y z
#
# Youngs Moduli (GPa) = 63.81627 55.89453 75.25858
#
# Poissons Ratio (x) = 0.13353 0.42240
# Poissons Ratio (y) = 0.15245 0.31306
# Poissons Ratio (z) = 0.35818 0.23251
#
# Static dielectric constant tensor:
#      x y z
#    x 3.331050 0.000000 -0.176570 
#    y 0.000000 3.373020 0.000000 
#    z -0.176570 0.000000 3.462310 
# 
# 
# High freq. dielectric constant tensor:
#      x y z
#    x 1.697130 0.000000 -0.012180 
#    y 0.000000 1.693890 0.000000 
#    z -0.012180 0.000000 1.696970 
# 
# From -- ./inp_files/86428.got.cif
#   From: 2010.06.25/outbox.cif.g09.slc.cpg/sg10_44_cif.got.tgz:86428.got - 2010.06.27 22:07:45.
