data_PCOD8068025
_publ_section_title
;
Structure prediction by ZEFSAII (Michael W. Deem and Ramdas Pophale) SiO2 
 PCOD8068025
Probable space group: P 2/M
;
_chemical_formula_sum "Si O2"
_cell_formula_units_Z 20
_cell_length_a 9.466673
_cell_length_b 9.175296
_cell_length_c 26.988056
_cell_angle_alpha 90.000000
_cell_angle_beta 151.274378
_cell_angle_gamma 90.000000
_cell_volume 1126.644795
_symmetry_space_group_name_H-M "P 2/M"
_symmetry_group_IT_number 10
_symmetry_cell_setting 'monoclinic'
loop_
_space_group_symop_operation_xyz
x,y,z
-x,y,-z
-x,-y,-z
x,-y,z
loop_
_atom_site_type_symbol
_atom_site_label
_atom_site_fract_x
_atom_site_fract_y
_atom_site_fract_z
Si Si1 0.165324 0.164531 0.698862
Si Si2 0.668590 0.664906 0.500000
Si Si3 0.662366 0.669290 0.099419
Si Si4 0.171016 0.835469 0.301138
Si Si5 0.665272 0.669291 0.900581
O O1 0.479644 0.241001 0.803106
O O2 0.979603 0.252656 0.600787
O O3 0.990138 0.165996 0.696055
O O4 0.213676 0.000000 0.694844
O O5 0.500000 0.665321 0.500000
O O6 0.726312 0.500000 0.500001
O O7 0.475666 0.747342 0.399212
O O8 0.747904 0.500000 0.123145
O O9 0.445988 0.701815 0.078395
O O10 0.964109 0.759002 0.196892
O O11 0.500000 0.721844 0.000000
O O12 0.239459 0.000000 0.305157
O O13 0.632199 0.500000 0.876861
O O14 0.000000 0.721851 0.000000
#
# Coordination Sequence:
#
# PCOD8068025 Si02
#       5
#     4   4   4   4   4
#     4   9  16  25  38  58  84 111 139 173 212 252
#     4   9  15  23  37  57  82 111 140 171 210 254
#     4   9  17  29  44  62  85 113 144 176 209 247
#     4   9  16  25  38  58  84 111 139 173 212 252
#     4   9  17  29  44  62  85 113 144 176 209 247
#
# _framework density 17.751825
#
# number of rings (size 3 to 8) (size 9 to 14) (size 15 to 20)
#    0.000    3.000    0.000    1.800    0.000    8.000 
#    0.000    0.000    0.000    0.000    0.000    1.400 
#    0.000   11.200    0.000    0.000    0.000    0.000 
#
# Total GULP energy -247989.418362 kJ/mol
# GULP energy per Si atom -12399.470918 kJ/mol
# Density = 1.771142 g / cm^3
# Si number density = 17.751825 Si / 1000 Ang^3
#
#
#
# Elastic Constant Matrix: (Units=GPa)
#
#
# Indices 1 2 3 4 5 6 
#
# 1 17.0463 19.9858 31.7488 0.0000 -1.9843 0.0000
# 2 19.9858 144.6836 109.1473 0.0000 -3.0506 0.0000
# 3 31.7488 109.1473 205.6918 0.0000 -4.4690 0.0000
# 4 0.0000 0.0000 0.0000 31.1061 0.0000 -0.7570
# 5 -1.9843 -3.0506 -4.4690 0.0000 21.7306 0.0000
# 6 0.0000 0.0000 0.0000 -0.7570 0.0000 8.9809
#
#
#
# Elastic Compliance Matrix: (Units=1/GPa)
#
#
# Indices 1 2 3 4 5 6 
#
# 1 0.083628 -0.002987 -0.011217 0.000000 0.004911 0.000000
# 2 -0.002987 0.011635 -0.005709 0.000000 0.000187 0.000000
# 3 -0.011217 -0.005709 0.009626 0.000000 0.000154 0.000000
# 4 0.000000 0.000000 0.000000 0.032214 0.000000 0.002715
# 5 0.004911 0.000187 0.000154 0.000000 0.046524 0.000000
# 6 0.000000 0.000000 0.000000 0.002715 0.000000 0.111576
#
#
# Mechanical properties :
#
#
# Convention : Reuss Voigt Hill
#
# Bulk Modulus (GPa) = 15.36947 76.57618 45.97282
# Shear Modulus (GPa) = 14.01680 26.13284 20.07482
#
# Velocity S-wave (km/s) = 2.81303 3.84099 3.36647
# Velocity P-wave (km/s) = 4.38493 7.93105 6.40817
#
# Compressibility (1/GPa) = 0.06506406
#
# Stress axis : x y z
#
# Youngs Moduli (GPa) = 11.95774 85.94954 103.89039
#
# Poissons Ratio (x) = 0.25671 1.16529
# Poissons Ratio (y) = 0.03571 0.59308
# Poissons Ratio (z) = 0.13412 0.49066
#
# Static dielectric constant tensor:
#      x y z
#    x 2.622900 0.000000 -0.030580 
#    y 0.000000 3.445960 0.000000 
#    z -0.030580 0.000000 3.517030 
# 
# 
# High freq. dielectric constant tensor:
#      x y z
#    x 1.606630 0.000000 -0.003360 
#    y 0.000000 1.696570 0.000000 
#    z -0.003360 0.000000 1.704860 
# 
# From -- ./inp_files/22184.got.cif
#   From: 2010.06.25/outbox.cif.g09.slc.cpg/sg10_12_cif.got.tgz:22184.got - 2010.06.27 22:07:45.
