data_PCOD8068434
_publ_section_title
;
Structure prediction by ZEFSAII (Michael W. Deem and Ramdas Pophale) SiO2 
 PCOD8068434
Probable space group: P 21/M
;
_chemical_formula_sum "Si O2"
_cell_formula_units_Z 28
_cell_length_a 8.986087
_cell_length_b 20.833990
_cell_length_c 11.399800
_cell_angle_alpha 90.000000
_cell_angle_beta 127.183134
_cell_angle_gamma 90.000000
_cell_volume 1700.354217
_symmetry_space_group_name_H-M "P 21/M"
_symmetry_group_IT_number 11
_symmetry_cell_setting 'monoclinic'
loop_
_space_group_symop_operation_xyz
x,y,z
-x,1/2+y,-z
-x,-y,-z
x,1/2-y,z
loop_
_atom_site_type_symbol
_atom_site_label
_atom_site_fract_x
_atom_site_fract_y
_atom_site_fract_z
Si Si1 0.294838 0.180201 0.384140
Si Si2 0.072421 0.912890 0.600574
Si Si3 0.250000 0.994981 0.500000
Si Si4 0.794838 0.819799 0.384140
Si Si5 0.615532 0.324973 0.832019
Si Si6 0.115532 0.824973 0.832019
Si Si7 0.427579 0.912890 0.399426
O O1 0.365993 0.250000 0.373344
O O2 0.250000 0.183879 0.500000
O O3 0.454914 0.126681 0.444533
O O4 0.098620 0.162231 0.228079
O O5 0.233034 0.951392 0.608712
O O6 0.166563 0.865681 0.740099
O O7 0.954914 0.873319 0.444533
O O8 0.933949 0.961512 0.602515
O O9 0.266965 0.951392 0.391288
O O10 0.433950 0.038488 0.602515
O O11 0.865993 0.750000 0.373344
O O12 0.598620 0.837769 0.228079
O O13 0.645010 0.250000 0.815556
O O14 0.666562 0.365681 0.740099
O O15 0.750000 0.347814 0.000000
O O16 0.145010 0.750000 0.815556
#
# Coordination Sequence:
#
# PCOD8068434 Si02
#       7
#     4   4   4   4   4   4   4
#     4   8  13  25  46  66  85 113 149 188 223 260
#     4  10  17  32  46  69  91 121 154 190 220 272
#     4  10  20  28  50  64  96 122 156 184 224 258
#     4   8  13  25  46  66  85 113 149 188 223 260
#     4   9  16  28  49  72  92 116 150 191 229 269
#     4   9  16  28  49  72  92 116 150 191 229 269
#     4  10  17  32  46  69  91 121 154 190 220 272
#
# _framework density 16.467155999999999
#
# number of rings (size 3 to 8) (size 9 to 14) (size 15 to 20)
#    0.000    2.857    4.286    2.571    0.000    0.000 
#    0.000    4.286    0.000    0.000    0.000    6.000 
#    0.000    0.000    0.000    0.000    0.000    0.000 
#
# Total GULP energy -346952.899489 kJ/mol
# GULP energy per Si atom -12391.174982 kJ/mol
# Density = 1.642968 g / cm^3
# Si number density = 16.467156 Si / 1000 Ang^3
#
#
#
# Elastic Constant Matrix: (Units=GPa)
#
#
# Indices 1 2 3 4 5 6 
#
# 1 63.5250 39.8934 25.8607 0.0000 -1.6209 0.0000
# 2 39.8934 98.9511 44.8688 0.0000 -2.5099 0.0000
# 3 25.8607 44.8688 116.2652 0.0000 8.8307 0.0000
# 4 0.0000 0.0000 0.0000 17.6806 0.0000 -6.8171
# 5 -1.6209 -2.5099 8.8307 0.0000 14.0536 0.0000
# 6 0.0000 0.0000 0.0000 -6.8171 0.0000 10.9926
#
#
#
# Elastic Compliance Matrix: (Units=1/GPa)
#
#
# Indices 1 2 3 4 5 6 
#
# 1 0.021433 -0.007684 -0.001980 0.000000 0.002344 0.000000
# 2 -0.007684 0.015410 -0.004599 0.000000 0.004756 0.000000
# 3 -0.001980 -0.004599 0.011442 0.000000 -0.008239 0.000000
# 4 0.000000 0.000000 0.000000 0.074333 0.000000 0.046098
# 5 0.002344 0.004756 -0.008239 0.000000 0.077453 0.000000
# 6 0.000000 0.000000 0.000000 0.046098 0.000000 0.119558
#
#
# Mechanical properties :
#
#
# Convention : Reuss Voigt Hill
#
# Bulk Modulus (GPa) = 50.60901 55.55411 53.08156
# Shear Modulus (GPa) = 14.09477 19.75326 16.92402
#
# Velocity S-wave (km/s) = 2.92881 3.46722 3.20932
# Velocity P-wave (km/s) = 6.49902 7.05963 6.78511
#
# Compressibility (1/GPa) = 0.01975933
#
# Stress axis : x y z
#
# Youngs Moduli (GPa) = 46.65692 64.89367 87.39643
#
# Poissons Ratio (x) = 0.49862 0.17305
# Poissons Ratio (y) = 0.35850 0.40194
# Poissons Ratio (z) = 0.09238 0.29845
#
# Static dielectric constant tensor:
#      x y z
#    x 2.781360 0.000000 0.291530 
#    y 0.000000 3.524870 0.000000 
#    z 0.291530 0.000000 3.183290 
# 
# 
# High freq. dielectric constant tensor:
#      x y z
#    x 1.586550 0.000000 0.019590 
#    y 0.000000 1.654940 0.000000 
#    z 0.019590 0.000000 1.604770 
# 
# From -- ./inp_files/32936.got.cif
#   From: 2010.06.25/outbox.cif.g09.slc.cpg/sg11_17_cif.got.tgz:32936.got - 2010.06.27 23:14:04.
