data_PCOD8068521
_publ_section_title
;
Structure prediction by ZEFSAII (Michael W. Deem and Ramdas Pophale) SiO2 
 PCOD8068521
Probable space group: P 21/M
;
_chemical_formula_sum "Si O2"
_cell_formula_units_Z 32
_cell_length_a 5.125996
_cell_length_b 21.289523
_cell_length_c 17.924789
_cell_angle_alpha 90.000000
_cell_angle_beta 72.344927
_cell_angle_gamma 90.000000
_cell_volume 1863.997756
_symmetry_space_group_name_H-M "P 21/M"
_symmetry_group_IT_number 11
_symmetry_cell_setting 'monoclinic'
loop_
_space_group_symop_operation_xyz
x,y,z
-x,1/2+y,-z
-x,-y,-z
x,1/2-y,z
loop_
_atom_site_type_symbol
_atom_site_label
_atom_site_fract_x
_atom_site_fract_y
_atom_site_fract_z
Si Si1 0.266651 0.024955 0.201640
Si Si2 0.538130 0.615646 0.365758
Si Si3 0.863149 0.451425 0.112641
Si Si4 0.295453 0.443228 0.513125
Si Si5 0.771770 0.504201 0.628671
Si Si6 0.929794 0.906978 0.053697
Si Si7 0.890724 0.177698 0.699332
Si Si8 0.665710 0.383342 0.857428
O O1 0.549361 0.060495 0.160519
O O2 0.040883 0.059478 0.171255
O O3 0.177603 0.033978 0.295122
O O4 0.291969 0.951534 0.182090
O O5 0.565826 0.615993 0.455061
O O6 0.494944 0.542371 0.344513
O O7 0.828391 0.639842 0.309507
O O8 0.283213 0.656901 0.358720
O O9 0.911585 0.521070 0.078931
O O10 0.953879 0.402615 0.040478
O O11 0.500000 0.500000 0.500000
O O12 0.251023 0.436537 0.427449
O O13 0.014878 0.458637 0.580542
O O14 0.635173 0.874536 0.082687
O O15 0.127923 0.870160 0.092808
O O16 0.967071 0.250000 0.682210
O O17 0.705074 0.167342 0.788469
#
# Coordination Sequence:
#
# PCOD8068521 Si02
#       8
#     4   4   4   4   4   4   4   4
#     4  10  18  26  45  64  95 123 159 191 231 275
#     4  11  20  36  50  65  98 130 165 209 247 290
#     4   9  18  27  39  65  88 120 155 196 218 283
#     4   9  19  31  51  71  96 126 173 200 240 300
#     4  10  19  31  49  74  95 131 169 205 238 298
#     4   9  17  29  43  59  86 119 163 188 231 272
#     4  12  24  35  50  72  95 128 174 216 246 281
#     4  10  18  29  47  60  85 127 161 197 237 278
#
# _framework density 17.167403
#
# number of rings (size 3 to 8) (size 9 to 14) (size 15 to 20)
#    0.000    2.000    2.500    1.875    7.000    3.000 
#    0.000    0.000    0.000    0.000    0.000    0.000 
#    0.000    0.000    0.000   22.500    0.250    0.000 
#
# Total GULP energy -396552.554732 kJ/mol
# GULP energy per Si atom -12392.267335 kJ/mol
# Density = 1.712833 g / cm^3
# Si number density = 17.167403 Si / 1000 Ang^3
#
#
#
# Elastic Constant Matrix: (Units=GPa)
#
#
# Indices 1 2 3 4 5 6 
#
# 1 107.4139 18.5490 34.8651 0.0000 9.9301 0.0000
# 2 18.5490 31.5747 23.5318 0.0000 2.9969 0.0000
# 3 34.8651 23.5318 106.9429 0.0000 18.9142 0.0000
# 4 0.0000 0.0000 0.0000 11.8505 0.0000 2.5035
# 5 9.9301 2.9969 18.9142 0.0000 34.2255 0.0000
# 6 0.0000 0.0000 0.0000 2.5035 0.0000 14.1837
#
#
#
# Elastic Compliance Matrix: (Units=1/GPa)
#
#
# Indices 1 2 3 4 5 6 
#
# 1 0.010991 -0.004596 -0.002304 0.000000 -0.001513 0.000000
# 2 -0.004596 0.039868 -0.007639 0.000000 0.002064 0.000000
# 3 -0.002304 -0.007639 0.012797 0.000000 -0.005735 0.000000
# 4 0.000000 0.000000 0.000000 0.087653 0.000000 -0.015471
# 5 -0.001513 0.002064 -0.005735 0.000000 0.032645 0.000000
# 6 0.000000 0.000000 0.000000 -0.015471 0.000000 0.073234
#
#
# Mechanical properties :
#
#
# Convention : Reuss Voigt Hill
#
# Bulk Modulus (GPa) = 28.92063 44.42483 36.67273
# Shear Modulus (GPa) = 16.79005 23.31764 20.05385
#
# Velocity S-wave (km/s) = 3.13072 3.68944 3.42151
# Velocity P-wave (km/s) = 5.47279 6.63950 6.08417
#
# Compressibility (1/GPa) = 0.03457739
#
# Stress axis : x y z
#
# Youngs Moduli (GPa) = 90.98097 25.08254 78.14147
#
# Poissons Ratio (x) = 0.11528 0.18007
# Poissons Ratio (y) = 0.41814 0.59695
# Poissons Ratio (z) = 0.20966 0.19162
#
# Static dielectric constant tensor:
#      x y z
#    x 2.551270 0.000000 0.280000 
#    y 0.000000 2.592590 0.000000 
#    z 0.280000 0.000000 3.529990 
# 
# 
# High freq. dielectric constant tensor:
#      x y z
#    x 1.693050 0.000000 0.006000 
#    y 0.000000 1.571270 0.000000 
#    z 0.006000 0.000000 1.664920 
# 
# From -- ./inp_files/57212.got.cif
#   From: 2010.06.25/outbox.cif.g09.slc.cpg/sg11_29_cif.got.tgz:57212.got - 2010.06.27 23:14:04.
