data_PCOD8068655
_publ_section_title
;
Structure prediction by ZEFSAII (Michael W. Deem and Ramdas Pophale) SiO2 
 PCOD8068655
Probable space group: P 21/M
;
_chemical_formula_sum "Si O2"
_cell_formula_units_Z 32
_cell_length_a 24.208126
_cell_length_b 9.154209
_cell_length_c 17.793514
_cell_angle_alpha 90.000000
_cell_angle_beta 152.037729
_cell_angle_gamma 90.000000
_cell_volume 1848.905570
_symmetry_space_group_name_H-M "P 21/M"
_symmetry_group_IT_number 11
_symmetry_cell_setting 'monoclinic'
loop_
_space_group_symop_operation_xyz
x,y,z
-x,1/2+y,-z
-x,-y,-z
x,1/2-y,z
loop_
_atom_site_type_symbol
_atom_site_label
_atom_site_fract_x
_atom_site_fract_y
_atom_site_fract_z
Si Si1 0.626200 0.076891 0.987041
Si Si2 0.832282 0.924176 0.657974
Si Si3 0.184696 0.576799 0.902229
Si Si4 0.124259 0.578346 0.147574
Si Si5 0.901937 0.079902 0.047579
Si Si6 0.635530 0.577340 0.306915
Si Si7 0.290847 0.417874 0.764753
Si Si8 0.021324 0.415990 0.450211
O O1 0.637781 0.250000 0.008285
O O2 0.701490 0.016168 0.006472
O O3 0.675707 0.012598 0.123551
O O4 0.490863 0.029149 0.811778
O O5 0.826511 0.750000 0.661409
O O6 0.739627 0.983392 0.484965
O O7 0.963377 0.980503 0.793302
O O8 0.794778 0.000027 0.692384
O O9 0.195143 0.750000 0.917375
O O10 0.173908 0.512124 0.974277
O O11 0.066008 0.523642 0.718393
O O12 0.111704 0.750000 0.149830
O O13 0.169866 0.552954 0.116527
O O14 0.000000 0.500000 0.000000
O O15 0.917155 0.250000 0.081874
O O16 0.649322 0.750000 0.320457
O O17 0.644182 0.519541 0.231502
O O18 0.324745 0.250000 0.822176
O O19 0.153485 0.433521 0.580156
O O20 0.988826 0.250000 0.428807
O O21 0.000000 0.500000 0.500000
#
# Coordination Sequence:
#
# PCOD8068655 Si02
#       8
#     4   4   4   4   4   4   4   4
#     4  10  19  31  47  65  88 118 155 197 229 259
#     4   9  16  29  48  67  90 118 149 185 222 267
#     4   9  16  27  44  65  87 115 150 185 218 261
#     4   9  16  27  46  71  96 119 143 177 223 273
#     4   8  14  25  44  68  89 112 144 178 215 263
#     4   9  18  31  47  67  88 118 158 192 224 266
#     4  10  19  31  47  65  89 120 154 189 229 276
#     4  10  18  28  44  64  87 115 145 181 222 263
#
# _framework density 17.307537
#
# number of rings (size 3 to 8) (size 9 to 14) (size 15 to 20)
#    0.000    2.750    1.250    2.250    0.000    3.000 
#    0.000    1.250    0.000   11.250    0.000    0.000 
#    0.000    0.000    0.000    0.000    0.000    0.500 
#
# Total GULP energy -396513.206688 kJ/mol
# GULP energy per Si atom -12391.037709 kJ/mol
# Density = 1.726814 g / cm^3
# Si number density = 17.307537 Si / 1000 Ang^3
#
#
#
# Elastic Constant Matrix: (Units=GPa)
#
#
# Indices 1 2 3 4 5 6 
#
# 1 158.4662 25.9197 65.3181 0.0000 -14.2729 0.0000
# 2 25.9197 28.2963 11.7879 0.0000 -3.0532 0.0000
# 3 65.3181 11.7879 64.1441 0.0000 -1.9878 0.0000
# 4 0.0000 0.0000 0.0000 18.3170 0.0000 -6.4980
# 5 -14.2729 -3.0532 -1.9878 0.0000 27.9575 0.0000
# 6 0.0000 0.0000 0.0000 -6.4980 0.0000 19.1254
#
#
#
# Elastic Compliance Matrix: (Units=1/GPa)
#
#
# Indices 1 2 3 4 5 6 
#
# 1 0.012453 -0.006130 -0.011403 0.000000 0.004877 0.000000
# 2 -0.006130 0.041671 -0.001375 0.000000 0.001323 0.000000
# 3 -0.011403 -0.001375 0.027329 0.000000 -0.004028 0.000000
# 4 0.000000 0.000000 0.000000 0.062076 0.000000 0.021091
# 5 0.004877 0.001323 -0.004028 0.000000 0.038116 0.000000
# 6 0.000000 0.000000 0.000000 0.021091 0.000000 0.059452
#
#
# Mechanical properties :
#
#
# Convention : Reuss Voigt Hill
#
# Bulk Modulus (GPa) = 22.91597 50.77312 36.84454
# Shear Modulus (GPa) = 17.03817 22.93872 19.98844
#
# Velocity S-wave (km/s) = 3.14098 3.64450 3.40207
# Velocity P-wave (km/s) = 5.14038 6.86363 6.06353
#
# Compressibility (1/GPa) = 0.04363769
#
# Stress axis : x y z
#
# Youngs Moduli (GPa) = 80.30464 23.99749 36.59098
#
# Poissons Ratio (x) = 0.14711 0.41724
# Poissons Ratio (y) = 0.49228 0.05030
# Poissons Ratio (z) = 0.91570 0.03299
#
# Static dielectric constant tensor:
#      x y z
#    x 3.826290 0.000000 -0.088120 
#    y 0.000000 2.946220 0.000000 
#    z -0.088120 0.000000 3.263690 
# 
# 
# High freq. dielectric constant tensor:
#      x y z
#    x 1.676360 0.000000 -0.011780 
#    y 0.000000 1.628410 0.000000 
#    z -0.011780 0.000000 1.651830 
# 
# From -- ./inp_files/41114.got.cif
#   From: 2010.06.25/outbox.cif.g09.slc.cpg/sg11_21_cif.got.tgz:41114.got - 2010.06.27 23:14:04.
