data_PCOD8068711
_publ_section_title
;
Structure prediction by ZEFSAII (Michael W. Deem and Ramdas Pophale) SiO2 
 PCOD8068711
Probable space group: P 21/M
;
_chemical_formula_sum "Si O2"
_cell_formula_units_Z 32
_cell_length_a 26.006383
_cell_length_b 9.467241
_cell_length_c 15.877281
_cell_angle_alpha 90.000000
_cell_angle_beta 150.155275
_cell_angle_gamma 90.000000
_cell_volume 1945.380514
_symmetry_space_group_name_H-M "P 21/M"
_symmetry_group_IT_number 11
_symmetry_cell_setting 'monoclinic'
loop_
_space_group_symop_operation_xyz
x,y,z
-x,1/2+y,-z
-x,-y,-z
x,1/2-y,z
loop_
_atom_site_type_symbol
_atom_site_label
_atom_site_fract_x
_atom_site_fract_y
_atom_site_fract_z
Si Si1 0.610361 0.910244 0.544332
Si Si2 0.559815 0.914270 0.967764
Si Si3 0.427728 0.416779 0.205411
Si Si4 0.723517 0.582986 0.870025
Si Si5 0.823620 0.589757 0.757594
Si Si6 0.077011 0.082988 0.930504
Si Si7 0.849957 0.416777 0.627639
Si Si8 0.348135 0.585731 0.756085
O O1 0.568287 0.750000 0.491590
O O2 0.647114 0.969485 0.687351
O O3 0.703861 0.916259 0.611573
O O4 0.521925 0.011526 0.386052
O O5 0.586164 0.750000 0.015357
O O6 0.579684 0.968153 0.901317
O O7 0.441061 0.945705 0.823183
O O8 0.637117 0.999998 0.137118
O O9 0.446955 0.250000 0.236334
O O10 0.321736 0.461065 0.103187
O O11 0.729001 0.750000 0.869655
O O12 0.840068 0.521751 0.020203
O O13 0.855029 0.750000 0.778336
O O14 0.842214 0.488474 0.706345
O O15 0.893128 0.530507 0.933367
O O16 0.088363 0.250000 0.947723
O O17 0.959716 0.038949 0.741163
O O18 0.842420 0.250000 0.631800
O O19 0.758051 0.468156 0.436419
O O20 0.343026 0.750000 0.772220
#
# Coordination Sequence:
#
# PCOD8068711 Si02
#       8
#     4   4   4   4   4   4   4   4
#     4   9  17  28  42  63  92 122 147 171 206 256
#     4   9  18  31  45  63  86 109 136 173 217 262
#     4  10  18  28  46  68  87 111 146 185 217 247
#     4   8  15  28  44  63  89 119 148 176 208 251
#     4   9  17  28  42  63  92 122 147 171 206 256
#     4   8  15  28  44  63  89 119 148 176 208 251
#     4  10  18  28  46  68  87 111 146 185 217 247
#     4   9  18  31  45  63  86 109 136 173 217 262
#
# _framework density 16.449223
#
# number of rings (size 3 to 8) (size 9 to 14) (size 15 to 20)
#    0.000    3.000    0.000    3.000    0.000    2.500 
#    0.000    2.500    0.000    3.000    0.000    0.000 
#    0.000    0.000    0.000    0.000    0.000    0.000 
#
# Total GULP energy -396635.298488 kJ/mol
# GULP energy per Si atom -12394.853078 kJ/mol
# Density = 1.641178 g / cm^3
# Si number density = 16.449223 Si / 1000 Ang^3
#
#
#
# Elastic Constant Matrix: (Units=GPa)
#
#
# Indices 1 2 3 4 5 6 
#
# 1 125.8527 28.8181 74.4356 0.0000 -6.2201 0.0000
# 2 28.8181 24.9289 27.4251 0.0000 1.0407 0.0000
# 3 74.4356 27.4251 120.6419 0.0000 10.1061 0.0000
# 4 0.0000 0.0000 0.0000 22.4153 0.0000 -3.4036
# 5 -6.2201 1.0407 10.1061 0.0000 17.6829 0.0000
# 6 0.0000 0.0000 0.0000 -3.4036 0.0000 17.8551
#
#
#
# Elastic Compliance Matrix: (Units=1/GPa)
#
#
# Indices 1 2 3 4 5 6 
#
# 1 0.015565 -0.009178 -0.008425 0.000000 0.010830 0.000000
# 2 -0.009178 0.059173 -0.007590 0.000000 -0.002373 0.000000
# 3 -0.008425 -0.007590 0.016199 0.000000 -0.011775 0.000000
# 4 0.000000 0.000000 0.000000 0.045942 0.000000 0.008758
# 5 0.010830 -0.002373 -0.011775 0.000000 0.067231 0.000000
# 6 0.000000 0.000000 0.000000 0.008758 0.000000 0.057676
#
#
# Mechanical properties :
#
#
# Convention : Reuss Voigt Hill
#
# Bulk Modulus (GPa) = 24.65974 59.19791 41.92882
# Shear Modulus (GPa) = 15.35211 20.97364 18.16287
#
# Velocity S-wave (km/s) = 3.05832 3.57466 3.32652
# Velocity P-wave (km/s) = 5.24357 7.28725 6.34819
#
# Compressibility (1/GPa) = 0.04055193
#
# Stress axis : x y z
#
# Youngs Moduli (GPa) = 64.24516 16.89965 61.73286
#
# Poissons Ratio (x) = 0.15510 0.52008
# Poissons Ratio (y) = 0.58962 0.46857
# Poissons Ratio (z) = 0.54125 0.12827
#
# Static dielectric constant tensor:
#      x y z
#    x 3.404170 0.000000 0.201090 
#    y 0.000000 2.867690 0.000000 
#    z 0.201090 0.000000 3.134710 
# 
# 
# High freq. dielectric constant tensor:
#      x y z
#    x 1.632540 0.000000 0.009350 
#    y 0.000000 1.607920 0.000000 
#    z 0.009350 0.000000 1.620030 
# 
# From -- ./inp_files/51714.got.cif
#   From: 2010.06.25/outbox.cif.g09.slc.cpg/sg11_26_cif.got.tgz:51714.got - 2010.06.27 23:14:04.
