data_PCOD8068151
_publ_section_title
;
Structure prediction by ZEFSAII (Michael W. Deem and Ramdas Pophale) SiO2 
 PCOD8068151
Probable space group: P 21/M
;
_chemical_formula_sum "Si O2"
_cell_formula_units_Z 32
_cell_length_a 16.124414
_cell_length_b 20.726437
_cell_length_c 16.673140
_cell_angle_alpha 90.000000
_cell_angle_beta 17.440495
_cell_angle_gamma 90.000000
_cell_volume 1670.070019
_symmetry_space_group_name_H-M "P 21/M"
_symmetry_group_IT_number 11
_symmetry_cell_setting 'monoclinic'
loop_
_space_group_symop_operation_xyz
x,y,z
-x,1/2+y,-z
-x,-y,-z
x,1/2-y,z
loop_
_atom_site_type_symbol
_atom_site_label
_atom_site_fract_x
_atom_site_fract_y
_atom_site_fract_z
Si Si1 0.940452 0.822881 0.058765
Si Si2 0.914263 0.454874 0.004261
Si Si3 0.606052 0.397303 0.657527
Si Si4 0.307622 0.470086 0.500819
Si Si5 0.174191 0.407386 0.187631
Si Si6 0.656013 0.320905 0.451826
Si Si7 0.004969 0.554889 0.353435
Si Si8 0.563694 0.932632 0.899271
O O1 0.044323 0.750000 0.988132
O O2 0.611340 0.821492 0.357919
O O3 0.006468 0.879447 0.060671
O O4 0.082786 0.843106 0.842799
O O5 0.079594 0.486604 0.778160
O O6 0.587218 0.450763 0.288578
O O7 0.000000 0.500000 0.000000
O O8 0.624459 0.472936 0.623351
O O9 0.587015 0.366607 0.588297
O O10 0.876639 0.372691 0.455865
O O11 0.344234 0.381829 0.953949
O O12 0.159116 0.419421 0.575269
O O13 0.129958 0.483956 0.222214
O O14 0.322914 0.386615 0.133590
O O15 0.714646 0.250000 0.432518
O O16 0.803653 0.556647 0.614330
O O17 0.282749 0.596665 0.118149
O O18 0.500000 0.000000 0.000000
#
# Coordination Sequence:
#
# PCOD8068151 Si02
#       8
#     4   4   4   4   4   4   4   4
#     4  10  21  37  54  72  95 128 168 207 245 286
#     4  12  22  34  51  73 100 129 162 200 249 301
#     4  11  19  31  46  70 103 130 160 195 238 289
#     4  11  21  32  47  71 100 129 159 196 246 294
#     4  10  18  27  44  68  96 131 162 191 231 285
#     4  10  20  35  53  70  93 128 166 201 239 285
#     4  10  18  29  43  63  95 130 159 193 232 282
#     4  10  16  27  43  63  92 129 165 189 226 280
#
# _framework density 19.160874
#
# number of rings (size 3 to 8) (size 9 to 14) (size 15 to 20)
#    0.000    1.500    0.000   10.875    0.000    0.000 
#    0.000    0.000    0.000    0.000    0.000    0.000 
#    0.000   20.000    0.000    0.000    0.000    0.000 
#
# Total GULP energy -396438.968863 kJ/mol
# GULP energy per Si atom -12388.717777 kJ/mol
# Density = 1.911726 g / cm^3
# Si number density = 19.160874 Si / 1000 Ang^3
#
#
#
# Elastic Constant Matrix: (Units=GPa)
#
#
# Indices 1 2 3 4 5 6 
#
# 1 101.4995 11.7907 20.9195 0.0000 -20.2452 0.0000
# 2 11.7907 32.6610 1.3122 0.0000 -8.4196 0.0000
# 3 20.9195 1.3122 102.9925 0.0000 -3.8030 0.0000
# 4 0.0000 0.0000 0.0000 13.6478 0.0000 1.7783
# 5 -20.2452 -8.4196 -3.8030 0.0000 42.0857 0.0000
# 6 0.0000 0.0000 0.0000 1.7783 0.0000 4.8362
#
#
#
# Elastic Compliance Matrix: (Units=1/GPa)
#
#
# Indices 1 2 3 4 5 6 
#
# 1 0.011584 -0.002857 -0.002139 0.000000 0.004808 0.000000
# 2 -0.002857 0.032990 0.000354 0.000000 0.005258 0.000000
# 3 -0.002139 0.000354 0.010138 0.000000 -0.000042 0.000000
# 4 0.000000 0.000000 0.000000 0.076959 0.000000 -0.028297
# 5 0.004808 0.005258 -0.000042 0.000000 0.027122 0.000000
# 6 0.000000 0.000000 0.000000 -0.028297 0.000000 0.217177
#
#
# Mechanical properties :
#
#
# Convention : Reuss Voigt Hill
#
# Bulk Modulus (GPa) = 22.01248 33.91086 27.96167
# Shear Modulus (GPa) = 12.48767 25.65600 19.07183
#
# Velocity S-wave (km/s) = 2.55567 3.66318 3.15834
# Velocity P-wave (km/s) = 4.49686 5.96894 5.28441
#
# Compressibility (1/GPa) = 0.04542877
#
# Stress axis : x y z
#
# Youngs Moduli (GPa) = 86.32684 30.31228 98.64036
#
# Poissons Ratio (x) = 0.08659 0.21099
# Poissons Ratio (y) = 0.24659 -0.03492
# Poissons Ratio (z) = 0.18465 -0.01073
#
# Static dielectric constant tensor:
#      x y z
#    x 5.410580 0.000000 -0.839920 
#    y 0.000000 3.244990 0.000000 
#    z -0.839920 0.000000 3.997520 
# 
# 
# High freq. dielectric constant tensor:
#      x y z
#    x 1.756690 0.000000 -0.010170 
#    y 0.000000 1.665390 0.000000 
#    z -0.010170 0.000000 1.775070 
# 
# From -- ./inp_files/52707.got.cif
#   From: 2010.06.25/outbox.cif.g09.slc.cpg/sg11_27_cif.got.tgz:52707.got - 2010.06.27 23:14:04.
