data_PCOD8068386
_publ_section_title
;
Structure prediction by ZEFSAII (Michael W. Deem and Ramdas Pophale) SiO2 
 PCOD8068386
Probable space group: P 21/M
;
_chemical_formula_sum "Si O2"
_cell_formula_units_Z 32
_cell_length_a 11.653984
_cell_length_b 17.804122
_cell_length_c 17.969678
_cell_angle_alpha 90.000000
_cell_angle_beta 149.160063
_cell_angle_gamma 90.000000
_cell_volume 1911.388654
_symmetry_space_group_name_H-M "P 21/M"
_symmetry_group_IT_number 11
_symmetry_cell_setting 'monoclinic'
loop_
_space_group_symop_operation_xyz
x,y,z
-x,1/2+y,-z
-x,-y,-z
x,1/2-y,z
loop_
_atom_site_type_symbol
_atom_site_label
_atom_site_fract_x
_atom_site_fract_y
_atom_site_fract_z
Si Si1 0.064495 0.163698 0.150071
Si Si2 0.582048 0.426671 0.634468
Si Si3 0.247663 0.938541 0.425408
Si Si4 0.841271 0.837528 0.628886
Si Si5 0.451944 0.836059 0.646796
Si Si6 0.204782 0.553020 0.094510
Si Si7 0.993941 0.037208 0.380382
Si Si8 0.351446 0.526839 0.689929
O O1 0.992888 0.250000 0.108706
O O2 0.094455 0.137038 0.251856
O O3 0.288815 0.150475 0.227635
O O4 0.865871 0.117368 0.002052
O O5 0.765558 0.433392 0.670797
O O6 0.444913 0.504595 0.563095
O O7 0.419559 0.357149 0.526713
O O8 0.711737 0.409866 0.782360
O O9 0.304943 0.857453 0.492155
O O10 0.015844 0.971828 0.329418
O O11 0.880610 0.750000 0.637478
O O12 0.987652 0.882106 0.649577
O O13 0.403364 0.750000 0.641052
O O14 0.372349 0.888712 0.669948
O O15 0.403670 0.508042 0.165361
O O16 0.000000 0.500000 0.000000
O O17 0.754860 0.032075 0.287044
O O18 0.195518 0.026554 0.552116
#
# Coordination Sequence:
#
# PCOD8068386 Si02
#       8
#     4   4   4   4   4   4   4   4
#     4  10  21  34  51  78 111 137 169 219 275 323
#     4  10  18  30  53  77 103 135 173 224 254 303
#     4   9  16  30  51  76  99 128 171 218 262 291
#     4  10  19  34  56  81 104 139 182 221 265 312
#     4  10  17  30  50  74 104 134 166 212 266 312
#     4  12  21  33  53  80 109 141 174 214 273 326
#     4   9  19  33  55  73 107 136 176 225 256 301
#     4  10  19  35  50  80 105 139 178 219 260 310
#
# _framework density 16.741755999999999
#
# number of rings (size 3 to 8) (size 9 to 14) (size 15 to 20)
#    0.000    2.000    6.250    0.000    3.500    1.000 
#    0.000    0.625    0.000    0.750    0.000    0.000 
#    0.000    0.000    0.000    0.000    0.000    0.000 
#
# Total GULP energy -396716.344156 kJ/mol
# GULP energy per Si atom -12397.385755 kJ/mol
# Density = 1.670365 g / cm^3
# Si number density = 16.741756 Si / 1000 Ang^3
#
#
#
# Elastic Constant Matrix: (Units=GPa)
#
#
# Indices 1 2 3 4 5 6 
#
# 1 147.0372 47.2558 50.4844 0.0000 3.2974 0.0000
# 2 47.2558 87.6740 46.0784 0.0000 -2.9557 0.0000
# 3 50.4844 46.0784 84.5496 0.0000 -9.6293 0.0000
# 4 0.0000 0.0000 0.0000 24.0646 0.0000 -3.2335
# 5 3.2974 -2.9557 -9.6293 0.0000 26.9256 0.0000
# 6 0.0000 0.0000 0.0000 -3.2335 0.0000 23.1068
#
#
#
# Elastic Compliance Matrix: (Units=1/GPa)
#
#
# Indices 1 2 3 4 5 6 
#
# 1 0.009262 -0.002813 -0.004338 0.000000 -0.002994 0.000000
# 2 -0.002813 0.016891 -0.007584 0.000000 -0.000514 0.000000
# 3 -0.004338 -0.007584 0.019303 0.000000 0.006602 0.000000
# 4 0.000000 0.000000 0.000000 0.042351 0.000000 0.005927
# 5 -0.002994 -0.000514 0.006602 0.000000 0.039811 0.000000
# 6 0.000000 0.000000 0.000000 0.005927 0.000000 0.044107
#
#
# Mechanical properties :
#
#
# Convention : Reuss Voigt Hill
#
# Bulk Modulus (GPa) = 62.55949 67.43311 64.99630
# Shear Modulus (GPa) = 24.21046 26.51553 25.36299
#
# Velocity S-wave (km/s) = 3.80690 3.98401 3.89646
# Velocity P-wave (km/s) = 7.53471 7.84404 7.69093
#
# Compressibility (1/GPa) = 0.01598478
#
# Stress axis : x y z
#
# Youngs Moduli (GPa) = 107.97182 59.20427 51.80610
#
# Poissons Ratio (x) = 0.16654 0.22474
# Poissons Ratio (y) = 0.30372 0.39290
# Poissons Ratio (z) = 0.46840 0.44901
#
# Static dielectric constant tensor:
#      x y z
#    x 3.359670 0.000000 -0.059230 
#    y 0.000000 3.094080 0.000000 
#    z -0.059230 0.000000 2.944560 
# 
# 
# High freq. dielectric constant tensor:
#      x y z
#    x 1.651820 0.000000 -0.009630 
#    y 0.000000 1.639450 0.000000 
#    z -0.009630 0.000000 1.610490 
# 
# From -- ./inp_files/59647.got.cif
#   From: 2010.06.25/outbox.cif.g09.slc.cpg/sg11_30_cif.got.tgz:59647.got - 2010.06.27 23:14:04.
