data_PCOD8068204
_publ_section_title
;
Structure prediction by ZEFSAII (Michael W. Deem and Ramdas Pophale) SiO2 
 PCOD8068204
Probable space group: P 21/M
;
_chemical_formula_sum "Si O2"
_cell_formula_units_Z 32
_cell_length_a 12.052566
_cell_length_b 8.960084
_cell_length_c 18.924326
_cell_angle_alpha 90.000000
_cell_angle_beta 79.012855
_cell_angle_gamma 90.000000
_cell_volume 2006.215243
_symmetry_space_group_name_H-M "P 21/M"
_symmetry_group_IT_number 11
_symmetry_cell_setting 'monoclinic'
loop_
_space_group_symop_operation_xyz
x,y,z
-x,1/2+y,-z
-x,-y,-z
x,1/2-y,z
loop_
_atom_site_type_symbol
_atom_site_label
_atom_site_fract_x
_atom_site_fract_y
_atom_site_fract_z
Si Si1 0.474785 0.083663 0.842019
Si Si2 0.394245 0.575555 0.976667
Si Si3 0.204665 0.420475 0.259717
Si Si4 0.275537 0.583461 0.123799
Si Si5 0.589818 0.572480 0.540557
Si Si6 0.177395 0.922315 0.502088
Si Si7 0.955253 0.919118 0.601310
Si Si8 0.410722 0.926934 0.309642
O O1 0.426245 0.250000 0.852115
O O2 0.598534 0.074783 0.860811
O O3 0.488619 0.034254 0.758404
O O4 0.385288 0.982321 0.896742
O O5 0.416342 0.750000 0.972902
O O6 0.500000 0.500000 0.000000
O O7 0.283783 0.538864 0.039135
O O8 0.246869 0.250000 0.255384
O O9 0.195214 0.474543 0.179238
O O10 0.082358 0.437155 0.312325
O O11 0.291281 0.520646 0.293277
O O12 0.226522 0.750000 0.137517
O O13 0.500000 0.500000 0.500000
O O14 0.580189 0.750000 0.540238
O O15 0.713584 0.524070 0.498992
O O16 0.563103 0.513767 0.622041
O O17 0.215166 0.750000 0.492408
O O18 0.089507 0.949747 0.577432
O O19 0.115732 0.965959 0.436987
O O20 0.928745 0.750000 0.578285
O O21 0.403765 0.750000 0.324130
#
# Coordination Sequence:
#
# PCOD8068204 Si02
#       8
#     4   4   4   4   4   4   4   4
#     4   8  15  25  37  52  73 100 134 173 211 249
#     4   9  15  22  32  47  70 101 138 173 207 245
#     4  10  17  25  40  62  85 112 144 180 214 253
#     4   8  15  24  32  48  76 108 140 174 209 250
#     4  12  24  37  51  67  87 113 147 185 225 270
#     4  10  19  32  49  67  88 115 144 180 225 265
#     4   9  18  30  45  67  92 115 145 183 220 261
#     4  10  19  31  44  61  83 109 141 179 220 262
#
# _framework density 15.950431999999999
#
# number of rings (size 3 to 8) (size 9 to 14) (size 15 to 20)
#    0.000    2.500    1.250    4.125    0.000    6.500 
#    0.000    0.000    0.000    0.000    0.000    0.000 
#    0.000    0.000    0.000    1.125    0.000   14.375 
#
# Total GULP energy -396489.963688 kJ/mol
# GULP energy per Si atom -12390.311365 kJ/mol
# Density = 1.591413 g / cm^3
# Si number density = 15.950432 Si / 1000 Ang^3
#
#
#
# Elastic Constant Matrix: (Units=GPa)
#
#
# Indices 1 2 3 4 5 6 
#
# 1 48.7473 35.3787 50.7052 0.0000 -12.8190 0.0000
# 2 35.3787 105.8080 62.9034 0.0000 -17.3306 0.0000
# 3 50.7052 62.9034 126.5940 0.0000 -38.5846 0.0000
# 4 0.0000 0.0000 0.0000 29.4171 0.0000 -4.5612
# 5 -12.8190 -17.3306 -38.5846 0.0000 23.2606 0.0000
# 6 0.0000 0.0000 0.0000 -4.5612 0.0000 16.4826
#
#
#
# Elastic Compliance Matrix: (Units=1/GPa)
#
#
# Indices 1 2 3 4 5 6 
#
# 1 0.037663 -0.004951 -0.015014 0.000000 -0.007838 0.000000
# 2 -0.004951 0.014118 -0.005375 0.000000 -0.001126 0.000000
# 3 -0.015014 -0.005375 0.025973 0.000000 0.030804 0.000000
# 4 0.000000 0.000000 0.000000 0.035518 0.000000 0.009829
# 5 -0.007838 -0.001126 0.030804 0.000000 0.088930 0.000000
# 6 0.000000 0.000000 0.000000 0.009829 0.000000 0.063390
#
#
# Mechanical properties :
#
#
# Convention : Reuss Voigt Hill
#
# Bulk Modulus (GPa) = 36.93766 64.34709 50.64238
# Shear Modulus (GPa) = 15.37057 22.64285 19.00671
#
# Velocity S-wave (km/s) = 3.10763 3.77181 3.45572
# Velocity P-wave (km/s) = 6.00704 7.70703 6.90952
#
# Compressibility (1/GPa) = 0.02707264
#
# Stress axis : x y z
#
# Youngs Moduli (GPa) = 26.55094 70.83337 38.50211
#
# Poissons Ratio (x) = 0.35071 0.57808
# Poissons Ratio (y) = 0.13146 0.20695
# Poissons Ratio (z) = 0.39864 0.38074
#
# Static dielectric constant tensor:
#      x y z
#    x 2.775540 0.000000 -0.871540 
#    y 0.000000 4.201770 0.000000 
#    z -0.871540 0.000000 4.454350 
# 
# 
# High freq. dielectric constant tensor:
#      x y z
#    x 1.541290 0.000000 -0.047510 
#    y 0.000000 1.628060 0.000000 
#    z -0.047510 0.000000 1.617950 
# 
# From -- ./inp_files/58703.got.cif
#   From: 2010.06.25/outbox.cif.g09.slc.cpg/sg11_30_cif.got.tgz:58703.got - 2010.06.27 23:14:04.
