data_PCOD8068752
_publ_section_title
;
Structure prediction by ZEFSAII (Michael W. Deem and Ramdas Pophale) SiO2 
 PCOD8068752
Probable space group: P 21/M
;
_chemical_formula_sum "Si O2"
_cell_formula_units_Z 24
_cell_length_a 11.352065
_cell_length_b 8.863702
_cell_length_c 24.007648
_cell_angle_alpha 90.000000
_cell_angle_beta 34.860054
_cell_angle_gamma 90.000000
_cell_volume 1380.740441
_symmetry_space_group_name_H-M "P 21/M"
_symmetry_group_IT_number 11
_symmetry_cell_setting 'monoclinic'
loop_
_space_group_symop_operation_xyz
x,y,z
-x,1/2+y,-z
-x,-y,-z
x,1/2-y,z
loop_
_atom_site_type_symbol
_atom_site_label
_atom_site_fract_x
_atom_site_fract_y
_atom_site_fract_z
Si Si1 0.965270 0.926654 0.778748
Si Si2 0.664875 0.072477 0.806315
Si Si3 0.269546 0.575033 0.444898
Si Si4 0.432251 0.572231 0.583650
Si Si5 0.796918 0.925228 0.643676
Si Si6 0.644838 0.576792 0.987071
O O1 0.944347 0.750000 0.771415
O O2 0.200474 0.979694 0.687396
O O3 0.879037 0.957998 0.875765
O O4 0.841397 0.021623 0.780960
O O5 0.691795 0.250000 0.783874
O O6 0.680920 0.980114 0.743486
O O7 0.434109 0.031667 0.920242
O O8 0.327868 0.750000 0.425540
O O9 0.423451 0.480886 0.422759
O O10 0.293014 0.519583 0.372696
O O11 0.039858 0.544803 0.556506
O O12 0.500000 0.500000 0.500000
O O13 0.448931 0.750000 0.571191
O O14 0.751511 0.750000 0.650682
O O15 0.595396 0.750000 0.999637
O O16 0.500000 0.500000 0.000000
#
# Coordination Sequence:
#
# PCOD8068752 Si02
#       6
#     4   4   4   4   4   4
#     4   9  18  32  48  68  98 133 163 194 236 284
#     4  10  18  28  48  76 100 124 158 200 241 280
#     4  10  21  36  52  71  96 126 160 198 239 281
#     4  11  22  34  50  72  99 131 163 195 234 282
#     4  10  20  34  52  72  96 126 158 195 239 287
#     4   8  15  28  45  67  95 125 158 196 237 279
#
# _framework density 17.381978
#
# number of rings (size 3 to 8) (size 9 to 14) (size 15 to 20)
#    0.000    2.333    0.000    3.000    0.000    8.000 
#    0.000    0.000    0.000    1.000    0.000    0.000 
#    0.000    0.000    0.000    0.000    0.000    0.000 
#
# Total GULP energy -297419.443025 kJ/mol
# GULP energy per Si atom -12392.476793 kJ/mol
# Density = 1.734242 g / cm^3
# Si number density = 17.381978 Si / 1000 Ang^3
#
#
#
# Elastic Constant Matrix: (Units=GPa)
#
#
# Indices 1 2 3 4 5 6 
#
# 1 66.6692 20.9817 53.0852 0.0000 4.0932 0.0000
# 2 20.9817 48.5200 40.9441 0.0000 1.0176 0.0000
# 3 53.0852 40.9441 154.8490 0.0000 14.7316 0.0000
# 4 0.0000 0.0000 0.0000 25.3675 0.0000 4.9079
# 5 4.0932 1.0176 14.7316 0.0000 25.7214 0.0000
# 6 0.0000 0.0000 0.0000 4.9079 0.0000 30.7442
#
#
#
# Elastic Compliance Matrix: (Units=1/GPa)
#
#
# Indices 1 2 3 4 5 6 
#
# 1 0.021194 -0.003876 -0.006276 0.000000 0.000375 0.000000
# 2 -0.003876 0.027480 -0.006232 0.000000 0.003099 0.000000
# 3 -0.006276 -0.006232 0.010723 0.000000 -0.004896 0.000000
# 4 0.000000 0.000000 0.000000 0.040677 0.000000 -0.006494
# 5 0.000375 0.003099 -0.004896 0.000000 0.041500 0.000000
# 6 0.000000 0.000000 0.000000 -0.006494 0.000000 0.033563
#
#
# Mechanical properties :
#
#
# Convention : Reuss Voigt Hill
#
# Bulk Modulus (GPa) = 37.55495 55.56224 46.55860
# Shear Modulus (GPa) = 23.06451 26.70177 24.88314
#
# Velocity S-wave (km/s) = 3.64664 3.92366 3.78769
# Velocity P-wave (km/s) = 6.27561 7.24994 6.78030
#
# Compressibility (1/GPa) = 0.02662765
#
# Stress axis : x y z
#
# Youngs Moduli (GPa) = 47.18334 36.38963 93.25554
#
# Poissons Ratio (x) = 0.14106 0.58531
# Poissons Ratio (y) = 0.18290 0.58117
# Poissons Ratio (z) = 0.29614 0.22678
#
# Static dielectric constant tensor:
#      x y z
#    x 3.128050 0.000000 0.127990 
#    y 0.000000 3.333170 0.000000 
#    z 0.127990 0.000000 3.975010 
# 
# 
# High freq. dielectric constant tensor:
#      x y z
#    x 1.636470 0.000000 0.016080 
#    y 0.000000 1.684590 0.000000 
#    z 0.016080 0.000000 1.687910 
# 
# From -- ./inp_files/37233.got.cif
#   From: 2010.06.25/outbox.cif.g09.slc.cpg/sg11_19_cif.got.tgz:37233.got - 2010.06.27 23:14:04.
