data_PCOD8068759
_publ_section_title
;
Structure prediction by ZEFSAII (Michael W. Deem and Ramdas Pophale) SiO2 
 PCOD8068759
Probable space group: P 21/M
;
_chemical_formula_sum "Si O2"
_cell_formula_units_Z 20
_cell_length_a 12.181615
_cell_length_b 9.249400
_cell_length_c 12.152974
_cell_angle_alpha 90.000000
_cell_angle_beta 61.043655
_cell_angle_gamma 90.000000
_cell_volume 1198.128818
_symmetry_space_group_name_H-M "P 21/M"
_symmetry_group_IT_number 11
_symmetry_cell_setting 'monoclinic'
loop_
_space_group_symop_operation_xyz
x,y,z
-x,1/2+y,-z
-x,-y,-z
x,1/2-y,z
loop_
_atom_site_type_symbol
_atom_site_label
_atom_site_fract_x
_atom_site_fract_y
_atom_site_fract_z
Si Si1 0.003317 0.584913 0.837619
Si Si2 0.653211 0.416927 0.521756
Si Si3 0.415916 0.917328 0.694836
Si Si4 0.195730 0.083513 0.889933
Si Si5 0.065448 0.582567 0.565894
O O1 0.053055 0.750000 0.829254
O O2 0.101909 0.477062 0.843733
O O3 0.991184 0.548278 0.714778
O O4 0.866885 0.565913 0.959335
O O5 0.627170 0.250000 0.562163
O O6 0.642711 0.443535 0.396721
O O7 0.553759 0.513620 0.635988
O O8 0.790505 0.467400 0.492572
O O9 0.426210 0.750000 0.720705
O O10 0.325720 0.995657 0.826539
O O11 0.223198 0.250000 0.848493
O O12 0.059415 0.750000 0.540073
O O13 0.000000 0.500000 0.500000
#
# Coordination Sequence:
#
# PCOD8068759 Si02
#       5
#     4   4   4   4   4
#     4   9  18  33  48  69 101 132 162 201 247 289
#     4   9  18  32  48  69  99 131 163 199 244 292
#     4  10  18  30  49  72 102 130 157 201 251 296
#     4  10  18  28  49  75 100 129 161 199 246 299
#     4  10  20  35  52  71 100 133 165 203 242 286
#
# _framework density 16.692696000000002
#
# number of rings (size 3 to 8) (size 9 to 14) (size 15 to 20)
#    0.000    2.400    2.000    1.200    0.000    3.200 
#    0.000    0.000    0.000    1.200    0.000    0.000 
#    0.000    0.000    0.000    0.000    0.000    0.000 
#
# Total GULP energy -248019.452950 kJ/mol
# GULP energy per Si atom -12400.972647 kJ/mol
# Density = 1.665470 g / cm^3
# Si number density = 16.692696 Si / 1000 Ang^3
#
#
#
# Elastic Constant Matrix: (Units=GPa)
#
#
# Indices 1 2 3 4 5 6 
#
# 1 95.9472 49.4626 61.0625 0.0000 -9.2049 0.0000
# 2 49.4626 97.7726 66.7016 0.0000 -16.1947 0.0000
# 3 61.0625 66.7016 120.1801 0.0000 -17.2436 0.0000
# 4 0.0000 0.0000 0.0000 27.9234 0.0000 -4.4915
# 5 -9.2049 -16.1947 -17.2436 0.0000 27.4708 0.0000
# 6 0.0000 0.0000 0.0000 -4.4915 0.0000 29.6398
#
#
#
# Elastic Compliance Matrix: (Units=1/GPa)
#
#
# Indices 1 2 3 4 5 6 
#
# 1 0.016430 -0.004304 -0.006081 0.000000 -0.000849 0.000000
# 2 -0.004304 0.018077 -0.007170 0.000000 0.004714 0.000000
# 3 -0.006081 -0.007170 0.015925 0.000000 0.003732 0.000000
# 4 0.000000 0.000000 0.000000 0.036707 0.000000 0.005562
# 5 -0.000849 0.004714 0.003732 0.000000 0.041240 0.000000
# 6 0.000000 0.000000 0.000000 0.005562 0.000000 0.034581
#
#
# Mechanical properties :
#
#
# Convention : Reuss Voigt Hill
#
# Bulk Modulus (GPa) = 65.26162 74.26149 69.76155
# Shear Modulus (GPa) = 24.60900 26.11835 25.36367
#
# Velocity S-wave (km/s) = 3.84375 3.95987 3.90224
# Velocity P-wave (km/s) = 7.67333 8.09267 7.88579
#
# Compressibility (1/GPa) = 0.01532294
#
# Stress axis : x y z
#
# Youngs Moduli (GPa) = 60.86563 55.31749 62.79247
#
# Poissons Ratio (x) = 0.23808 0.38183
# Poissons Ratio (y) = 0.26195 0.45023
# Poissons Ratio (z) = 0.37012 0.39663
#
# Static dielectric constant tensor:
#      x y z
#    x 2.854850 0.000000 -0.275980 
#    y 0.000000 3.210170 0.000000 
#    z -0.275980 0.000000 3.263530 
# 
# 
# High freq. dielectric constant tensor:
#      x y z
#    x 1.608830 0.000000 -0.028590 
#    y 0.000000 1.652000 0.000000 
#    z -0.028590 0.000000 1.642060 
# 
# From -- ./inp_files/33404.got.cif
#   From: 2010.06.25/outbox.cif.g09.slc.cpg/sg11_17_cif.got.tgz:33404.got - 2010.06.27 23:14:04.
