data_PCOD8069596
_publ_section_title
;
Structure prediction by ZEFSAII (Michael W. Deem and Ramdas Pophale) SiO2 
 PCOD8069596
Probable space group: P 21/M
;
_chemical_formula_sum "Si O2"
_cell_formula_units_Z 16
_cell_length_a 18.924745
_cell_length_b 8.604097
_cell_length_c 7.229103
_cell_angle_alpha 90.000000
_cell_angle_beta 40.178686
_cell_angle_gamma 90.000000
_cell_volume 759.444909
_symmetry_space_group_name_H-M "P 21/M"
_symmetry_group_IT_number 11
_symmetry_cell_setting 'monoclinic'
loop_
_space_group_symop_operation_xyz
x,y,z
-x,1/2+y,-z
-x,-y,-z
x,1/2-y,z
loop_
_atom_site_type_symbol
_atom_site_label
_atom_site_fract_x
_atom_site_fract_y
_atom_site_fract_z
Si Si1 0.292529 0.432288 0.657394
Si Si2 0.487844 0.065961 0.819400
Si Si3 0.883469 0.932606 0.682330
Si Si4 0.266481 0.567103 0.306904
O O1 0.299809 0.250000 0.605477
O O2 0.410706 0.492581 0.498515
O O3 0.260985 0.516365 0.530376
O O4 0.200414 0.477002 0.988008
O O5 0.496086 0.250000 0.797704
O O6 0.500000 0.000000 0.000000
O O7 0.368133 0.011459 0.990929
O O8 0.891535 0.750000 0.634900
O O9 0.844523 0.012177 0.570134
O O10 0.000000 0.000000 0.500000
O O11 0.279863 0.750000 0.269324
#
# Coordination Sequence:
#
# PCOD8069596 Si02
#       4
#     4   4   4   4
#     4  10  21  39  62  88 119 154 193 239 291 346
#     4  10  18  32  57  88 121 153 189 235 287 347
#     4  11  25  43  62  85 115 153 199 247 290 341
#     4  11  22  38  62  89 120 156 192 237 291 347
#
# _framework density 21.068021999999999
#
# number of rings (size 3 to 8) (size 9 to 14) (size 15 to 20)
#    0.000    1.500    0.000    9.000    0.000    6.000 
#    0.000    0.000    0.000    0.000    0.000    0.000 
#    0.000    0.000    0.000    0.000    0.000    0.000 
#
# Total GULP energy -198422.077727 kJ/mol
# GULP energy per Si atom -12401.379858 kJ/mol
# Density = 2.102007 g / cm^3
# Si number density = 21.068022 Si / 1000 Ang^3
#
#
#
# Elastic Constant Matrix: (Units=GPa)
#
#
# Indices 1 2 3 4 5 6 
#
# 1 63.5706 10.0436 8.9858 0.0000 -21.7010 0.0000
# 2 10.0436 130.3661 33.5983 0.0000 -1.4092 0.0000
# 3 8.9858 33.5983 82.8867 0.0000 -13.3094 0.0000
# 4 0.0000 0.0000 0.0000 34.5018 0.0000 -9.4760
# 5 -21.7010 -1.4092 -13.3094 0.0000 34.3613 0.0000
# 6 0.0000 0.0000 0.0000 -9.4760 0.0000 33.0228
#
#
#
# Elastic Compliance Matrix: (Units=1/GPa)
#
#
# Indices 1 2 3 4 5 6 
#
# 1 0.020334 -0.001558 0.000511 0.000000 0.012976 0.000000
# 2 -0.001558 0.008721 -0.003697 0.000000 -0.002058 0.000000
# 3 0.000511 -0.003697 0.014433 0.000000 0.005761 0.000000
# 4 0.000000 0.000000 0.000000 0.031464 0.000000 0.009029
# 5 0.012976 -0.002058 0.005761 0.000000 0.039445 0.000000
# 6 0.000000 0.000000 0.000000 0.009029 0.000000 0.032873
#
#
# Mechanical properties :
#
#
# Convention : Reuss Voigt Hill
#
# Bulk Modulus (GPa) = 29.41158 42.45320 35.93239
# Shear Modulus (GPa) = 29.74580 35.32355 32.53468
#
# Velocity S-wave (km/s) = 3.76159 4.09913 3.93398
# Velocity P-wave (km/s) = 5.73208 6.52672 6.14226
#
# Compressibility (1/GPa) = 0.03400021
#
# Stress axis : x y z
#
# Youngs Moduli (GPa) = 49.17852 114.66286 69.28613
#
# Poissons Ratio (x) = 0.17864 -0.03538
# Poissons Ratio (y) = 0.07662 0.25613
# Poissons Ratio (z) = -0.02511 0.42388
#
# Static dielectric constant tensor:
#      x y z
#    x 3.860660 0.000000 -0.346950 
#    y 0.000000 3.689200 0.000000 
#    z -0.346950 0.000000 4.211610 
# 
# 
# High freq. dielectric constant tensor:
#      x y z
#    x 1.824500 0.000000 -0.010150 
#    y 0.000000 1.842200 0.000000 
#    z -0.010150 0.000000 1.826390 
# 
# From -- ./inp_files/15556.got.cif
#   From: 2010.06.25/outbox.cif.g09.slc.cpg/sg11_8_cif.got.tgz:15556.got - 2010.06.27 23:14:04.
