data_PCOD8069712
_publ_section_title
;
Structure prediction by ZEFSAII (Michael W. Deem and Ramdas Pophale) SiO2 
 PCOD8069712
Probable space group: P 21/M
;
_chemical_formula_sum "Si O2"
_cell_formula_units_Z 28
_cell_length_a 10.023780
_cell_length_b 23.762709
_cell_length_c 9.413850
_cell_angle_alpha 90.000000
_cell_angle_beta 140.796938
_cell_angle_gamma 90.000000
_cell_volume 1417.295538
_symmetry_space_group_name_H-M "P 21/M"
_symmetry_group_IT_number 11
_symmetry_cell_setting 'monoclinic'
loop_
_space_group_symop_operation_xyz
x,y,z
-x,1/2+y,-z
-x,-y,-z
x,1/2-y,z
loop_
_atom_site_type_symbol
_atom_site_label
_atom_site_fract_x
_atom_site_fract_y
_atom_site_fract_z
Si Si1 0.939653 0.686382 0.236242
Si Si2 0.587741 0.947383 0.991572
Si Si3 0.224731 0.865518 0.707737
Si Si4 0.083808 0.426097 0.955451
Si Si5 0.268245 0.485482 0.361225
Si Si6 0.798832 0.908844 0.440215
Si Si7 0.423184 0.188562 0.838274
O O1 0.982613 0.750000 0.211242
O O2 0.929161 0.639891 0.099537
O O3 0.719245 0.686776 0.136833
O O4 0.127517 0.671063 0.500415
O O5 0.391814 0.909273 0.779730
O O6 0.732905 0.960714 0.976387
O O7 0.744486 0.916671 0.229428
O O8 0.500000 0.000000 0.000000
O O9 0.049426 0.899732 0.653825
O O10 0.339665 0.826518 0.918563
O O11 0.860878 0.456298 0.743467
O O12 0.151650 0.435946 0.175092
O O13 0.500000 0.500000 0.500000
O O14 0.278943 0.460913 0.529604
O O15 0.666381 0.851544 0.362492
O O16 0.424338 0.250000 0.770374
#
# Coordination Sequence:
#
# PCOD8069712 Si02
#       7
#     4   4   4   4   4   4   4
#     4  10  20  36  59  89 120 149 194 244 289 350
#     4  11  21  33  59  88 118 147 194 242 287 347
#     4  10  18  33  58  89 119 148 186 238 301 338
#     4  11  23  40  56  90 116 155 199 241 289 353
#     4  11  26  41  60  78 120 163 195 239 297 350
#     4  10  21  37  56  89 114 151 194 242 282 349
#     4   9  18  34  57  89 121 148 187 239 292 349
#
# _framework density 19.755935999999998
#
# number of rings (size 3 to 8) (size 9 to 14) (size 15 to 20)
#    0.000    1.714    4.286    2.143    4.000    5.143 
#    0.000    0.714    0.000    2.571    0.000    0.000 
#    0.000    0.000    0.000    0.000    0.000    0.000 
#
# Total GULP energy -347013.706678 kJ/mol
# GULP energy per Si atom -12393.346667 kJ/mol
# Density = 1.971097 g / cm^3
# Si number density = 19.755936 Si / 1000 Ang^3
#
#
#
# Elastic Constant Matrix: (Units=GPa)
#
#
# Indices 1 2 3 4 5 6 
#
# 1 59.6669 20.8444 23.7019 0.0000 18.0729 0.0000
# 2 20.8444 112.1438 25.0591 0.0000 10.8692 0.0000
# 3 23.7019 25.0591 92.5528 0.0000 22.8477 0.0000
# 4 0.0000 0.0000 0.0000 26.0901 0.0000 -1.0985
# 5 18.0729 10.8692 22.8477 0.0000 34.0721 0.0000
# 6 0.0000 0.0000 0.0000 -1.0985 0.0000 25.7467
#
#
#
# Elastic Compliance Matrix: (Units=1/GPa)
#
#
# Indices 1 2 3 4 5 6 
#
# 1 0.021336 -0.002532 -0.002617 0.000000 -0.008754 0.000000
# 2 -0.002532 0.009862 -0.001889 0.000000 -0.000536 0.000000
# 3 -0.002617 -0.001889 0.013775 0.000000 -0.007246 0.000000
# 4 0.000000 0.000000 0.000000 0.038398 0.000000 0.001638
# 5 -0.008754 -0.000536 -0.007246 0.000000 0.039023 0.000000
# 6 0.000000 0.000000 0.000000 0.001638 0.000000 0.038910
#
#
# Mechanical properties :
#
#
# Convention : Reuss Voigt Hill
#
# Bulk Modulus (GPa) = 32.36768 44.84161 38.60465
# Shear Modulus (GPa) = 26.92810 30.16565 28.54688
#
# Velocity S-wave (km/s) = 3.69594 3.91182 3.80541
# Velocity P-wave (km/s) = 5.88495 6.56888 6.23630
#
# Compressibility (1/GPa) = 0.03089501
#
# Stress axis : x y z
#
# Youngs Moduli (GPa) = 46.86997 101.39982 72.59390
#
# Poissons Ratio (x) = 0.25679 0.18999
# Poissons Ratio (y) = 0.11869 0.13716
# Poissons Ratio (z) = 0.12266 0.19158
#
# Static dielectric constant tensor:
#      x y z
#    x 3.304210 0.000000 0.146460 
#    y 0.000000 4.459410 0.000000 
#    z 0.146460 0.000000 3.715710 
# 
# 
# High freq. dielectric constant tensor:
#      x y z
#    x 1.734270 0.000000 0.023430 
#    y 0.000000 1.777620 0.000000 
#    z 0.023430 0.000000 1.779640 
# 
# From -- ./inp_files/15294.got.cif
#   From: 2010.06.25/outbox.cif.g09.slc.cpg/sg11_8_cif.got.tgz:15294.got - 2010.06.27 23:14:04.
