data_PCOD8069723
_publ_section_title
;
Structure prediction by ZEFSAII (Michael W. Deem and Ramdas Pophale) SiO2 
 PCOD8069723
Probable space group: P 21/M
;
_chemical_formula_sum "Si O2"
_cell_formula_units_Z 28
_cell_length_a 9.709362
_cell_length_b 28.453634
_cell_length_c 5.187827
_cell_angle_alpha 90.000000
_cell_angle_beta 104.589762
_cell_angle_gamma 90.000000
_cell_volume 1387.008053
_symmetry_space_group_name_H-M "P 21/M"
_symmetry_group_IT_number 11
_symmetry_cell_setting 'monoclinic'
loop_
_space_group_symop_operation_xyz
x,y,z
-x,1/2+y,-z
-x,-y,-z
x,1/2-y,z
loop_
_atom_site_type_symbol
_atom_site_label
_atom_site_fract_x
_atom_site_fract_y
_atom_site_fract_z
Si Si1 0.523907 0.925229 0.309124
Si Si2 0.192253 0.447991 0.339505
Si Si3 0.098403 0.598174 0.697582
Si Si4 0.197953 0.302255 0.966268
Si Si5 0.782179 0.051001 0.741032
Si Si6 0.988173 0.803523 0.613500
Si Si7 0.611626 0.884411 0.843758
O O1 0.673340 0.953912 0.398495
O O2 0.386301 0.957638 0.290614
O O3 0.508904 0.902841 0.020353
O O4 0.525403 0.884638 0.532579
O O5 0.062981 0.420689 0.415417
O O6 0.143448 0.499869 0.228179
O O7 0.247183 0.417528 0.120146
O O8 0.106756 0.655360 0.686215
O O9 0.195549 0.577190 0.518864
O O10 0.152077 0.582341 0.002381
O O11 0.255532 0.250000 0.957671
O O12 0.107679 0.317075 0.675717
O O13 0.339722 0.332699 0.056696
O O14 0.103889 0.307452 0.174505
O O15 0.051711 0.750000 0.616469
#
# Coordination Sequence:
#
# PCOD8069723 Si02
#       7
#     4   4   4   4   4   4   4
#     4  10  23  39  61  79 119 162 202 234 281 359
#     4  10  24  38  64  85 119 159 201 247 292 342
#     4  12  24  39  61  89 124 149 195 258 298 339
#     4  10  18  33  59  92 116 140 191 257 303 340
#     4  12  26  39  57  89 125 162 199 234 295 355
#     4  10  20  36  60  86 117 153 192 238 300 357
#     4  10  20  35  63  82 117 148 201 241 295 336
#
# _framework density 20.187339000000001
#
# number of rings (size 3 to 8) (size 9 to 14) (size 15 to 20)
#    0.857    0.571    1.429    4.714    4.000    0.571 
#    0.000    0.000    0.000    5.143    0.000    0.000 
#    0.000    0.000    0.000    0.000    0.000    0.000 
#
# Total GULP energy -347052.102311 kJ/mol
# GULP energy per Si atom -12394.717940 kJ/mol
# Density = 2.014139 g / cm^3
# Si number density = 20.187339 Si / 1000 Ang^3
#
#
#
# Elastic Constant Matrix: (Units=GPa)
#
#
# Indices 1 2 3 4 5 6 
#
# 1 70.6622 5.4136 6.5558 0.0000 -6.7565 0.0000
# 2 5.4136 106.6101 8.5518 0.0000 0.9580 0.0000
# 3 6.5558 8.5518 95.3214 0.0000 -20.1206 0.0000
# 4 0.0000 0.0000 0.0000 26.4789 0.0000 0.3029
# 5 -6.7565 0.9580 -20.1206 0.0000 33.3421 0.0000
# 6 0.0000 0.0000 0.0000 0.3029 0.0000 19.1514
#
#
#
# Elastic Compliance Matrix: (Units=1/GPa)
#
#
# Indices 1 2 3 4 5 6 
#
# 1 0.014503 -0.000733 -0.000352 0.000000 0.002748 0.000000
# 2 -0.000733 0.009508 -0.001022 0.000000 -0.001038 0.000000
# 3 -0.000352 -0.001022 0.012145 0.000000 0.007287 0.000000
# 4 0.000000 0.000000 0.000000 0.037773 0.000000 -0.000597
# 5 0.002748 -0.001038 0.007287 0.000000 0.034976 0.000000
# 6 0.000000 0.000000 0.000000 -0.000597 0.000000 0.052225
#
#
# Mechanical properties :
#
#
# Convention : Reuss Voigt Hill
#
# Bulk Modulus (GPa) = 31.30506 34.84846 33.07676
# Shear Modulus (GPa) = 28.41046 32.59930 30.50488
#
# Velocity S-wave (km/s) = 3.75552 4.02287 3.89149
# Velocity P-wave (km/s) = 5.86056 6.23522 6.05079
#
# Compressibility (1/GPa) = 0.03194372
#
# Stress axis : x y z
#
# Youngs Moduli (GPa) = 68.94949 105.16918 82.33948
#
# Poissons Ratio (x) = 0.07708 0.02896
# Poissons Ratio (y) = 0.05054 0.08414
# Poissons Ratio (z) = 0.02425 0.10747
#
# Static dielectric constant tensor:
#      x y z
#    x 3.427770 0.000000 -0.125970 
#    y 0.000000 3.733830 0.000000 
#    z -0.125970 0.000000 3.646650 
# 
# 
# High freq. dielectric constant tensor:
#      x y z
#    x 1.764640 0.000000 -0.017860 
#    y 0.000000 1.782610 0.000000 
#    z -0.017860 0.000000 1.796900 
# 
# From -- ./inp_files/3268.got.cif
#   From: 2010.06.25/outbox.cif.g09.slc.cpg/sg11_2_cif.got.tgz:3268.got - 2010.06.27 23:14:04.
