data_PCOD8069360
_publ_section_title
;
Structure prediction by ZEFSAII (Michael W. Deem and Ramdas Pophale) SiO2 
 PCOD8069360
Probable space group: P 21/M
;
_chemical_formula_sum "Si O2"
_cell_formula_units_Z 32
_cell_length_a 15.314090
_cell_length_b 14.103411
_cell_length_c 12.119632
_cell_angle_alpha 90.000000
_cell_angle_beta 138.265112
_cell_angle_gamma 90.000000
_cell_volume 1742.502761
_symmetry_space_group_name_H-M "P 21/M"
_symmetry_group_IT_number 11
_symmetry_cell_setting 'monoclinic'
loop_
_space_group_symop_operation_xyz
x,y,z
-x,1/2+y,-z
-x,-y,-z
x,1/2-y,z
loop_
_atom_site_type_symbol
_atom_site_label
_atom_site_fract_x
_atom_site_fract_y
_atom_site_fract_z
Si Si1 0.662162 0.352645 0.591275
Si Si2 0.851830 0.143732 0.076634
Si Si3 0.419364 0.644908 0.243074
Si Si4 0.103598 0.361849 0.184012
Si Si5 0.331542 0.469177 0.523881
Si Si6 0.892892 0.466866 0.549670
Si Si7 0.959709 0.356175 0.405709
Si Si8 0.038790 0.641405 0.171450
O O1 0.642944 0.250000 0.513893
O O2 0.579897 0.350444 0.625033
O O3 0.600131 0.439043 0.465858
O O4 0.818941 0.370959 0.752578
O O5 0.843830 0.250000 0.017947
O O6 0.850640 0.145715 0.207827
O O7 0.985186 0.099221 0.151027
O O8 0.715982 0.090553 0.917934
O O9 0.421591 0.750000 0.192825
O O10 0.549967 0.595032 0.321803
O O11 0.125789 0.250000 0.222243
O O12 0.235113 0.415154 0.346823
O O13 0.069033 0.386069 0.023702
O O14 0.255414 0.509813 0.557550
O O15 0.894807 0.383882 0.460684
O O16 0.973583 0.427559 0.733178
O O17 0.938024 0.564976 0.537360
O O18 0.023125 0.250000 0.475282
O O19 0.017181 0.750000 0.189176
#
# Coordination Sequence:
#
# PCOD8069360 Si02
#       8
#     4   4   4   4   4   4   4   4
#     4   9  18  32  48  68 103 146 180 207 250 316
#     4   9  17  32  54  76 103 141 177 208 256 319
#     4  10  19  33  51  75 106 138 172 211 262 319
#     4  10  18  31  52  82 114 142 170 211 266 316
#     4  11  21  31  50  81 109 134 175 225 265 304
#     4  10  21  33  51  81 104 133 176 222 271 309
#     4  10  20  36  55  74 103 139 179 222 263 315
#     4   9  17  31  51  75 109 144 174 209 252 312
#
# _framework density 18.364388999999999
#
# number of rings (size 3 to 8) (size 9 to 14) (size 15 to 20)
#    0.000    2.250    2.500    1.125    0.000    4.000 
#    0.000    0.625    0.000    0.000    0.000    3.500 
#    0.000    0.000    0.000    0.000    0.000    0.000 
#
# Total GULP energy -396419.094071 kJ/mol
# GULP energy per Si atom -12388.096690 kJ/mol
# Density = 1.832259 g / cm^3
# Si number density = 18.364389 Si / 1000 Ang^3
#
#
#
# Elastic Constant Matrix: (Units=GPa)
#
#
# Indices 1 2 3 4 5 6 
#
# 1 69.4402 28.1582 33.6439 0.0000 -13.1846 0.0000
# 2 28.1582 95.9335 25.1068 0.0000 -4.2452 0.0000
# 3 33.6439 25.1068 54.9670 0.0000 4.6103 0.0000
# 4 0.0000 0.0000 0.0000 18.6157 0.0000 -1.5822
# 5 -13.1846 -4.2452 4.6103 0.0000 26.7249 0.0000
# 6 0.0000 0.0000 0.0000 -1.5822 0.0000 25.1497
#
#
#
# Elastic Compliance Matrix: (Units=1/GPa)
#
#
# Indices 1 2 3 4 5 6 
#
# 1 0.026207 -0.002822 -0.016030 0.000000 0.015246 0.000000
# 2 -0.002822 0.012362 -0.004025 0.000000 0.001266 0.000000
# 3 -0.016030 -0.004025 0.031008 0.000000 -0.013897 0.000000
# 4 0.000000 0.000000 0.000000 0.054007 0.000000 0.003398
# 5 0.015246 0.001266 -0.013897 0.000000 0.047538 0.000000
# 6 0.000000 0.000000 0.000000 0.003398 0.000000 0.039976
#
#
# Mechanical properties :
#
#
# Convention : Reuss Voigt Hill
#
# Bulk Modulus (GPa) = 41.97802 43.79538 42.88670
# Shear Modulus (GPa) = 18.88268 22.99353 20.93811
#
# Velocity S-wave (km/s) = 3.21007 3.54230 3.38027
# Velocity P-wave (km/s) = 6.05371 6.37419 6.21602
#
# Compressibility (1/GPa) = 0.02382199
#
# Stress axis : x y z
#
# Youngs Moduli (GPa) = 38.15828 80.89518 32.24928
#
# Poissons Ratio (x) = 0.22830 0.51696
# Poissons Ratio (y) = 0.10769 0.12981
# Poissons Ratio (z) = 0.61168 0.32561
#
# Static dielectric constant tensor:
#      x y z
#    x 3.279420 0.000000 -0.122020 
#    y 0.000000 3.685780 0.000000 
#    z -0.122020 0.000000 3.152660 
# 
# 
# High freq. dielectric constant tensor:
#      x y z
#    x 1.691480 0.000000 -0.006680 
#    y 0.000000 1.727820 0.000000 
#    z -0.006680 0.000000 1.676110 
# 
# From -- ./inp_files/39691.got.cif
#   From: 2010.06.25/outbox.cif.g09.slc.cpg/sg11_20_cif.got.tgz:39691.got - 2010.06.27 23:14:04.
