data_PCOD8069180
_publ_section_title
;
Structure prediction by ZEFSAII (Michael W. Deem and Ramdas Pophale) SiO2 
 PCOD8069180
Probable space group: P 21/M
;
_chemical_formula_sum "Si O2"
_cell_formula_units_Z 20
_cell_length_a 5.097671
_cell_length_b 19.240781
_cell_length_c 10.208518
_cell_angle_alpha 90.000000
_cell_angle_beta 78.376566
_cell_angle_gamma 90.000000
_cell_volume 980.750419
_symmetry_space_group_name_H-M "P 21/M"
_symmetry_group_IT_number 11
_symmetry_cell_setting 'monoclinic'
loop_
_space_group_symop_operation_xyz
x,y,z
-x,1/2+y,-z
-x,-y,-z
x,1/2-y,z
loop_
_atom_site_type_symbol
_atom_site_label
_atom_site_fract_x
_atom_site_fract_y
_atom_site_fract_z
Si Si1 0.871836 0.017445 0.718965
Si Si2 0.980277 0.420817 0.962066
Si Si3 0.406670 0.104917 0.115392
Si Si4 0.783955 0.411196 0.464518
Si Si5 0.303390 0.329188 0.389643
O O1 0.981409 0.079264 0.802816
O O2 0.729379 0.050736 0.607438
O O3 0.650514 0.972040 0.819439
O O4 0.116050 0.967161 0.652636
O O5 0.713309 0.386251 0.045696
O O6 0.000000 0.500000 0.000000
O O7 0.229217 0.380363 0.002696
O O8 0.339210 0.163119 0.230054
O O9 0.506201 0.379397 0.445221
O O10 0.004725 0.351135 0.460709
O O11 0.352936 0.250000 0.425984
#
# Coordination Sequence:
#
# PCOD8069180 Si02
#       5
#     4   4   4   4   4
#     4   9  19  34  54  83 115 131 165 220 270 324
#     4  10  18  30  51  78 107 133 159 200 260 319
#     4  10  20  32  52  80 104 136 171 209 266 309
#     4  10  22  34  55  82 105 140 173 213 272 310
#     4  11  22  38  55  73 102 141 186 221 248 306
#
# _framework density 20.392548999999999
#
# number of rings (size 3 to 8) (size 9 to 14) (size 15 to 20)
#    0.000    2.000    0.000    6.600    0.000   13.600 
#    0.000    0.000    0.000    7.200    0.000    0.000 
#    0.000    0.000    0.000    0.000    0.000    0.000 
#
# Total GULP energy -247984.515416 kJ/mol
# GULP energy per Si atom -12399.225771 kJ/mol
# Density = 2.034613 g / cm^3
# Si number density = 20.392549 Si / 1000 Ang^3
#
#
#
# Elastic Constant Matrix: (Units=GPa)
#
#
# Indices 1 2 3 4 5 6 
#
# 1 89.0043 6.4887 14.9234 0.0000 12.4950 0.0000
# 2 6.4887 54.6944 21.7395 0.0000 6.6938 0.0000
# 3 14.9234 21.7395 86.5283 0.0000 13.8176 0.0000
# 4 0.0000 0.0000 0.0000 14.3552 0.0000 2.8290
# 5 12.4950 6.6938 13.8176 0.0000 27.2672 0.0000
# 6 0.0000 0.0000 0.0000 2.8290 0.0000 22.7989
#
#
#
# Elastic Compliance Matrix: (Units=1/GPa)
#
#
# Indices 1 2 3 4 5 6 
#
# 1 0.012150 -0.000358 -0.001230 0.000000 -0.004856 0.000000
# 2 -0.000358 0.020495 -0.004690 0.000000 -0.002491 0.000000
# 3 -0.001230 -0.004690 0.013789 0.000000 -0.005273 0.000000
# 4 0.000000 0.000000 0.000000 0.071407 0.000000 -0.008860
# 5 -0.004856 -0.002491 -0.005273 0.000000 0.042183 0.000000
# 6 0.000000 0.000000 0.000000 -0.008860 0.000000 0.044961
#
#
# Mechanical properties :
#
#
# Convention : Reuss Voigt Hill
#
# Bulk Modulus (GPa) = 29.51763 35.17002 32.34382
# Shear Modulus (GPa) = 21.85001 25.35596 23.60299
#
# Velocity S-wave (km/s) = 3.27688 3.53000 3.40580
# Velocity P-wave (km/s) = 5.36875 5.82224 5.60009
#
# Compressibility (1/GPa) = 0.03387806
#
# Stress axis : x y z
#
# Youngs Moduli (GPa) = 82.30789 48.79307 72.52005
#
# Poissons Ratio (x) = 0.01748 0.08919
# Poissons Ratio (y) = 0.02948 0.34009
# Poissons Ratio (z) = 0.10123 0.22882
#
# Static dielectric constant tensor:
#      x y z
#    x 3.821430 0.000000 0.386660 
#    y 0.000000 3.340260 0.000000 
#    z 0.386660 0.000000 4.352130 
# 
# 
# High freq. dielectric constant tensor:
#      x y z
#    x 1.807310 0.000000 0.014210 
#    y 0.000000 1.739410 0.000000 
#    z 0.014210 0.000000 1.802210 
# 
# From -- ./inp_files/10259.got.cif
#   From: 2010.06.25/outbox.cif.g09.slc.cpg/sg11_6_cif.got.tgz:10259.got - 2010.06.27 23:14:04.
