data_PCOD8069261
_publ_section_title
;
Structure prediction by ZEFSAII (Michael W. Deem and Ramdas Pophale) SiO2 
 PCOD8069261
Probable space group: P 21/M
;
_chemical_formula_sum "Si O2"
_cell_formula_units_Z 32
_cell_length_a 14.958908
_cell_length_b 9.058857
_cell_length_c 23.084810
_cell_angle_alpha 90.000000
_cell_angle_beta 39.471924
_cell_angle_gamma 90.000000
_cell_volume 1988.620143
_symmetry_space_group_name_H-M "P 21/M"
_symmetry_group_IT_number 11
_symmetry_cell_setting 'monoclinic'
loop_
_space_group_symop_operation_xyz
x,y,z
-x,1/2+y,-z
-x,-y,-z
x,1/2-y,z
loop_
_atom_site_type_symbol
_atom_site_label
_atom_site_fract_x
_atom_site_fract_y
_atom_site_fract_z
Si Si1 0.301475 0.418138 0.611790
Si Si2 0.990009 0.075925 0.387320
Si Si3 0.552525 0.421635 0.563509
Si Si4 0.286647 0.421173 0.289772
Si Si5 0.304134 0.579697 0.071259
Si Si6 0.463333 0.922341 0.107859
Si Si7 0.994652 0.418699 0.740503
Si Si8 0.282452 0.422582 0.425738
O O1 0.334130 0.250000 0.575575
O O2 0.391778 0.454339 0.624229
O O3 0.341852 0.527102 0.539762
O O4 0.136116 0.438685 0.707937
O O5 0.965708 0.250000 0.402484
O O6 0.130881 0.026387 0.350042
O O7 0.001390 0.027684 0.315389
O O8 0.861386 0.997449 0.482906
O O9 0.579409 0.250000 0.561900
O O10 0.585139 0.511539 0.605424
O O11 0.305459 0.250000 0.265793
O O12 0.404914 0.508857 0.195834
O O13 0.310831 0.456246 0.344729
O O14 0.336559 0.750000 0.042306
O O15 0.359215 0.535252 0.107485
O O16 0.138004 0.543376 0.152260
O O17 0.381440 0.485073 0.983364
O O18 0.476669 0.750000 0.110615
O O19 0.980723 0.250000 0.724628
O O20 0.269551 0.250000 0.445036
#
# Coordination Sequence:
#
# PCOD8069261 Si02
#       8
#     4   4   4   4   4   4   4   4
#     4   9  18  31  49  70  97 127 157 197 244 290
#     4  11  21  32  47  70  97 127 164 205 237 274
#     4  10  19  31  47  71  96 124 162 202 242 281
#     4  10  22  36  49  67  95 130 167 203 241 283
#     4   9  18  31  48  70  97 127 158 192 236 289
#     4  10  19  31  49  72  95 125 161 198 239 281
#     4  10  18  31  50  72  97 130 161 190 236 292
#     4  11  22  35  49  66  94 134 169 199 239 286
#
# _framework density 16.091559
#
# number of rings (size 3 to 8) (size 9 to 14) (size 15 to 20)
#    0.000    2.000    2.500    1.875    0.000    3.000 
#    0.000    0.000    0.000    0.000    0.000    0.875 
#    0.000    0.000    0.000    0.000    0.000    0.000 
#
# Total GULP energy -396842.793109 kJ/mol
# GULP energy per Si atom -12401.337285 kJ/mol
# Density = 1.605493 g / cm^3
# Si number density = 16.091559 Si / 1000 Ang^3
#
#
#
# Elastic Constant Matrix: (Units=GPa)
#
#
# Indices 1 2 3 4 5 6 
#
# 1 107.1664 46.8021 63.7963 0.0000 -10.2825 0.0000
# 2 46.8021 75.2517 57.6777 0.0000 0.8209 0.0000
# 3 63.7963 57.6777 109.3811 0.0000 -9.1104 0.0000
# 4 0.0000 0.0000 0.0000 23.5719 0.0000 2.6607
# 5 -10.2825 0.8209 -9.1104 0.0000 23.1411 0.0000
# 6 0.0000 0.0000 0.0000 2.6607 0.0000 21.9710
#
#
#
# Elastic Compliance Matrix: (Units=1/GPa)
#
#
# Indices 1 2 3 4 5 6 
#
# 1 0.015607 -0.005179 -0.005975 0.000000 0.004766 0.000000
# 2 -0.005179 0.024747 -0.010643 0.000000 -0.007369 0.000000
# 3 -0.005975 -0.010643 0.018661 0.000000 0.005069 0.000000
# 4 0.000000 0.000000 0.000000 0.043011 0.000000 -0.005209
# 5 0.004766 -0.007369 0.005069 0.000000 0.047588 0.000000
# 6 0.000000 0.000000 0.000000 -0.005209 0.000000 0.046145
#
#
# Mechanical properties :
#
#
# Convention : Reuss Voigt Hill
#
# Bulk Modulus (GPa) = 64.83936 69.81681 67.32809
# Shear Modulus (GPa) = 20.45026 21.97166 21.21096
#
# Velocity S-wave (km/s) = 3.56879 3.69916 3.63456
# Velocity P-wave (km/s) = 7.57385 7.85662 7.71653
#
# Compressibility (1/GPa) = 0.01542273
#
# Stress axis : x y z
#
# Youngs Moduli (GPa) = 64.07211 40.40815 53.58676
#
# Poissons Ratio (x) = 0.20929 0.32017
# Poissons Ratio (y) = 0.33185 0.57030
# Poissons Ratio (z) = 0.38282 0.43004
#
# Static dielectric constant tensor:
#      x y z
#    x 3.132220 0.000000 -0.175540 
#    y 0.000000 3.142640 0.000000 
#    z -0.175540 0.000000 2.946340 
# 
# 
# High freq. dielectric constant tensor:
#      x y z
#    x 1.604530 0.000000 -0.015760 
#    y 0.000000 1.629970 0.000000 
#    z -0.015760 0.000000 1.599540 
# 
# From -- ./inp_files/51372.got.cif
#   From: 2010.06.25/outbox.cif.g09.slc.cpg/sg11_26_cif.got.tgz:51372.got - 2010.06.27 23:14:04.
