data_PCOD8069414
_publ_section_title
;
Structure prediction by ZEFSAII (Michael W. Deem and Ramdas Pophale) SiO2 
 PCOD8069414
Probable space group: P 21/M
;
_chemical_formula_sum "Si O2"
_cell_formula_units_Z 24
_cell_length_a 11.937457
_cell_length_b 18.745527
_cell_length_c 9.228234
_cell_angle_alpha 90.000000
_cell_angle_beta 141.503787
_cell_angle_gamma 90.000000
_cell_volume 1285.409634
_symmetry_space_group_name_H-M "P 21/M"
_symmetry_group_IT_number 11
_symmetry_cell_setting 'monoclinic'
loop_
_space_group_symop_operation_xyz
x,y,z
-x,1/2+y,-z
-x,-y,-z
x,1/2-y,z
loop_
_atom_site_type_symbol
_atom_site_label
_atom_site_fract_x
_atom_site_fract_y
_atom_site_fract_z
Si Si1 0.125393 0.938422 0.406786
Si Si2 0.589646 0.394543 0.843591
Si Si3 0.715654 0.943615 0.994096
Si Si4 0.229051 0.089991 0.630952
Si Si5 0.876431 0.332077 0.336344
Si Si6 0.431908 0.575178 0.490053
O O1 0.162601 0.873916 0.554509
O O2 0.244284 0.931267 0.384061
O O3 0.919767 0.939767 0.144465
O O4 0.167160 0.010028 0.535711
O O5 0.382742 0.383099 0.679089
O O6 0.600270 0.374977 0.682840
O O7 0.648357 0.475309 0.935638
O O8 0.714504 0.340919 0.058747
O O9 0.694596 0.907598 0.128979
O O10 0.588534 0.897497 0.757226
O O11 0.058417 0.141567 0.442781
O O12 0.895771 0.250000 0.398157
O O13 0.500000 0.500000 0.500000
#
# Coordination Sequence:
#
# PCOD8069414 Si02
#       6
#     4   4   4   4   4   4
#     4  11  19  36  60  86 115 149 187 246 288 325
#     4  11  20  34  57  86 118 143 180 237 290 336
#     4  10  18  31  54  87 113 143 180 233 289 329
#     4  11  19  35  61  84 115 144 190 246 288 323
#     4  11  24  39  57  81 111 154 199 233 285 350
#     4  10  21  31  53  93 119 139 180 230 292 347
#
# _framework density 18.67109
#
# number of rings (size 3 to 8) (size 9 to 14) (size 15 to 20)
#    0.000    1.333    6.667    2.500    0.000    4.667 
#    0.000    0.833    0.000    4.000    0.000    0.000 
#    0.000    0.000    0.000    0.000    0.000    0.000 
#
# Total GULP energy -297609.490867 kJ/mol
# GULP energy per Si atom -12400.395453 kJ/mol
# Density = 1.862859 g / cm^3
# Si number density = 18.671090 Si / 1000 Ang^3
#
#
#
# Elastic Constant Matrix: (Units=GPa)
#
#
# Indices 1 2 3 4 5 6 
#
# 1 141.3016 18.5232 34.2181 0.0000 7.5350 0.0000
# 2 18.5232 78.2095 10.9989 0.0000 0.9106 0.0000
# 3 34.2181 10.9989 66.0680 0.0000 8.8943 0.0000
# 4 0.0000 0.0000 0.0000 14.2339 0.0000 -0.5598
# 5 7.5350 0.9106 8.8943 0.0000 28.3866 0.0000
# 6 0.0000 0.0000 0.0000 -0.5598 0.0000 0.6620
#
#
#
# Elastic Compliance Matrix: (Units=1/GPa)
#
#
# Indices 1 2 3 4 5 6 
#
# 1 0.008258 -0.001394 -0.003922 0.000000 -0.000919 0.000000
# 2 -0.001394 0.013330 -0.001555 0.000000 0.000430 0.000000
# 3 -0.003922 -0.001555 0.018040 0.000000 -0.004562 0.000000
# 4 0.000000 0.000000 0.000000 0.072671 0.000000 0.061449
# 5 -0.000919 0.000430 -0.004562 0.000000 0.036887 0.000000
# 6 0.000000 0.000000 0.000000 0.061449 0.000000 1.562553
#
#
# Mechanical properties :
#
#
# Convention : Reuss Voigt Hill
#
# Bulk Modulus (GPa) = 38.62861 45.89550 42.26206
# Shear Modulus (GPa) = 2.88332 23.44576 13.16454
#
# Velocity S-wave (km/s) = 1.24404 3.54747 2.65821
# Velocity P-wave (km/s) = 4.77466 6.43535 5.66618
#
# Compressibility (1/GPa) = 0.02588755
#
# Stress axis : x y z
#
# Youngs Moduli (GPa) = 121.08877 75.01895 55.43248
#
# Poissons Ratio (x) = 0.10456 0.21738
# Poissons Ratio (y) = 0.16877 0.08621
# Poissons Ratio (z) = 0.47485 0.11667
#
# Static dielectric constant tensor:
#      x y z
#    x 3.628630 0.000000 -0.081370 
#    y 0.000000 3.029520 0.000000 
#    z -0.081370 0.000000 4.095670 
# 
# 
# High freq. dielectric constant tensor:
#      x y z
#    x 1.737180 0.000000 0.006030 
#    y 0.000000 1.668260 0.000000 
#    z 0.006030 0.000000 1.743370 
# 
# From -- ./inp_files/19067.got.cif
#   From: 2010.06.25/outbox.cif.g09.slc.cpg/sg11_10_cif.got.tgz:19067.got - 2010.06.27 23:14:04.
