data_PCOD8069706
_publ_section_title
;
Structure prediction by ZEFSAII (Michael W. Deem and Ramdas Pophale) SiO2 
 PCOD8069706
Probable space group: P 21/M
;
_chemical_formula_sum "Si O2"
_cell_formula_units_Z 28
_cell_length_a 8.735258
_cell_length_b 17.326293
_cell_length_c 15.411214
_cell_angle_alpha 90.000000
_cell_angle_beta 144.735350
_cell_angle_gamma 90.000000
_cell_volume 1346.667581
_symmetry_space_group_name_H-M "P 21/M"
_symmetry_group_IT_number 11
_symmetry_cell_setting 'monoclinic'
loop_
_space_group_symop_operation_xyz
x,y,z
-x,1/2+y,-z
-x,-y,-z
x,1/2-y,z
loop_
_atom_site_type_symbol
_atom_site_label
_atom_site_fract_x
_atom_site_fract_y
_atom_site_fract_z
Si Si1 0.275137 0.387785 0.885495
Si Si2 0.729040 0.073687 0.852980
Si Si3 0.225982 0.164998 0.046138
Si Si4 0.133878 0.659375 0.816538
Si Si5 0.166908 0.088346 0.649067
Si Si6 0.222376 0.907524 0.677759
Si Si7 0.025291 0.977344 0.865082
O O1 0.152803 0.366637 0.734659
O O2 0.184676 0.474963 0.865672
O O3 0.180337 0.333364 0.920503
O O4 0.588950 0.375732 0.021495
O O5 0.434063 0.108695 0.718357
O O6 0.771141 0.023814 0.959567
O O7 0.765116 0.022153 0.781837
O O8 0.949704 0.140887 0.961274
O O9 0.302587 0.250000 0.113259
O O10 0.463159 0.107933 0.184430
O O11 0.097155 0.750000 0.820285
O O12 0.100515 0.644663 0.698702
O O13 0.934830 0.605566 0.781994
O O14 0.919038 0.116913 0.477456
O O15 0.163370 0.997032 0.666977
#
# Coordination Sequence:
#
# PCOD8069706 Si02
#       7
#     4   4   4   4   4   4   4
#     4  10  18  34  62  84 110 147 203 244 276 336
#     4  10  20  34  61  89 116 146 197 245 291 332
#     4  10  22  40  59  83 119 162 194 234 297 359
#     4  11  20  33  54  85 116 152 196 238 288 349
#     4  11  20  36  61  94 112 144 197 254 290 336
#     4  10  21  35  59  88 119 147 191 244 299 345
#     4  10  18  33  58  84 112 150 190 242 284 335
#
# _framework density 20.792065999999998
#
# number of rings (size 3 to 8) (size 9 to 14) (size 15 to 20)
#    0.000    1.714    2.857    5.571    0.000    0.571 
#    0.000    5.000    6.286    0.000    0.000    0.000 
#    0.000    0.000    0.000    0.000    0.000    0.000 
#
# Total GULP energy -346940.578805 kJ/mol
# GULP energy per Si atom -12390.734957 kJ/mol
# Density = 2.074474 g / cm^3
# Si number density = 20.792066 Si / 1000 Ang^3
#
#
#
# Elastic Constant Matrix: (Units=GPa)
#
#
# Indices 1 2 3 4 5 6 
#
# 1 81.9855 27.8888 44.8910 0.0000 -6.7399 0.0000
# 2 27.8888 100.9237 27.0069 0.0000 -2.2438 0.0000
# 3 44.8910 27.0069 117.4435 0.0000 -21.9861 0.0000
# 4 0.0000 0.0000 0.0000 14.1507 0.0000 -6.1828
# 5 -6.7399 -2.2438 -21.9861 0.0000 27.9081 0.0000
# 6 0.0000 0.0000 0.0000 -6.1828 0.0000 18.9972
#
#
#
# Elastic Compliance Matrix: (Units=1/GPa)
#
#
# Indices 1 2 3 4 5 6 
#
# 1 0.016257 -0.002992 -0.005672 0.000000 -0.000783 0.000000
# 2 -0.002992 0.011146 -0.001627 0.000000 -0.001108 0.000000
# 3 -0.005672 -0.001627 0.012640 0.000000 0.008457 0.000000
# 4 0.000000 0.000000 0.000000 0.082383 0.000000 0.026812
# 5 -0.000783 -0.001108 0.008457 0.000000 0.042216 0.000000
# 6 0.000000 0.000000 0.000000 0.026812 0.000000 0.061366
#
#
# Mechanical properties :
#
#
# Convention : Reuss Voigt Hill
#
# Bulk Modulus (GPa) = 51.38634 55.54733 53.46684
# Shear Modulus (GPa) = 19.75683 25.58228 22.66955
#
# Velocity S-wave (km/s) = 3.08589 3.51149 3.30555
# Velocity P-wave (km/s) = 6.12087 6.57377 6.35136
#
# Compressibility (1/GPa) = 0.01946042
#
# Stress axis : x y z
#
# Youngs Moduli (GPa) = 61.51374 89.71883 79.11174
#
# Poissons Ratio (x) = 0.26841 0.44876
# Poissons Ratio (y) = 0.18403 0.12871
# Poissons Ratio (z) = 0.34894 0.14597
#
# Static dielectric constant tensor:
#      x y z
#    x 3.902260 0.000000 -0.183250 
#    y 0.000000 3.566190 0.000000 
#    z -0.183250 0.000000 3.538040 
# 
# 
# High freq. dielectric constant tensor:
#      x y z
#    x 1.817200 0.000000 -0.020090 
#    y 0.000000 1.797230 0.000000 
#    z -0.020090 0.000000 1.775180 
# 
# From -- ./inp_files/48031.got.cif
#   From: 2010.06.25/outbox.cif.g09.slc.cpg/sg11_25_cif.got.tgz:48031.got - 2010.06.27 23:14:04.
