data_PCOD8069918
_publ_section_title
;
Structure prediction by ZEFSAII (Michael W. Deem and Ramdas Pophale) SiO2 
 PCOD8069918
Probable space group: P 21/M
;
_chemical_formula_sum "Si O2"
_cell_formula_units_Z 32
_cell_length_a 15.689483
_cell_length_b 9.340496
_cell_length_c 30.278594
_cell_angle_alpha 90.000000
_cell_angle_beta 149.575362
_cell_angle_gamma 90.000000
_cell_volume 2247.045815
_symmetry_space_group_name_H-M "P 21/M"
_symmetry_group_IT_number 11
_symmetry_cell_setting 'monoclinic'
loop_
_space_group_symop_operation_xyz
x,y,z
-x,1/2+y,-z
-x,-y,-z
x,1/2-y,z
loop_
_atom_site_type_symbol
_atom_site_label
_atom_site_fract_x
_atom_site_fract_y
_atom_site_fract_z
Si Si1 0.669534 0.414922 0.583434
Si Si2 0.223990 0.416266 0.630418
Si Si3 0.318942 0.083550 0.329632
Si Si4 0.191002 0.083058 0.178655
Si Si5 0.602874 0.417099 0.803234
Si Si6 0.713713 0.411527 0.506055
Si Si7 0.078804 0.416644 0.470518
Si Si8 0.901224 0.087022 0.991315
O O1 0.500000 0.500000 0.500000
O O2 0.630474 0.250000 0.577542
O O3 0.761386 0.490830 0.666038
O O4 0.773320 0.424960 0.583942
O O5 0.198526 0.250000 0.630486
O O6 0.412592 0.470042 0.724857
O O7 0.186734 0.447369 0.562530
O O8 0.101478 0.506668 0.606927
O O9 0.286625 0.250000 0.325336
O O10 0.224596 0.031135 0.243321
O O11 0.516852 0.051528 0.412942
O O12 0.237258 0.250000 0.194997
O O13 0.311054 0.999652 0.198650
O O14 0.990344 0.054430 0.078480
O O15 0.602961 0.250000 0.790566
O O16 0.702248 0.445812 0.894559
O O17 0.746685 0.250000 0.503679
O O18 0.820409 0.522968 0.525874
O O19 0.047019 0.250000 0.448737
O O20 0.934848 0.250000 0.994074
O O21 0.000000 0.000000 0.000000
#
# Coordination Sequence:
#
# PCOD8069918 Si02
#       8
#     4   4   4   4   4   4   4   4
#     4   9  17  28  41  57  77 102 130 159 191 226
#     4   9  18  30  40  53  76 102 128 161 195 223
#     4   9  17  27  39  57  80 106 133 158 188 226
#     4   9  16  25  38  57  81 106 130 159 193 225
#     4   9  16  26  40  56  75 103 136 163 190 227
#     4   9  17  28  40  54  75 102 128 155 189 225
#     4  10  19  28  40  57  74  97 130 163 193 225
#     4   8  14  24  37  54  76 101 129 159 189 224
#
# _framework density 14.240919999999999
#
# number of rings (size 3 to 8) (size 9 to 14) (size 15 to 20)
#    0.000    3.000    0.000    2.250    0.000    4.000 
#    0.000    0.000    0.000    0.000    0.000    0.000 
#    0.000    1.000    0.000    2.000    0.000    2.625 
#
# Total GULP energy -396466.439299 kJ/mol
# GULP energy per Si atom -12389.576228 kJ/mol
# Density = 1.420851 g / cm^3
# Si number density = 14.240920 Si / 1000 Ang^3
#
#
#
# Elastic Constant Matrix: (Units=GPa)
#
#
# Indices 1 2 3 4 5 6 
#
# 1 68.3739 38.8062 44.9604 0.0000 -9.9816 0.0000
# 2 38.8062 59.3516 34.5850 0.0000 -3.4775 0.0000
# 3 44.9604 34.5850 111.8830 0.0000 -8.7738 0.0000
# 4 0.0000 0.0000 0.0000 15.9611 0.0000 -1.0889
# 5 -9.9816 -3.4775 -8.7738 0.0000 20.8620 0.0000
# 6 0.0000 0.0000 0.0000 -1.0889 0.0000 25.7642
#
#
#
# Elastic Compliance Matrix: (Units=1/GPa)
#
#
# Indices 1 2 3 4 5 6 
#
# 1 0.027985 -0.014193 -0.006199 0.000000 0.008417 0.000000
# 2 -0.014193 0.027760 -0.003151 0.000000 -0.003489 0.000000
# 3 -0.006199 -0.003151 0.012543 0.000000 0.001784 0.000000
# 4 0.000000 0.000000 0.000000 0.062834 0.000000 0.002656
# 5 0.008417 -0.003489 0.001784 0.000000 0.052130 0.000000
# 6 0.000000 0.000000 0.000000 0.002656 0.000000 0.038926
#
#
# Mechanical properties :
#
#
# Convention : Reuss Voigt Hill
#
# Bulk Modulus (GPa) = 47.16284 52.92351 50.04318
# Shear Modulus (GPa) = 18.09419 20.60124 19.34772
#
# Velocity S-wave (km/s) = 3.56838 3.80758 3.68992
# Velocity P-wave (km/s) = 7.08290 7.52156 7.30552
#
# Compressibility (1/GPa) = 0.02120313
#
# Stress axis : x y z
#
# Youngs Moduli (GPa) = 35.73280 36.02251 79.72600
#
# Poissons Ratio (x) = 0.51125 0.49420
# Poissons Ratio (y) = 0.50714 0.25126
# Poissons Ratio (z) = 0.22150 0.11352
#
# Static dielectric constant tensor:
#      x y z
#    x 2.674720 0.000000 -0.279990 
#    y 0.000000 2.858880 0.000000 
#    z -0.279990 0.000000 3.217730 
# 
# 
# High freq. dielectric constant tensor:
#      x y z
#    x 1.510420 0.000000 -0.015990 
#    y 0.000000 1.553930 0.000000 
#    z -0.015990 0.000000 1.533500 
# 
# From -- ./inp_files/56037.got.cif
#   From: 2010.06.25/outbox.cif.g09.slc.cpg/sg11_29_cif.got.tgz:56037.got - 2010.06.27 23:14:04.
