data_PCOD8069679
_publ_section_title
;
Structure prediction by ZEFSAII (Michael W. Deem and Ramdas Pophale) SiO2 
 PCOD8069679
Probable space group: P 21/M
;
_chemical_formula_sum "Si O2"
_cell_formula_units_Z 28
_cell_length_a 12.258477
_cell_length_b 8.501652
_cell_length_c 27.021727
_cell_angle_alpha 90.000000
_cell_angle_beta 31.109177
_cell_angle_gamma 90.000000
_cell_volume 1455.012025
_symmetry_space_group_name_H-M "P 21/M"
_symmetry_group_IT_number 11
_symmetry_cell_setting 'monoclinic'
loop_
_space_group_symop_operation_xyz
x,y,z
-x,1/2+y,-z
-x,-y,-z
x,1/2-y,z
loop_
_atom_site_type_symbol
_atom_site_label
_atom_site_fract_x
_atom_site_fract_y
_atom_site_fract_z
Si Si1 0.820539 0.936683 0.534257
Si Si2 0.060599 0.564968 0.349055
Si Si3 0.530485 0.564350 0.182931
Si Si4 0.841681 0.434168 0.795381
Si Si5 0.609572 0.066757 0.048715
Si Si6 0.979615 0.566504 0.841314
Si Si7 0.619566 0.436459 0.251942
O O1 0.819991 0.750000 0.536809
O O2 0.592183 0.001190 0.639187
O O3 0.876181 0.999317 0.456953
O O4 0.000000 0.000000 0.500000
O O5 0.063842 0.750000 0.352919
O O6 0.288786 0.502993 0.279028
O O7 0.025398 0.515959 0.305461
O O8 0.544903 0.750000 0.169342
O O9 0.643302 0.481949 0.092594
O O10 0.647764 0.514323 0.187330
O O11 0.786855 0.250000 0.815065
O O12 0.623261 0.528791 0.880852
O O13 0.980656 0.475761 0.788792
O O14 0.656190 0.250000 0.023740
O O15 0.770585 0.968961 0.953089
O O16 0.994180 0.750000 0.824347
O O17 0.183791 0.507108 0.791769
O O18 0.614916 0.250000 0.247243
#
# Coordination Sequence:
#
# PCOD8069679 Si02
#       7
#     4   4   4   4   4   4   4
#     4  10  18  33  56  84 111 142 180 224 273 325
#     4   8  16  31  54  82 110 138 173 221 273 319
#     4  10  19  34  56  83 113 145 180 225 277 329
#     4  10  20  37  59  83 109 143 185 229 274 325
#     4  11  22  37  59  84 108 141 184 231 277 327
#     4  11  23  39  54  76 111 151 188 228 275 326
#     4  10  22  36  54  80 114 149 185 227 275 327
#
# _framework density 19.243827
#
# number of rings (size 3 to 8) (size 9 to 14) (size 15 to 20)
#    0.000    2.000    1.429    3.857    0.000    1.714 
#    0.000    1.429    0.000    0.000    0.000    0.000 
#    0.000    0.000    0.000    0.000    0.000    0.000 
#
# Total GULP energy -347183.881386 kJ/mol
# GULP energy per Si atom -12399.424335 kJ/mol
# Density = 1.920003 g / cm^3
# Si number density = 19.243827 Si / 1000 Ang^3
#
#
#
# Elastic Constant Matrix: (Units=GPa)
#
#
# Indices 1 2 3 4 5 6 
#
# 1 146.3207 15.0723 47.8926 0.0000 17.9443 0.0000
# 2 15.0723 33.4824 9.2455 0.0000 -0.8274 0.0000
# 3 47.8926 9.2455 53.9132 0.0000 23.3224 0.0000
# 4 0.0000 0.0000 0.0000 17.6211 0.0000 1.6970
# 5 17.9443 -0.8274 23.3224 0.0000 27.3773 0.0000
# 6 0.0000 0.0000 0.0000 1.6970 0.0000 31.4134
#
#
#
# Elastic Compliance Matrix: (Units=1/GPa)
#
#
# Indices 1 2 3 4 5 6 
#
# 1 0.009792 -0.001950 -0.008808 0.000000 0.001026 0.000000
# 2 -0.001950 0.033123 -0.007813 0.000000 0.008935 0.000000
# 3 -0.008808 -0.007813 0.040092 0.000000 -0.028617 0.000000
# 4 0.000000 0.000000 0.000000 0.057047 0.000000 -0.003082
# 5 0.001026 0.008935 -0.028617 0.000000 0.060502 0.000000
# 6 0.000000 0.000000 0.000000 -0.003082 0.000000 0.032000
#
#
# Mechanical properties :
#
#
# Convention : Reuss Voigt Hill
#
# Bulk Modulus (GPa) = 21.80354 42.01522 31.90938
# Shear Modulus (GPa) = 17.54461 26.04943 21.79702
#
# Velocity S-wave (km/s) = 3.02271 3.68319 3.36918
# Velocity P-wave (km/s) = 4.85151 6.32205 5.63496
#
# Compressibility (1/GPa) = 0.04586412
#
# Stress axis : x y z
#
# Youngs Moduli (GPa) = 102.11938 30.19088 24.94238
#
# Poissons Ratio (x) = 0.05889 0.21970
# Poissons Ratio (y) = 0.19918 0.19487
# Poissons Ratio (z) = 0.89952 0.23587
#
# Static dielectric constant tensor:
#      x y z
#    x 3.588320 0.000000 0.256460 
#    y 0.000000 3.356300 0.000000 
#    z 0.256460 0.000000 3.720050 
# 
# 
# High freq. dielectric constant tensor:
#      x y z
#    x 1.747780 0.000000 0.022580 
#    y 0.000000 1.738510 0.000000 
#    z 0.022580 0.000000 1.744690 
# 
# From -- ./inp_files/60122.got.cif
#   From: 2010.06.25/outbox.cif.g09.slc.cpg/sg11_31_cif.got.tgz:60122.got - 2010.06.27 23:14:04.
