data_PCOD8069984
_publ_section_title
;
Structure prediction by ZEFSAII (Michael W. Deem and Ramdas Pophale) SiO2 
 PCOD8069984
Probable space group: P 21/M
;
_chemical_formula_sum "Si O2"
_cell_formula_units_Z 32
_cell_length_a 20.755092
_cell_length_b 9.061745
_cell_length_c 27.293196
_cell_angle_alpha 90.000000
_cell_angle_beta 21.499429
_cell_angle_gamma 90.000000
_cell_volume 1881.288231
_symmetry_space_group_name_H-M "P 21/M"
_symmetry_group_IT_number 11
_symmetry_cell_setting 'monoclinic'
loop_
_space_group_symop_operation_xyz
x,y,z
-x,1/2+y,-z
-x,-y,-z
x,1/2-y,z
loop_
_atom_site_type_symbol
_atom_site_label
_atom_site_fract_x
_atom_site_fract_y
_atom_site_fract_z
Si Si1 0.908247 0.577938 0.798210
Si Si2 0.438200 0.577289 0.994627
Si Si3 0.887074 0.577534 0.509906
Si Si4 0.342152 0.576607 0.639557
Si Si5 0.219295 0.419357 0.306872
Si Si6 0.440984 0.413593 0.426088
Si Si7 0.762969 0.419173 0.504615
Si Si8 0.115721 0.417494 0.729833
O O1 0.869503 0.750000 0.833660
O O2 0.738923 0.496829 0.897833
O O3 0.061018 0.552590 0.650646
O O4 0.958361 0.505217 0.814737
O O5 0.407365 0.750000 0.026244
O O6 0.500000 0.500000 0.000000
O O7 0.583648 0.550469 0.849982
O O8 0.898943 0.750000 0.492278
O O9 0.792443 0.536391 0.627863
O O10 0.770747 0.507721 0.549513
O O11 0.084876 0.514431 0.369423
O O12 0.500000 0.500000 0.500000
O O13 0.338143 0.750000 0.629462
O O14 0.376974 0.552019 0.673337
O O15 0.161738 0.499558 0.748767
O O16 0.164253 0.250000 0.337917
O O17 0.448798 0.250000 0.397602
O O18 0.406724 0.527540 0.406390
O O19 0.284989 0.421611 0.575664
O O20 0.734835 0.250000 0.537435
O O21 0.055723 0.250000 0.783138
#
# Coordination Sequence:
#
# PCOD8069984 Si02
#       8
#     4   4   4   4   4   4   4   4
#     4  10  20  32  45  64  91 121 153 187 224 266
#     4  11  22  35  50  68  92 119 149 184 223 266
#     4  10  19  32  51  69  87 114 147 183 223 267
#     4   9  15  23  36  55  81 114 150 186 222 262
#     4   9  20  36  50  67  90 115 145 183 224 265
#     4   8  15  25  37  56  83 115 150 183 216 261
#     4  10  19  29  43  64  91 120 149 185 225 263
#     4   9  16  26  40  58  82 115 152 186 222 264
#
# _framework density 17.009620999999999
#
# number of rings (size 3 to 8) (size 9 to 14) (size 15 to 20)
#    0.000    2.500    0.000    3.750    0.000    9.500 
#    0.000    0.000    0.000    0.000    0.000    0.000 
#    0.000    1.000    0.000    3.000    0.000    4.500 
#
# Total GULP energy -396718.452591 kJ/mol
# GULP energy per Si atom -12397.451643 kJ/mol
# Density = 1.697091 g / cm^3
# Si number density = 17.009621 Si / 1000 Ang^3
#
#
#
# Elastic Constant Matrix: (Units=GPa)
#
#
# Indices 1 2 3 4 5 6 
#
# 1 146.6624 77.7892 32.4262 0.0000 -26.6194 0.0000
# 2 77.7892 123.6498 31.0480 0.0000 -12.3256 0.0000
# 3 32.4262 31.0480 32.5667 0.0000 -8.7673 0.0000
# 4 0.0000 0.0000 0.0000 18.7729 0.0000 -6.4001
# 5 -26.6194 -12.3256 -8.7673 0.0000 20.9572 0.0000
# 6 0.0000 0.0000 0.0000 -6.4001 0.0000 37.9493
#
#
#
# Elastic Compliance Matrix: (Units=1/GPa)
#
#
# Indices 1 2 3 4 5 6 
#
# 1 0.012941 -0.005979 -0.004177 0.000000 0.011174 0.000000
# 2 -0.005979 0.013491 -0.007683 0.000000 -0.002873 0.000000
# 3 -0.004177 -0.007683 0.044564 0.000000 0.008819 0.000000
# 4 0.000000 0.000000 0.000000 0.056518 0.000000 0.009532
# 5 0.011174 -0.002873 0.008819 0.000000 0.063908 0.000000
# 6 0.000000 0.000000 0.000000 0.009532 0.000000 0.027958
#
#
# Mechanical properties :
#
#
# Convention : Reuss Voigt Hill
#
# Bulk Modulus (GPa) = 28.31351 65.04506 46.67929
# Shear Modulus (GPa) = 18.73846 26.31027 22.52436
#
# Velocity S-wave (km/s) = 3.32270 3.93719 3.64292
# Velocity P-wave (km/s) = 5.60376 7.68061 6.72287
#
# Compressibility (1/GPa) = 0.03531883
#
# Stress axis : x y z
#
# Youngs Moduli (GPa) = 77.27369 74.12212 22.43962
#
# Poissons Ratio (x) = 0.44315 0.09374
# Poissons Ratio (y) = 0.46199 0.17240
# Poissons Ratio (z) = 0.32280 0.56946
#
# Static dielectric constant tensor:
#      x y z
#    x 3.436590 0.000000 -0.146050 
#    y 0.000000 3.400920 0.000000 
#    z -0.146050 0.000000 2.752420 
# 
# 
# High freq. dielectric constant tensor:
#      x y z
#    x 1.670690 0.000000 -0.019990 
#    y 0.000000 1.674330 0.000000 
#    z -0.019990 0.000000 1.591020 
# 
# From -- ./inp_files/72076.got.cif
#   From: 2010.06.25/outbox.cif.g09.slc.cpg/sg11_37_cif.got.tgz:72076.got - 2010.06.27 23:14:04.
