data_PCOD8069722
_publ_section_title
;
Structure prediction by ZEFSAII (Michael W. Deem and Ramdas Pophale) SiO2 
 PCOD8069722
Probable space group: P 21/M
;
_chemical_formula_sum "Si O2"
_cell_formula_units_Z 32
_cell_length_a 13.109523
_cell_length_b 17.115193
_cell_length_c 16.660896
_cell_angle_alpha 90.000000
_cell_angle_beta 25.945391
_cell_angle_gamma 90.000000
_cell_volume 1635.532948
_symmetry_space_group_name_H-M "P 21/M"
_symmetry_group_IT_number 11
_symmetry_cell_setting 'monoclinic'
loop_
_space_group_symop_operation_xyz
x,y,z
-x,1/2+y,-z
-x,-y,-z
x,1/2-y,z
loop_
_atom_site_type_symbol
_atom_site_label
_atom_site_fract_x
_atom_site_fract_y
_atom_site_fract_z
Si Si1 0.445556 0.949259 0.750268
Si Si2 0.943883 0.338051 0.931428
Si Si3 0.825129 0.049228 0.570525
Si Si4 0.236996 0.917573 0.656800
Si Si5 0.840959 0.900699 0.061292
Si Si6 0.692383 0.588380 0.424691
Si Si7 0.556612 0.660756 0.115312
Si Si8 0.981294 0.659855 0.702493
O O1 0.560976 0.894207 0.600733
O O2 0.650965 0.986309 0.656215
O O3 0.281089 0.017191 0.829182
O O4 0.281488 0.893157 0.918825
O O5 0.854062 0.250000 0.997200
O O6 0.101877 0.355194 0.897820
O O7 0.103004 0.350505 0.739578
O O8 0.672618 0.107830 0.733197
O O9 0.971084 0.100641 0.403678
O O10 0.000000 0.000000 0.500000
O O11 0.508271 0.906146 0.482492
O O12 0.172711 0.852094 0.636871
O O13 0.194142 0.002442 0.648487
O O14 0.087649 0.912809 0.843372
O O15 0.670917 0.852926 0.122246
O O16 0.478165 0.750000 0.165706
O O17 0.731758 0.639656 0.918940
O O18 0.993642 0.750000 0.664726
#
# Coordination Sequence:
#
# PCOD8069722 Si02
#       8
#     4   4   4   4   4   4   4   4
#     4  11  22  41  62  81 120 159 202 252 300 356
#     4  12  25  37  53  84 125 168 210 242 281 353
#     4  11  24  41  66  92 110 156 213 261 306 365
#     4  10  18  33  59  89 123 159 195 234 294 369
#     4  10  18  35  60  88 120 160 197 241 298 359
#     4  11  21  34  56  84 122 166 200 230 288 361
#     4   9  20  37  60  93 128 151 184 250 317 360
#     4  10  21  38  62  96 128 151 190 257 317 356
#
# _framework density 19.565487000000001
#
# number of rings (size 3 to 8) (size 9 to 14) (size 15 to 20)
#    0.000    1.500    3.750    2.625    1.750    2.000 
#    0.000    1.250    0.000    1.500    0.000    0.000 
#    0.000    0.000    0.000    0.000    0.000    0.000 
#
# Total GULP energy -396769.231493 kJ/mol
# GULP energy per Si atom -12399.038484 kJ/mol
# Density = 1.952095 g / cm^3
# Si number density = 19.565487 Si / 1000 Ang^3
#
#
#
# Elastic Constant Matrix: (Units=GPa)
#
#
# Indices 1 2 3 4 5 6 
#
# 1 59.5880 52.1364 48.0169 0.0000 -0.7757 0.0000
# 2 52.1364 117.3105 68.0932 0.0000 -8.7404 0.0000
# 3 48.0169 68.0932 133.3135 0.0000 6.3792 0.0000
# 4 0.0000 0.0000 0.0000 29.6949 0.0000 0.8608
# 5 -0.7757 -8.7404 6.3792 0.0000 22.2666 0.0000
# 6 0.0000 0.0000 0.0000 0.8608 0.0000 23.9263
#
#
#
# Elastic Compliance Matrix: (Units=1/GPa)
#
#
# Indices 1 2 3 4 5 6 
#
# 1 0.030292 -0.010339 -0.005562 0.000000 -0.001410 0.000000
# 2 -0.010339 0.016691 -0.005169 0.000000 0.007673 0.000000
# 3 -0.005562 -0.005169 0.012421 0.000000 -0.005781 0.000000
# 4 0.000000 0.000000 0.000000 0.033711 0.000000 -0.001213
# 5 -0.001410 0.007673 -0.005781 0.000000 0.049529 0.000000
# 6 0.000000 0.000000 0.000000 -0.001213 0.000000 0.041839
#
#
# Mechanical properties :
#
#
# Convention : Reuss Voigt Hill
#
# Bulk Modulus (GPa) = 57.92258 71.85612 64.88935
# Shear Modulus (GPa) = 21.51671 24.64191 23.07931
#
# Velocity S-wave (km/s) = 3.31981 3.55273 3.43825
# Velocity P-wave (km/s) = 6.66060 7.32359 6.99995
#
# Compressibility (1/GPa) = 0.01726442
#
# Stress axis : x y z
#
# Youngs Moduli (GPa) = 33.01228 59.91166 80.50801
#
# Poissons Ratio (x) = 0.61943 0.44779
# Poissons Ratio (y) = 0.34132 0.41612
# Poissons Ratio (z) = 0.18362 0.30966
#
# Static dielectric constant tensor:
#      x y z
#    x 3.114130 0.000000 0.056650 
#    y 0.000000 3.542810 0.000000 
#    z 0.056650 0.000000 3.876210 
# 
# 
# High freq. dielectric constant tensor:
#      x y z
#    x 1.711290 0.000000 0.007020 
#    y 0.000000 1.753810 0.000000 
#    z 0.007020 0.000000 1.786770 
# 
# From -- ./inp_files/50652.got.cif
#   From: 2010.06.25/outbox.cif.g09.slc.cpg/sg11_26_cif.got.tgz:50652.got - 2010.06.27 23:14:04.
