data_PCOD8069508
_publ_section_title
;
Structure prediction by ZEFSAII (Michael W. Deem and Ramdas Pophale) SiO2 
 PCOD8069508
Probable space group: P 21/M
;
_chemical_formula_sum "Si O2"
_cell_formula_units_Z 20
_cell_length_a 14.224235
_cell_length_b 19.651161
_cell_length_c 12.181221
_cell_angle_alpha 90.000000
_cell_angle_beta 20.899658
_cell_angle_gamma 90.000000
_cell_volume 1214.648278
_symmetry_space_group_name_H-M "P 21/M"
_symmetry_group_IT_number 11
_symmetry_cell_setting 'monoclinic'
loop_
_space_group_symop_operation_xyz
x,y,z
-x,1/2+y,-z
-x,-y,-z
x,1/2-y,z
loop_
_atom_site_type_symbol
_atom_site_label
_atom_site_fract_x
_atom_site_fract_y
_atom_site_fract_z
Si Si1 0.404935 0.958513 0.785136
Si Si2 0.070518 0.829217 0.788438
Si Si3 0.287247 0.491389 0.138249
Si Si4 0.031472 0.428780 0.905631
Si Si5 0.618381 0.607388 0.144859
O O1 0.679993 0.922017 0.461395
O O2 0.421363 0.039521 0.735848
O O3 0.178531 0.922016 0.962876
O O4 0.337006 0.951951 0.988991
O O5 0.057471 0.750000 0.827654
O O6 0.355518 0.848339 0.430733
O O7 0.011064 0.866449 0.966787
O O8 0.858190 0.848322 0.928065
O O9 0.000000 0.500000 0.500000
O O10 0.500000 0.500000 0.000000
O O11 0.316344 0.416520 0.050960
O O12 0.000000 0.500000 0.000000
#
# Coordination Sequence:
#
# PCOD8069508 Si02
#       5
#     4   4   4   4   4
#     4  10  20  29  53  78 102 137 167 218 271 302
#     4  12  23  34  51  78 112 150 178 208 263 338
#     4  10  18  32  53  81 107 125 168 224 279 311
#     4  12  17  33  51  74 107 137 174 210 262 309
#     4  10  20  35  50  79 110 139 170 226 267 316
#
# _framework density 16.465672000000001
#
# number of rings (size 3 to 8) (size 9 to 14) (size 15 to 20)
#    1.200    0.000    4.000    4.800    0.000    0.000 
#    0.000    0.000    0.000    0.000    0.000   28.000 
#    0.000    0.000    0.000    0.000    0.000    0.000 
#
# Total GULP energy -247957.792636 kJ/mol
# GULP energy per Si atom -12397.889632 kJ/mol
# Density = 1.642819 g / cm^3
# Si number density = 16.465672 Si / 1000 Ang^3
#
#
#
# Elastic Constant Matrix: (Units=GPa)
#
#
# Indices 1 2 3 4 5 6 
#
# 1 95.1680 47.9053 144.8231 0.0000 2.1235 0.0000
# 2 47.9053 101.5743 47.8168 0.0000 0.8170 0.0000
# 3 144.8231 47.8168 108.6572 0.0000 -28.2738 0.0000
# 4 0.0000 0.0000 0.0000 13.0170 0.0000 5.9862
# 5 2.1235 0.8170 -28.2738 0.0000 35.2450 0.0000
# 6 0.0000 0.0000 0.0000 5.9862 0.0000 16.0340
#
#
#
# Elastic Compliance Matrix: (Units=1/GPa)
#
#
# Indices 1 2 3 4 5 6 
#
# 1 -0.005850 -0.002739 0.011513 0.000000 0.009652 0.000000
# 2 -0.002739 0.012190 -0.002205 0.000000 -0.001886 0.000000
# 3 0.011513 -0.002205 -0.006748 0.000000 -0.006056 0.000000
# 4 0.000000 0.000000 0.000000 0.092747 0.000000 -0.034627
# 5 0.009652 -0.001886 -0.006056 0.000000 0.022977 0.000000
# 6 0.000000 0.000000 0.000000 -0.034627 0.000000 0.075295
#
#
# Mechanical properties :
#
#
# Convention : Reuss Voigt Hill
#
# Bulk Modulus (GPa) = 78.54194 87.38778 82.96486
# Shear Modulus (GPa) = 27.51547 17.18283 22.34915
#
# Velocity S-wave (km/s) = 4.09232 3.23391 3.68818
# Velocity P-wave (km/s) = 8.37457 8.19342 8.28449
#
# Compressibility (1/GPa) = 0.01273205
#
# Stress axis : x y z
#
# Youngs Moduli (GPa) = -170.95404 82.03581 -148.19910
#
# Poissons Ratio (x) = 0.22468 1.70626
# Poissons Ratio (y) = -0.46821 -0.32675
# Poissons Ratio (z) = 1.96825 0.18087
#
# Static dielectric constant tensor:
#      x y z
#    x 3.033220 0.000000 0.056700 
#    y 0.000000 2.831480 0.000000 
#    z 0.056700 0.000000 3.004750 
# 
# 
# High freq. dielectric constant tensor:
#      x y z
#    x 1.641970 0.000000 -0.015190 
#    y 0.000000 1.590680 0.000000 
#    z -0.015190 0.000000 1.649570 
# 
# From -- ./inp_files/39878.got.cif
#   From: 2010.06.25/outbox.cif.g09.slc.cpg/sg11_20_cif.got.tgz:39878.got - 2010.06.27 23:14:04.
