data_PCOD8069341
_publ_section_title
;
Structure prediction by ZEFSAII (Michael W. Deem and Ramdas Pophale) SiO2 
 PCOD8069341
Probable space group: P 21/M
;
_chemical_formula_sum "Si O2"
_cell_formula_units_Z 32
_cell_length_a 10.886756
_cell_length_b 9.242966
_cell_length_c 19.777108
_cell_angle_alpha 90.000000
_cell_angle_beta 122.323196
_cell_angle_gamma 90.000000
_cell_volume 1681.716128
_symmetry_space_group_name_H-M "P 21/M"
_symmetry_group_IT_number 11
_symmetry_cell_setting 'monoclinic'
loop_
_space_group_symop_operation_xyz
x,y,z
-x,1/2+y,-z
-x,-y,-z
x,1/2-y,z
loop_
_atom_site_type_symbol
_atom_site_label
_atom_site_fract_x
_atom_site_fract_y
_atom_site_fract_z
Si Si1 0.081186 0.577111 0.585417
Si Si2 0.580644 0.407063 0.078147
Si Si3 0.386989 0.411127 0.148573
Si Si4 0.891068 0.419878 0.153842
Si Si5 0.088979 0.078265 0.328728
Si Si6 0.131314 0.921791 0.005641
Si Si7 0.577723 0.921604 0.583046
Si Si8 0.417437 0.921083 0.672542
O O1 0.071804 0.750000 0.573718
O O2 0.250810 0.524160 0.633843
O O3 0.000000 0.500000 0.500000
O O4 0.998308 0.525990 0.629811
O O5 0.599351 0.250000 0.048460
O O6 0.503148 0.390757 0.125187
O O7 0.739435 0.466696 0.143268
O O8 0.500000 0.500000 0.000000
O O9 0.319961 0.250000 0.145273
O O10 0.271197 0.525187 0.087721
O O11 0.472782 0.479051 0.237396
O O12 0.919145 0.250000 0.159514
O O13 0.014424 0.487735 0.238714
O O14 0.879373 0.479459 0.074272
O O15 0.081233 0.250000 0.325564
O O16 0.255082 0.025266 0.372076
O O17 0.122394 0.750000 0.008592
O O18 0.000000 0.000000 0.000000
O O19 0.568046 0.750000 0.571959
O O20 0.491680 0.973093 0.624692
O O21 0.500000 0.000000 0.500000
O O22 0.414568 0.750000 0.676545
#
# Coordination Sequence:
#
# PCOD8069341 Si02
#       8
#     4   4   4   4   4   4   4   4
#     4  10  19  34  56  81 108 139 177 222 271 326
#     4  10  18  31  52  78 106 136 174 221 268 314
#     4  10  20  35  57  81 108 143 184 228 271 322
#     4   9  18  33  54  78 105 140 181 222 261 312
#     4   9  18  32  54  80 103 136 182 220 254 311
#     4  11  23  37  55  78 109 147 186 228 272 322
#     4  10  20  35  56  79 105 136 174 218 267 324
#     4   9  19  34  55  81 108 142 182 222 267 323
#
# _framework density 19.028182999999999
#
# number of rings (size 3 to 8) (size 9 to 14) (size 15 to 20)
#    0.000    2.250    1.250    1.875    1.750    3.000 
#    0.000    1.250    0.000    4.500    0.000    0.000 
#    0.000    0.000    0.000    0.000    0.000    0.000 
#
# Total GULP energy -396464.222633 kJ/mol
# GULP energy per Si atom -12389.506957 kJ/mol
# Density = 1.898487 g / cm^3
# Si number density = 19.028183 Si / 1000 Ang^3
#
#
#
# Elastic Constant Matrix: (Units=GPa)
#
#
# Indices 1 2 3 4 5 6 
#
# 1 151.1895 29.0458 75.0806 0.0000 15.2208 0.0000
# 2 29.0458 39.5814 39.6788 0.0000 2.8622 0.0000
# 3 75.0806 39.6788 188.8325 0.0000 14.2921 0.0000
# 4 0.0000 0.0000 0.0000 30.5548 0.0000 2.2361
# 5 15.2208 2.8622 14.2921 0.0000 31.1323 0.0000
# 6 0.0000 0.0000 0.0000 2.2361 0.0000 17.2599
#
#
#
# Elastic Compliance Matrix: (Units=1/GPa)
#
#
# Indices 1 2 3 4 5 6 
#
# 1 0.008878 -0.003783 -0.002520 0.000000 -0.002836 0.000000
# 2 -0.003783 0.033619 -0.005663 0.000000 0.001359 0.000000
# 3 -0.002520 -0.005663 0.007620 0.000000 -0.001745 0.000000
# 4 0.000000 0.000000 0.000000 0.033041 0.000000 -0.004281
# 5 -0.002836 0.001359 -0.001745 0.000000 0.034184 0.000000
# 6 0.000000 0.000000 0.000000 -0.004281 0.000000 0.058492
#
#
# Mechanical properties :
#
#
# Convention : Reuss Voigt Hill
#
# Bulk Modulus (GPa) = 38.19117 74.13484 56.16300
# Shear Modulus (GPa) = 23.98127 31.50927 27.74527
#
# Velocity S-wave (km/s) = 3.55393 4.07372 3.82267
# Velocity P-wave (km/s) = 6.07906 7.82126 7.00453
#
# Compressibility (1/GPa) = 0.02618407
#
# Stress axis : x y z
#
# Youngs Moduli (GPa) = 112.63590 29.74482 131.23674
#
# Poissons Ratio (x) = 0.11254 0.33077
# Poissons Ratio (y) = 0.42614 0.74317
# Poissons Ratio (z) = 0.28389 0.16844
#
# Static dielectric constant tensor:
#      x y z
#    x 3.879740 0.000000 0.151530 
#    y 0.000000 3.123510 0.000000 
#    z 0.151530 0.000000 3.621640 
# 
# 
# High freq. dielectric constant tensor:
#      x y z
#    x 1.758090 0.000000 0.002740 
#    y 0.000000 1.691030 0.000000 
#    z 0.002740 0.000000 1.755860 
# 
# From -- ./inp_files/59084.got.cif
#   From: 2010.06.25/outbox.cif.g09.slc.cpg/sg11_30_cif.got.tgz:59084.got - 2010.06.27 23:14:04.
