data_PCOD8069031
_publ_section_title
;
Structure prediction by ZEFSAII (Michael W. Deem and Ramdas Pophale) SiO2 
 PCOD8069031
Probable space group: P 21/M
;
_chemical_formula_sum "Si O2"
_cell_formula_units_Z 32
_cell_length_a 14.391394
_cell_length_b 8.930465
_cell_length_c 26.184356
_cell_angle_alpha 90.000000
_cell_angle_beta 144.986747
_cell_angle_gamma 90.000000
_cell_volume 1930.872357
_symmetry_space_group_name_H-M "P 21/M"
_symmetry_group_IT_number 11
_symmetry_cell_setting 'monoclinic'
loop_
_space_group_symop_operation_xyz
x,y,z
-x,1/2+y,-z
-x,-y,-z
x,1/2-y,z
loop_
_atom_site_type_symbol
_atom_site_label
_atom_site_fract_x
_atom_site_fract_y
_atom_site_fract_z
Si Si1 0.443901 0.073927 0.897851
Si Si2 0.823593 0.427123 0.420699
Si Si3 0.087531 0.421754 0.272717
Si Si4 0.738974 0.076337 0.095160
Si Si5 0.578795 0.426142 0.585423
Si Si6 0.650851 0.081920 0.444930
Si Si7 0.730420 0.923505 0.279354
Si Si8 0.966154 0.084002 0.651842
O O1 0.421454 0.250000 0.889917
O O2 0.406135 0.021844 0.822846
O O3 0.308573 0.009998 0.874870
O O4 0.624540 0.023481 0.996420
O O5 0.847822 0.250000 0.433198
O O6 0.721656 0.482113 0.423869
O O7 0.717973 0.476332 0.324295
O O8 0.000000 0.500000 0.500000
O O9 0.145187 0.250000 0.295171
O O10 0.233770 0.529241 0.323073
O O11 0.026694 0.456193 0.302425
O O12 0.927778 0.451627 0.165654
O O13 0.708243 0.250000 0.092794
O O14 0.500000 0.500000 0.500000
O O15 0.565174 0.250000 0.572274
O O16 0.491292 0.475840 0.598204
O O17 0.582351 0.250000 0.406252
O O18 0.787864 0.083019 0.549155
O O19 0.707161 0.750000 0.283782
O O20 0.907279 0.952712 0.335528
O O21 0.003179 0.250000 0.691410
#
# Coordination Sequence:
#
# PCOD8069031 Si02
#       8
#     4   4   4   4   4   4   4   4
#     4   9  17  30  48  70 101 136 166 203 248 292
#     4  11  22  35  52  73 100 132 167 206 246 291
#     4  11  21  32  48  72 101 133 169 206 245 291
#     4   9  18  30  46  72 101 131 169 206 244 293
#     4  12  24  36  52  73  97 129 167 205 247 295
#     4  10  21  37  51  68  98 132 166 206 246 286
#     4  10  19  32  49  72 101 136 171 202 244 291
#     4  10  18  30  48  69  99 135 169 202 239 286
#
# _framework density 16.57282
#
# number of rings (size 3 to 8) (size 9 to 14) (size 15 to 20)
#    0.000    1.750    3.750    1.875    0.000    2.500 
#    0.000    0.000    0.000    0.000    0.000    0.875 
#    0.000    0.000    0.000    0.000    0.000    0.000 
#
# Total GULP energy -396715.542592 kJ/mol
# GULP energy per Si atom -12397.360706 kJ/mol
# Density = 1.653510 g / cm^3
# Si number density = 16.572820 Si / 1000 Ang^3
#
#
#
# Elastic Constant Matrix: (Units=GPa)
#
#
# Indices 1 2 3 4 5 6 
#
# 1 90.0139 40.2354 45.9603 0.0000 1.3696 0.0000
# 2 40.2354 68.0631 33.7059 0.0000 2.9620 0.0000
# 3 45.9603 33.7059 101.1605 0.0000 0.8564 0.0000
# 4 0.0000 0.0000 0.0000 20.6402 0.0000 -0.0429
# 5 1.3696 2.9620 0.8564 0.0000 24.0472 0.0000
# 6 0.0000 0.0000 0.0000 -0.0429 0.0000 27.2018
#
#
#
# Elastic Compliance Matrix: (Units=1/GPa)
#
#
# Indices 1 2 3 4 5 6 
#
# 1 0.017181 -0.007541 -0.005295 0.000000 0.000139 0.000000
# 2 -0.007541 0.020998 -0.003553 0.000000 -0.002030 0.000000
# 3 -0.005295 -0.003553 0.013472 0.000000 0.000259 0.000000
# 4 0.000000 0.000000 0.000000 0.048449 0.000000 0.000076
# 5 0.000139 -0.002030 0.000259 0.000000 0.041818 0.000000
# 6 0.000000 0.000000 0.000000 0.000076 0.000000 0.036762
#
#
# Mechanical properties :
#
#
# Convention : Reuss Voigt Hill
#
# Bulk Modulus (GPa) = 52.98131 55.44897 54.21514
# Shear Modulus (GPa) = 22.96213 23.66691 23.31452
#
# Velocity S-wave (km/s) = 3.72631 3.78306 3.75479
# Velocity P-wave (km/s) = 7.11000 7.25345 7.18208
#
# Compressibility (1/GPa) = 0.01887458
#
# Stress axis : x y z
#
# Youngs Moduli (GPa) = 58.20270 47.62382 74.22536
#
# Poissons Ratio (x) = 0.35912 0.39300
# Poissons Ratio (y) = 0.43889 0.26373
# Poissons Ratio (z) = 0.30816 0.16921
#
# Static dielectric constant tensor:
#      x y z
#    x 2.995380 0.000000 -0.035210 
#    y 0.000000 3.159130 0.000000 
#    z -0.035210 0.000000 3.378650 
# 
# 
# High freq. dielectric constant tensor:
#      x y z
#    x 1.608150 0.000000 0.001610 
#    y 0.000000 1.640560 0.000000 
#    z 0.001610 0.000000 1.636440 
# 
# From -- ./inp_files/73307.got.cif
#   From: 2010.06.25/outbox.cif.g09.slc.cpg/sg11_37_cif.got.tgz:73307.got - 2010.06.27 23:14:04.
