data_PCOD8069420
_publ_section_title
;
Structure prediction by ZEFSAII (Michael W. Deem and Ramdas Pophale) SiO2 
 PCOD8069420
Probable space group: P 21/M
;
_chemical_formula_sum "Si O2"
_cell_formula_units_Z 32
_cell_length_a 14.237200
_cell_length_b 8.665426
_cell_length_c 24.309201
_cell_angle_alpha 90.000000
_cell_angle_beta 149.001321
_cell_angle_gamma 90.000000
_cell_volume 1544.570940
_symmetry_space_group_name_H-M "P 21/M"
_symmetry_group_IT_number 11
_symmetry_cell_setting 'monoclinic'
loop_
_space_group_symop_operation_xyz
x,y,z
-x,1/2+y,-z
-x,-y,-z
x,1/2-y,z
loop_
_atom_site_type_symbol
_atom_site_label
_atom_site_fract_x
_atom_site_fract_y
_atom_site_fract_z
Si Si1 0.166267 0.073363 0.455409
Si Si2 0.156140 0.930935 0.948197
Si Si3 0.177093 0.072853 0.339746
Si Si4 0.522728 0.071330 0.325753
Si Si5 0.760918 0.430808 0.735815
Si Si6 0.456697 0.430662 0.167371
Si Si7 0.790567 0.929423 0.135510
Si Si8 0.753119 0.068512 0.228442
O O1 0.175706 0.250000 0.480451
O O2 0.263670 0.057761 0.444013
O O3 0.957577 0.015937 0.347292
O O4 0.272701 0.965950 0.551544
O O5 0.123050 0.750000 0.930670
O O6 0.269866 0.985335 0.951159
O O7 0.960969 0.013325 0.853999
O O8 0.272761 0.978273 0.060020
O O9 0.115624 0.250000 0.298839
O O10 0.306137 0.015585 0.354586
O O11 0.003969 0.961023 0.250251
O O12 0.478319 0.250000 0.313099
O O13 0.511491 0.025854 0.256496
O O14 0.379149 0.968453 0.286368
O O15 0.762741 0.250000 0.726170
O O16 0.419662 0.250000 0.141676
O O17 0.621022 0.486138 0.210680
O O18 0.749088 0.750000 0.107710
O O19 0.686975 0.992630 0.137662
O O20 0.749932 0.250000 0.217344
#
# Coordination Sequence:
#
# PCOD8069420 Si02
#       8
#     4   4   4   4   4   4   4   4
#     4   9  19  36  59  86 116 150 185 228 284 338
#     4  11  22  38  61  87 116 149 185 231 286 340
#     4   9  17  33  57  85 117 149 184 228 279 337
#     4  11  24  40  58  82 113 150 194 240 283 333
#     4  11  22  38  61  86 115 150 187 232 284 339
#     4  10  23  42  60  81 111 150 197 241 280 329
#     4  10  18  31  55  87 119 148 183 227 278 340
#     4   9  19  38  61  84 115 152 189 233 282 332
#
# _framework density 20.717728000000001
#
# number of rings (size 3 to 8) (size 9 to 14) (size 15 to 20)
#    0.000    2.000    0.000    6.375    0.000    6.000 
#    0.000    0.000    0.000    0.000    0.000    0.000 
#    0.000    0.000    0.000    0.000    0.000    0.000 
#
# Total GULP energy -396784.545427 kJ/mol
# GULP energy per Si atom -12399.517045 kJ/mol
# Density = 2.067057 g / cm^3
# Si number density = 20.717728 Si / 1000 Ang^3
#
#
#
# Elastic Constant Matrix: (Units=GPa)
#
#
# Indices 1 2 3 4 5 6 
#
# 1 76.9711 13.2857 6.9563 0.0000 -9.0176 0.0000
# 2 13.2857 73.1635 18.4228 0.0000 -8.1787 0.0000
# 3 6.9563 18.4228 72.4443 0.0000 -19.3549 0.0000
# 4 0.0000 0.0000 0.0000 29.9015 0.0000 -1.5175
# 5 -9.0176 -8.1787 -19.3549 0.0000 31.0531 0.0000
# 6 0.0000 0.0000 0.0000 -1.5175 0.0000 25.8518
#
#
#
# Elastic Compliance Matrix: (Units=1/GPa)
#
#
# Indices 1 2 3 4 5 6 
#
# 1 0.013761 -0.002146 0.000169 0.000000 0.003536 0.000000
# 2 -0.002146 0.015026 -0.003269 0.000000 0.001297 0.000000
# 3 0.000169 -0.003269 0.017279 0.000000 0.009958 0.000000
# 4 0.000000 0.000000 0.000000 0.033543 0.000000 0.001969
# 5 0.003536 0.001297 0.009958 0.000000 0.039778 0.000000
# 6 0.000000 0.000000 0.000000 0.001969 0.000000 0.038798
#
#
# Mechanical properties :
#
#
# Convention : Reuss Voigt Hill
#
# Bulk Modulus (GPa) = 28.10942 33.32317 30.71630
# Shear Modulus (GPa) = 27.69553 29.62222 28.65888
#
# Velocity S-wave (km/s) = 3.66020 3.78537 3.72331
# Velocity P-wave (km/s) = 5.60892 5.93504 5.77428
#
# Compressibility (1/GPa) = 0.03557526
#
# Stress axis : x y z
#
# Youngs Moduli (GPa) = 72.66729 66.55241 57.87316
#
# Poissons Ratio (x) = 0.14283 -0.00979
# Poissons Ratio (y) = 0.15596 0.18916
# Poissons Ratio (z) = -0.01229 0.21753
#
# Static dielectric constant tensor:
#      x y z
#    x 3.916780 0.000000 -0.191250 
#    y 0.000000 3.634650 0.000000 
#    z -0.191250 0.000000 3.654660 
# 
# 
# High freq. dielectric constant tensor:
#      x y z
#    x 1.808080 0.000000 -0.008890 
#    y 0.000000 1.808850 0.000000 
#    z -0.008890 0.000000 1.803040 
# 
# From -- ./inp_files/69128.got.cif
#   From: 2010.06.25/outbox.cif.g09.slc.cpg/sg11_35_cif.got.tgz:69128.got - 2010.06.27 23:14:04.
