data_PCOD8069541
_publ_section_title
;
Structure prediction by ZEFSAII (Michael W. Deem and Ramdas Pophale) SiO2 
 PCOD8069541
Probable space group: P 21/M
;
_chemical_formula_sum "Si O2"
_cell_formula_units_Z 28
_cell_length_a 9.599147
_cell_length_b 14.969352
_cell_length_c 20.729487
_cell_angle_alpha 90.000000
_cell_angle_beta 149.978436
_cell_angle_gamma 90.000000
_cell_volume 1490.311960
_symmetry_space_group_name_H-M "P 21/M"
_symmetry_group_IT_number 11
_symmetry_cell_setting 'monoclinic'
loop_
_space_group_symop_operation_xyz
x,y,z
-x,1/2+y,-z
-x,-y,-z
x,1/2-y,z
loop_
_atom_site_type_symbol
_atom_site_label
_atom_site_fract_x
_atom_site_fract_y
_atom_site_fract_z
Si Si1 0.535586 0.998634 0.642812
Si Si2 0.853302 0.150785 0.048479
Si Si3 0.640992 0.526779 0.194207
Si Si4 0.261773 0.037248 0.143756
Si Si5 0.595605 0.848359 0.498674
Si Si6 0.165863 0.644626 0.437362
Si Si7 0.020050 0.584024 0.765511
O O1 0.368383 0.081471 0.544946
O O2 0.627079 0.024001 0.752166
O O3 0.348989 0.907733 0.564804
O O4 0.810648 0.989238 0.709977
O O5 0.771396 0.250000 0.995411
O O6 0.867862 0.145471 0.131833
O O7 0.152971 0.127889 0.135124
O O8 0.618799 0.085730 0.929638
O O9 0.527736 0.455983 0.202750
O O10 0.732353 0.469655 0.169397
O O11 0.872515 0.593861 0.314952
O O12 0.000000 0.000000 0.000000
O O13 0.581860 0.750000 0.462290
O O14 0.319818 0.866004 0.430551
O O15 0.867352 0.853603 0.652464
O O16 0.131914 0.750000 0.442230
#
# Coordination Sequence:
#
# PCOD8069541 Si02
#       7
#     4   4   4   4   4   4   4
#     4  10  18  36  56  78 113 151 186 223 279 341
#     4  10  21  37  57  81 109 149 193 230 277 342
#     4  11  19  36  57  83 112 144 187 238 284 321
#     4   9  22  38  58  76 107 151 189 225 284 337
#     4  10  18  32  54  82 114 148 182 228 280 334
#     4  10  19  32  57  87 113 145 189 233 281 336
#     4  10  18  34  58  83 110 144 187 229 277 328
#
# _framework density 18.788011999999998
#
# number of rings (size 3 to 8) (size 9 to 14) (size 15 to 20)
#    0.000    2.000    2.857    2.143    0.000    4.000 
#    0.000    5.000    0.000    0.000    0.000    0.000 
#    0.000    0.000    0.000    0.000    0.000    0.000 
#
# Total GULP energy -346958.944620 kJ/mol
# GULP energy per Si atom -12391.390879 kJ/mol
# Density = 1.874525 g / cm^3
# Si number density = 18.788012 Si / 1000 Ang^3
#
#
#
# Elastic Constant Matrix: (Units=GPa)
#
#
# Indices 1 2 3 4 5 6 
#
# 1 97.3595 47.2996 43.3029 0.0000 3.4879 0.0000
# 2 47.2996 83.7212 30.6969 0.0000 3.6057 0.0000
# 3 43.3029 30.6969 90.9510 0.0000 -6.5199 0.0000
# 4 0.0000 0.0000 0.0000 23.0745 0.0000 3.4146
# 5 3.4879 3.6057 -6.5199 0.0000 38.6828 0.0000
# 6 0.0000 0.0000 0.0000 3.4146 0.0000 14.1622
#
#
#
# Elastic Compliance Matrix: (Units=1/GPa)
#
#
# Indices 1 2 3 4 5 6 
#
# 1 0.016193 -0.007078 -0.005444 0.000000 -0.001718 0.000000
# 2 -0.007078 0.016891 -0.002427 0.000000 -0.001345 0.000000
# 3 -0.005444 -0.002427 0.014634 0.000000 0.003184 0.000000
# 4 0.000000 0.000000 0.000000 0.044941 0.000000 -0.010836
# 5 -0.001718 -0.001345 0.003184 0.000000 0.026668 0.000000
# 6 0.000000 0.000000 0.000000 -0.010836 0.000000 0.073223
#
#
# Mechanical properties :
#
#
# Convention : Reuss Voigt Hill
#
# Bulk Modulus (GPa) = 56.11829 57.18119 56.64974
# Shear Modulus (GPa) = 21.89236 25.23272 23.56254
#
# Velocity S-wave (km/s) = 3.41725 3.66870 3.54521
# Velocity P-wave (km/s) = 6.74568 6.96038 6.85387
#
# Compressibility (1/GPa) = 0.01781950
#
# Stress axis : x y z
#
# Youngs Moduli (GPa) = 61.75566 59.20164 68.33300
#
# Poissons Ratio (x) = 0.41906 0.37198
# Poissons Ratio (y) = 0.43713 0.16587
# Poissons Ratio (z) = 0.33618 0.14370
#
# Static dielectric constant tensor:
#      x y z
#    x 3.602180 0.000000 0.026740 
#    y 0.000000 3.351340 0.000000 
#    z 0.026740 0.000000 3.532910 
# 
# 
# High freq. dielectric constant tensor:
#      x y z
#    x 1.715230 0.000000 -0.002280 
#    y 0.000000 1.711220 0.000000 
#    z -0.002280 0.000000 1.738520 
# 
# From -- ./inp_files/22104.got.cif
#   From: 2010.06.25/outbox.cif.g09.slc.cpg/sg11_12_cif.got.tgz:22104.got - 2010.06.27 23:14:04.
