data_PCOD8069765
_publ_section_title
;
Structure prediction by ZEFSAII (Michael W. Deem and Ramdas Pophale) SiO2 
 PCOD8069765
Probable space group: P 21/M
;
_chemical_formula_sum "Si O2"
_cell_formula_units_Z 28
_cell_length_a 17.167669
_cell_length_b 8.939318
_cell_length_c 22.232460
_cell_angle_alpha 90.000000
_cell_angle_beta 26.553725
_cell_angle_gamma 90.000000
_cell_volume 1525.269167
_symmetry_space_group_name_H-M "P 21/M"
_symmetry_group_IT_number 11
_symmetry_cell_setting 'monoclinic'
loop_
_space_group_symop_operation_xyz
x,y,z
-x,1/2+y,-z
-x,-y,-z
x,1/2-y,z
loop_
_atom_site_type_symbol
_atom_site_label
_atom_site_fract_x
_atom_site_fract_y
_atom_site_fract_z
Si Si1 0.975571 0.426890 0.184158
Si Si2 0.511599 0.423671 0.656533
Si Si3 0.627296 0.073036 0.364191
Si Si4 0.508453 0.574274 0.901210
Si Si5 0.641401 0.926043 0.109097
Si Si6 0.090412 0.925465 0.636269
Si Si7 0.767338 0.425581 0.807514
O O1 0.978106 0.250000 0.185400
O O2 0.823886 0.479975 0.243722
O O3 0.936448 0.488882 0.277846
O O4 0.160859 0.487177 0.032638
O O5 0.484759 0.250000 0.659068
O O6 0.414838 0.520986 0.673567
O O7 0.427012 0.467513 0.778049
O O8 0.714947 0.463337 0.518939
O O9 0.607276 0.250000 0.383241
O O10 0.500000 0.000000 0.500000
O O11 0.536933 0.750000 0.877841
O O12 0.479701 0.509207 0.855014
O O13 0.682619 0.501162 0.807642
O O14 0.343477 0.531512 0.056694
O O15 0.630877 0.750000 0.103561
O O16 0.049803 0.750000 0.660605
O O17 0.961443 0.011393 0.680597
O O18 0.773405 0.250000 0.792467
#
# Coordination Sequence:
#
# PCOD8069765 Si02
#       7
#     4   4   4   4   4   4   4
#     4   9  18  33  56  80 106 142 182 224 271 320
#     4  10  22  38  56  81 112 146 181 222 276 329
#     4  11  21  36  57  82 111 144 185 229 274 321
#     4  10  20  34  54  82 114 143 177 224 275 320
#     4  10  20  37  58  79 109 147 183 221 271 328
#     4  10  18  34  56  79 109 142 180 224 272 321
#     4  10  20  33  54  85 112 139 183 227 267 319
#
# _framework density 18.357417000000002
#
# number of rings (size 3 to 8) (size 9 to 14) (size 15 to 20)
#    0.000    2.000    2.857    1.286    0.000    2.857 
#    0.000    2.143    0.000    0.000    0.000    0.000 
#    0.000    0.000    0.000    0.000    0.000    0.000 
#
# Total GULP energy -347296.959797 kJ/mol
# GULP energy per Si atom -12403.462850 kJ/mol
# Density = 1.831563 g / cm^3
# Si number density = 18.357417 Si / 1000 Ang^3
#
#
#
# Elastic Constant Matrix: (Units=GPa)
#
#
# Indices 1 2 3 4 5 6 
#
# 1 152.9391 61.0133 76.7387 0.0000 -16.3918 0.0000
# 2 61.0133 64.8020 39.1335 0.0000 -5.9511 0.0000
# 3 76.7387 39.1335 128.4709 0.0000 -3.7974 0.0000
# 4 0.0000 0.0000 0.0000 17.3265 0.0000 -4.3879
# 5 -16.3918 -5.9511 -3.7974 0.0000 32.6352 0.0000
# 6 0.0000 0.0000 0.0000 -4.3879 0.0000 35.9805
#
#
#
# Elastic Compliance Matrix: (Units=1/GPa)
#
#
# Indices 1 2 3 4 5 6 
#
# 1 0.013031 -0.008881 -0.004950 0.000000 0.004350 0.000000
# 2 -0.008881 0.025218 -0.002381 0.000000 -0.000139 0.000000
# 3 -0.004950 -0.002381 0.011419 0.000000 -0.001592 0.000000
# 4 0.000000 0.000000 0.000000 0.059554 0.000000 0.007263
# 5 0.004350 -0.000139 -0.001592 0.000000 0.032616 0.000000
# 6 0.000000 0.000000 0.000000 0.007263 0.000000 0.028678
#
#
# Mechanical properties :
#
#
# Convention : Reuss Voigt Hill
#
# Bulk Modulus (GPa) = 57.98947 77.77590 67.88268
# Shear Modulus (GPa) = 23.95896 28.47687 26.21792
#
# Velocity S-wave (km/s) = 3.61659 3.94286 3.78324
# Velocity P-wave (km/s) = 7.00695 7.94907 7.49283
#
# Compressibility (1/GPa) = 0.01724451
#
# Stress axis : x y z
#
# Youngs Moduli (GPa) = 76.73743 39.65372 87.57272
#
# Poissons Ratio (x) = 0.35215 0.43351
# Poissons Ratio (y) = 0.68148 0.20853
# Poissons Ratio (z) = 0.37987 0.09443
#
# Static dielectric constant tensor:
#      x y z
#    x 3.440000 0.000000 -0.129970 
#    y 0.000000 3.213030 0.000000 
#    z -0.129970 0.000000 3.441200 
# 
# 
# High freq. dielectric constant tensor:
#      x y z
#    x 1.718250 0.000000 -0.014220 
#    y 0.000000 1.699980 0.000000 
#    z -0.014220 0.000000 1.705130 
# 
# From -- ./inp_files/54536.got.cif
#   From: 2010.06.25/outbox.cif.g09.slc.cpg/sg11_28_cif.got.tgz:54536.got - 2010.06.27 23:14:04.
