data_PCOD8069988
_publ_section_title
;
Structure prediction by ZEFSAII (Michael W. Deem and Ramdas Pophale) SiO2 
 PCOD8069988
Probable space group: P 21/M
;
_chemical_formula_sum "Si O2"
_cell_formula_units_Z 32
_cell_length_a 11.128964
_cell_length_b 9.788551
_cell_length_c 17.158759
_cell_angle_alpha 90.000000
_cell_angle_beta 87.756490
_cell_angle_gamma 90.000000
_cell_volume 1867.781182
_symmetry_space_group_name_H-M "P 21/M"
_symmetry_group_IT_number 11
_symmetry_cell_setting 'monoclinic'
loop_
_space_group_symop_operation_xyz
x,y,z
-x,1/2+y,-z
-x,-y,-z
x,1/2-y,z
loop_
_atom_site_type_symbol
_atom_site_label
_atom_site_fract_x
_atom_site_fract_y
_atom_site_fract_z
Si Si1 0.683495 0.398637 0.698270
Si Si2 0.144580 0.090971 0.224004
Si Si3 0.647357 0.401704 0.307134
Si Si4 0.741478 0.903247 0.091290
Si Si5 0.692478 0.590522 0.922318
Si Si6 0.509004 0.911463 0.422463
Si Si7 0.506523 0.979924 0.177335
Si Si8 0.125998 0.593080 0.797128
O O1 0.745511 0.250000 0.692444
O O2 0.786046 0.510955 0.709407
O O3 0.617356 0.430919 0.618671
O O4 0.584987 0.389617 0.769796
O O5 0.164706 0.250000 0.240663
O O6 0.200903 0.048998 0.139369
O O7 0.005614 0.049256 0.228720
O O8 0.633283 0.250000 0.344877
O O9 0.615613 0.521464 0.368521
O O10 0.561429 0.404171 0.233030
O O11 0.784769 0.427062 0.277907
O O12 0.794931 0.750000 0.084541
O O13 0.615960 0.891564 0.141043
O O14 0.837683 0.998736 0.131509
O O15 0.720414 0.971557 0.006750
O O16 0.684707 0.750000 0.934194
O O17 0.563411 0.543837 0.893863
O O18 0.536603 0.750000 0.436565
O O19 0.500000 0.000000 0.500000
O O20 0.125890 0.750000 0.826132
#
# Coordination Sequence:
#
# PCOD8069988 Si02
#       8
#     4   4   4   4   4   4   4   4
#     4   9  18  31  48  72  97 121 152 191 231 272
#     4   9  18  33  50  66  89 124 164 202 238 280
#     4   9  17  30  50  72  94 123 159 194 231 277
#     4  10  19  29  43  65  92 123 159 203 250 291
#     4   9  17  28  43  65  92 122 159 202 247 292
#     4  10  20  33  52  79 109 131 148 177 221 273
#     4   9  16  28  45  65  93 124 156 195 242 292
#     4   9  19  34  49  66  90 124 164 202 239 280
#
# _framework density 17.132629000000001
#
# number of rings (size 3 to 8) (size 9 to 14) (size 15 to 20)
#    0.000    2.750    0.000    1.500    0.000    8.000 
#    0.000    3.125    0.000    0.750    0.000    0.000 
#    0.000    0.000    0.000    0.000    0.000    0.000 
#
# Total GULP energy -396656.685344 kJ/mol
# GULP energy per Si atom -12395.521417 kJ/mol
# Density = 1.709363 g / cm^3
# Si number density = 17.132629 Si / 1000 Ang^3
#
#
#
# Elastic Constant Matrix: (Units=GPa)
#
#
# Indices 1 2 3 4 5 6 
#
# 1 107.1812 53.5239 39.4313 0.0000 12.8583 0.0000
# 2 53.5239 89.5197 53.6544 0.0000 4.8384 0.0000
# 3 39.4313 53.6544 93.1817 0.0000 12.2647 0.0000
# 4 0.0000 0.0000 0.0000 24.6034 0.0000 3.6527
# 5 12.8583 4.8384 12.2647 0.0000 12.8265 0.0000
# 6 0.0000 0.0000 0.0000 3.6527 0.0000 22.8463
#
#
#
# Elastic Compliance Matrix: (Units=1/GPa)
#
#
# Indices 1 2 3 4 5 6 
#
# 1 0.014864 -0.008262 0.000021 0.000000 -0.011805 0.000000
# 2 -0.008262 0.021779 -0.010356 0.000000 0.009970 0.000000
# 3 0.000021 -0.010356 0.018503 0.000000 -0.013807 0.000000
# 4 0.000000 0.000000 0.000000 0.041633 0.000000 -0.006656
# 5 -0.011805 0.009970 -0.013807 0.000000 0.099239 0.000000
# 6 0.000000 0.000000 0.000000 -0.006656 0.000000 0.044835
#
#
# Mechanical properties :
#
#
# Convention : Reuss Voigt Hill
#
# Bulk Modulus (GPa) = 55.70479 64.78907 60.24693
# Shear Modulus (GPa) = 17.60363 21.60678 19.60521
#
# Velocity S-wave (km/s) = 3.20893 3.55512 3.38645
# Velocity P-wave (km/s) = 6.80544 7.39933 7.10859
#
# Compressibility (1/GPa) = 0.01795178
#
# Stress axis : x y z
#
# Youngs Moduli (GPa) = 67.27546 45.91603 54.04387
#
# Poissons Ratio (x) = 0.37935 -0.00113
# Poissons Ratio (y) = 0.55582 0.55970
# Poissons Ratio (z) = -0.00141 0.47553
#
# Static dielectric constant tensor:
#      x y z
#    x 3.139210 0.000000 0.041850 
#    y 0.000000 3.158040 0.000000 
#    z 0.041850 0.000000 3.151050 
# 
# 
# High freq. dielectric constant tensor:
#      x y z
#    x 1.648710 0.000000 0.003490 
#    y 0.000000 1.661150 0.000000 
#    z 0.003490 0.000000 1.644920 
# 
# From -- ./inp_files/40696.got.cif
#   From: 2010.06.25/outbox.cif.g09.slc.cpg/sg11_21_cif.got.tgz:40696.got - 2010.06.27 23:14:04.
