data_PCOD8069397
_publ_section_title
;
Structure prediction by ZEFSAII (Michael W. Deem and Ramdas Pophale) SiO2 
 PCOD8069397
Probable space group: P 21/M
;
_chemical_formula_sum "Si O2"
_cell_formula_units_Z 32
_cell_length_a 11.477043
_cell_length_b 21.601905
_cell_length_c 12.665200
_cell_angle_alpha 90.000000
_cell_angle_beta 143.479109
_cell_angle_gamma 90.000000
_cell_volume 1868.682970
_symmetry_space_group_name_H-M "P 21/M"
_symmetry_group_IT_number 11
_symmetry_cell_setting 'monoclinic'
loop_
_space_group_symop_operation_xyz
x,y,z
-x,1/2+y,-z
-x,-y,-z
x,1/2-y,z
loop_
_atom_site_type_symbol
_atom_site_label
_atom_site_fract_x
_atom_site_fract_y
_atom_site_fract_z
Si Si1 0.381880 0.014320 0.104312
Si Si2 0.068960 0.979714 0.719802
Si Si3 0.252705 0.369575 0.138769
Si Si4 0.198773 0.933589 0.601945
Si Si5 0.648845 0.064110 0.717661
Si Si6 0.146706 0.819790 0.213836
Si Si7 0.325338 0.820016 0.567116
Si Si8 0.776227 0.949629 0.683131
O O1 0.290696 0.077004 0.082313
O O2 0.613969 0.021090 0.258654
O O3 0.338401 0.958359 0.152937
O O4 0.279517 0.000158 0.918418
O O5 0.102095 0.931977 0.647486
O O6 0.948321 0.945513 0.723425
O O7 0.953258 0.039911 0.594297
O O8 0.449083 0.330445 0.300004
O O9 0.180986 0.398852 0.196650
O O10 0.085699 0.324984 0.972132
O O11 0.257539 0.864235 0.612827
O O12 0.739744 0.132411 0.778704
O O13 0.425815 0.066166 0.519966
O O14 0.770505 0.018390 0.729307
O O15 0.213726 0.750000 0.234222
O O16 0.194719 0.835010 0.370098
O O17 0.295110 0.750000 0.584309
#
# Coordination Sequence:
#
# PCOD8069397 Si02
#       8
#     4   4   4   4   4   4   4   4
#     4  10  19  32  54  77 103 133 163 215 262 303
#     4  11  20  32  51  77 105 134 167 211 259 298
#     4  10  19  32  53  80 103 129 166 205 259 312
#     4  10  21  34  50  76 103 133 175 211 250 301
#     4  10  18  32  52  77 106 133 165 203 265 312
#     4  11  21  32  50  77 106 135 168 206 251 312
#     4  10  20  35  53  72 102 134 167 210 249 295
#     4  10  18  31  54  78 106 132 161 211 261 310
#
# _framework density 17.124359999999999
#
# number of rings (size 3 to 8) (size 9 to 14) (size 15 to 20)
#    0.000    1.750    2.500    3.750    0.000    2.000 
#    0.000    0.000    0.000    4.500    0.000    0.000 
#    0.000    0.000    0.000    0.000    0.000    0.000 
#
# Total GULP energy -396887.360835 kJ/mol
# GULP energy per Si atom -12402.730026 kJ/mol
# Density = 1.708538 g / cm^3
# Si number density = 17.124360 Si / 1000 Ang^3
#
#
#
# Elastic Constant Matrix: (Units=GPa)
#
#
# Indices 1 2 3 4 5 6 
#
# 1 88.5243 40.2146 30.1505 0.0000 -2.4061 0.0000
# 2 40.2146 90.9408 37.5676 0.0000 1.7498 0.0000
# 3 30.1505 37.5676 119.7097 0.0000 1.3224 0.0000
# 4 0.0000 0.0000 0.0000 21.3278 0.0000 2.3485
# 5 -2.4061 1.7498 1.3224 0.0000 19.7009 0.0000
# 6 0.0000 0.0000 0.0000 2.3485 0.0000 14.2139
#
#
#
# Elastic Compliance Matrix: (Units=1/GPa)
#
#
# Indices 1 2 3 4 5 6 
#
# 1 0.014611 -0.005718 -0.001912 0.000000 0.002421 0.000000
# 2 -0.005718 0.014886 -0.003212 0.000000 -0.001805 0.000000
# 3 -0.001912 -0.003212 0.009850 0.000000 -0.000609 0.000000
# 4 0.000000 0.000000 0.000000 0.047756 0.000000 -0.007891
# 5 0.002421 -0.001805 -0.000609 0.000000 0.051256 0.000000
# 6 0.000000 0.000000 0.000000 -0.007891 0.000000 0.071657
#
#
# Mechanical properties :
#
#
# Convention : Reuss Voigt Hill
#
# Bulk Modulus (GPa) = 56.61377 57.22668 56.92023
# Shear Modulus (GPa) = 21.04494 23.79799 22.42147
#
# Velocity S-wave (km/s) = 3.50944 3.73193 3.62239
# Velocity P-wave (km/s) = 7.03944 7.21530 7.12791
#
# Compressibility (1/GPa) = 0.01766355
#
# Stress axis : x y z
#
# Youngs Moduli (GPa) = 68.44238 67.17747 101.52505
#
# Poissons Ratio (x) = 0.38409 0.19415
# Poissons Ratio (y) = 0.39133 0.32605
# Poissons Ratio (z) = 0.13089 0.21574
#
# Static dielectric constant tensor:
#      x y z
#    x 3.087500 0.000000 0.067460 
#    y 0.000000 3.020840 0.000000 
#    z 0.067460 0.000000 3.390500 
# 
# 
# High freq. dielectric constant tensor:
#      x y z
#    x 1.645530 0.000000 0.008040 
#    y 0.000000 1.637080 0.000000 
#    z 0.008040 0.000000 1.684140 
# 
# From -- ./inp_files/36349.got.cif
#   From: 2010.06.25/outbox.cif.g09.slc.cpg/sg11_19_cif.got.tgz:36349.got - 2010.06.27 23:14:04.
