data_PCOD8069538
_publ_section_title
;
Structure prediction by ZEFSAII (Michael W. Deem and Ramdas Pophale) SiO2 
 PCOD8069538
Probable space group: P 21/M
;
_chemical_formula_sum "Si O2"
_cell_formula_units_Z 32
_cell_length_a 19.045592
_cell_length_b 8.628333
_cell_length_c 13.872265
_cell_angle_alpha 90.000000
_cell_angle_beta 43.198084
_cell_angle_gamma 90.000000
_cell_volume 1560.474311
_symmetry_space_group_name_H-M "P 21/M"
_symmetry_group_IT_number 11
_symmetry_cell_setting 'monoclinic'
loop_
_space_group_symop_operation_xyz
x,y,z
-x,1/2+y,-z
-x,-y,-z
x,1/2-y,z
loop_
_atom_site_type_symbol
_atom_site_label
_atom_site_fract_x
_atom_site_fract_y
_atom_site_fract_z
Si Si1 0.194772 0.566421 0.085563
Si Si2 0.203646 0.068868 0.515582
Si Si3 0.606925 0.427019 0.776726
Si Si4 0.502413 0.566152 0.604623
Si Si5 0.397137 0.927539 0.991721
Si Si6 0.293113 0.067820 0.814050
Si Si7 0.710154 0.431491 0.392637
Si Si8 0.995735 0.933233 0.398263
O O1 0.192309 0.750000 0.073816
O O2 0.291923 0.510700 0.051157
O O3 0.092953 0.506217 0.240362
O O4 0.199594 0.484361 0.976044
O O5 0.194577 0.250000 0.546457
O O6 0.106913 0.007725 0.551567
O O7 0.306571 0.036093 0.353691
O O8 0.201839 0.978344 0.619700
O O9 0.627329 0.250000 0.725035
O O10 0.612978 0.449365 0.884603
O O11 0.494141 0.477767 0.852813
O O12 0.500000 0.500000 0.500000
O O13 0.513123 0.750000 0.595724
O O14 0.394817 0.513680 0.759131
O O15 0.603607 0.489189 0.550366
O O16 0.416778 0.750000 0.943669
O O17 0.309145 0.250000 0.798012
O O18 0.269666 0.014394 0.729054
O O19 0.706868 0.250000 0.376866
O O20 0.997764 0.750000 0.404353
O O21 0.000000 0.000000 0.500000
#
# Coordination Sequence:
#
# PCOD8069538 Si02
#       8
#     4   4   4   4   4   4   4   4
#     4  10  21  39  61  86 117 157 203 248 302 358
#     4  11  23  39  60  88 120 157 200 247 304 361
#     4  10  20  35  56  84 118 155 195 242 297 360
#     4  10  18  32  54  81 116 158 197 241 291 348
#     4   9  19  35  56  82 117 155 192 240 297 357
#     4  11  22  37  57  86 122 159 201 249 298 356
#     4  11  22  38  59  85 118 159 204 250 298 355
#     4  10  23  43  68  93 121 156 200 254 305 361
#
# _framework density 20.506585999999999
#
# number of rings (size 3 to 8) (size 9 to 14) (size 15 to 20)
#    0.000    1.750    0.000    6.375    1.750    3.500 
#    0.000    0.625    0.000    0.000    0.000    0.000 
#    0.000    0.000    0.000    0.000    0.000    0.000 
#
# Total GULP energy -396867.139212 kJ/mol
# GULP energy per Si atom -12402.098100 kJ/mol
# Density = 2.045991 g / cm^3
# Si number density = 20.506586 Si / 1000 Ang^3
#
#
#
# Elastic Constant Matrix: (Units=GPa)
#
#
# Indices 1 2 3 4 5 6 
#
# 1 128.5795 33.1487 54.6416 0.0000 -13.0680 0.0000
# 2 33.1487 90.7325 30.3239 0.0000 -0.5531 0.0000
# 3 54.6416 30.3239 128.2631 0.0000 -8.6195 0.0000
# 4 0.0000 0.0000 0.0000 28.5918 0.0000 5.7747
# 5 -13.0680 -0.5531 -8.6195 0.0000 19.9085 0.0000
# 6 0.0000 0.0000 0.0000 5.7747 0.0000 26.9929
#
#
#
# Elastic Compliance Matrix: (Units=1/GPa)
#
#
# Indices 1 2 3 4 5 6 
#
# 1 0.010474 -0.002630 -0.003485 0.000000 0.005294 0.000000
# 2 -0.002630 0.012644 -0.002020 0.000000 -0.002250 0.000000
# 3 -0.003485 -0.002020 0.009889 0.000000 0.001938 0.000000
# 4 0.000000 0.000000 0.000000 0.036555 0.000000 -0.007820
# 5 0.005294 -0.002250 0.001938 0.000000 0.054481 0.000000
# 6 0.000000 0.000000 0.000000 -0.007820 0.000000 0.038720
#
#
# Mechanical properties :
#
#
# Convention : Reuss Voigt Hill
#
# Bulk Modulus (GPa) = 59.74586 64.86706 62.30646
# Shear Modulus (GPa) = 27.08409 30.39601 28.74005
#
# Velocity S-wave (km/s) = 3.63816 3.85418 3.74773
# Velocity P-wave (km/s) = 6.84445 7.17686 7.01262
#
# Compressibility (1/GPa) = 0.01673756
#
# Stress axis : x y z
#
# Youngs Moduli (GPa) = 95.47350 79.09143 101.12467
#
# Poissons Ratio (x) = 0.20799 0.35238
# Poissons Ratio (y) = 0.25108 0.20428
# Poissons Ratio (z) = 0.33269 0.15977
#
# Static dielectric constant tensor:
#      x y z
#    x 3.966490 0.000000 -0.146050 
#    y 0.000000 3.630570 0.000000 
#    z -0.146050 0.000000 3.859030 
# 
# 
# High freq. dielectric constant tensor:
#      x y z
#    x 1.804130 0.000000 0.012680 
#    y 0.000000 1.800870 0.000000 
#    z 0.012680 0.000000 1.799570 
# 
# From -- ./inp_files/54237.got.cif
#   From: 2010.06.25/outbox.cif.g09.slc.cpg/sg11_28_cif.got.tgz:54237.got - 2010.06.27 23:14:04.
