data_PCOD8069445
_publ_section_title
;
Structure prediction by ZEFSAII (Michael W. Deem and Ramdas Pophale) SiO2 
 PCOD8069445
Probable space group: P 21/M
;
_chemical_formula_sum "Si O2"
_cell_formula_units_Z 32
_cell_length_a 15.617310
_cell_length_b 9.077524
_cell_length_c 14.182875
_cell_angle_alpha 90.000000
_cell_angle_beta 89.310090
_cell_angle_gamma 90.000000
_cell_volume 2010.510877
_symmetry_space_group_name_H-M "P 21/M"
_symmetry_group_IT_number 11
_symmetry_cell_setting 'monoclinic'
loop_
_space_group_symop_operation_xyz
x,y,z
-x,1/2+y,-z
-x,-y,-z
x,1/2-y,z
loop_
_atom_site_type_symbol
_atom_site_label
_atom_site_fract_x
_atom_site_fract_y
_atom_site_fract_z
Si Si1 0.663745 0.422246 0.275070
Si Si2 0.348354 0.577540 0.294839
Si Si3 0.995764 0.922706 0.400049
Si Si4 0.601203 0.922220 0.095787
Si Si5 0.817388 0.421558 0.598094
Si Si6 0.168308 0.576117 0.614663
Si Si7 0.404759 0.919114 0.090176
Si Si8 0.499284 0.924122 0.600532
O O1 0.659834 0.250000 0.253894
O O2 0.657545 0.506117 0.176704
O O3 0.753146 0.469154 0.320592
O O4 0.588471 0.469001 0.346869
O O5 0.363835 0.750000 0.317796
O O6 0.258727 0.514061 0.336514
O O7 0.346743 0.552341 0.182560
O O8 0.422956 0.482305 0.338779
O O9 0.978201 0.750000 0.411993
O O10 0.090119 0.951195 0.353239
O O11 0.917774 0.997331 0.343221
O O12 0.000000 0.000000 0.500000
O O13 0.617337 0.750000 0.097915
O O14 0.502112 0.964870 0.113549
O O15 0.632219 0.983221 0.994277
O O16 0.800264 0.250000 0.589068
O O17 0.813501 0.484982 0.491435
O O18 0.152288 0.750000 0.614267
O O19 0.402054 0.750000 0.057699
O O20 0.507008 0.750000 0.587241
O O21 0.500000 0.000000 0.500000
#
# Coordination Sequence:
#
# PCOD8069445 Si02
#       8
#     4   4   4   4   4   4   4   4
#     4  10  20  33  48  66  92 125 158 190 231 276
#     4  10  18  32  50  68  91 121 157 191 224 271
#     4   9  16  28  45  66  90 119 152 189 230 268
#     4  10  19  31  48  69  91 117 153 196 234 271
#     4   8  15  28  47  67  92 122 152 184 224 271
#     4   9  17  30  46  66  91 123 156 187 226 271
#     4   9  18  31  48  68  90 119 152 190 234 276
#     4  11  22  33  45  63  92 128 159 189 222 264
#
# _framework density 15.916353000000001
#
# number of rings (size 3 to 8) (size 9 to 14) (size 15 to 20)
#    0.000    2.500    1.250    2.625    0.000    4.000 
#    0.000    5.625    0.000    0.000    0.000    0.875 
#    0.000    0.000    0.000    0.000    0.000    0.000 
#
# Total GULP energy -396688.786054 kJ/mol
# GULP energy per Si atom -12396.524564 kJ/mol
# Density = 1.588013 g / cm^3
# Si number density = 15.916353 Si / 1000 Ang^3
#
#
#
# Elastic Constant Matrix: (Units=GPa)
#
#
# Indices 1 2 3 4 5 6 
#
# 1 123.6662 51.5437 55.2450 0.0000 16.2032 0.0000
# 2 51.5437 49.9027 39.6343 0.0000 3.7725 0.0000
# 3 55.2450 39.6343 94.7555 0.0000 12.0382 0.0000
# 4 0.0000 0.0000 0.0000 25.2746 0.0000 4.9656
# 5 16.2032 3.7725 12.0382 0.0000 11.5629 0.0000
# 6 0.0000 0.0000 0.0000 4.9656 0.0000 24.4845
#
#
#
# Elastic Compliance Matrix: (Units=1/GPa)
#
#
# Indices 1 2 3 4 5 6 
#
# 1 0.017653 -0.015751 -0.001399 0.000000 -0.018142 0.000000
# 2 -0.015751 0.044206 -0.011846 0.000000 0.019982 0.000000
# 3 -0.001399 -0.011846 0.017959 0.000000 -0.012872 0.000000
# 4 0.000000 0.000000 0.000000 0.041207 0.000000 -0.008357
# 5 -0.018142 0.019982 -0.012872 0.000000 0.118788 0.000000
# 6 0.000000 0.000000 0.000000 -0.008357 0.000000 0.042537
#
#
# Mechanical properties :
#
#
# Convention : Reuss Voigt Hill
#
# Bulk Modulus (GPa) = 45.81573 62.35226 54.08400
# Shear Modulus (GPa) = 14.38359 20.39118 17.38738
#
# Velocity S-wave (km/s) = 3.00942 3.58319 3.30877
# Velocity P-wave (km/s) = 6.39713 7.50860 6.97504
#
# Compressibility (1/GPa) = 0.02182656
#
# Stress axis : x y z
#
# Youngs Moduli (GPa) = 56.64626 22.62147 55.68134
#
# Poissons Ratio (x) = 0.35632 0.07791
# Poissons Ratio (y) = 0.89225 0.65958
# Poissons Ratio (z) = 0.07926 0.26797
#
# Static dielectric constant tensor:
#      x y z
#    x 3.472660 0.000000 -0.020320 
#    y 0.000000 3.018550 0.000000 
#    z -0.020320 0.000000 2.982480 
# 
# 
# High freq. dielectric constant tensor:
#      x y z
#    x 1.604940 0.000000 0.001810 
#    y 0.000000 1.608020 0.000000 
#    z 0.001810 0.000000 1.589840 
# 
# From -- ./inp_files/51298.got.cif
#   From: 2010.06.25/outbox.cif.g09.slc.cpg/sg11_26_cif.got.tgz:51298.got - 2010.06.27 23:14:04.
