data_PCOD8069246
_publ_section_title
;
Structure prediction by ZEFSAII (Michael W. Deem and Ramdas Pophale) SiO2 
 PCOD8069246
Probable space group: P 21/M
;
_chemical_formula_sum "Si O2"
_cell_formula_units_Z 32
_cell_length_a 23.624029
_cell_length_b 8.420373
_cell_length_c 17.526181
_cell_angle_alpha 90.000000
_cell_angle_beta 31.069060
_cell_angle_gamma 90.000000
_cell_volume 1799.210311
_symmetry_space_group_name_H-M "P 21/M"
_symmetry_group_IT_number 11
_symmetry_cell_setting 'monoclinic'
loop_
_space_group_symop_operation_xyz
x,y,z
-x,1/2+y,-z
-x,-y,-z
x,1/2-y,z
loop_
_atom_site_type_symbol
_atom_site_label
_atom_site_fract_x
_atom_site_fract_y
_atom_site_fract_z
Si Si1 0.189201 0.563841 0.651344
Si Si2 0.906707 0.935291 0.764606
Si Si3 0.865648 0.933728 0.541058
Si Si4 0.050764 0.436961 0.117312
Si Si5 0.316139 0.434786 0.370544
Si Si6 0.756383 0.066968 0.813747
Si Si7 0.474668 0.435046 0.945936
Si Si8 0.880503 0.936549 0.120425
O O1 0.202229 0.750000 0.623186
O O2 0.282461 0.473328 0.496066
O O3 0.204559 0.522898 0.723962
O O4 0.070868 0.495983 0.760622
O O5 0.877331 0.750000 0.795361
O O6 0.905962 0.003648 0.852170
O O7 0.814467 0.033282 0.826994
O O8 0.025692 0.960805 0.589959
O O9 0.897500 0.750000 0.494836
O O10 0.781284 0.989142 0.573255
O O11 0.811237 0.958726 0.685873
O O12 0.036122 0.250000 0.140950
O O13 0.137507 0.477966 0.948944
O O14 0.342879 0.250000 0.329267
O O15 0.423450 0.535634 0.227311
O O16 0.770195 0.250000 0.775092
O O17 0.629085 0.025163 0.969517
O O18 0.448022 0.250000 0.982289
O O19 0.500000 0.500000 0.000000
O O20 0.873760 0.750000 0.142564
O O21 0.000000 0.000000 0.000000
#
# Coordination Sequence:
#
# PCOD8069246 Si02
#       8
#     4   4   4   4   4   4   4   4
#     4  10  18  31  49  75 107 141 177 216 263 315
#     4  11  21  36  55  77 108 144 182 222 266 317
#     4  11  22  36  54  78 107 140 180 220 267 320
#     4   8  16  29  48  72 103 140 175 211 258 311
#     4  11  22  35  55  81 108 140 178 221 266 315
#     4  12  25  40  56  76 104 140 182 226 269 315
#     4  12  24  40  60  80 103 136 177 223 271 319
#     4   9  16  28  45  71 103 139 176 213 260 316
#
# _framework density 17.785582000000002
#
# number of rings (size 3 to 8) (size 9 to 14) (size 15 to 20)
#    0.000    1.500    2.500    5.250    0.000    1.000 
#    0.000    1.875    0.000    0.000    0.000    0.875 
#    0.000    0.000    0.000    0.000    0.000    0.000 
#
# Total GULP energy -396818.252619 kJ/mol
# GULP energy per Si atom -12400.570394 kJ/mol
# Density = 1.774510 g / cm^3
# Si number density = 17.785582 Si / 1000 Ang^3
#
#
#
# Elastic Constant Matrix: (Units=GPa)
#
#
# Indices 1 2 3 4 5 6 
#
# 1 79.8757 19.2496 57.0796 0.0000 7.7511 0.0000
# 2 19.2496 57.1832 12.5758 0.0000 -1.0067 0.0000
# 3 57.0796 12.5758 97.9917 0.0000 15.1078 0.0000
# 4 0.0000 0.0000 0.0000 27.5651 0.0000 2.2165
# 5 7.7511 -1.0067 15.1078 0.0000 33.8258 0.0000
# 6 0.0000 0.0000 0.0000 2.2165 0.0000 22.8026
#
#
#
# Elastic Compliance Matrix: (Units=1/GPa)
#
#
# Indices 1 2 3 4 5 6 
#
# 1 0.022695 -0.004854 -0.012643 0.000000 0.000302 0.000000
# 2 -0.004854 0.019123 0.000122 0.000000 0.001627 0.000000
# 3 -0.012643 0.000122 0.018372 0.000000 -0.005305 0.000000
# 4 0.000000 0.000000 0.000000 0.036564 0.000000 -0.003554
# 5 0.000302 0.001627 -0.005305 0.000000 0.031912 0.000000
# 6 0.000000 0.000000 0.000000 -0.003554 0.000000 0.044200
#
#
# Mechanical properties :
#
#
# Convention : Reuss Voigt Hill
#
# Bulk Modulus (GPa) = 39.30767 45.87338 42.59052
# Shear Modulus (GPa) = 23.13799 26.58175 24.85987
#
# Velocity S-wave (km/s) = 3.61077 3.87016 3.74271
# Velocity P-wave (km/s) = 6.28748 6.76899 6.53267
#
# Compressibility (1/GPa) = 0.02544033
#
# Stress axis : x y z
#
# Youngs Moduli (GPa) = 44.06292 52.29205 54.43158
#
# Poissons Ratio (x) = 0.25382 0.68819
# Poissons Ratio (y) = 0.21388 -0.00666
# Poissons Ratio (z) = 0.55710 -0.00640
#
# Static dielectric constant tensor:
#      x y z
#    x 3.453020 0.000000 0.331770 
#    y 0.000000 3.316780 0.000000 
#    z 0.331770 0.000000 3.352910 
# 
# 
# High freq. dielectric constant tensor:
#      x y z
#    x 1.667820 0.000000 0.026970 
#    y 0.000000 1.694060 0.000000 
#    z 0.026970 0.000000 1.674330 
# 
# From -- ./inp_files/61745.got.cif
#   From: 2010.06.25/outbox.cif.g09.slc.cpg/sg11_31_cif.got.tgz:61745.got - 2010.06.27 23:14:04.
