data_PCOD8069121
_publ_section_title
;
Structure prediction by ZEFSAII (Michael W. Deem and Ramdas Pophale) SiO2 
 PCOD8069121
Probable space group: P 21/M
;
_chemical_formula_sum "Si O2"
_cell_formula_units_Z 32
_cell_length_a 20.020746
_cell_length_b 9.302852
_cell_length_c 28.738443
_cell_angle_alpha 90.000000
_cell_angle_beta 20.256958
_cell_angle_gamma 90.000000
_cell_volume 1853.213855
_symmetry_space_group_name_H-M "P 21/M"
_symmetry_group_IT_number 11
_symmetry_cell_setting 'monoclinic'
loop_
_space_group_symop_operation_xyz
x,y,z
-x,1/2+y,-z
-x,-y,-z
x,1/2-y,z
loop_
_atom_site_type_symbol
_atom_site_label
_atom_site_fract_x
_atom_site_fract_y
_atom_site_fract_z
Si Si1 0.010352 0.415340 0.117024
Si Si2 0.161707 0.917716 0.866171
Si Si3 0.939962 0.919132 0.352607
Si Si4 0.458949 0.414211 0.907664
Si Si5 0.663314 0.416789 0.865860
Si Si6 0.560169 0.920442 0.650288
Si Si7 0.449642 0.414145 0.810380
Si Si8 0.930121 0.419337 0.832655
O O1 0.999280 0.250000 0.139920
O O2 0.857935 0.450713 0.176002
O O3 0.961954 0.512119 0.193487
O O4 0.222969 0.451951 0.958920
O O5 0.130650 0.750000 0.896372
O O6 0.371895 0.970510 0.744772
O O7 0.000000 0.000000 0.000000
O O8 0.936309 0.750000 0.361981
O O9 0.745897 0.984048 0.501908
O O10 0.946317 0.958222 0.293875
O O11 0.127979 0.980542 0.256615
O O12 0.381324 0.250000 0.960647
O O13 0.632256 0.438800 0.830812
O O14 0.537021 0.445139 0.804617
O O15 0.283162 0.518219 0.035131
O O16 0.648421 0.250000 0.889848
O O17 0.500000 0.500000 0.000000
O O18 0.568284 0.750000 0.649332
O O19 0.558711 0.984300 0.702988
O O20 0.482441 0.250000 0.773675
O O21 0.912406 0.250000 0.851800
#
# Coordination Sequence:
#
# PCOD8069121 Si02
#       8
#     4   4   4   4   4   4   4   4
#     4   9  18  32  49  72 102 130 160 207 255 295
#     4  10  19  32  52  75  99 129 169 211 247 291
#     4   9  19  34  50  73 105 134 163 204 253 296
#     4   9  18  31  50  74 101 130 162 204 253 295
#     4  10  18  32  53  75 100 132 168 207 246 291
#     4  10  20  34  52  73  99 135 170 201 247 303
#     4   9  17  31  48  70 101 130 161 205 252 294
#     4  10  18  30  50  74 100 130 164 205 247 293
#
# _framework density 17.267301
#
# number of rings (size 3 to 8) (size 9 to 14) (size 15 to 20)
#    0.000    2.500    2.500    1.125    0.000    2.500 
#    0.000    3.125    0.000    0.000    0.000    0.000 
#    0.000    0.000    0.000    0.000    0.000    0.000 
#
# Total GULP energy -396752.153227 kJ/mol
# GULP energy per Si atom -12398.504788 kJ/mol
# Density = 1.722800 g / cm^3
# Si number density = 17.267301 Si / 1000 Ang^3
#
#
#
# Elastic Constant Matrix: (Units=GPa)
#
#
# Indices 1 2 3 4 5 6 
#
# 1 141.8553 44.5533 74.3166 0.0000 5.7059 0.0000
# 2 44.5533 50.4694 40.0686 0.0000 7.5424 0.0000
# 3 74.3166 40.0686 121.7093 0.0000 5.5996 0.0000
# 4 0.0000 0.0000 0.0000 18.2763 0.0000 4.8865
# 5 5.7059 7.5424 5.5996 0.0000 25.9730 0.0000
# 6 0.0000 0.0000 0.0000 4.8865 0.0000 28.1916
#
#
#
# Elastic Compliance Matrix: (Units=1/GPa)
#
#
# Indices 1 2 3 4 5 6 
#
# 1 0.011678 -0.006349 -0.005058 0.000000 0.000369 0.000000
# 2 -0.006349 0.031218 -0.006108 0.000000 -0.006354 0.000000
# 3 -0.005058 -0.006108 0.013315 0.000000 0.000014 0.000000
# 4 0.000000 0.000000 0.000000 0.057375 0.000000 -0.009945
# 5 0.000369 -0.006354 0.000014 0.000000 0.040263 0.000000
# 6 0.000000 0.000000 0.000000 -0.009945 0.000000 0.037195
#
#
# Mechanical properties :
#
#
# Convention : Reuss Voigt Hill
#
# Bulk Modulus (GPa) = 47.21211 70.21234 58.71222
# Shear Modulus (GPa) = 21.44690 24.82788 23.13739
#
# Velocity S-wave (km/s) = 3.52810 3.79602 3.66451
# Velocity P-wave (km/s) = 6.63309 7.74360 7.20976
#
# Compressibility (1/GPa) = 0.02118101
#
# Stress axis : x y z
#
# Youngs Moduli (GPa) = 85.62846 32.03292 75.10453
#
# Poissons Ratio (x) = 0.20338 0.37985
# Poissons Ratio (y) = 0.54367 0.45876
# Poissons Ratio (z) = 0.43308 0.19566
#
# Static dielectric constant tensor:
#      x y z
#    x 3.599290 0.000000 -0.058340 
#    y 0.000000 3.092640 0.000000 
#    z -0.058340 0.000000 3.123350 
# 
# 
# High freq. dielectric constant tensor:
#      x y z
#    x 1.685030 0.000000 0.003220 
#    y 0.000000 1.653900 0.000000 
#    z 0.003220 0.000000 1.634810 
# 
# From -- ./inp_files/64182.got.cif
#   From: 2010.06.25/outbox.cif.g09.slc.cpg/sg11_33_cif.got.tgz:64182.got - 2010.06.27 23:14:04.
