data_PCOD8069237
_publ_section_title
;
Structure prediction by ZEFSAII (Michael W. Deem and Ramdas Pophale) SiO2 
 PCOD8069237
Probable space group: P 21/M
;
_chemical_formula_sum "Si O2"
_cell_formula_units_Z 32
_cell_length_a 16.359289
_cell_length_b 8.498807
_cell_length_c 20.423950
_cell_angle_alpha 90.000000
_cell_angle_beta 137.337676
_cell_angle_gamma 90.000000
_cell_volume 1924.351512
_symmetry_space_group_name_H-M "P 21/M"
_symmetry_group_IT_number 11
_symmetry_cell_setting 'monoclinic'
loop_
_space_group_symop_operation_xyz
x,y,z
-x,1/2+y,-z
-x,-y,-z
x,1/2-y,z
loop_
_atom_site_type_symbol
_atom_site_label
_atom_site_fract_x
_atom_site_fract_y
_atom_site_fract_z
Si Si1 0.282266 0.436139 0.014661
Si Si2 0.817860 0.923165 0.912210
Si Si3 0.883812 0.562657 0.469093
Si Si4 0.509407 0.934211 0.077969
Si Si5 0.931672 0.077676 0.865621
Si Si6 0.018852 0.066191 0.659188
Si Si7 0.046678 0.931658 0.813271
Si Si8 0.249358 0.565482 0.723543
O O1 0.257424 0.250000 0.996018
O O2 0.182929 0.521289 0.911635
O O3 0.270623 0.493493 0.083752
O O4 0.414253 0.477756 0.067909
O O5 0.773565 0.750000 0.865925
O O6 0.820961 0.023654 0.847123
O O7 0.949730 0.914912 0.020904
O O8 0.876929 0.750000 0.465159
O O9 0.897140 0.495624 0.550798
O O10 0.769559 0.490718 0.362969
O O11 0.000000 0.500000 0.500000
O O12 0.481799 0.750000 0.061357
O O13 0.641035 0.966505 0.183147
O O14 0.500000 0.000000 0.000000
O O15 0.900219 0.250000 0.819341
O O16 0.953259 0.961357 0.817527
O O17 0.038366 0.250000 0.656900
O O18 0.002609 0.034531 0.726179
O O19 0.133614 0.970373 0.700025
O O20 0.043889 0.750000 0.792299
O O21 0.278365 0.750000 0.742749
#
# Coordination Sequence:
#
# PCOD8069237 Si02
#       8
#     4   4   4   4   4   4   4   4
#     4  10  20  34  48  65  89 120 157 194 230 270
#     4   8  15  27  43  61  84 114 148 185 224 267
#     4  10  18  31  49  70  91 115 148 186 228 273
#     4  12  24  37  50  67  91 122 158 195 232 269
#     4   9  16  26  41  62  87 116 149 184 223 268
#     4  11  20  32  48  68  93 121 152 188 230 275
#     4  11  20  30  44  65  93 124 155 188 228 274
#     4  11  21  35  51  68  90 120 155 191 230 270
#
# _framework density 16.628978
#
# number of rings (size 3 to 8) (size 9 to 14) (size 15 to 20)
#    0.000    1.750    0.000    9.375    0.000    3.500 
#    0.000    0.000    0.000    0.000    0.000    0.000 
#    0.000    1.000    0.000    3.750    0.000    6.000 
#
# Total GULP energy -396713.585798 kJ/mol
# GULP energy per Si atom -12397.299556 kJ/mol
# Density = 1.659113 g / cm^3
# Si number density = 16.628978 Si / 1000 Ang^3
#
#
#
# Elastic Constant Matrix: (Units=GPa)
#
#
# Indices 1 2 3 4 5 6 
#
# 1 91.3567 15.4515 29.8892 0.0000 -7.8345 0.0000
# 2 15.4515 83.1897 7.8503 0.0000 -3.8945 0.0000
# 3 29.8892 7.8503 74.7637 0.0000 -12.3080 0.0000
# 4 0.0000 0.0000 0.0000 24.6484 0.0000 -3.9505
# 5 -7.8345 -3.8945 -12.3080 0.0000 15.5043 0.0000
# 6 0.0000 0.0000 0.0000 -3.9505 0.0000 24.8260
#
#
#
# Elastic Compliance Matrix: (Units=1/GPa)
#
#
# Indices 1 2 3 4 5 6 
#
# 1 0.012972 -0.001862 -0.004588 0.000000 0.002445 0.000000
# 2 -0.001862 0.012483 -0.000236 0.000000 0.002007 0.000000
# 3 -0.004588 -0.000236 0.017074 0.000000 0.011177 0.000000
# 4 0.000000 0.000000 0.000000 0.041632 0.000000 0.006625
# 5 0.002445 0.002007 0.011177 0.000000 0.075111 0.000000
# 6 0.000000 0.000000 0.000000 0.006625 0.000000 0.041335
#
#
# Mechanical properties :
#
#
# Convention : Reuss Voigt Hill
#
# Bulk Modulus (GPa) = 34.29636 39.52134 36.90885
# Shear Modulus (GPa) = 22.35163 26.07033 24.21098
#
# Velocity S-wave (km/s) = 3.67022 3.96380 3.81983
# Velocity P-wave (km/s) = 6.21530 6.69082 6.45744
#
# Compressibility (1/GPa) = 0.02915761
#
# Stress axis : x y z
#
# Youngs Moduli (GPa) = 77.09082 80.11033 58.56726
#
# Poissons Ratio (x) = 0.14916 0.26870
# Poissons Ratio (y) = 0.14354 0.01381
# Poissons Ratio (z) = 0.35368 0.01889
#
# Static dielectric constant tensor:
#      x y z
#    x 3.206650 0.000000 -0.310440 
#    y 0.000000 3.311990 0.000000 
#    z -0.310440 0.000000 3.239020 
# 
# 
# High freq. dielectric constant tensor:
#      x y z
#    x 1.626350 0.000000 -0.026990 
#    y 0.000000 1.660910 0.000000 
#    z -0.026990 0.000000 1.602040 
# 
# From -- ./inp_files/65221.got.cif
#   From: 2010.06.25/outbox.cif.g09.slc.cpg/sg11_33_cif.got.tgz:65221.got - 2010.06.27 23:14:04.
