data_PCOD8069467
_publ_section_title
;
Structure prediction by ZEFSAII (Michael W. Deem and Ramdas Pophale) SiO2 
 PCOD8069467
Probable space group: P 21/M
;
_chemical_formula_sum "Si O2"
_cell_formula_units_Z 32
_cell_length_a 16.392425
_cell_length_b 9.474835
_cell_length_c 23.061732
_cell_angle_alpha 90.000000
_cell_angle_beta 30.324692
_cell_angle_gamma 90.000000
_cell_volume 1808.472307
_symmetry_space_group_name_H-M "P 21/M"
_symmetry_group_IT_number 11
_symmetry_cell_setting 'monoclinic'
loop_
_space_group_symop_operation_xyz
x,y,z
-x,1/2+y,-z
-x,-y,-z
x,1/2-y,z
loop_
_atom_site_type_symbol
_atom_site_label
_atom_site_fract_x
_atom_site_fract_y
_atom_site_fract_z
Si Si1 0.233327 0.908978 0.854172
Si Si2 0.044688 0.086663 0.886285
Si Si3 0.031556 0.915521 0.317889
Si Si4 0.884131 0.918327 0.526042
Si Si5 0.613011 0.092699 0.892204
Si Si6 0.488255 0.411024 0.237351
Si Si7 0.633557 0.908824 0.051596
Si Si8 0.072971 0.584050 0.165516
O O1 0.191548 0.750000 0.861367
O O2 0.423699 0.922122 0.753800
O O3 0.195939 0.005773 0.821733
O O4 0.120564 0.951512 0.978455
O O5 0.086352 0.250000 0.864645
O O6 0.029602 0.039515 0.828125
O O7 0.036941 0.750000 0.323161
O O8 0.210562 0.977400 0.218951
O O9 0.977232 0.951750 0.284702
O O10 0.918978 0.973292 0.438776
O O11 0.910584 0.750000 0.517279
O O12 0.697176 0.960438 0.649318
O O13 0.000000 0.000000 0.500000
O O14 0.623015 0.250000 0.913084
O O15 0.539421 0.097477 0.873394
O O16 0.500000 0.000000 0.000000
O O17 0.500525 0.250000 0.207012
O O18 0.601317 0.511570 0.130648
O O19 0.698732 0.750000 0.023145
O O20 0.761688 0.995212 0.934311
O O21 0.116492 0.750000 0.135901
#
# Coordination Sequence:
#
# PCOD8069467 Si02
#       8
#     4   4   4   4   4   4   4   4
#     4   9  17  30  48  72 101 133 171 209 250 305
#     4   9  17  29  47  73 103 133 167 204 254 313
#     4   9  18  33  53  73  97 133 173 211 250 300
#     4  10  21  38  58  78 102 136 178 218 257 298
#     4  10  19  30  45  67  97 129 161 200 245 296
#     4  10  20  35  54  74 100 139 178 211 252 310
#     4  11  21  30  46  76 106 131 167 214 258 301
#     4  10  18  32  52  72 102 139 168 202 253 316
#
# _framework density 17.694493000000001
#
# number of rings (size 3 to 8) (size 9 to 14) (size 15 to 20)
#    0.000    2.250    2.500    1.125    0.000    3.000 
#    0.000    1.250    0.000    0.750    0.000    0.000 
#    0.000    0.000    0.000    0.000    0.000    0.000 
#
# Total GULP energy -396523.768204 kJ/mol
# GULP energy per Si atom -12391.367756 kJ/mol
# Density = 1.765422 g / cm^3
# Si number density = 17.694493 Si / 1000 Ang^3
#
#
#
# Elastic Constant Matrix: (Units=GPa)
#
#
# Indices 1 2 3 4 5 6 
#
# 1 119.2667 32.5109 33.5062 0.0000 7.0196 0.0000
# 2 32.5109 52.0469 25.0219 0.0000 2.5875 0.0000
# 3 33.5062 25.0219 66.5250 0.0000 10.2118 0.0000
# 4 0.0000 0.0000 0.0000 15.8609 0.0000 -1.8126
# 5 7.0196 2.5875 10.2118 0.0000 31.0571 0.0000
# 6 0.0000 0.0000 0.0000 -1.8126 0.0000 28.5979
#
#
#
# Elastic Compliance Matrix: (Units=1/GPa)
#
#
# Indices 1 2 3 4 5 6 
#
# 1 0.010766 -0.005053 -0.003383 0.000000 -0.000900 0.000000
# 2 -0.005053 0.025856 -0.007398 0.000000 0.001420 0.000000
# 3 -0.003383 -0.007398 0.020333 0.000000 -0.005304 0.000000
# 4 0.000000 0.000000 0.000000 0.063508 0.000000 0.004025
# 5 -0.000900 0.001420 -0.005304 0.000000 0.034028 0.000000
# 6 0.000000 0.000000 0.000000 0.004025 0.000000 0.035223
#
#
# Mechanical properties :
#
#
# Convention : Reuss Voigt Hill
#
# Bulk Modulus (GPa) = 39.54925 46.65740 43.10332
# Shear Modulus (GPa) = 21.75698 24.88980 23.32339
#
# Velocity S-wave (km/s) = 3.51036 3.75459 3.63453
# Velocity P-wave (km/s) = 6.23136 6.72469 6.48272
#
# Compressibility (1/GPa) = 0.02528493
#
# Stress axis : x y z
#
# Youngs Moduli (GPa) = 92.88906 38.67566 49.18137
#
# Poissons Ratio (x) = 0.19544 0.16640
# Poissons Ratio (y) = 0.46940 0.36385
# Poissons Ratio (z) = 0.31428 0.28612
#
# Static dielectric constant tensor:
#      x y z
#    x 3.480430 0.000000 0.024180 
#    y 0.000000 3.195900 0.000000 
#    z 0.024180 0.000000 3.219920 
# 
# 
# High freq. dielectric constant tensor:
#      x y z
#    x 1.692120 0.000000 0.004060 
#    y 0.000000 1.671400 0.000000 
#    z 0.004060 0.000000 1.648690 
# 
# From -- ./inp_files/69443.got.cif
#   From: 2010.06.25/outbox.cif.g09.slc.cpg/sg11_35_cif.got.tgz:69443.got - 2010.06.27 23:14:04.
