data_PCOD8069923
_publ_section_title
;
Structure prediction by ZEFSAII (Michael W. Deem and Ramdas Pophale) SiO2 
 PCOD8069923
Probable space group: P 21/M
;
_chemical_formula_sum "Si O2"
_cell_formula_units_Z 32
_cell_length_a 23.531862
_cell_length_b 9.201184
_cell_length_c 16.252104
_cell_angle_alpha 90.000000
_cell_angle_beta 150.344310
_cell_angle_gamma 90.000000
_cell_volume 1741.115856
_symmetry_space_group_name_H-M "P 21/M"
_symmetry_group_IT_number 11
_symmetry_cell_setting 'monoclinic'
loop_
_space_group_symop_operation_xyz
x,y,z
-x,1/2+y,-z
-x,-y,-z
x,1/2-y,z
loop_
_atom_site_type_symbol
_atom_site_label
_atom_site_fract_x
_atom_site_fract_y
_atom_site_fract_z
Si Si1 0.986533 0.080767 0.898173
Si Si2 0.682047 0.579475 0.948927
Si Si3 0.239721 0.917792 0.488519
Si Si4 0.584604 0.089047 0.052689
Si Si5 0.792712 0.921188 0.259723
Si Si6 0.115180 0.078322 0.904892
Si Si7 0.530866 0.910979 0.266510
Si Si8 0.095501 0.579087 0.465241
O O1 0.002653 0.250000 0.935681
O O2 0.862726 0.047879 0.703473
O O3 0.085471 0.022463 0.959470
O O4 0.000000 0.000000 0.000000
O O5 0.654886 0.750000 0.919083
O O6 0.559234 0.498882 0.789197
O O7 0.764687 0.536610 0.130208
O O8 0.755621 0.535731 0.960404
O O9 0.275637 0.750000 0.528981
O O10 0.199010 0.955845 0.530358
O O11 0.348648 0.009740 0.595506
O O12 0.610905 0.250000 0.122537
O O13 0.533799 0.106620 0.899483
O O14 0.500000 0.000000 0.000000
O O15 0.695496 0.989808 0.194689
O O16 0.801187 0.750000 0.281704
O O17 0.900896 0.997119 0.441191
O O18 0.098590 0.250000 0.884209
O O19 0.022183 0.019322 0.722719
O O20 0.553391 0.750000 0.332530
O O21 0.089862 0.750000 0.476888
#
# Coordination Sequence:
#
# PCOD8069923 Si02
#       8
#     4   4   4   4   4   4   4   4
#     4   9  18  34  57  83 105 123 149 188 236 291
#     4   9  18  33  50  66  92 134 174 201 233 283
#     4   9  18  32  50  72  98 129 161 192 235 293
#     4  10  19  29  41  59  86 122 163 207 251 288
#     4  10  19  28  40  63  93 126 167 208 242 278
#     4   8  16  33  54  73  95 128 165 195 233 292
#     4  10  20  31  45  68  96 125 161 206 246 278
#     4   9  17  30  48  68  93 127 166 207 247 285
#
# _framework density 18.379017999999999
#
# number of rings (size 3 to 8) (size 9 to 14) (size 15 to 20)
#    0.000    2.750    0.000    3.375    0.000    5.500 
#    0.000    3.125    0.000    0.750    0.000    0.000 
#    0.000    0.000    0.000    0.000    0.000    0.000 
#
# Total GULP energy -396418.852644 kJ/mol
# GULP energy per Si atom -12388.089145 kJ/mol
# Density = 1.833719 g / cm^3
# Si number density = 18.379018 Si / 1000 Ang^3
#
#
#
# Elastic Constant Matrix: (Units=GPa)
#
#
# Indices 1 2 3 4 5 6 
#
# 1 93.2255 42.6001 33.5297 0.0000 17.3283 0.0000
# 2 42.6001 68.5018 29.0054 0.0000 5.2427 0.0000
# 3 33.5297 29.0054 44.8854 0.0000 6.9857 0.0000
# 4 0.0000 0.0000 0.0000 26.1600 0.0000 -3.8322
# 5 17.3283 5.2427 6.9857 0.0000 31.4530 0.0000
# 6 0.0000 0.0000 0.0000 -3.8322 0.0000 18.9631
#
#
#
# Elastic Compliance Matrix: (Units=1/GPa)
#
#
# Indices 1 2 3 4 5 6 
#
# 1 0.018254 -0.007575 -0.007636 0.000000 -0.007098 0.000000
# 2 -0.007575 0.023248 -0.009748 0.000000 0.002463 0.000000
# 3 -0.007636 -0.009748 0.034569 0.000000 -0.001846 0.000000
# 4 0.000000 0.000000 0.000000 0.039392 0.000000 0.007961
# 5 -0.007098 0.002463 -0.001846 0.000000 0.035703 0.000000
# 6 0.000000 0.000000 0.000000 0.007961 0.000000 0.054343
#
#
# Mechanical properties :
#
#
# Convention : Reuss Voigt Hill
#
# Bulk Modulus (GPa) = 38.23566 46.32036 42.27801
# Shear Modulus (GPa) = 18.92893 22.08036 20.50465
#
# Velocity S-wave (km/s) = 3.21272 3.46987 3.34377
# Velocity P-wave (km/s) = 5.88313 6.42735 6.16125
#
# Compressibility (1/GPa) = 0.02615360
#
# Stress axis : x y z
#
# Youngs Moduli (GPa) = 54.78257 43.01437 28.92730
#
# Poissons Ratio (x) = 0.32585 0.22089
# Poissons Ratio (y) = 0.41500 0.28197
# Poissons Ratio (z) = 0.41831 0.41929
#
# Static dielectric constant tensor:
#      x y z
#    x 3.412120 0.000000 0.150700 
#    y 0.000000 3.367210 0.000000 
#    z 0.150700 0.000000 3.243650 
# 
# 
# High freq. dielectric constant tensor:
#      x y z
#    x 1.702490 0.000000 0.018160 
#    y 0.000000 1.700130 0.000000 
#    z 0.018160 0.000000 1.695660 
# 
# From -- ./inp_files/61812.got.cif
#   From: 2010.06.25/outbox.cif.g09.slc.cpg/sg11_31_cif.got.tgz:61812.got - 2010.06.27 23:14:04.
