data_PCOD8069182
_publ_section_title
;
Structure prediction by ZEFSAII (Michael W. Deem and Ramdas Pophale) SiO2 
 PCOD8069182
Probable space group: P 21/M
;
_chemical_formula_sum "Si O2"
_cell_formula_units_Z 32
_cell_length_a 12.273969
_cell_length_b 14.523721
_cell_length_c 18.356335
_cell_angle_alpha 90.000000
_cell_angle_beta 149.837012
_cell_angle_gamma 90.000000
_cell_volume 1644.188917
_symmetry_space_group_name_H-M "P 21/M"
_symmetry_group_IT_number 11
_symmetry_cell_setting 'monoclinic'
loop_
_space_group_symop_operation_xyz
x,y,z
-x,1/2+y,-z
-x,-y,-z
x,1/2-y,z
loop_
_atom_site_type_symbol
_atom_site_label
_atom_site_fract_x
_atom_site_fract_y
_atom_site_fract_z
Si Si1 0.502025 0.081435 0.444542
Si Si2 0.439601 0.544971 0.291186
Si Si3 0.571457 0.858071 0.989245
Si Si4 0.650022 0.513577 0.910754
Si Si5 0.751060 0.851268 0.577921
Si Si6 0.211475 0.641974 0.901415
Si Si7 0.032833 0.853625 0.102008
Si Si8 0.049621 0.851412 0.279436
O O1 0.378286 0.159866 0.419144
O O2 0.750975 0.100611 0.564342
O O3 0.500000 0.000000 0.500000
O O4 0.377748 0.049667 0.299137
O O5 0.501706 0.521409 0.243546
O O6 0.643811 0.587327 0.452733
O O7 0.235537 0.613806 0.170790
O O8 0.583945 0.750000 0.973202
O O9 0.810503 0.895794 0.151997
O O10 0.509596 0.921003 0.883591
O O11 0.406440 0.875296 0.958188
O O12 0.748988 0.423128 0.006649
O O13 0.836640 0.574884 0.980600
O O14 0.770959 0.750000 0.555550
O O15 0.990024 0.890174 0.734356
O O16 0.201780 0.750000 0.919146
O O17 0.963771 0.750000 0.037816
O O18 0.114227 0.851648 0.232037
O O19 0.034393 0.750000 0.303624
#
# Coordination Sequence:
#
# PCOD8069182 Si02
#       8
#     4   4   4   4   4   4   4   4
#     4  10  18  30  51  78 111 144 180 228 265 343
#     4  11  22  33  51  83 122 151 181 227 296 348
#     4   9  20  39  63  83 107 149 202 247 287 336
#     4  11  22  37  56  88 113 152 188 244 291 341
#     4  10  20  35  56  80 111 151 189 229 282 344
#     4  10  22  39  61  86 111 147 198 249 288 334
#     4  10  19  34  56  80 113 156 196 228 276 343
#     4   9  16  30  55  81 101 139 195 238 274 320
#
# _framework density 19.462482999999999
#
# number of rings (size 3 to 8) (size 9 to 14) (size 15 to 20)
#    0.000    2.000    2.500    3.375    5.250    1.000 
#    0.000    4.375    0.000    0.000    0.000    0.000 
#    0.000    0.000    0.000    0.000    0.000    0.000 
#
# Total GULP energy -396486.129686 kJ/mol
# GULP energy per Si atom -12390.191553 kJ/mol
# Density = 1.941819 g / cm^3
# Si number density = 19.462483 Si / 1000 Ang^3
#
#
#
# Elastic Constant Matrix: (Units=GPa)
#
#
# Indices 1 2 3 4 5 6 
#
# 1 78.6714 41.2489 57.3373 0.0000 1.6504 0.0000
# 2 41.2489 80.7476 47.0676 0.0000 -15.2020 0.0000
# 3 57.3373 47.0676 91.5045 0.0000 -4.5769 0.0000
# 4 0.0000 0.0000 0.0000 27.0965 0.0000 5.7055
# 5 1.6504 -15.2020 -4.5769 0.0000 32.5083 0.0000
# 6 0.0000 0.0000 0.0000 5.7055 0.0000 21.8781
#
#
#
# Elastic Compliance Matrix: (Units=1/GPa)
#
#
# Indices 1 2 3 4 5 6 
#
# 1 0.025948 -0.006839 -0.013059 0.000000 -0.006354 0.000000
# 2 -0.006839 0.021249 -0.006173 0.000000 0.009415 0.000000
# 3 -0.013059 -0.006173 0.022333 0.000000 0.000920 0.000000
# 4 0.000000 0.000000 0.000000 0.039049 0.000000 -0.010184
# 5 -0.006354 0.009415 0.000920 0.000000 0.035616 0.000000
# 6 0.000000 0.000000 0.000000 -0.010184 0.000000 0.048364
#
#
# Mechanical properties :
#
#
# Convention : Reuss Voigt Hill
#
# Bulk Modulus (GPa) = 57.51711 60.24791 58.88251
# Shear Modulus (GPa) = 19.96018 23.31455 21.63737
#
# Velocity S-wave (km/s) = 3.20593 3.46486 3.33791
# Velocity P-wave (km/s) = 6.58187 6.85785 6.72127
#
# Compressibility (1/GPa) = 0.01738613
#
# Stress axis : x y z
#
# Youngs Moduli (GPa) = 38.53833 47.06084 44.77721
#
# Poissons Ratio (x) = 0.32187 0.58475
# Poissons Ratio (y) = 0.26358 0.27643
# Poissons Ratio (z) = 0.50327 0.29053
#
# Static dielectric constant tensor:
#      x y z
#    x 3.144640 0.000000 -0.155820 
#    y 0.000000 4.101190 0.000000 
#    z -0.155820 0.000000 3.245080 
# 
# 
# High freq. dielectric constant tensor:
#      x y z
#    x 1.724210 0.000000 0.012240 
#    y 0.000000 1.775000 0.000000 
#    z 0.012240 0.000000 1.736500 
# 
# From -- ./inp_files/59497.got.cif
#   From: 2010.06.25/outbox.cif.g09.slc.cpg/sg11_30_cif.got.tgz:59497.got - 2010.06.27 23:14:04.
