data_PCOD8069362
_publ_section_title
;
Structure prediction by ZEFSAII (Michael W. Deem and Ramdas Pophale) SiO2 
 PCOD8069362
Probable space group: P 21/M
;
_chemical_formula_sum "Si O2"
_cell_formula_units_Z 32
_cell_length_a 20.446494
_cell_length_b 8.877965
_cell_length_c 20.028872
_cell_angle_alpha 90.000000
_cell_angle_beta 29.730492
_cell_angle_gamma 90.000000
_cell_volume 1803.022539
_symmetry_space_group_name_H-M "P 21/M"
_symmetry_group_IT_number 11
_symmetry_cell_setting 'monoclinic'
loop_
_space_group_symop_operation_xyz
x,y,z
-x,1/2+y,-z
-x,-y,-z
x,1/2-y,z
loop_
_atom_site_type_symbol
_atom_site_label
_atom_site_fract_x
_atom_site_fract_y
_atom_site_fract_z
Si Si1 0.826585 0.071151 0.323033
Si Si2 0.584246 0.429065 0.623021
Si Si3 0.139194 0.928432 0.858528
Si Si4 0.105483 0.429028 0.121808
Si Si5 0.569803 0.428271 0.785401
Si Si6 0.367001 0.073287 0.143867
Si Si7 0.702640 0.928749 0.166936
Si Si8 0.718377 0.926677 0.918552
O O1 0.826555 0.250000 0.328916
O O2 0.700128 0.004022 0.473882
O O3 0.820683 0.021439 0.251466
O O4 0.959449 0.004802 0.239270
O O5 0.583011 0.250000 0.622881
O O6 0.609861 0.483748 0.676172
O O7 0.443790 0.486814 0.720639
O O8 0.126113 0.750000 0.876312
O O9 0.254245 0.989795 0.803661
O O10 0.000000 0.000000 0.000000
O O11 0.098463 0.250000 0.129065
O O12 0.163433 0.493688 0.140673
O O13 0.200487 0.481264 0.977870
O O14 0.579581 0.250000 0.783776
O O15 0.669904 0.500696 0.751697
O O16 0.422362 0.489260 0.931060
O O17 0.387203 0.250000 0.134708
O O18 0.259319 0.038932 0.180430
O O19 0.500000 0.000000 0.000000
O O20 0.708190 0.750000 0.172461
O O21 0.713974 0.750000 0.935667
#
# Coordination Sequence:
#
# PCOD8069362 Si02
#       8
#     4   4   4   4   4   4   4   4
#     4   9  18  30  47  73  98 122 160 206 242 281
#     4   9  17  30  49  72  98 128 164 201 239 288
#     4  11  21  34  52  74 101 128 161 204 248 291
#     4   9  14  25  46  70  93 120 158 199 234 274
#     4   9  15  26  45  66  91 123 159 196 238 285
#     4   9  16  25  40  66  97 124 155 196 242 285
#     4  10  18  31  53  75  95 126 162 198 242 290
#     4   8  13  22  40  65  89 117 155 194 225 272
#
# _framework density 17.747975
#
# number of rings (size 3 to 8) (size 9 to 14) (size 15 to 20)
#    0.000    2.750    2.500    1.500    0.000    0.500 
#    0.000    0.625    0.000    3.000    0.000    0.000 
#    0.000    0.000    0.000    0.000    0.000    0.500 
#
# Total GULP energy -396548.561347 kJ/mol
# GULP energy per Si atom -12392.142542 kJ/mol
# Density = 1.770758 g / cm^3
# Si number density = 17.747975 Si / 1000 Ang^3
#
#
#
# Elastic Constant Matrix: (Units=GPa)
#
#
# Indices 1 2 3 4 5 6 
#
# 1 196.3988 34.2068 79.3602 0.0000 12.4091 0.0000
# 2 34.2068 31.1741 17.2821 0.0000 5.1815 0.0000
# 3 79.3602 17.2821 120.7173 0.0000 3.5969 0.0000
# 4 0.0000 0.0000 0.0000 9.2923 0.0000 3.5902
# 5 12.4091 5.1815 3.5969 0.0000 25.9351 0.0000
# 6 0.0000 0.0000 0.0000 3.5902 0.0000 27.2655
#
#
#
# Elastic Compliance Matrix: (Units=1/GPa)
#
#
# Indices 1 2 3 4 5 6 
#
# 1 0.008036 -0.006067 -0.004354 0.000000 -0.002029 0.000000
# 2 -0.006067 0.040478 -0.001659 0.000000 -0.004954 0.000000
# 3 -0.004354 -0.001659 0.011359 0.000000 0.000839 0.000000
# 4 0.000000 0.000000 0.000000 0.113385 0.000000 -0.014930
# 5 -0.002029 -0.004954 0.000839 0.000000 0.040402 0.000000
# 6 0.000000 0.000000 0.000000 -0.014930 0.000000 0.038642
#
#
# Mechanical properties :
#
#
# Convention : Reuss Voigt Hill
#
# Bulk Modulus (GPa) = 28.00077 67.77646 47.88862
# Shear Modulus (GPa) = 17.33916 26.99465 22.16691
#
# Velocity S-wave (km/s) = 3.12904 3.90423 3.53793
# Velocity P-wave (km/s) = 5.37267 7.65475 6.61290
#
# Compressibility (1/GPa) = 0.03571330
#
# Stress axis : x y z
#
# Youngs Moduli (GPa) = 124.44354 24.70483 88.03959
#
# Poissons Ratio (x) = 0.14988 0.38331
# Poissons Ratio (y) = 0.75496 0.14606
# Poissons Ratio (z) = 0.54180 0.04099
#
# Static dielectric constant tensor:
#      x y z
#    x 3.919270 0.000000 0.055570 
#    y 0.000000 2.893420 0.000000 
#    z 0.055570 0.000000 3.261240 
# 
# 
# High freq. dielectric constant tensor:
#      x y z
#    x 1.712310 0.000000 0.007880 
#    y 0.000000 1.637580 0.000000 
#    z 0.007880 0.000000 1.653500 
# 
# From -- ./inp_files/66445.got.cif
#   From: 2010.06.25/outbox.cif.g09.slc.cpg/sg11_34_cif.got.tgz:66445.got - 2010.06.27 23:14:04.
