data_PCOD8069590
_publ_section_title
;
Structure prediction by ZEFSAII (Michael W. Deem and Ramdas Pophale) SiO2 
 PCOD8069590
Probable space group: P 21/M
;
_chemical_formula_sum "Si O2"
_cell_formula_units_Z 32
_cell_length_a 18.500537
_cell_length_b 12.934324
_cell_length_c 19.145082
_cell_angle_alpha 90.000000
_cell_angle_beta 157.701816
_cell_angle_gamma 90.000000
_cell_volume 1738.254425
_symmetry_space_group_name_H-M "P 21/M"
_symmetry_group_IT_number 11
_symmetry_cell_setting 'monoclinic'
loop_
_space_group_symop_operation_xyz
x,y,z
-x,1/2+y,-z
-x,-y,-z
x,1/2-y,z
loop_
_atom_site_type_symbol
_atom_site_label
_atom_site_fract_x
_atom_site_fract_y
_atom_site_fract_z
Si Si1 0.398578 0.367522 0.215127
Si Si2 0.033059 0.871676 0.969687
Si Si3 0.740612 0.130505 0.095082
Si Si4 0.911595 0.010506 0.123447
Si Si5 0.674510 0.976649 0.708117
Si Si6 0.351485 0.135844 0.682987
Si Si7 0.017519 0.027348 0.435773
Si Si8 0.232462 0.948236 0.505299
O O1 0.331514 0.250000 0.168239
O O2 0.417499 0.430870 0.303855
O O3 0.605558 0.362570 0.361991
O O4 0.248987 0.423893 0.030889
O O5 0.069387 0.750000 0.993952
O O6 0.035233 0.929842 0.898459
O O7 0.823202 0.890540 0.813614
O O8 0.203285 0.918341 0.169786
O O9 0.783114 0.250000 0.148131
O O10 0.518544 0.107971 0.886460
O O11 0.853328 0.097776 0.126555
O O12 0.810326 0.060059 0.222021
O O13 0.094888 0.948815 0.315653
O O14 0.500000 0.000000 0.500000
O O15 0.379349 0.250000 0.676912
O O16 0.156116 0.126897 0.552547
O O17 0.347087 0.058300 0.612972
O O18 0.000000 0.000000 0.500000
O O19 0.111686 0.935973 0.470675
#
# Coordination Sequence:
#
# PCOD8069590 Si02
#       8
#     4   4   4   4   4   4   4   4
#     4  11  22  38  57  79 110 149 189 227 276 335
#     4  10  21  35  55  84 113 142 186 234 279 331
#     4  10  18  32  57  83 111 145 179 221 279 330
#     4  10  19  35  56  82 111 143 180 233 280 323
#     4  10  22  40  57  79 113 150 188 230 283 332
#     4   9  18  32  54  83 109 138 179 219 271 329
#     4   9  19  33  53  78 113 149 178 223 272 325
#     4   9  20  35  56  81 108 144 182 229 270 328
#
# _framework density 18.409272999999999
#
# number of rings (size 3 to 8) (size 9 to 14) (size 15 to 20)
#    0.750    1.500    1.250    1.875    0.000    2.500 
#    0.000    1.250    0.000    4.500    0.000    0.000 
#    0.000    0.000    0.000    0.000    0.000    0.000 
#
# Total GULP energy -396528.488248 kJ/mol
# GULP energy per Si atom -12391.515258 kJ/mol
# Density = 1.836737 g / cm^3
# Si number density = 18.409273 Si / 1000 Ang^3
#
#
#
# Elastic Constant Matrix: (Units=GPa)
#
#
# Indices 1 2 3 4 5 6 
#
# 1 70.8845 20.6026 38.8166 0.0000 -14.9212 0.0000
# 2 20.6026 67.1884 34.0642 0.0000 -2.9171 0.0000
# 3 38.8166 34.0642 135.7017 0.0000 -12.4902 0.0000
# 4 0.0000 0.0000 0.0000 16.5963 0.0000 3.1638
# 5 -14.9212 -2.9171 -12.4902 0.0000 26.1895 0.0000
# 6 0.0000 0.0000 0.0000 3.1638 0.0000 17.6405
#
#
#
# Elastic Compliance Matrix: (Units=1/GPa)
#
#
# Indices 1 2 3 4 5 6 
#
# 1 0.019015 -0.003553 -0.003751 0.000000 0.008649 0.000000
# 2 -0.003553 0.017719 -0.003594 0.000000 -0.001765 0.000000
# 3 -0.003751 -0.003594 0.009529 0.000000 0.002007 0.000000
# 4 0.000000 0.000000 0.000000 0.062388 0.000000 -0.011189
# 5 0.008649 -0.001765 0.002007 0.000000 0.043872 0.000000
# 6 0.000000 0.000000 0.000000 -0.011189 0.000000 0.058694
#
#
# Mechanical properties :
#
#
# Convention : Reuss Voigt Hill
#
# Bulk Modulus (GPa) = 40.87328 51.19350 46.03339
# Shear Modulus (GPa) = 20.73246 24.10467 22.41857
#
# Velocity S-wave (km/s) = 3.35953 3.62246 3.49347
# Velocity P-wave (km/s) = 6.10732 6.73537 6.42901
#
# Compressibility (1/GPa) = 0.02446586
#
# Stress axis : x y z
#
# Youngs Moduli (GPa) = 52.59019 56.43803 104.94376
#
# Poissons Ratio (x) = 0.20055 0.39365
# Poissons Ratio (y) = 0.18688 0.37714
# Poissons Ratio (z) = 0.19727 0.20282
#
# Static dielectric constant tensor:
#      x y z
#    x 3.190750 0.000000 0.028270 
#    y 0.000000 3.183120 0.000000 
#    z 0.028270 0.000000 3.736430 
# 
# 
# High freq. dielectric constant tensor:
#      x y z
#    x 1.696260 0.000000 0.002140 
#    y 0.000000 1.692400 0.000000 
#    z 0.002140 0.000000 1.733080 
# 
# From -- ./inp_files/66559.got.cif
#   From: 2010.06.25/outbox.cif.g09.slc.cpg/sg11_34_cif.got.tgz:66559.got - 2010.06.27 23:14:04.
