data_PCOD8069170
_publ_section_title
;
Structure prediction by ZEFSAII (Michael W. Deem and Ramdas Pophale) SiO2 
 PCOD8069170
Probable space group: P 21/M
;
_chemical_formula_sum "Si O2"
_cell_formula_units_Z 24
_cell_length_a 9.029044
_cell_length_b 20.477530
_cell_length_c 11.284735
_cell_angle_alpha 90.000000
_cell_angle_beta 37.873675
_cell_angle_gamma 90.000000
_cell_volume 1280.926809
_symmetry_space_group_name_H-M "P 21/M"
_symmetry_group_IT_number 11
_symmetry_cell_setting 'monoclinic'
loop_
_space_group_symop_operation_xyz
x,y,z
-x,1/2+y,-z
-x,-y,-z
x,1/2-y,z
loop_
_atom_site_type_symbol
_atom_site_label
_atom_site_fract_x
_atom_site_fract_y
_atom_site_fract_z
Si Si1 0.977655 0.086604 0.875904
Si Si2 0.876003 0.674492 0.418627
Si Si3 0.787026 0.501507 0.803611
Si Si4 0.088562 0.901184 0.477765
Si Si5 0.566140 0.420373 0.318230
Si Si6 0.514568 0.435355 0.613430
O O1 0.966918 0.147094 0.790861
O O2 0.234672 0.081784 0.778363
O O3 0.911686 0.019206 0.849540
O O4 0.792027 0.099725 0.097484
O O5 0.824940 0.750000 0.428856
O O6 0.626861 0.635672 0.579910
O O7 0.004442 0.665402 0.466099
O O8 0.875799 0.450874 0.651203
O O9 0.886140 0.572480 0.699271
O O10 0.500000 0.500000 0.000000
O O11 0.342983 0.888915 0.384522
O O12 0.646604 0.426627 0.403955
O O13 0.451130 0.490916 0.357001
#
# Coordination Sequence:
#
# PCOD8069170 Si02
#       6
#     4   4   4   4   4   4
#     4  10  20  34  55  82 111 140 173 216 270 328
#     4  10  22  38  54  72 100 144 189 221 252 304
#     4  10  18  30  51  77 105 137 172 214 264 313
#     4  10  19  32  49  75 106 133 171 218 263 308
#     4  10  19  34  56  81 110 140 171 213 266 326
#     4  10  19  32  54  86 113 133 165 218 284 335
#
# _framework density 18.736433999999999
#
# number of rings (size 3 to 8) (size 9 to 14) (size 15 to 20)
#    0.000    2.000    0.000    7.500    0.000    2.000 
#    0.000    3.333    0.000    0.000    0.000    0.000 
#    0.000    0.000    0.000    0.000    0.000    0.000 
#
# Total GULP energy -297473.902795 kJ/mol
# GULP energy per Si atom -12394.745950 kJ/mol
# Density = 1.869379 g / cm^3
# Si number density = 18.736434 Si / 1000 Ang^3
#
#
#
# Elastic Constant Matrix: (Units=GPa)
#
#
# Indices 1 2 3 4 5 6 
#
# 1 106.2543 40.2425 46.1092 0.0000 -17.0828 0.0000
# 2 40.2425 98.0726 35.8609 0.0000 -1.4364 0.0000
# 3 46.1092 35.8609 149.1527 0.0000 -1.2861 0.0000
# 4 0.0000 0.0000 0.0000 7.0735 0.0000 1.1508
# 5 -17.0828 -1.4364 -1.2861 0.0000 22.4177 0.0000
# 6 0.0000 0.0000 0.0000 1.1508 0.0000 20.7708
#
#
#
# Elastic Compliance Matrix: (Units=1/GPa)
#
#
# Indices 1 2 3 4 5 6 
#
# 1 0.014163 -0.004486 -0.003211 0.000000 0.010321 0.000000
# 2 -0.004486 0.012608 -0.001668 0.000000 -0.002707 0.000000
# 3 -0.003211 -0.001668 0.008080 0.000000 -0.002090 0.000000
# 4 0.000000 0.000000 0.000000 0.142658 0.000000 -0.007904
# 5 0.010321 -0.002707 -0.002090 0.000000 0.052179 0.000000
# 6 0.000000 0.000000 0.000000 -0.007904 0.000000 0.048582
#
#
# Mechanical properties :
#
#
# Convention : Reuss Voigt Hill
#
# Bulk Modulus (GPa) = 62.03023 66.43388 64.23205
# Shear Modulus (GPa) = 16.53583 25.47021 21.00302
#
# Velocity S-wave (km/s) = 2.97400 3.69100 3.35172
# Velocity P-wave (km/s) = 6.70608 7.32794 7.02389
#
# Compressibility (1/GPa) = 0.01612117
#
# Stress axis : x y z
#
# Youngs Moduli (GPa) = 70.60547 79.31722 123.76163
#
# Poissons Ratio (x) = 0.35585 0.39737
# Poissons Ratio (y) = 0.31677 0.20639
# Poissons Ratio (z) = 0.22670 0.13227
#
# Static dielectric constant tensor:
#      x y z
#    x 3.689050 0.000000 0.154150 
#    y 0.000000 3.089410 0.000000 
#    z 0.154150 0.000000 3.600970 
# 
# 
# High freq. dielectric constant tensor:
#      x y z
#    x 1.743910 0.000000 0.002930 
#    y 0.000000 1.668430 0.000000 
#    z 0.002930 0.000000 1.736990 
# 
# From -- ./inp_files/32596.got.cif
#   From: 2010.06.25/outbox.cif.g09.slc.cpg/sg11_17_cif.got.tgz:32596.got - 2010.06.27 23:14:04.
