data_PCOD8069726
_publ_section_title
;
Structure prediction by ZEFSAII (Michael W. Deem and Ramdas Pophale) SiO2 
 PCOD8069726
Probable space group: P 21/M
;
_chemical_formula_sum "Si O2"
_cell_formula_units_Z 28
_cell_length_a 11.571211
_cell_length_b 17.412230
_cell_length_c 19.283805
_cell_angle_alpha 90.000000
_cell_angle_beta 157.312801
_cell_angle_gamma 90.000000
_cell_volume 1498.564664
_symmetry_space_group_name_H-M "P 21/M"
_symmetry_group_IT_number 11
_symmetry_cell_setting 'monoclinic'
loop_
_space_group_symop_operation_xyz
x,y,z
-x,1/2+y,-z
-x,-y,-z
x,1/2-y,z
loop_
_atom_site_type_symbol
_atom_site_label
_atom_site_fract_x
_atom_site_fract_y
_atom_site_fract_z
Si Si1 0.480931 0.335481 0.148578
Si Si2 0.192709 0.506987 0.675154
Si Si3 0.244704 0.555933 0.071669
Si Si4 0.737252 0.434269 0.523477
Si Si5 0.726391 0.446691 0.758657
Si Si6 0.903679 0.163950 0.747506
Si Si7 0.286820 0.163210 0.194399
O O1 0.635536 0.250000 0.237103
O O2 0.720740 0.402963 0.269996
O O3 0.285425 0.346440 0.110753
O O4 0.255956 0.336603 0.958958
O O5 0.480044 0.448953 0.829695
O O6 0.000000 0.500000 0.500000
O O7 0.016086 0.479462 0.644871
O O8 0.404482 0.559614 0.235917
O O9 0.065788 0.477020 0.958020
O O10 0.010591 0.625963 0.935353
O O11 0.477518 0.494939 0.398665
O O12 0.596882 0.373484 0.392149
O O13 0.849004 0.391852 0.653381
O O14 0.725776 0.367021 0.716597
O O15 0.788461 0.250000 0.667708
O O16 0.279157 0.250000 0.215270
#
# Coordination Sequence:
#
# PCOD8069726 Si02
#       7
#     4   4   4   4   4   4   4
#     4  10  20  36  59  83 115 155 196 240 292 344
#     4  12  20  37  59  91 119 154 195 241 289 351
#     4  10  18  33  60  88 113 144 199 239 282 343
#     4  11  23  35  60  88 120 154 192 239 292 355
#     4  10  18  36  58  85 111 146 192 246 282 336
#     4  11  22  38  59  86 115 152 198 242 293 352
#     4  10  19  36  59  85 116 154 195 244 292 334
#
# _framework density 18.684546000000001
#
# number of rings (size 3 to 8) (size 9 to 14) (size 15 to 20)
#    0.000    1.429    5.714    1.714    0.000    0.571 
#    0.000    2.857    0.000    0.000    0.000    0.000 
#    0.000    0.000    0.000    0.000    0.000    0.000 
#
# Total GULP energy -347017.846755 kJ/mol
# GULP energy per Si atom -12393.494527 kJ/mol
# Density = 1.864202 g / cm^3
# Si number density = 18.684546 Si / 1000 Ang^3
#
#
#
# Elastic Constant Matrix: (Units=GPa)
#
#
# Indices 1 2 3 4 5 6 
#
# 1 72.9421 44.0816 36.6633 0.0000 -1.9759 0.0000
# 2 44.0816 147.8499 50.2538 0.0000 7.9125 0.0000
# 3 36.6633 50.2538 77.6151 0.0000 -0.8824 0.0000
# 4 0.0000 0.0000 0.0000 28.6396 0.0000 -0.3103
# 5 -1.9759 7.9125 -0.8824 0.0000 25.3308 0.0000
# 6 0.0000 0.0000 0.0000 -0.3103 0.0000 29.5629
#
#
#
# Elastic Compliance Matrix: (Units=1/GPa)
#
#
# Indices 1 2 3 4 5 6 
#
# 1 0.019359 -0.003591 -0.006792 0.000000 0.002395 0.000000
# 2 -0.003591 0.009558 -0.004531 0.000000 -0.003423 0.000000
# 3 -0.006792 -0.004531 0.019044 0.000000 0.001549 0.000000
# 4 0.000000 0.000000 0.000000 0.034921 0.000000 0.000367
# 5 0.002395 -0.003423 0.001549 0.000000 0.040788 0.000000
# 6 0.000000 0.000000 0.000000 0.000367 0.000000 0.033830
#
#
# Mechanical properties :
#
#
# Convention : Reuss Voigt Hill
#
# Bulk Modulus (GPa) = 55.15215 62.26716 58.70965
# Shear Modulus (GPa) = 25.85711 27.86723 26.86217
#
# Velocity S-wave (km/s) = 3.72409 3.86613 3.79577
# Velocity P-wave (km/s) = 6.93350 7.30254 7.12041
#
# Compressibility (1/GPa) = 0.01813166
#
# Stress axis : x y z
#
# Youngs Moduli (GPa) = 51.65632 104.62876 52.51120
#
# Poissons Ratio (x) = 0.37577 0.35665
# Poissons Ratio (y) = 0.18552 0.23791
# Poissons Ratio (z) = 0.35085 0.47404
#
# Static dielectric constant tensor:
#      x y z
#    x 3.210230 0.000000 -0.045690 
#    y 0.000000 3.604850 0.000000 
#    z -0.045690 0.000000 3.446160 
# 
# 
# High freq. dielectric constant tensor:
#      x y z
#    x 1.695160 0.000000 -0.012940 
#    y 0.000000 1.733270 0.000000 
#    z -0.012940 0.000000 1.722080 
# 
# From -- ./inp_files/64893.got.cif
#   From: 2010.06.25/outbox.cif.g09.slc.cpg/sg11_33_cif.got.tgz:64893.got - 2010.06.27 23:14:04.
