data_PCOD8069525
_publ_section_title
;
Structure prediction by ZEFSAII (Michael W. Deem and Ramdas Pophale) SiO2 
 PCOD8069525
Probable space group: P 21/M
;
_chemical_formula_sum "Si O2"
_cell_formula_units_Z 32
_cell_length_a 6.818805
_cell_length_b 13.676738
_cell_length_c 19.335863
_cell_angle_alpha 90.000000
_cell_angle_beta 97.737183
_cell_angle_gamma 90.000000
_cell_volume 1786.826772
_symmetry_space_group_name_H-M "P 21/M"
_symmetry_group_IT_number 11
_symmetry_cell_setting 'monoclinic'
loop_
_space_group_symop_operation_xyz
x,y,z
-x,1/2+y,-z
-x,-y,-z
x,1/2-y,z
loop_
_atom_site_type_symbol
_atom_site_label
_atom_site_fract_x
_atom_site_fract_y
_atom_site_fract_z
Si Si1 0.048340 0.640010 0.444656
Si Si2 0.258712 0.022580 0.648994
Si Si3 0.623713 0.503192 0.575706
Si Si4 0.982602 0.639476 0.600115
Si Si5 0.626915 0.450466 0.905146
Si Si6 0.600123 0.861021 0.983339
Si Si7 0.318891 0.364032 0.791696
Si Si8 0.967625 0.859869 0.097187
O O1 0.035900 0.750000 0.416846
O O2 0.234353 0.591119 0.415325
O O3 0.845880 0.585072 0.416307
O O4 0.075897 0.634201 0.528043
O O5 0.480621 0.998366 0.635284
O O6 0.129486 0.924042 0.655478
O O7 0.259984 0.085534 0.717989
O O8 0.500000 0.500000 0.500000
O O9 0.757757 0.600280 0.588155
O O10 0.978016 0.750000 0.628018
O O11 0.581642 0.564858 0.918036
O O12 0.511536 0.417479 0.831313
O O13 0.858927 0.437901 0.902679
O O14 0.567734 0.384110 0.967986
O O15 0.571206 0.750000 0.955462
O O16 0.813145 0.876255 0.028192
O O17 0.367747 0.250000 0.782383
O O18 0.136063 0.378109 0.834499
O O19 0.053765 0.750000 0.098346
#
# Coordination Sequence:
#
# PCOD8069525 Si02
#       8
#     4   4   4   4   4   4   4   4
#     4  10  20  33  52  78 105 132 166 214 268 321
#     4  11  21  37  54  75 108 139 175 222 268 320
#     4  11  19  34  54  81 105 129 168 218 272 327
#     4  10  21  36  54  75 101 134 172 217 268 323
#     4  10  18  32  54  78 110 145 175 214 262 310
#     4   9  18  31  51  83 111 136 176 221 259 302
#     4  10  22  36  52  77 106 139 176 215 260 315
#     4   9  17  32  54  77 106 140 174 210 258 313
#
# _framework density 17.908843000000001
#
# number of rings (size 3 to 8) (size 9 to 14) (size 15 to 20)
#    0.000    2.000    2.500    3.375    0.000    4.000 
#    0.000    0.625    0.000    2.250    0.000    0.000 
#    0.000    0.000    0.000    0.000    0.000    0.000 
#
# Total GULP energy -396854.124348 kJ/mol
# GULP energy per Si atom -12401.691386 kJ/mol
# Density = 1.786808 g / cm^3
# Si number density = 17.908843 Si / 1000 Ang^3
#
#
#
# Elastic Constant Matrix: (Units=GPa)
#
#
# Indices 1 2 3 4 5 6 
#
# 1 101.9828 46.8718 19.8202 0.0000 -5.3899 0.0000
# 2 46.8718 146.0253 35.5613 0.0000 2.8264 0.0000
# 3 19.8202 35.5613 55.4641 0.0000 4.4364 0.0000
# 4 0.0000 0.0000 0.0000 31.0700 0.0000 3.1040
# 5 -5.3899 2.8264 4.4364 0.0000 12.5311 0.0000
# 6 0.0000 0.0000 0.0000 3.1040 0.0000 21.7562
#
#
#
# Elastic Compliance Matrix: (Units=1/GPa)
#
#
# Indices 1 2 3 4 5 6 
#
# 1 0.012279 -0.003403 -0.002768 0.000000 0.007029 0.000000
# 2 -0.003403 0.009059 -0.004437 0.000000 -0.001936 0.000000
# 3 -0.002768 -0.004437 0.022516 0.000000 -0.008161 0.000000
# 4 0.000000 0.000000 0.000000 0.032651 0.000000 -0.004658
# 5 0.007029 -0.001936 -0.008161 0.000000 0.086151 0.000000
# 6 0.000000 0.000000 0.000000 -0.004658 0.000000 0.046629
#
#
# Mechanical properties :
#
#
# Convention : Reuss Voigt Hill
#
# Bulk Modulus (GPa) = 44.17466 56.44209 50.30837
# Shear Modulus (GPa) = 21.00422 26.48604 23.74513
#
# Velocity S-wave (km/s) = 3.42839 3.84987 3.64523
# Velocity P-wave (km/s) = 6.35545 7.16566 6.77268
#
# Compressibility (1/GPa) = 0.02263741
#
# Stress axis : x y z
#
# Youngs Moduli (GPa) = 81.43806 110.39296 44.41193
#
# Poissons Ratio (x) = 0.37571 0.12294
# Poissons Ratio (y) = 0.27716 0.19705
# Poissons Ratio (z) = 0.22543 0.48980
#
# Static dielectric constant tensor:
#      x y z
#    x 3.382280 0.000000 0.024540 
#    y 0.000000 3.447270 0.000000 
#    z 0.024540 0.000000 3.025390 
# 
# 
# High freq. dielectric constant tensor:
#      x y z
#    x 1.700050 0.000000 -0.000890 
#    y 0.000000 1.697730 0.000000 
#    z -0.000890 0.000000 1.660100 
# 
# From -- ./inp_files/57053.got.cif
#   From: 2010.06.25/outbox.cif.g09.slc.cpg/sg11_29_cif.got.tgz:57053.got - 2010.06.27 23:14:04.
