data_PCOD8069164
_publ_section_title
;
Structure prediction by ZEFSAII (Michael W. Deem and Ramdas Pophale) SiO2 
 PCOD8069164
Probable space group: P 21/M
;
_chemical_formula_sum "Si O2"
_cell_formula_units_Z 32
_cell_length_a 21.459625
_cell_length_b 8.559756
_cell_length_c 11.714331
_cell_angle_alpha 90.000000
_cell_angle_beta 127.963359
_cell_angle_gamma 90.000000
_cell_volume 1696.484889
_symmetry_space_group_name_H-M "P 21/M"
_symmetry_group_IT_number 11
_symmetry_cell_setting 'monoclinic'
loop_
_space_group_symop_operation_xyz
x,y,z
-x,1/2+y,-z
-x,-y,-z
x,1/2-y,z
loop_
_atom_site_type_symbol
_atom_site_label
_atom_site_fract_x
_atom_site_fract_y
_atom_site_fract_z
Si Si1 0.679671 0.567646 0.240908
Si Si2 0.919581 0.566516 0.457537
Si Si3 0.287467 0.930467 0.154047
Si Si4 0.746322 0.931950 0.648808
Si Si5 0.225485 0.568917 0.838989
Si Si6 0.174710 0.933102 0.460619
Si Si7 0.398415 0.570175 0.646880
Si Si8 0.543418 0.569816 0.657262
O O1 0.666708 0.750000 0.206803
O O2 0.693938 0.485969 0.134486
O O3 0.755973 0.533612 0.403823
O O4 0.605559 0.497457 0.228236
O O5 0.926635 0.750000 0.481657
O O6 0.849088 0.528046 0.290411
O O7 0.905375 0.487897 0.566557
O O8 0.000000 0.500000 0.500000
O O9 0.286784 0.750000 0.188301
O O10 0.248795 0.028895 0.212162
O O11 0.376811 0.978186 0.227672
O O12 0.234708 0.962874 0.983241
O O13 0.758667 0.750000 0.643949
O O14 0.818628 0.022186 0.665696
O O15 0.660233 0.981141 0.505431
O O16 0.210686 0.750000 0.795522
O O17 0.187284 0.750000 0.493164
O O18 0.371813 0.750000 0.617237
O O19 0.487833 0.549747 0.705213
O O20 0.500000 0.500000 0.500000
O O21 0.563229 0.750000 0.655410
#
# Coordination Sequence:
#
# PCOD8069164 Si02
#       8
#     4   4   4   4   4   4   4   4
#     4  10  18  30  51  76 102 135 176 223 271 321
#     4  11  21  36  60  89 117 143 176 216 262 316
#     4  11  23  37  54  76 107 145 184 225 274 326
#     4  11  20  31  51  77 106 141 182 226 270 318
#     4  10  21  38  57  79 109 144 180 220 267 323
#     4  10  18  31  52  79 111 141 176 220 264 312
#     4  10  19  32  50  73 102 136 178 228 278 323
#     4  11  22  34  52  75 105 140 182 232 278 326
#
# _framework density 18.862531000000001
#
# number of rings (size 3 to 8) (size 9 to 14) (size 15 to 20)
#    0.000    1.500    1.250    9.000    0.000    3.500 
#    0.000    0.625    0.000    0.750    0.000    0.000 
#    0.000    0.000    0.000    0.000    0.000    0.000 
#
# Total GULP energy -396775.894950 kJ/mol
# GULP energy per Si atom -12399.246717 kJ/mol
# Density = 1.881960 g / cm^3
# Si number density = 18.862531 Si / 1000 Ang^3
#
#
#
# Elastic Constant Matrix: (Units=GPa)
#
#
# Indices 1 2 3 4 5 6 
#
# 1 141.2374 41.8454 35.8410 0.0000 -15.7421 0.0000
# 2 41.8454 98.5808 26.3541 0.0000 -9.9749 0.0000
# 3 35.8410 26.3541 49.3749 0.0000 -11.0661 0.0000
# 4 0.0000 0.0000 0.0000 21.8422 0.0000 -2.9247
# 5 -15.7421 -9.9749 -11.0661 0.0000 24.1272 0.0000
# 6 0.0000 0.0000 0.0000 -2.9247 0.0000 36.3480
#
#
#
# Elastic Compliance Matrix: (Units=1/GPa)
#
#
# Indices 1 2 3 4 5 6 
#
# 1 0.009339 -0.002371 -0.004868 0.000000 0.002880 0.000000
# 2 -0.002371 0.012543 -0.004634 0.000000 0.001513 0.000000
# 3 -0.004868 -0.004634 0.027997 0.000000 0.007749 0.000000
# 4 0.000000 0.000000 0.000000 0.046281 0.000000 0.003724
# 5 0.002880 0.001513 0.007749 0.000000 0.047506 0.000000
# 6 0.000000 0.000000 0.000000 0.003724 0.000000 0.027811
#
#
# Mechanical properties :
#
#
# Convention : Reuss Voigt Hill
#
# Bulk Modulus (GPa) = 38.26785 55.25266 46.76026
# Shear Modulus (GPa) = 24.51759 28.80701 26.66230
#
# Velocity S-wave (km/s) = 3.60919 3.91219 3.76374
# Velocity P-wave (km/s) = 6.14004 7.05428 6.61298
#
# Compressibility (1/GPa) = 0.02613160
#
# Stress axis : x y z
#
# Youngs Moduli (GPa) = 107.07507 79.72864 35.71805
#
# Poissons Ratio (x) = 0.18907 0.17387
# Poissons Ratio (y) = 0.25393 0.16552
# Poissons Ratio (z) = 0.52124 0.36948
#
# Static dielectric constant tensor:
#      x y z
#    x 3.388640 0.000000 0.243380 
#    y 0.000000 3.564890 0.000000 
#    z 0.243380 0.000000 2.521280 
# 
# 
# High freq. dielectric constant tensor:
#      x y z
#    x 1.747780 0.000000 -0.028260 
#    y 0.000000 1.753970 0.000000 
#    z -0.028260 0.000000 1.680290 
# 
# From -- ./inp_files/42943.got.cif
#   From: 2010.06.25/outbox.cif.g09.slc.cpg/sg11_22_cif.got.tgz:42943.got - 2010.06.27 23:14:04.
