data_PCOD8069111
_publ_section_title
;
Structure prediction by ZEFSAII (Michael W. Deem and Ramdas Pophale) SiO2 
 PCOD8069111
Probable space group: P 21/M
;
_chemical_formula_sum "Si O2"
_cell_formula_units_Z 32
_cell_length_a 21.965211
_cell_length_b 8.996003
_cell_length_c 28.351518
_cell_angle_alpha 90.000000
_cell_angle_beta 161.217180
_cell_angle_gamma 90.000000
_cell_volume 1803.817736
_symmetry_space_group_name_H-M "P 21/M"
_symmetry_group_IT_number 11
_symmetry_cell_setting 'monoclinic'
loop_
_space_group_symop_operation_xyz
x,y,z
-x,1/2+y,-z
-x,-y,-z
x,1/2-y,z
loop_
_atom_site_type_symbol
_atom_site_label
_atom_site_fract_x
_atom_site_fract_y
_atom_site_fract_z
Si Si1 0.909051 0.572661 0.829525
Si Si2 0.301633 0.426640 0.597671
Si Si3 0.806258 0.926523 0.651286
Si Si4 0.702604 0.074442 0.151911
Si Si5 0.686369 0.073477 0.841341
Si Si6 0.000169 0.425557 0.449476
Si Si7 0.612668 0.073661 0.681334
Si Si8 0.014218 0.426641 0.310255
O O1 0.897755 0.750000 0.823877
O O2 0.868358 0.511076 0.747360
O O3 0.758496 0.505399 0.754248
O O4 0.115634 0.511077 0.994636
O O5 0.299582 0.250000 0.594586
O O6 0.517109 0.485948 0.751304
O O7 0.186896 0.487663 0.468448
O O8 0.195322 0.478552 0.567322
O O9 0.809993 0.750000 0.654330
O O10 0.595687 0.981826 0.485390
O O11 0.953888 0.985948 0.719693
O O12 0.674794 0.250000 0.131655
O O13 0.820118 0.026375 0.285059
O O14 0.816678 0.021449 0.188678
O O15 0.500000 0.000000 0.000000
O O16 0.687341 0.250000 0.843003
O O17 0.654502 0.018175 0.764798
O O18 0.997760 0.250000 0.454622
O O19 0.000000 0.500000 0.500000
O O20 0.633901 0.250000 0.691951
O O21 0.020402 0.250000 0.315406
#
# Coordination Sequence:
#
# PCOD8069111 Si02
#       8
#     4   4   4   4   4   4   4   4
#     4  10  20  30  42  68  99 116 138 192 243 266
#     4   8  13  26  48  70  90 117 157 196 225 265
#     4   9  16  28  46  68  91 116 151 193 231 266
#     4   9  18  32  51  75 102 130 161 201 245 289
#     4   9  16  28  46  68  91 116 151 193 231 266
#     4   9  18  32  51  75 102 130 161 201 245 289
#     4  10  18  30  50  66  83 122 160 180 219 284
#     4   8  13  26  48  70  90 117 157 196 225 265
#
# _framework density 17.740151000000001
#
# number of rings (size 3 to 8) (size 9 to 14) (size 15 to 20)
#    0.000    3.000    1.250    2.250    0.000    0.500 
#    2.250    0.000    0.000    3.000    0.000    0.000 
#    0.000    0.000    0.000    0.000    0.000    0.000 
#
# Total GULP energy -396536.754388 kJ/mol
# GULP energy per Si atom -12391.773575 kJ/mol
# Density = 1.769977 g / cm^3
# Si number density = 17.740151 Si / 1000 Ang^3
#
#
#
# Elastic Constant Matrix: (Units=GPa)
#
#
# Indices 1 2 3 4 5 6 
#
# 1 183.2067 25.0736 107.0014 0.0000 9.6206 0.0000
# 2 25.0736 15.5716 23.0076 0.0000 1.4414 0.0000
# 3 107.0014 23.0076 158.9025 0.0000 7.3315 0.0000
# 4 0.0000 0.0000 0.0000 17.4375 0.0000 4.2001
# 5 9.6206 1.4414 7.3315 0.0000 32.8028 0.0000
# 6 0.0000 0.0000 0.0000 4.2001 0.0000 23.4588
#
#
#
# Elastic Compliance Matrix: (Units=1/GPa)
#
#
# Indices 1 2 3 4 5 6 
#
# 1 0.009703 -0.007554 -0.005379 0.000000 -0.001311 0.000000
# 2 -0.007554 0.087608 -0.007601 0.000000 0.000065 0.000000
# 3 -0.005379 -0.007601 0.011042 0.000000 -0.000556 0.000000
# 4 0.000000 0.000000 0.000000 0.059932 0.000000 -0.010730
# 5 -0.001311 0.000065 -0.000556 0.000000 0.030991 0.000000
# 6 0.000000 0.000000 0.000000 -0.010730 0.000000 0.044549
#
#
# Mechanical properties :
#
#
# Convention : Reuss Voigt Hill
#
# Bulk Modulus (GPa) = 14.86251 74.20512 44.53381
# Shear Modulus (GPa) = 16.26959 28.24636 22.25797
#
# Velocity S-wave (km/s) = 3.03166 3.99460 3.54597
# Velocity P-wave (km/s) = 4.54430 7.94956 6.47481
#
# Compressibility (1/GPa) = 0.06728341
#
# Stress axis : x y z
#
# Youngs Moduli (GPa) = 103.06243 11.41451 90.56488
#
# Poissons Ratio (x) = 0.08622 0.48719
# Poissons Ratio (y) = 0.77852 0.68840
# Poissons Ratio (z) = 0.55442 0.08676
#
# Static dielectric constant tensor:
#      x y z
#    x 3.673200 0.000000 0.041200 
#    y 0.000000 2.718340 0.000000 
#    z 0.041200 0.000000 3.614130 
# 
# 
# High freq. dielectric constant tensor:
#      x y z
#    x 1.701150 0.000000 0.009070 
#    y 0.000000 1.626670 0.000000 
#    z 0.009070 0.000000 1.688150 
# 
# From -- ./inp_files/72170.got.cif
#   From: 2010.06.25/outbox.cif.g09.slc.cpg/sg11_37_cif.got.tgz:72170.got - 2010.06.27 23:14:04.
