data_PCOD8069500
_publ_section_title
;
Structure prediction by ZEFSAII (Michael W. Deem and Ramdas Pophale) SiO2 
 PCOD8069500
Probable space group: P 21/M
;
_chemical_formula_sum "Si O2"
_cell_formula_units_Z 32
_cell_length_a 23.059659
_cell_length_b 8.723202
_cell_length_c 12.484869
_cell_angle_alpha 90.000000
_cell_angle_beta 43.837256
_cell_angle_gamma 90.000000
_cell_volume 1739.414267
_symmetry_space_group_name_H-M "P 21/M"
_symmetry_group_IT_number 11
_symmetry_cell_setting 'monoclinic'
loop_
_space_group_symop_operation_xyz
x,y,z
-x,1/2+y,-z
-x,-y,-z
x,1/2-y,z
loop_
_atom_site_type_symbol
_atom_site_label
_atom_site_fract_x
_atom_site_fract_y
_atom_site_fract_z
Si Si1 0.181775 0.069957 0.683879
Si Si2 0.983622 0.067448 0.138108
Si Si3 0.849422 0.431464 0.044026
Si Si4 0.320872 0.071960 0.329757
Si Si5 0.461739 0.071324 0.654961
Si Si6 0.724886 0.569415 0.041899
Si Si7 0.680578 0.428676 0.885994
Si Si8 0.505552 0.571574 0.807647
O O1 0.165773 0.250000 0.719130
O O2 0.267603 0.034423 0.507111
O O3 0.186260 0.996871 0.796255
O O4 0.107842 0.996837 0.708521
O O5 0.983755 0.250000 0.139782
O O6 0.059573 0.002194 0.108620
O O7 0.000000 0.000000 0.000000
O O8 0.856581 0.250000 0.045279
O O9 0.790304 0.476110 0.025111
O O10 0.314053 0.250000 0.309637
O O11 0.417049 0.022221 0.220974
O O12 0.285619 0.977589 0.275535
O O13 0.467982 0.250000 0.635991
O O14 0.366032 0.018299 0.795263
O O15 0.500000 0.000000 0.500000
O O16 0.516302 0.018142 0.682723
O O17 0.741011 0.750000 0.031806
O O18 0.732129 0.520418 0.907893
O O19 0.695620 0.250000 0.885029
O O20 0.582066 0.472864 0.020205
O O21 0.510146 0.750000 0.774201
#
# Coordination Sequence:
#
# PCOD8069500 Si02
#       8
#     4   4   4   4   4   4   4   4
#     4  10  20  34  52  79 112 143 176 214 264 317
#     4  10  18  32  53  77 107 141 174 210 260 317
#     4  11  21  34  55  82 110 138 174 218 262 316
#     4  10  21  35  54  77 106 142 178 220 267 316
#     4  10  21  34  50  72 103 141 175 216 265 313
#     4  10  21  37  55  75 103 140 180 217 261 317
#     4  10  20  35  55  77 104 137 181 229 267 307
#     4   9  19  35  52  74 102 138 181 222 264 310
#
# _framework density 18.396998
#
# number of rings (size 3 to 8) (size 9 to 14) (size 15 to 20)
#    0.000    2.000    0.000    5.625    1.750    3.500 
#    0.000    0.000    0.000    0.750    0.000    0.000 
#    0.000    0.000    0.000    0.000    0.000    0.000 
#
# Total GULP energy -396787.142860 kJ/mol
# GULP energy per Si atom -12399.598214 kJ/mol
# Density = 1.835513 g / cm^3
# Si number density = 18.396998 Si / 1000 Ang^3
#
#
#
# Elastic Constant Matrix: (Units=GPa)
#
#
# Indices 1 2 3 4 5 6 
#
# 1 114.4635 44.4044 34.3619 0.0000 0.9828 0.0000
# 2 44.4044 90.5007 22.2663 0.0000 -4.6661 0.0000
# 3 34.3619 22.2663 44.0197 0.0000 1.7095 0.0000
# 4 0.0000 0.0000 0.0000 26.8900 0.0000 2.7250
# 5 0.9828 -4.6661 1.7095 0.0000 19.8965 0.0000
# 6 0.0000 0.0000 0.0000 2.7250 0.0000 34.8600
#
#
#
# Elastic Compliance Matrix: (Units=1/GPa)
#
#
# Indices 1 2 3 4 5 6 
#
# 1 0.012771 -0.004426 -0.007691 0.000000 -0.001008 0.000000
# 2 -0.004426 0.014405 -0.003984 0.000000 0.003939 0.000000
# 3 -0.007691 -0.003984 0.030861 0.000000 -0.003206 0.000000
# 4 0.000000 0.000000 0.000000 0.037485 0.000000 -0.002930
# 5 -0.001008 0.003939 -0.003206 0.000000 0.051509 0.000000
# 6 0.000000 0.000000 0.000000 -0.002930 0.000000 0.028915
#
#
# Mechanical properties :
#
#
# Convention : Reuss Voigt Hill
#
# Bulk Modulus (GPa) = 38.70941 50.11658 44.41299
# Shear Modulus (GPa) = 23.06701 26.19272 24.62987
#
# Velocity S-wave (km/s) = 3.54481 3.77735 3.66293
# Velocity P-wave (km/s) = 6.15151 6.80628 6.48716
#
# Compressibility (1/GPa) = 0.02583351
#
# Stress axis : x y z
#
# Youngs Moduli (GPa) = 78.30339 69.42262 32.40356
#
# Poissons Ratio (x) = 0.30724 0.24922
# Poissons Ratio (y) = 0.34655 0.12911
# Poissons Ratio (z) = 0.60224 0.27661
#
# Static dielectric constant tensor:
#      x y z
#    x 3.748340 0.000000 -0.057010 
#    y 0.000000 3.475930 0.000000 
#    z -0.057010 0.000000 4.098520 
# 
# 
# High freq. dielectric constant tensor:
#      x y z
#    x 1.712700 0.000000 -0.003770 
#    y 0.000000 1.726190 0.000000 
#    z -0.003770 0.000000 1.690910 
# 
# From -- ./inp_files/42765.got.cif
#   From: 2010.06.25/outbox.cif.g09.slc.cpg/sg11_22_cif.got.tgz:42765.got - 2010.06.27 23:14:04.
