data_PCOD8069744
_publ_section_title
;
Structure prediction by ZEFSAII (Michael W. Deem and Ramdas Pophale) SiO2 
 PCOD8069744
Probable space group: P 21/M
;
_chemical_formula_sum "Si O2"
_cell_formula_units_Z 28
_cell_length_a 15.070286
_cell_length_b 8.983182
_cell_length_c 12.346789
_cell_angle_alpha 90.000000
_cell_angle_beta 74.075455
_cell_angle_gamma 90.000000
_cell_volume 1607.351833
_symmetry_space_group_name_H-M "P 21/M"
_symmetry_group_IT_number 11
_symmetry_cell_setting 'monoclinic'
loop_
_space_group_symop_operation_xyz
x,y,z
-x,1/2+y,-z
-x,-y,-z
x,1/2-y,z
loop_
_atom_site_type_symbol
_atom_site_label
_atom_site_fract_x
_atom_site_fract_y
_atom_site_fract_z
Si Si1 0.587805 0.426222 0.264200
Si Si2 0.094770 0.076291 0.597009
Si Si3 0.383943 0.077696 0.375960
Si Si4 0.274296 0.926347 0.600302
Si Si5 0.284224 0.421031 0.185207
Si Si6 0.091062 0.423110 0.347880
Si Si7 0.590273 0.426459 0.019444
O O1 0.587752 0.250000 0.261539
O O2 0.489417 0.478532 0.345041
O O3 0.668462 0.486092 0.315281
O O4 0.603262 0.485881 0.137595
O O5 0.100417 0.250000 0.618314
O O6 0.112335 0.037459 0.465451
O O7 0.172582 0.995631 0.641943
O O8 0.994947 0.017285 0.667592
O O9 0.372227 0.250000 0.414598
O O10 0.349503 0.054103 0.265908
O O11 0.324656 0.976192 0.474489
O O12 0.265970 0.750000 0.603171
O O13 0.288620 0.250000 0.146330
O O14 0.179692 0.467638 0.247802
O O15 0.318988 0.525096 0.076682
O O16 0.066676 0.250000 0.345386
O O17 0.578101 0.250000 0.019322
O O18 0.500000 0.500000 0.000000
#
# Coordination Sequence:
#
# PCOD8069744 Si02
#       7
#     4   4   4   4   4   4   4
#     4   9  20  36  52  71 105 145 175 212 260 304
#     4  10  19  33  52  76 105 137 169 210 261 309
#     4  10  18  34  53  73 107 143 170 208 262 308
#     4  11  21  33  51  77 106 140 178 211 253 311
#     4  10  19  34  55  78 108 139 168 210 265 309
#     4   9  18  33  52  76 105 137 167 206 262 314
#     4  11  21  36  55  76 103 138 180 220 259 300
#
# _framework density 17.419955999999999
#
# number of rings (size 3 to 8) (size 9 to 14) (size 15 to 20)
#    0.000    2.000    2.857    1.714    0.000    1.714 
#    0.000    3.571    0.000    0.857    0.000    0.000 
#    0.000    0.000    0.000    0.000    0.000    0.000 
#
# Total GULP energy -347259.887195 kJ/mol
# GULP energy per Si atom -12402.138828 kJ/mol
# Density = 1.738031 g / cm^3
# Si number density = 17.419956 Si / 1000 Ang^3
#
#
#
# Elastic Constant Matrix: (Units=GPa)
#
#
# Indices 1 2 3 4 5 6 
#
# 1 139.3158 46.3172 37.7432 0.0000 -6.8910 0.0000
# 2 46.3172 58.2178 22.5708 0.0000 -2.8554 0.0000
# 3 37.7432 22.5708 53.0018 0.0000 -10.8545 0.0000
# 4 0.0000 0.0000 0.0000 24.9528 0.0000 -6.6270
# 5 -6.8910 -2.8554 -10.8545 0.0000 22.5627 0.0000
# 6 0.0000 0.0000 0.0000 -6.6270 0.0000 29.5227
#
#
#
# Elastic Compliance Matrix: (Units=1/GPa)
#
#
# Indices 1 2 3 4 5 6 
#
# 1 0.010682 -0.006652 -0.004746 0.000000 0.000137 0.000000
# 2 -0.006652 0.024781 -0.006201 0.000000 -0.001879 0.000000
# 3 -0.004746 -0.006201 0.027100 0.000000 0.010803 0.000000
# 4 0.000000 0.000000 0.000000 0.042616 0.000000 0.009566
# 5 0.000137 -0.001879 0.010803 0.000000 0.049322 0.000000
# 6 0.000000 0.000000 0.000000 0.009566 0.000000 0.036020
#
#
# Mechanical properties :
#
#
# Convention : Reuss Voigt Hill
#
# Bulk Modulus (GPa) = 36.54210 51.53309 44.03760
# Shear Modulus (GPa) = 21.29109 25.00124 23.14617
#
# Velocity S-wave (km/s) = 3.49983 3.79252 3.64911
# Velocity P-wave (km/s) = 6.11182 6.98746 6.56426
#
# Compressibility (1/GPa) = 0.02736569
#
# Stress axis : x y z
#
# Youngs Moduli (GPa) = 93.61608 40.35398 36.90024
#
# Poissons Ratio (x) = 0.26842 0.17513
# Poissons Ratio (y) = 0.62270 0.22881
# Poissons Ratio (z) = 0.44430 0.25023
#
# Static dielectric constant tensor:
#      x y z
#    x 3.442480 0.000000 -0.017120 
#    y 0.000000 3.141240 0.000000 
#    z -0.017120 0.000000 3.228100 
# 
# 
# High freq. dielectric constant tensor:
#      x y z
#    x 1.679200 0.000000 -0.009940 
#    y 0.000000 1.665390 0.000000 
#    z -0.009940 0.000000 1.653280 
# 
# From -- ./inp_files/37486.got.cif
#   From: 2010.06.25/outbox.cif.g09.slc.cpg/sg11_19_cif.got.tgz:37486.got - 2010.06.27 23:14:04.
