data_PCOD8069859
_publ_section_title
;
Structure prediction by ZEFSAII (Michael W. Deem and Ramdas Pophale) SiO2 
 PCOD8069859
Probable space group: P 21/M
;
_chemical_formula_sum "Si O2"
_cell_formula_units_Z 24
_cell_length_a 13.413374
_cell_length_b 17.479287
_cell_length_c 8.652025
_cell_angle_alpha 90.000000
_cell_angle_beta 34.002212
_cell_angle_gamma 90.000000
_cell_volume 1134.399485
_symmetry_space_group_name_H-M "P 21/M"
_symmetry_group_IT_number 11
_symmetry_cell_setting 'monoclinic'
loop_
_space_group_symop_operation_xyz
x,y,z
-x,1/2+y,-z
-x,-y,-z
x,1/2-y,z
loop_
_atom_site_type_symbol
_atom_site_label
_atom_site_fract_x
_atom_site_fract_y
_atom_site_fract_z
Si Si1 0.272143 0.416808 0.842447
Si Si2 0.427496 0.995670 0.357171
Si Si3 0.317120 0.750000 0.835008
Si Si4 0.159410 0.750000 0.728709
Si Si5 0.339775 0.250000 0.807704
Si Si6 0.491237 0.250000 0.922135
Si Si7 0.110470 0.899688 0.619615
Si Si8 0.364752 0.868112 0.040389
O O1 0.431924 0.434904 0.755333
O O2 0.324118 0.453436 0.614023
O O3 0.244430 0.325646 0.866742
O O4 0.075798 0.447726 0.148038
O O5 0.544435 0.050139 0.098274
O O6 0.276289 0.950692 0.461275
O O7 0.149404 0.750000 0.931289
O O8 0.466677 0.750000 0.514155
O O9 0.328041 0.826093 0.924812
O O10 0.068663 0.828323 0.786611
O O11 0.350431 0.750000 0.402932
O O12 0.325196 0.250000 0.016320
O O13 0.497142 0.323251 0.026551
O O14 0.170071 0.872928 0.371533
#
# Coordination Sequence:
#
# PCOD8069859 Si02
#       8
#     4   4   2   2   2   2   4   4
#     4  11  24  39  66  92 120 163 207 251 298 368
#     4  11  23  40  62  93 125 163 202 246 311 364
#     4  10  18  35  65  91 119 162 207 250 303 359
#     4   9  19  36  62  86 117 161 202 253 300 352
#     4  11  19  39  63  89 115 161 214 246 295 371
#     4   8  18  34  62  90 115 160 203 247 302 354
#     4  11  23  41  63  91 125 158 207 254 305 361
#     4  10  20  37  63  91 125 162 199 252 311 358
#
# _framework density 21.156568
#
# number of rings (size 3 to 8) (size 9 to 14) (size 15 to 20)
#    0.000    1.667    1.667    5.000    2.333    0.667 
#    0.000    0.000    3.667    0.000    0.000    0.000 
#    0.000    0.000    0.000    0.000    0.000    0.000 
#
# Total GULP energy -297369.512252 kJ/mol
# GULP energy per Si atom -12390.396344 kJ/mol
# Density = 2.110841 g / cm^3
# Si number density = 21.156568 Si / 1000 Ang^3
#
#
#
# Elastic Constant Matrix: (Units=GPa)
#
#
# Indices 1 2 3 4 5 6 
#
# 1 57.1582 24.5996 59.7500 0.0000 10.3520 0.0000
# 2 24.5996 102.4732 33.8322 0.0000 2.4071 0.0000
# 3 59.7500 33.8322 94.6070 0.0000 -5.4383 0.0000
# 4 0.0000 0.0000 0.0000 19.9994 0.0000 8.0032
# 5 10.3520 2.4071 -5.4383 0.0000 36.1326 0.0000
# 6 0.0000 0.0000 0.0000 8.0032 0.0000 18.3110
#
#
#
# Elastic Compliance Matrix: (Units=1/GPa)
#
#
# Indices 1 2 3 4 5 6 
#
# 1 0.070976 -0.001230 -0.045948 0.000000 -0.027168 0.000000
# 2 -0.001230 0.011152 -0.003261 0.000000 -0.000881 0.000000
# 3 -0.045948 -0.003261 0.041887 0.000000 0.019686 0.000000
# 4 0.000000 0.000000 0.000000 0.060601 0.000000 -0.026487
# 5 -0.027168 -0.000881 0.019686 0.000000 0.038481 0.000000
# 6 0.000000 0.000000 0.000000 -0.026487 0.000000 0.066188
#
#
# Mechanical properties :
#
#
# Convention : Reuss Voigt Hill
#
# Bulk Modulus (GPa) = 43.22341 54.51134 48.86738
# Shear Modulus (GPa) = 12.56674 23.95903 18.26289
#
# Velocity S-wave (km/s) = 2.43983 3.36886 2.94126
# Velocity P-wave (km/s) = 5.33026 6.39952 5.88921
#
# Compressibility (1/GPa) = 0.02313561
#
# Stress axis : x y z
#
# Youngs Moduli (GPa) = 14.08920 89.67399 23.87397
#
# Poissons Ratio (x) = 0.11034 1.09695
# Poissons Ratio (y) = 0.01734 0.07786
# Poissons Ratio (z) = 0.64736 0.29247
#
# Static dielectric constant tensor:
#      x y z
#    x 3.938160 0.000000 0.091210 
#    y 0.000000 3.830190 0.000000 
#    z 0.091210 0.000000 3.847840 
# 
# 
# High freq. dielectric constant tensor:
#      x y z
#    x 1.825020 0.000000 0.009770 
#    y 0.000000 1.833340 0.000000 
#    z 0.009770 0.000000 1.820970 
# 
# From -- ./inp_files/13314.got.cif
#   From: 2010.06.25/outbox.cif.g09.slc.cpg/sg11_7_cif.got.tgz:13314.got - 2010.06.27 23:14:04.
