data_PCOD8069304
_publ_section_title
;
Structure prediction by ZEFSAII (Michael W. Deem and Ramdas Pophale) SiO2 
 PCOD8069304
Probable space group: P 21/M
;
_chemical_formula_sum "Si O2"
_cell_formula_units_Z 32
_cell_length_a 27.259267
_cell_length_b 9.049004
_cell_length_c 21.407199
_cell_angle_alpha 90.000000
_cell_angle_beta 18.874255
_cell_angle_gamma 90.000000
_cell_volume 1708.199993
_symmetry_space_group_name_H-M "P 21/M"
_symmetry_group_IT_number 11
_symmetry_cell_setting 'monoclinic'
loop_
_space_group_symop_operation_xyz
x,y,z
-x,1/2+y,-z
-x,-y,-z
x,1/2-y,z
loop_
_atom_site_type_symbol
_atom_site_label
_atom_site_fract_x
_atom_site_fract_y
_atom_site_fract_z
Si Si1 0.546151 0.075689 0.745221
Si Si2 0.604557 0.419741 0.324193
Si Si3 0.146136 0.921519 0.556735
Si Si4 0.580317 0.921869 0.575515
Si Si5 0.889331 0.419607 0.180219
Si Si6 0.407291 0.582811 0.023357
Si Si7 0.727571 0.583685 0.706313
Si Si8 0.911530 0.583293 0.940387
O O1 0.522532 0.250000 0.767018
O O2 0.713782 0.034788 0.567364
O O3 0.519622 0.000401 0.710594
O O4 0.420783 0.010871 0.943566
O O5 0.500000 0.500000 0.500000
O O6 0.603669 0.250000 0.344439
O O7 0.547310 0.444454 0.323003
O O8 0.776403 0.475401 0.120989
O O9 0.158740 0.750000 0.524134
O O10 0.988644 0.958954 0.781366
O O11 0.148917 0.012866 0.489098
O O12 0.612798 0.750000 0.549751
O O13 0.730661 0.997561 0.368303
O O14 0.866286 0.250000 0.187410
O O15 0.954570 0.429389 0.170948
O O16 0.000000 0.500000 0.000000
O O17 0.358268 0.750000 0.066639
O O18 0.565475 0.580303 0.868743
O O19 0.279008 0.508696 0.221510
O O20 0.777680 0.750000 0.661703
O O21 0.847223 0.750000 0.015953
#
# Coordination Sequence:
#
# PCOD8069304 Si02
#       8
#     4   4   4   4   4   4   4   4
#     4  10  18  31  51  76 106 140 178 222 268 317
#     4  11  25  42  59  80 106 140 181 225 271 324
#     4   9  17  31  49  73 105 139 173 218 268 316
#     4  11  23  38  55  79 109 141 178 222 270 323
#     4  11  22  37  56  82 108 136 174 218 269 325
#     4   9  16  26  41  66 102 143 179 216 263 313
#     4   9  16  25  40  67 101 140 180 217 258 311
#     4  10  21  38  57  79 108 140 177 222 271 322
#
# _framework density 18.733169
#
# number of rings (size 3 to 8) (size 9 to 14) (size 15 to 20)
#    0.000    2.000    1.250    3.000    0.000   10.000 
#    0.000    0.000    0.000    0.000    0.000    0.875 
#    0.000    0.000    0.000    0.000    0.000    0.000 
#
# Total GULP energy -396875.169578 kJ/mol
# GULP energy per Si atom -12402.349049 kJ/mol
# Density = 1.869053 g / cm^3
# Si number density = 18.733169 Si / 1000 Ang^3
#
#
#
# Elastic Constant Matrix: (Units=GPa)
#
#
# Indices 1 2 3 4 5 6 
#
# 1 47.1768 39.1526 21.8983 0.0000 24.0085 0.0000
# 2 39.1526 128.4465 38.1214 0.0000 20.6192 0.0000
# 3 21.8983 38.1214 66.9390 0.0000 24.7251 0.0000
# 4 0.0000 0.0000 0.0000 33.9528 0.0000 9.8806
# 5 24.0085 20.6192 24.7251 0.0000 35.8217 0.0000
# 6 0.0000 0.0000 0.0000 9.8806 0.0000 30.8499
#
#
#
# Elastic Compliance Matrix: (Units=1/GPa)
#
#
# Indices 1 2 3 4 5 6 
#
# 1 0.039093 -0.008471 -0.000118 0.000000 -0.021243 0.000000
# 2 -0.008471 0.011347 -0.004531 0.000000 0.002273 0.000000
# 3 -0.000118 -0.004531 0.022234 0.000000 -0.012659 0.000000
# 4 0.000000 0.000000 0.000000 0.032480 0.000000 -0.010403
# 5 -0.021243 0.002273 -0.012659 0.000000 0.049583 0.000000
# 6 0.000000 0.000000 0.000000 -0.010403 0.000000 0.035747
#
#
# Mechanical properties :
#
#
# Convention : Reuss Voigt Hill
#
# Bulk Modulus (GPa) = 21.53560 48.98966 35.26263
# Shear Modulus (GPa) = 21.53310 29.68422 25.60866
#
# Velocity S-wave (km/s) = 3.39405 3.98500 3.70134
# Velocity P-wave (km/s) = 5.18463 6.88343 6.09352
#
# Compressibility (1/GPa) = 0.04643474
#
# Stress axis : x y z
#
# Youngs Moduli (GPa) = 25.58028 88.12786 44.97677
#
# Poissons Ratio (x) = 0.74652 0.00530
# Poissons Ratio (y) = 0.21669 0.20377
# Poissons Ratio (z) = 0.00302 0.39927
#
# Static dielectric constant tensor:
#      x y z
#    x 3.358950 0.000000 0.328050 
#    y 0.000000 3.650460 0.000000 
#    z 0.328050 0.000000 3.263020 
# 
# 
# High freq. dielectric constant tensor:
#      x y z
#    x 1.707830 0.000000 0.036540 
#    y 0.000000 1.741640 0.000000 
#    z 0.036540 0.000000 1.711980 
# 
# From -- ./inp_files/67083.got.cif
#   From: 2010.06.25/outbox.cif.g09.slc.cpg/sg11_34_cif.got.tgz:67083.got - 2010.06.27 23:14:04.
