data_PCOD8069066
_publ_section_title
;
Structure prediction by ZEFSAII (Michael W. Deem and Ramdas Pophale) SiO2 
 PCOD8069066
Probable space group: P 21/M
;
_chemical_formula_sum "Si O2"
_cell_formula_units_Z 20
_cell_length_a 17.462240
_cell_length_b 9.009821
_cell_length_c 14.308156
_cell_angle_alpha 90.000000
_cell_angle_beta 145.022839
_cell_angle_gamma 90.000000
_cell_volume 1290.457608
_symmetry_space_group_name_H-M "P 21/M"
_symmetry_group_IT_number 11
_symmetry_cell_setting 'monoclinic'
loop_
_space_group_symop_operation_xyz
x,y,z
-x,1/2+y,-z
-x,-y,-z
x,1/2-y,z
loop_
_atom_site_type_symbol
_atom_site_label
_atom_site_fract_x
_atom_site_fract_y
_atom_site_fract_z
Si Si1 0.847415 0.924495 0.751903
Si Si2 0.646296 0.917265 0.395887
Si Si3 0.847420 0.075505 0.942936
Si Si4 0.353696 0.582735 0.103283
Si Si5 0.500002 0.925395 0.900023
O O1 0.827778 0.750000 0.744534
O O2 0.755468 0.985229 0.575684
O O3 0.999997 0.966931 0.881115
O O4 0.800074 1.000000 0.800076
O O5 0.687968 0.750000 0.407626
O O6 0.499995 0.914243 0.299658
O O7 0.632926 0.019518 0.289423
O O8 0.827782 0.250000 0.911030
O O9 0.755478 0.014772 0.935267
O O10 0.312025 0.750000 0.031679
O O11 0.367068 0.480482 0.023561
O O12 0.500002 0.750000 0.910415
O O13 0.500000 0.000000 0.000000
#
# Coordination Sequence:
#
# PCOD8069066 Si02
#       5
#     4   4   4   4   4
#     4   9  17  29  45  65  92 124 153 181 217 259
#     4   8  16  30  45  65  90 118 148 183 221 259
#     4   9  17  29  45  65  92 124 153 181 217 259
#     4   8  16  30  45  65  90 118 148 183 221 259
#     4  10  18  30  49  70  89 112 143 182 228 270
#
# _framework density 15.498379
#
# number of rings (size 3 to 8) (size 9 to 14) (size 15 to 20)
#    1.200    2.000    0.000    1.200    0.000    2.400 
#    0.000    0.000    0.000    1.200    0.000    0.000 
#    0.000    0.000    0.000    0.000    0.000    0.000 
#
# Total GULP energy -247771.258109 kJ/mol
# GULP energy per Si atom -12388.562905 kJ/mol
# Density = 1.546310 g / cm^3
# Si number density = 15.498379 Si / 1000 Ang^3
#
#
#
# Elastic Constant Matrix: (Units=GPa)
#
#
# Indices 1 2 3 4 5 6 
#
# 1 107.4632 48.9060 71.0352 0.0000 -22.1305 0.0000
# 2 48.9060 76.6419 42.0421 0.0000 -15.1733 0.0000
# 3 71.0352 42.0421 88.7121 0.0000 -19.3033 0.0000
# 4 0.0000 0.0000 0.0000 21.8283 0.0000 -6.7045
# 5 -22.1305 -15.1733 -19.3033 0.0000 19.4557 0.0000
# 6 0.0000 0.0000 0.0000 -6.7045 0.0000 24.8596
#
#
#
# Elastic Compliance Matrix: (Units=1/GPa)
#
#
# Indices 1 2 3 4 5 6 
#
# 1 0.022352 -0.005185 -0.013759 0.000000 0.007730 0.000000
# 2 -0.005185 0.019606 -0.003948 0.000000 0.005475 0.000000
# 3 -0.013759 -0.003948 0.025615 0.000000 0.006685 0.000000
# 4 0.000000 0.000000 0.000000 0.049950 0.000000 0.013471
# 5 0.007730 0.005475 0.006685 0.000000 0.071095 0.000000
# 6 0.000000 0.000000 0.000000 0.013471 0.000000 0.043859
#
#
# Mechanical properties :
#
#
# Convention : Reuss Voigt Hill
#
# Bulk Modulus (GPa) = 45.89449 66.30931 56.10190
# Shear Modulus (GPa) = 17.51163 20.61764 19.06463
#
# Velocity S-wave (km/s) = 3.36505 3.65130 3.51109
# Velocity P-wave (km/s) = 6.69140 7.78804 7.26045
#
# Compressibility (1/GPa) = 0.02178911
#
# Stress axis : x y z
#
# Youngs Moduli (GPa) = 44.73886 51.00404 39.03909
#
# Poissons Ratio (x) = 0.26447 0.53713
# Poissons Ratio (y) = 0.23198 0.15414
# Poissons Ratio (z) = 0.61555 0.20138
#
# Static dielectric constant tensor:
#      x y z
#    x 2.872800 0.000000 0.015110 
#    y 0.000000 2.998930 0.000000 
#    z 0.015110 0.000000 2.879610 
# 
# 
# High freq. dielectric constant tensor:
#      x y z
#    x 1.578140 0.000000 -0.003180 
#    y 0.000000 1.590880 0.000000 
#    z -0.003180 0.000000 1.576700 
# 
# From -- ./inp_files/37272.got.cif
#   From: 2010.06.25/outbox.cif.g09.slc.cpg/sg11_19_cif.got.tgz:37272.got - 2010.06.27 23:14:04.
