data_PCOD8069504
_publ_section_title
;
Structure prediction by ZEFSAII (Michael W. Deem and Ramdas Pophale) SiO2 
 PCOD8069504
Probable space group: P 21/M
;
_chemical_formula_sum "Si O2"
_cell_formula_units_Z 32
_cell_length_a 20.023554
_cell_length_b 8.921041
_cell_length_c 12.311686
_cell_angle_alpha 90.000000
_cell_angle_beta 54.700943
_cell_angle_gamma 90.000000
_cell_volume 1794.909976
_symmetry_space_group_name_H-M "P 21/M"
_symmetry_group_IT_number 11
_symmetry_cell_setting 'monoclinic'
loop_
_space_group_symop_operation_xyz
x,y,z
-x,1/2+y,-z
-x,-y,-z
x,1/2-y,z
loop_
_atom_site_type_symbol
_atom_site_label
_atom_site_fract_x
_atom_site_fract_y
_atom_site_fract_z
Si Si1 0.289783 0.072126 0.357615
Si Si2 0.743179 0.074306 0.181672
Si Si3 0.965024 0.423864 0.139764
Si Si4 0.793692 0.571683 0.345960
Si Si5 0.758951 0.574528 0.826049
Si Si6 0.869609 0.922319 0.912197
Si Si7 0.368223 0.922686 0.905491
Si Si8 0.469464 0.075533 0.137973
O O1 0.291785 0.250000 0.364519
O O2 0.247588 0.008436 0.505424
O O3 0.236875 0.017069 0.302469
O O4 0.382508 0.009637 0.259348
O O5 0.747359 0.250000 0.202393
O O6 0.737608 0.985247 0.299595
O O7 0.663855 0.029473 0.183932
O O8 0.825939 0.026817 0.041852
O O9 0.946109 0.250000 0.133734
O O10 0.884310 0.505803 0.255479
O O11 0.032892 0.442233 0.171055
O O12 0.000000 0.500000 0.000000
O O13 0.799188 0.750000 0.337623
O O14 0.746563 0.750000 0.835256
O O15 0.840065 0.529980 0.818618
O O16 0.677767 0.511890 0.957643
O O17 0.844456 0.750000 0.960237
O O18 0.346083 0.750000 0.944981
O O19 0.465017 0.953351 0.826563
O O20 0.460740 0.250000 0.120170
O O21 0.500000 0.000000 0.000000
#
# Coordination Sequence:
#
# PCOD8069504 Si02
#       8
#     4   4   4   4   4   4   4   4
#     4   9  19  34  53  75 104 141 175 209 256 310
#     4  10  19  32  50  74 104 136 169 211 264 310
#     4  11  21  34  53  79 106 134 170 216 262 306
#     4  11  22  36  52  73 103 141 180 214 253 306
#     4   9  16  31  53  76 101 133 171 208 249 305
#     4   9  18  31  52  78 102 128 166 213 256 304
#     4   9  18  30  49  78 107 131 163 215 267 305
#     4  10  18  32  53  79 106 134 172 215 258 306
#
# _framework density 17.828191
#
# number of rings (size 3 to 8) (size 9 to 14) (size 15 to 20)
#    0.000    2.250    2.500    1.125    0.000    1.000 
#    0.000    3.750    0.000    0.000    0.000    0.000 
#    0.000    0.000    0.000    0.000    0.000    0.000 
#
# Total GULP energy -396679.375798 kJ/mol
# GULP energy per Si atom -12396.230494 kJ/mol
# Density = 1.778761 g / cm^3
# Si number density = 17.828191 Si / 1000 Ang^3
#
#
#
# Elastic Constant Matrix: (Units=GPa)
#
#
# Indices 1 2 3 4 5 6 
#
# 1 137.3246 34.0410 79.0702 0.0000 11.9942 0.0000
# 2 34.0410 53.5527 37.0214 0.0000 4.1882 0.0000
# 3 79.0702 37.0214 138.3065 0.0000 11.4417 0.0000
# 4 0.0000 0.0000 0.0000 17.9211 0.0000 -1.1823
# 5 11.9942 4.1882 11.4417 0.0000 29.3999 0.0000
# 6 0.0000 0.0000 0.0000 -1.1823 0.0000 21.9285
#
#
#
# Elastic Compliance Matrix: (Units=1/GPa)
#
#
# Indices 1 2 3 4 5 6 
#
# 1 0.011442 -0.003322 -0.005481 0.000000 -0.002061 0.000000
# 2 -0.003322 0.023901 -0.004473 0.000000 -0.000309 0.000000
# 3 -0.005481 -0.004473 0.011700 0.000000 -0.001680 0.000000
# 4 0.000000 0.000000 0.000000 0.055999 0.000000 0.003019
# 5 -0.002061 -0.000309 -0.001680 0.000000 0.035553 0.000000
# 6 0.000000 0.000000 0.000000 0.003019 0.000000 0.045765
#
#
# Mechanical properties :
#
#
# Convention : Reuss Voigt Hill
#
# Bulk Modulus (GPa) = 48.80418 69.93878 59.37148
# Shear Modulus (GPa) = 22.96272 25.78666 24.37469
#
# Velocity S-wave (km/s) = 3.59277 3.80728 3.70158
# Velocity P-wave (km/s) = 6.68167 7.65778 7.18632
#
# Compressibility (1/GPa) = 0.02049005
#
# Stress axis : x y z
#
# Youngs Moduli (GPa) = 87.39872 41.83858 85.46764
#
# Poissons Ratio (x) = 0.13901 0.46849
# Poissons Ratio (y) = 0.29038 0.38228
# Poissons Ratio (z) = 0.47907 0.18714
#
# Static dielectric constant tensor:
#      x y z
#    x 3.880740 0.000000 0.142280 
#    y 0.000000 3.257100 0.000000 
#    z 0.142280 0.000000 3.234620 
# 
# 
# High freq. dielectric constant tensor:
#      x y z
#    x 1.712420 0.000000 0.009940 
#    y 0.000000 1.681990 0.000000 
#    z 0.009940 0.000000 1.655380 
# 
# From -- ./inp_files/40690.got.cif
#   From: 2010.06.25/outbox.cif.g09.slc.cpg/sg11_21_cif.got.tgz:40690.got - 2010.06.27 23:14:04.
