data_PCOD8069809
_publ_section_title
;
Structure prediction by ZEFSAII (Michael W. Deem and Ramdas Pophale) SiO2 
 PCOD8069809
Probable space group: P 21/M
;
_chemical_formula_sum "Si O2"
_cell_formula_units_Z 28
_cell_length_a 23.183370
_cell_length_b 8.814408
_cell_length_c 7.580590
_cell_angle_alpha 90.000000
_cell_angle_beta 89.997219
_cell_angle_gamma 90.000000
_cell_volume 1549.075993
_symmetry_space_group_name_H-M "P 21/M"
_symmetry_group_IT_number 11
_symmetry_cell_setting 'monoclinic'
loop_
_space_group_symop_operation_xyz
x,y,z
-x,1/2+y,-z
-x,-y,-z
x,1/2-y,z
loop_
_atom_site_type_symbol
_atom_site_label
_atom_site_fract_x
_atom_site_fract_y
_atom_site_fract_z
Si Si1 0.059539 0.928091 0.198915
Si Si2 0.341704 0.578397 0.805727
Si Si3 0.059558 0.928055 0.801340
Si Si4 0.562793 0.930178 0.999998
Si Si5 0.270385 0.071194 0.499906
Si Si6 0.341634 0.578395 0.194025
Si Si7 0.853582 0.428794 0.499981
O O1 0.050818 0.750000 0.208338
O O2 0.111047 0.978595 0.326778
O O3 0.074514 0.982315 0.000126
O O4 0.999944 0.999845 0.265542
O O5 0.352867 0.750000 0.738756
O O6 0.300452 0.491950 0.673686
O O7 0.403118 0.490422 0.825295
O O8 0.311527 0.580759 0.999832
O O9 0.050638 0.750000 0.792185
O O10 0.111157 0.978173 0.673629
O O11 0.559581 0.750000 0.999857
O O12 0.596909 0.990598 0.825413
O O13 0.500000 0.000000 0.000000
O O14 0.275455 0.250000 0.500107
O O15 0.300367 0.008302 0.325839
O O16 0.204502 0.022793 0.500004
O O17 0.352695 0.750000 0.261162
O O18 0.839653 0.250000 0.500301
#
# Coordination Sequence:
#
# PCOD8069809 Si02
#       7
#     4   4   4   4   4   4   4
#     4   9  18  33  53  76 102 134 173 222 278 332
#     4   9  20  38  60  82 111 152 191 231 282 336
#     4   9  18  33  53  76 102 134 173 222 278 332
#     4  10  18  34  60  90 120 150 189 232 281 334
#     4  12  24  37  56  83 115 150 191 240 288 338
#     4   9  20  38  60  82 111 152 191 231 282 336
#     4  10  21  35  51  73 105 142 183 224 269 336
#
# _framework density 18.075292000000001
#
# number of rings (size 3 to 8) (size 9 to 14) (size 15 to 20)
#    0.857    1.429    0.000    3.429    0.000    2.286 
#    0.000    3.571    0.000    0.000    0.000    0.000 
#    0.000    0.000    0.000    0.000    0.000    0.000 
#
# Total GULP energy -347068.268295 kJ/mol
# GULP energy per Si atom -12395.295296 kJ/mol
# Density = 1.803415 g / cm^3
# Si number density = 18.075292 Si / 1000 Ang^3
#
#
#
# Elastic Constant Matrix: (Units=GPa)
#
#
# Indices 1 2 3 4 5 6 
#
# 1 150.6917 75.7235 70.5903 0.0000 0.0439 0.0000
# 2 75.7235 137.1168 51.9419 0.0000 0.0688 0.0000
# 3 70.5903 51.9419 101.1474 0.0000 0.0278 0.0000
# 4 0.0000 0.0000 0.0000 24.7645 0.0000 0.0157
# 5 0.0439 0.0688 0.0278 0.0000 30.0702 0.0000
# 6 0.0000 0.0000 0.0000 0.0157 0.0000 37.0988
#
#
#
# Elastic Compliance Matrix: (Units=1/GPa)
#
#
# Indices 1 2 3 4 5 6 
#
# 1 0.011452 -0.004093 -0.005891 0.000000 -0.000002 0.000000
# 2 -0.004093 0.010517 -0.002544 0.000000 -0.000016 0.000000
# 3 -0.005891 -0.002544 0.015304 0.000000 0.000000 0.000000
# 4 0.000000 0.000000 0.000000 0.040380 0.000000 -0.000017
# 5 -0.000002 -0.000016 0.000000 0.000000 0.033256 0.000000
# 6 0.000000 0.000000 0.000000 -0.000017 0.000000 0.026955
#
#
# Mechanical properties :
#
#
# Convention : Reuss Voigt Hill
#
# Bulk Modulus (GPa) = 81.84862 87.27415 84.56138
# Shear Modulus (GPa) = 29.94128 31.10004 30.52066
#
# Velocity S-wave (km/s) = 4.07440 4.15249 4.11363
# Velocity P-wave (km/s) = 8.21673 8.44863 8.33349
#
# Compressibility (1/GPa) = 0.01221768
#
# Stress axis : x y z
#
# Youngs Moduli (GPa) = 87.31888 95.08090 65.34182
#
# Poissons Ratio (x) = 0.38918 0.38490
# Poissons Ratio (y) = 0.35741 0.16625
# Poissons Ratio (z) = 0.51436 0.24192
#
# Static dielectric constant tensor:
#      x y z
#    x 3.219140 0.000000 0.000580 
#    y 0.000000 2.699220 0.000000 
#    z 0.000580 0.000000 3.498130 
# 
# 
# High freq. dielectric constant tensor:
#      x y z
#    x 1.690710 0.000000 0.000010 
#    y 0.000000 1.707180 0.000000 
#    z 0.000010 0.000000 1.698280 
# 
# From -- ./inp_files/25569.got.cif
#   From: 2010.06.25/outbox.cif.g09.slc.cpg/sg11_13_cif.got.tgz:25569.got - 2010.06.27 23:14:04.
