data_PCOD8069150
_publ_section_title
;
Structure prediction by ZEFSAII (Michael W. Deem and Ramdas Pophale) SiO2 
 PCOD8069150
Probable space group: P 21/M
;
_chemical_formula_sum "Si O2"
_cell_formula_units_Z 32
_cell_length_a 27.926358
_cell_length_b 8.874169
_cell_length_c 19.792996
_cell_angle_alpha 90.000000
_cell_angle_beta 158.808449
_cell_angle_gamma 90.000000
_cell_volume 1773.153430
_symmetry_space_group_name_H-M "P 21/M"
_symmetry_group_IT_number 11
_symmetry_cell_setting 'monoclinic'
loop_
_space_group_symop_operation_xyz
x,y,z
-x,1/2+y,-z
-x,-y,-z
x,1/2-y,z
loop_
_atom_site_type_symbol
_atom_site_label
_atom_site_fract_x
_atom_site_fract_y
_atom_site_fract_z
Si Si1 0.028924 0.427849 0.311091
Si Si2 0.190074 0.425997 0.781377
Si Si3 0.578705 0.924020 0.814382
Si Si4 0.218133 0.570899 0.182862
Si Si5 0.689113 0.571564 0.560718
Si Si6 0.078007 0.072869 0.226666
Si Si7 0.090375 0.574162 0.523774
Si Si8 0.243722 0.074750 0.078130
O O1 0.008308 0.250000 0.289906
O O2 0.100298 0.471377 0.334379
O O3 0.118728 0.489420 0.490418
O O4 0.886280 0.505839 0.127163
O O5 0.192417 0.250000 0.767952
O O6 0.194249 0.516110 0.716337
O O7 0.057941 0.468053 0.648522
O O8 0.315239 0.476387 0.990249
O O9 0.541075 0.750000 0.775594
O O10 0.635405 0.949391 0.814044
O O11 0.449829 0.026205 0.655375
O O12 0.228898 0.750000 0.196819
O O13 0.300930 0.504394 0.353233
O O14 0.281541 0.509284 0.197099
O O15 0.065578 0.514192 0.987054
O O16 0.698397 0.750000 0.580302
O O17 0.805825 0.504023 0.666677
O O18 0.081027 0.250000 0.222454
O O19 0.110846 0.750000 0.539438
O O20 0.217606 0.250000 0.057929
#
# Coordination Sequence:
#
# PCOD8069150 Si02
#       8
#     4   4   4   4   4   4   4   4
#     4  10  18  31  53  79 107 137 168 209 261 310
#     4   9  18  33  50  73 106 141 169 205 253 304
#     4  10  21  37  53  72 106 142 172 208 254 309
#     4  10  20  36  56  78 103 132 169 215 265 312
#     4  11  22  36  54  76 101 135 177 216 256 303
#     4   8  18  35  54  77 103 131 170 218 261 302
#     4  10  18  30  50  80 109 135 169 210 253 302
#     4  10  19  34  53  76 105 136 170 213 259 304
#
# _framework density 18.046944
#
# number of rings (size 3 to 8) (size 9 to 14) (size 15 to 20)
#    0.000    2.250    1.250    3.000    0.000    2.500 
#    0.000    6.875    0.000    0.750    0.000    0.000 
#    0.000    0.000    0.000    0.000    0.000    0.000 
#
# Total GULP energy -396838.646879 kJ/mol
# GULP energy per Si atom -12401.207715 kJ/mol
# Density = 1.800587 g / cm^3
# Si number density = 18.046944 Si / 1000 Ang^3
#
#
#
# Elastic Constant Matrix: (Units=GPa)
#
#
# Indices 1 2 3 4 5 6 
#
# 1 63.3725 29.7894 43.8152 0.0000 -18.3674 0.0000
# 2 29.7894 72.5722 34.7669 0.0000 -7.0747 0.0000
# 3 43.8152 34.7669 93.8194 0.0000 -17.0037 0.0000
# 4 0.0000 0.0000 0.0000 30.2712 0.0000 -6.9411
# 5 -18.3674 -7.0747 -17.0037 0.0000 27.5575 0.0000
# 6 0.0000 0.0000 0.0000 -6.9411 0.0000 25.9903
#
#
#
# Elastic Compliance Matrix: (Units=1/GPa)
#
#
# Indices 1 2 3 4 5 6 
#
# 1 0.028139 -0.006236 -0.008694 0.000000 0.011790 0.000000
# 2 -0.006236 0.018143 -0.004188 0.000000 -0.002083 0.000000
# 3 -0.008694 -0.004188 0.016918 0.000000 0.003569 0.000000
# 4 0.000000 0.000000 0.000000 0.035190 0.000000 0.009398
# 5 0.011790 -0.002083 0.003569 0.000000 0.045813 0.000000
# 6 0.000000 0.000000 0.000000 0.009398 0.000000 0.040986
#
#
# Mechanical properties :
#
#
# Convention : Reuss Voigt Hill
#
# Bulk Modulus (GPa) = 40.05932 49.61191 44.83562
# Shear Modulus (GPa) = 21.57540 24.85663 23.21601
#
# Velocity S-wave (km/s) = 3.46137 3.71527 3.59057
# Velocity P-wave (km/s) = 6.18226 6.77897 6.48748
#
# Compressibility (1/GPa) = 0.02496298
#
# Stress axis : x y z
#
# Youngs Moduli (GPa) = 35.53791 55.11872 59.10962
#
# Poissons Ratio (x) = 0.34374 0.51387
# Poissons Ratio (y) = 0.22163 0.24757
# Poissons Ratio (z) = 0.30895 0.23085
#
# Static dielectric constant tensor:
#      x y z
#    x 3.463560 0.000000 -0.121880 
#    y 0.000000 3.248660 0.000000 
#    z -0.121880 0.000000 3.228640 
# 
# 
# High freq. dielectric constant tensor:
#      x y z
#    x 1.695950 0.000000 -0.020700 
#    y 0.000000 1.698390 0.000000 
#    z -0.020700 0.000000 1.679800 
# 
# From -- ./inp_files/64334.got.cif
#   From: 2010.06.25/outbox.cif.g09.slc.cpg/sg11_33_cif.got.tgz:64334.got - 2010.06.27 23:14:04.
