data_PCOD8069982
_publ_section_title
;
Structure prediction by ZEFSAII (Michael W. Deem and Ramdas Pophale) SiO2 
 PCOD8069982
Probable space group: P 21/M
;
_chemical_formula_sum "Si O2"
_cell_formula_units_Z 32
_cell_length_a 22.065571
_cell_length_b 8.961234
_cell_length_c 16.121037
_cell_angle_alpha 90.000000
_cell_angle_beta 140.878769
_cell_angle_gamma 90.000000
_cell_volume 2011.314952
_symmetry_space_group_name_H-M "P 21/M"
_symmetry_group_IT_number 11
_symmetry_cell_setting 'monoclinic'
loop_
_space_group_symop_operation_xyz
x,y,z
-x,1/2+y,-z
-x,-y,-z
x,1/2-y,z
loop_
_atom_site_type_symbol
_atom_site_label
_atom_site_fract_x
_atom_site_fract_y
_atom_site_fract_z
Si Si1 0.574283 0.584623 0.470298
Si Si2 0.309359 0.926363 0.082100
Si Si3 0.504878 0.072429 0.239419
Si Si4 0.638494 0.085638 0.685567
Si Si5 0.430065 0.072941 0.859644
Si Si6 0.216714 0.423325 0.686115
Si Si7 0.837398 0.578535 0.185230
Si Si8 0.037227 0.921903 0.458027
O O1 0.607714 0.750000 0.478020
O O2 0.569722 0.475693 0.386585
O O3 0.471445 0.593800 0.403523
O O4 0.650360 0.522309 0.618891
O O5 0.329102 0.750000 0.094654
O O6 0.300998 0.971600 0.170547
O O7 0.396291 0.013918 0.131121
O O8 0.210449 0.972269 0.933743
O O9 0.503599 0.250000 0.230173
O O10 0.552765 0.999366 0.210715
O O11 0.673672 0.250000 0.696033
O O12 0.446682 0.250000 0.874283
O O13 0.322680 0.030532 0.772111
O O14 0.500000 0.000000 0.000000
O O15 0.197227 0.250000 0.654105
O O16 0.200554 0.470648 0.764481
O O17 0.140133 0.506083 0.543950
O O18 0.808615 0.750000 0.137613
O O19 0.953164 0.557291 0.300025
O O20 0.053743 0.750000 0.495180
O O21 0.000000 0.000000 0.500000
#
# Coordination Sequence:
#
# PCOD8069982 Si02
#       8
#     4   4   4   4   4   4   4   4
#     4   9  16  27  43  61  81 109 146 182 216 257
#     4  10  19  29  43  64  89 118 150 182 217 261
#     4  11  21  32  45  61  86 120 153 186 221 256
#     4   8  15  26  39  59  85 111 141 176 216 260
#     4  11  22  35  49  66  89 117 151 188 222 258
#     4   9  19  33  47  63  85 113 146 185 223 257
#     4   9  17  29  44  65  90 114 142 177 220 265
#     4   9  17  29  46  65  85 110 142 179 218 262
#
# _framework density 15.909990000000001
#
# number of rings (size 3 to 8) (size 9 to 14) (size 15 to 20)
#    0.000    2.500    0.000    4.875    0.000    8.000 
#    0.000    0.000    0.000    0.000    0.000    0.000 
#    0.000    1.000    0.000    3.250    0.000    5.000 
#
# Total GULP energy -396652.013705 kJ/mol
# GULP energy per Si atom -12395.375428 kJ/mol
# Density = 1.587378 g / cm^3
# Si number density = 15.909990 Si / 1000 Ang^3
#
#
#
# Elastic Constant Matrix: (Units=GPa)
#
#
# Indices 1 2 3 4 5 6 
#
# 1 50.8037 37.1511 51.9865 0.0000 1.0231 0.0000
# 2 37.1511 93.6685 59.9249 0.0000 4.1289 0.0000
# 3 51.9865 59.9249 123.8372 0.0000 -0.5541 0.0000
# 4 0.0000 0.0000 0.0000 30.8993 0.0000 -1.4380
# 5 1.0231 4.1289 -0.5541 0.0000 19.7832 0.0000
# 6 0.0000 0.0000 0.0000 -1.4380 0.0000 20.9071
#
#
#
# Elastic Compliance Matrix: (Units=1/GPa)
#
#
# Indices 1 2 3 4 5 6 
#
# 1 0.037390 -0.006877 -0.012372 0.000000 -0.000845 0.000000
# 2 -0.006877 0.016965 -0.005337 0.000000 -0.003335 0.000000
# 3 -0.012372 -0.005337 0.015861 0.000000 0.002198 0.000000
# 4 0.000000 0.000000 0.000000 0.032467 0.000000 0.002233
# 5 -0.000845 -0.003335 0.002198 0.000000 0.051349 0.000000
# 6 0.000000 0.000000 0.000000 0.002233 0.000000 0.047984
#
#
# Mechanical properties :
#
#
# Convention : Reuss Voigt Hill
#
# Bulk Modulus (GPa) = 47.52143 62.93716 55.22929
# Shear Modulus (GPa) = 19.36448 22.26770 20.81609
#
# Velocity S-wave (km/s) = 3.49252 3.74519 3.62106
# Velocity P-wave (km/s) = 6.79686 7.63846 7.22992
#
# Compressibility (1/GPa) = 0.02104314
#
# Stress axis : x y z
#
# Youngs Moduli (GPa) = 26.74525 58.94399 63.04624
#
# Poissons Ratio (x) = 0.40538 0.78000
# Poissons Ratio (y) = 0.18394 0.33650
# Poissons Ratio (z) = 0.33089 0.31460
#
# Static dielectric constant tensor:
#      x y z
#    x 2.931750 0.000000 -0.105680 
#    y 0.000000 3.259040 0.000000 
#    z -0.105680 0.000000 3.314450 
# 
# 
# High freq. dielectric constant tensor:
#      x y z
#    x 1.558970 0.000000 -0.010600 
#    y 0.000000 1.626120 0.000000 
#    z -0.010600 0.000000 1.612430 
# 
# From -- ./inp_files/54317.got.cif
#   From: 2010.06.25/outbox.cif.g09.slc.cpg/sg11_28_cif.got.tgz:54317.got - 2010.06.27 23:14:04.
