data_PCOD8069361
_publ_section_title
;
Structure prediction by ZEFSAII (Michael W. Deem and Ramdas Pophale) SiO2 
 PCOD8069361
Probable space group: P 21/M
;
_chemical_formula_sum "Si O2"
_cell_formula_units_Z 32
_cell_length_a 14.727385
_cell_length_b 9.292910
_cell_length_c 30.324191
_cell_angle_alpha 90.000000
_cell_angle_beta 154.919609
_cell_angle_gamma 90.000000
_cell_volume 1759.216249
_symmetry_space_group_name_H-M "P 21/M"
_symmetry_group_IT_number 11
_symmetry_cell_setting 'monoclinic'
loop_
_space_group_symop_operation_xyz
x,y,z
-x,1/2+y,-z
-x,-y,-z
x,1/2-y,z
loop_
_atom_site_type_symbol
_atom_site_label
_atom_site_fract_x
_atom_site_fract_y
_atom_site_fract_z
Si Si1 0.240418 0.921627 0.308396
Si Si2 0.989133 0.420816 0.449455
Si Si3 0.719028 0.919638 0.501719
Si Si4 0.124573 0.078783 0.918211
Si Si5 0.941473 0.920364 0.689760
Si Si6 0.592629 0.079307 0.124290
Si Si7 0.880462 0.587272 0.984272
Si Si8 0.603330 0.413091 0.225183
O O1 0.228659 0.750000 0.308155
O O2 0.474426 0.975710 0.396057
O O3 0.064155 0.980215 0.195954
O O4 0.197554 0.993035 0.336474
O O5 0.995077 0.250000 0.459980
O O6 0.176698 0.471788 0.498381
O O7 0.000000 0.500000 0.500000
O O8 0.766633 0.481408 0.331617
O O9 0.717136 0.750000 0.501844
O O10 0.859718 0.971242 0.605590
O O11 0.120092 0.250000 0.917383
O O12 0.089223 0.023007 0.952904
O O13 0.360110 0.026401 0.003235
O O14 0.908486 0.750000 0.681873
O O15 0.193192 0.963949 0.808284
O O16 0.579243 0.250000 0.122844
O O17 0.617653 0.010342 0.183953
O O18 0.966332 0.750000 0.021308
O O19 0.635071 0.579506 0.861124
O O20 0.000000 0.500000 0.000000
O O21 0.682782 0.250000 0.253362
#
# Coordination Sequence:
#
# PCOD8069361 Si02
#       8
#     4   4   4   4   4   4   4   4
#     4  10  20  33  48  71 103 133 157 193 247 299
#     4  10  19  33  52  75  98 126 165 206 247 290
#     4   9  18  33  52  70  95 132 168 196 233 293
#     4   8  16  30  47  68  96 128 160 193 237 292
#     4  10  18  31  53  75  91 122 171 208 234 277
#     4   8  13  26  50  71  87 119 166 201 223 272
#     4   9  17  30  50  73  94 124 164 201 239 288
#     4   8  14  28  49  68  90 124 164 198 229 282
#
# _framework density 18.189917999999999
#
# number of rings (size 3 to 8) (size 9 to 14) (size 15 to 20)
#    0.000    3.000    1.250    1.875    0.000    1.500 
#    0.000    3.750    0.000    3.000    0.000    0.000 
#    0.000    0.000    0.000    0.000    0.000    0.000 
#
# Total GULP energy -396439.439921 kJ/mol
# GULP energy per Si atom -12388.732498 kJ/mol
# Density = 1.814852 g / cm^3
# Si number density = 18.189918 Si / 1000 Ang^3
#
#
#
# Elastic Constant Matrix: (Units=GPa)
#
#
# Indices 1 2 3 4 5 6 
#
# 1 128.4306 28.8674 60.3886 0.0000 5.0783 0.0000
# 2 28.8674 23.3042 17.4029 0.0000 3.0578 0.0000
# 3 60.3886 17.4029 133.3064 0.0000 6.9064 0.0000
# 4 0.0000 0.0000 0.0000 13.5159 0.0000 -2.2614
# 5 5.0783 3.0578 6.9064 0.0000 25.4242 0.0000
# 6 0.0000 0.0000 0.0000 -2.2614 0.0000 28.8843
#
#
#
# Elastic Compliance Matrix: (Units=1/GPa)
#
#
# Indices 1 2 3 4 5 6 
#
# 1 0.012479 -0.012460 -0.004031 0.000000 0.000101 0.000000
# 2 -0.012460 0.060411 -0.002023 0.000000 -0.004227 0.000000
# 3 -0.004031 -0.002023 0.009674 0.000000 -0.001579 0.000000
# 4 0.000000 0.000000 0.000000 0.074969 0.000000 0.005869
# 5 0.000101 -0.004227 -0.001579 0.000000 0.040250 0.000000
# 6 0.000000 0.000000 0.000000 0.005869 0.000000 0.035080
#
#
# Mechanical properties :
#
#
# Convention : Reuss Voigt Hill
#
# Bulk Modulus (GPa) = 21.96163 55.37323 38.66743
# Shear Modulus (GPa) = 17.53957 25.45703 21.49830
#
# Velocity S-wave (km/s) = 3.10860 3.74507 3.44158
# Velocity P-wave (km/s) = 4.99843 7.01488 6.09068
#
# Compressibility (1/GPa) = 0.04553395
#
# Stress axis : x y z
#
# Youngs Moduli (GPa) = 80.13699 16.55328 103.37299
#
# Poissons Ratio (x) = 0.20626 0.41675
# Poissons Ratio (y) = 0.99853 0.20911
# Poissons Ratio (z) = 0.32307 0.03349
#
# Static dielectric constant tensor:
#      x y z
#    x 3.363850 0.000000 0.169530 
#    y 0.000000 2.758240 0.000000 
#    z 0.169530 0.000000 3.982640 
# 
# 
# High freq. dielectric constant tensor:
#      x y z
#    x 1.705370 0.000000 0.009410 
#    y 0.000000 1.641690 0.000000 
#    z 0.009410 0.000000 1.720960 
# 
# From -- ./inp_files/41231.got.cif
#   From: 2010.06.25/outbox.cif.g09.slc.cpg/sg11_21_cif.got.tgz:41231.got - 2010.06.27 23:14:04.
