data_PCOD8069098
_publ_section_title
;
Structure prediction by ZEFSAII (Michael W. Deem and Ramdas Pophale) SiO2 
 PCOD8069098
Probable space group: P 21/M
;
_chemical_formula_sum "Si O2"
_cell_formula_units_Z 28
_cell_length_a 29.083391
_cell_length_b 8.976705
_cell_length_c 20.665010
_cell_angle_alpha 90.000000
_cell_angle_beta 160.474122
_cell_angle_gamma 90.000000
_cell_volume 1803.210344
_symmetry_space_group_name_H-M "P 21/M"
_symmetry_group_IT_number 11
_symmetry_cell_setting 'monoclinic'
loop_
_space_group_symop_operation_xyz
x,y,z
-x,1/2+y,-z
-x,-y,-z
x,1/2-y,z
loop_
_atom_site_type_symbol
_atom_site_label
_atom_site_fract_x
_atom_site_fract_y
_atom_site_fract_z
Si Si1 0.416125 0.076170 0.832005
Si Si2 0.835777 0.417325 0.045925
Si Si3 0.604731 0.075366 0.964112
Si Si4 0.414193 0.074887 0.330016
Si Si5 0.881343 0.926732 0.527249
Si Si6 0.413396 0.915925 0.204221
Si Si7 0.876326 0.926693 0.373856
O O1 0.420460 0.250000 0.853191
O O2 0.479729 0.038602 0.846667
O O3 0.258177 0.019455 0.622495
O O4 0.500000 0.000000 0.000000
O O5 0.848530 0.250000 0.033861
O O6 0.985886 0.489897 0.257886
O O7 0.745412 0.518814 0.876796
O O8 0.752649 0.411325 0.004222
O O9 0.644640 0.250000 0.018691
O O10 0.556138 0.027149 0.827803
O O11 0.733696 0.976471 0.153782
O O12 0.421613 0.250000 0.347437
O O13 0.500000 0.000000 0.500000
O O14 0.478531 0.024465 0.345548
O O15 0.894722 0.750000 0.544149
O O16 0.880442 0.986160 0.452812
O O17 0.475462 0.750000 0.295992
O O18 0.888353 0.750000 0.385605
O O19 0.000000 0.000000 0.500000
#
# Coordination Sequence:
#
# PCOD8069098 Si02
#       7
#     4   4   4   4   4   4   4
#     4  10  19  32  49  67  89 126 172 211 243 281
#     4   8  15  29  47  65  93 126 154 186 231 281
#     4  10  19  32  48  67  93 127 166 205 242 282
#     4  10  18  30  49  75 100 122 148 179 228 289
#     4   9  17  31  47  64  91 127 163 200 243 282
#     4   8  16  30  46  66  95 125 153 187 233 280
#     4  11  21  31  45  65  91 126 164 203 247 290
#
# _framework density 15.527861
#
# number of rings (size 3 to 8) (size 9 to 14) (size 15 to 20)
#    0.857    1.714    1.429    2.143    0.000    2.857 
#    0.000    1.429    0.000    0.000    0.000    1.000 
#    0.000    0.000    0.000    0.000    0.000    0.000 
#
# Total GULP energy -346942.777991 kJ/mol
# GULP energy per Si atom -12390.813500 kJ/mol
# Density = 1.549252 g / cm^3
# Si number density = 15.527861 Si / 1000 Ang^3
#
#
#
# Elastic Constant Matrix: (Units=GPa)
#
#
# Indices 1 2 3 4 5 6 
#
# 1 97.4269 40.5719 75.9974 0.0000 0.4465 0.0000
# 2 40.5719 72.1178 45.3168 0.0000 -8.2558 0.0000
# 3 75.9974 45.3168 106.4131 0.0000 -11.5777 0.0000
# 4 0.0000 0.0000 0.0000 23.9918 0.0000 -3.9511
# 5 0.4465 -8.2558 -11.5777 0.0000 27.6226 0.0000
# 6 0.0000 0.0000 0.0000 -3.9511 0.0000 19.0629
#
#
#
# Elastic Compliance Matrix: (Units=1/GPa)
#
#
# Indices 1 2 3 4 5 6 
#
# 1 0.025895 -0.004599 -0.017529 0.000000 -0.009140 0.000000
# 2 -0.004599 0.019901 -0.004752 0.000000 0.004031 0.000000
# 3 -0.017529 -0.004752 0.024954 0.000000 0.009322 0.000000
# 4 0.000000 0.000000 0.000000 0.043154 0.000000 0.008944
# 5 -0.009140 0.004031 0.009322 0.000000 0.041462 0.000000
# 6 0.000000 0.000000 0.000000 0.008944 0.000000 0.054312
#
#
# Mechanical properties :
#
#
# Convention : Reuss Voigt Hill
#
# Bulk Modulus (GPa) = 58.86048 66.63667 62.74857
# Shear Modulus (GPa) = 18.58034 21.74025 20.16030
#
# Velocity S-wave (km/s) = 3.46292 3.74582 3.60714
# Velocity P-wave (km/s) = 7.34695 7.85593 7.60570
#
# Compressibility (1/GPa) = 0.01698933
#
# Stress axis : x y z
#
# Youngs Moduli (GPa) = 38.61758 50.24884 40.07363
#
# Poissons Ratio (x) = 0.23111 0.70246
# Poissons Ratio (y) = 0.17762 0.19042
# Poissons Ratio (z) = 0.67694 0.23877
#
# Static dielectric constant tensor:
#      x y z
#    x 2.980580 0.000000 0.070080 
#    y 0.000000 3.103170 0.000000 
#    z 0.070080 0.000000 2.797200 
# 
# 
# High freq. dielectric constant tensor:
#      x y z
#    x 1.579470 0.000000 -0.000480 
#    y 0.000000 1.585950 0.000000 
#    z -0.000480 0.000000 1.580400 
# 
# From -- ./inp_files/67378.got.cif
#   From: 2010.06.25/outbox.cif.g09.slc.cpg/sg11_34_cif.got.tgz:67378.got - 2010.06.27 23:14:04.
