data_PCOD8069927
_publ_section_title
;
Structure prediction by ZEFSAII (Michael W. Deem and Ramdas Pophale) SiO2 
 PCOD8069927
Probable space group: P 21/M
;
_chemical_formula_sum "Si O2"
_cell_formula_units_Z 32
_cell_length_a 13.518125
_cell_length_b 9.550684
_cell_length_c 18.164463
_cell_angle_alpha 90.000000
_cell_angle_beta 110.283373
_cell_angle_gamma 90.000000
_cell_volume 2199.740792
_symmetry_space_group_name_H-M "P 21/M"
_symmetry_group_IT_number 11
_symmetry_cell_setting 'monoclinic'
loop_
_space_group_symop_operation_xyz
x,y,z
-x,1/2+y,-z
-x,-y,-z
x,1/2-y,z
loop_
_atom_site_type_symbol
_atom_site_label
_atom_site_fract_x
_atom_site_fract_y
_atom_site_fract_z
Si Si1 0.918255 0.413101 0.883519
Si Si2 0.113715 0.589525 0.955661
Si Si3 0.500882 0.415621 0.745420
Si Si4 0.722037 0.083428 0.739640
Si Si5 0.349979 0.594596 0.431703
Si Si6 0.415150 0.095890 0.569341
Si Si7 0.492669 0.587302 0.884468
Si Si8 0.348961 0.910058 0.984698
O O1 0.939108 0.250000 0.875401
O O2 0.827911 0.471581 0.805776
O O3 0.025976 0.494490 0.893705
O O4 0.879445 0.443756 0.955975
O O5 0.082152 0.750000 0.934169
O O6 0.225731 0.552938 0.948369
O O7 0.496554 0.250000 0.762120
O O8 0.620215 0.466613 0.759410
O O9 0.425965 0.453001 0.656762
O O10 0.457792 0.506805 0.801922
O O11 0.717668 0.250000 0.736381
O O12 0.717622 0.029256 0.653714
O O13 0.309691 0.750000 0.440729
O O14 0.470206 0.599972 0.437089
O O15 0.337680 0.503867 0.502693
O O16 0.364625 0.250000 0.553523
O O17 0.517161 0.750000 0.874887
O O18 0.396080 0.569890 0.915829
O O19 0.597043 0.514668 0.943893
O O20 0.365144 0.750000 0.016905
#
# Coordination Sequence:
#
# PCOD8069927 Si02
#       8
#     4   4   4   4   4   4   4   4
#     4   9  16  26  41  59  77  98 129 165 191 219
#     4   9  17  29  43  56  74 103 132 156 190 233
#     4   9  16  27  41  55  78 111 136 154 187 235
#     4   8  14  25  40  56  76 107 138 157 186 234
#     4   8  13  22  36  52  72 100 132 160 184 218
#     4   8  14  23  35  52  74 102 132 156 183 223
#     4  10  19  28  41  62  80  96 129 170 195 219
#     4   9  18  32  45  55  75 107 132 154 194 241
#
# _framework density 14.547167999999999
#
# number of rings (size 3 to 8) (size 9 to 14) (size 15 to 20)
#    0.000    3.250    0.000    2.625    0.000    3.500 
#    0.000    5.625    0.000    0.000    0.000    0.000 
#    0.000    1.000    0.000    2.250    0.000    4.000 
#
# Total GULP energy -396656.446492 kJ/mol
# GULP energy per Si atom -12395.513953 kJ/mol
# Density = 1.451406 g / cm^3
# Si number density = 14.547168 Si / 1000 Ang^3
#
#
#
# Elastic Constant Matrix: (Units=GPa)
#
#
# Indices 1 2 3 4 5 6 
#
# 1 61.1571 30.0838 35.1924 0.0000 6.4905 0.0000
# 2 30.0838 65.3178 52.9258 0.0000 -0.7946 0.0000
# 3 35.1924 52.9258 111.8312 0.0000 4.8370 0.0000
# 4 0.0000 0.0000 0.0000 26.7633 0.0000 0.0076
# 5 6.4905 -0.7946 4.8370 0.0000 17.1674 0.0000
# 6 0.0000 0.0000 0.0000 0.0076 0.0000 18.5377
#
#
#
# Elastic Compliance Matrix: (Units=1/GPa)
#
#
# Indices 1 2 3 4 5 6 
#
# 1 0.023013 -0.008306 -0.002954 0.000000 -0.008253 0.000000
# 2 -0.008306 0.028181 -0.011050 0.000000 0.007558 0.000000
# 3 -0.002954 -0.011050 0.015261 0.000000 -0.003695 0.000000
# 4 0.000000 0.000000 0.000000 0.037365 0.000000 -0.000015
# 5 -0.008253 0.007558 -0.003695 0.000000 0.062761 0.000000
# 6 0.000000 0.000000 0.000000 -0.000015 0.000000 0.053944
#
#
# Mechanical properties :
#
#
# Convention : Reuss Voigt Hill
#
# Bulk Modulus (GPa) = 45.79891 52.74556 49.27223
# Shear Modulus (GPa) = 18.35381 20.50061 19.42721
#
# Velocity S-wave (km/s) = 3.55586 3.75807 3.65836
# Velocity P-wave (km/s) = 6.95775 7.42750 7.19646
#
# Compressibility (1/GPa) = 0.02183458
#
# Stress axis : x y z
#
# Youngs Moduli (GPa) = 43.45399 35.48496 65.52589
#
# Poissons Ratio (x) = 0.29473 0.19357
# Poissons Ratio (y) = 0.36092 0.72407
# Poissons Ratio (z) = 0.12837 0.39211
#
# Static dielectric constant tensor:
#      x y z
#    x 2.553170 0.000000 0.059950 
#    y 0.000000 2.879610 0.000000 
#    z 0.059950 0.000000 2.993840 
# 
# 
# High freq. dielectric constant tensor:
#      x y z
#    x 1.511350 0.000000 0.002230 
#    y 0.000000 1.550410 0.000000 
#    z 0.002230 0.000000 1.555770 
# 
# From -- ./inp_files/52926.got.cif
#   From: 2010.06.25/outbox.cif.g09.slc.cpg/sg11_27_cif.got.tgz:52926.got - 2010.06.27 23:14:04.
