data_PCOD8069350
_publ_section_title
;
Structure prediction by ZEFSAII (Michael W. Deem and Ramdas Pophale) SiO2 
 PCOD8069350
Probable space group: P 21/M
;
_chemical_formula_sum "Si O2"
_cell_formula_units_Z 28
_cell_length_a 18.247098
_cell_length_b 8.610622
_cell_length_c 20.488575
_cell_angle_alpha 90.000000
_cell_angle_beta 153.005928
_cell_angle_gamma 90.000000
_cell_volume 1461.162943
_symmetry_space_group_name_H-M "P 21/M"
_symmetry_group_IT_number 11
_symmetry_cell_setting 'monoclinic'
loop_
_space_group_symop_operation_xyz
x,y,z
-x,1/2+y,-z
-x,-y,-z
x,1/2-y,z
loop_
_atom_site_type_symbol
_atom_site_label
_atom_site_fract_x
_atom_site_fract_y
_atom_site_fract_z
Si Si1 0.505905 0.432560 0.655100
Si Si2 0.236050 0.932836 0.659978
Si Si3 0.909810 0.933742 0.334138
Si Si4 0.658629 0.565858 0.659743
Si Si5 0.872789 0.934169 0.159624
Si Si6 0.550564 0.933892 0.831311
Si Si7 0.190316 0.934202 0.338542
O O1 0.487439 0.250000 0.630511
O O2 0.657299 0.495588 0.731809
O O3 0.544085 0.473396 0.759271
O O4 0.340104 0.513788 0.501836
O O5 0.230573 0.750000 0.663842
O O6 0.400196 0.986710 0.756064
O O7 0.085924 0.992592 0.497238
O O8 0.227333 0.006435 0.725146
O O9 0.903773 0.750000 0.327590
O O10 0.876045 0.003040 0.235532
O O11 0.500000 0.500000 0.500000
O O12 0.657174 0.750000 0.662080
O O13 0.806518 0.507079 0.732119
O O14 0.879918 0.750000 0.168811
O O15 0.027291 0.996472 0.242636
O O16 0.710823 0.989338 0.995562
O O17 0.548040 0.750000 0.815486
O O18 0.193286 0.750000 0.334889
#
# Coordination Sequence:
#
# PCOD8069350 Si02
#       7
#     4   4   4   4   4   4   4
#     4  11  21  34  53  79 106 135 173 215 260 307
#     4   9  18  32  52  76 102 133 170 212 257 304
#     4   9  17  32  52  75 102 133 171 212 254 303
#     4  10  18  31  52  79 106 134 170 213 260 305
#     4   9  19  34  54  77 103 138 176 213 256 308
#     4  10  20  36  54  74 103 139 177 214 257 308
#     4  10  18  33  56  80 105 135 172 214 260 307
#
# _framework density 19.162818999999999
#
# number of rings (size 3 to 8) (size 9 to 14) (size 15 to 20)
#    0.000    2.286    0.000    5.571    0.000    3.429 
#    0.000    7.143    0.000    0.000    0.000    0.000 
#    0.000    0.000    0.000    0.000    0.000    0.000 
#
# Total GULP energy -347171.250591 kJ/mol
# GULP energy per Si atom -12398.973235 kJ/mol
# Density = 1.911920 g / cm^3
# Si number density = 19.162819 Si / 1000 Ang^3
#
#
#
# Elastic Constant Matrix: (Units=GPa)
#
#
# Indices 1 2 3 4 5 6 
#
# 1 200.2145 39.3291 78.9829 0.0000 2.7518 0.0000
# 2 39.3291 63.2272 16.7103 0.0000 -1.7087 0.0000
# 3 78.9829 16.7103 91.2264 0.0000 -0.9105 0.0000
# 4 0.0000 0.0000 0.0000 14.7655 0.0000 -2.6742
# 5 2.7518 -1.7087 -0.9105 0.0000 3.7834 0.0000
# 6 0.0000 0.0000 0.0000 -2.6742 0.0000 34.7192
#
#
#
# Elastic Compliance Matrix: (Units=1/GPa)
#
#
# Indices 1 2 3 4 5 6 
#
# 1 0.008555 -0.003780 -0.006810 0.000000 -0.009569 0.000000
# 2 -0.003780 0.018467 0.000001 0.000000 0.011090 0.000000
# 3 -0.006810 0.000001 0.016948 0.000000 0.009032 0.000000
# 4 0.000000 0.000000 0.000000 0.068684 0.000000 0.005290
# 5 -0.009569 0.011090 0.009032 0.000000 0.278452 0.000000
# 6 0.000000 0.000000 0.000000 0.005290 0.000000 0.029210
#
#
# Mechanical properties :
#
#
# Convention : Reuss Voigt Hill
#
# Bulk Modulus (GPa) = 43.87675 69.41251 56.64463
# Shear Modulus (GPa) = 11.13359 25.29666 18.21513
#
# Velocity S-wave (km/s) = 2.41301 3.63725 3.08644
# Velocity P-wave (km/s) = 5.54166 7.34442 6.50579
#
# Compressibility (1/GPa) = 0.02279111
#
# Stress axis : x y z
#
# Youngs Moduli (GPa) = 116.88684 54.15091 59.00467
#
# Poissons Ratio (x) = 0.20471 0.40183
# Poissons Ratio (y) = 0.44188 -0.00006
# Poissons Ratio (z) = 0.79601 -0.00006
#
# Static dielectric constant tensor:
#      x y z
#    x 4.155500 0.000000 0.034330 
#    y 0.000000 3.296900 0.000000 
#    z 0.034330 0.000000 3.387070 
# 
# 
# High freq. dielectric constant tensor:
#      x y z
#    x 1.770280 0.000000 -0.000120 
#    y 0.000000 1.731000 0.000000 
#    z -0.000120 0.000000 1.716450 
# 
# From -- ./inp_files/66019.got.cif
#   From: 2010.06.25/outbox.cif.g09.slc.cpg/sg11_34_cif.got.tgz:66019.got - 2010.06.27 23:14:04.
