data_PCOD8069497
_publ_section_title
;
Structure prediction by ZEFSAII (Michael W. Deem and Ramdas Pophale) SiO2 
 PCOD8069497
Probable space group: P 21/M
;
_chemical_formula_sum "Si O2"
_cell_formula_units_Z 24
_cell_length_a 9.205179
_cell_length_b 8.589326
_cell_length_c 18.898515
_cell_angle_alpha 90.000000
_cell_angle_beta 60.825773
_cell_angle_gamma 90.000000
_cell_volume 1304.678797
_symmetry_space_group_name_H-M "P 21/M"
_symmetry_group_IT_number 11
_symmetry_cell_setting 'monoclinic'
loop_
_space_group_symop_operation_xyz
x,y,z
-x,1/2+y,-z
-x,-y,-z
x,1/2-y,z
loop_
_atom_site_type_symbol
_atom_site_label
_atom_site_fract_x
_atom_site_fract_y
_atom_site_fract_z
Si Si1 0.500878 0.566534 0.828886
Si Si2 0.992545 0.435142 0.423139
Si Si3 0.348306 0.567621 0.079064
Si Si4 0.170337 0.931125 0.986167
Si Si5 0.669240 0.433454 0.660127
Si Si6 0.651388 0.934451 0.508343
O O1 0.502673 0.750000 0.816368
O O2 0.654733 0.519585 0.844648
O O3 0.327738 0.504247 0.903819
O O4 0.523045 0.480268 0.748770
O O5 0.996137 0.250000 0.420360
O O6 0.819826 0.498305 0.431580
O O7 0.000000 0.500000 0.500000
O O8 0.157280 0.503833 0.346434
O O9 0.371171 0.750000 0.087123
O O10 0.500000 0.500000 0.000000
O O11 0.188704 0.534164 0.066347
O O12 0.165848 0.750000 0.973218
O O13 0.000000 0.000000 0.000000
O O14 0.677267 0.250000 0.646873
O O15 0.632715 0.512850 0.593788
O O16 0.655142 0.750000 0.503730
O O17 0.500000 0.000000 0.500000
#
# Coordination Sequence:
#
# PCOD8069497 Si02
#       6
#     4   4   4   4   4   4
#     4  10  20  35  53  77 104 135 174 220 266 313
#     4  10  18  32  53  77 103 135 172 212 255 307
#     4   9  17  31  50  74  99 130 169 210 252 305
#     4   9  19  33  52  76 105 136 172 211 256 312
#     4  11  21  35  55  80 106 138 177 221 268 316
#     4  11  21  36  56  80 109 142 178 218 262 317
#
# _framework density 18.395332
#
# number of rings (size 3 to 8) (size 9 to 14) (size 15 to 20)
#    0.000    2.000    0.000    8.500    0.000    4.000 
#    0.000    1.667    0.000    4.000    0.000    0.000 
#    0.000    0.000    0.000    0.000    0.000    0.000 
#
# Total GULP energy -297435.435914 kJ/mol
# GULP energy per Si atom -12393.143163 kJ/mol
# Density = 1.835346 g / cm^3
# Si number density = 18.395332 Si / 1000 Ang^3
#
#
#
# Elastic Constant Matrix: (Units=GPa)
#
#
# Indices 1 2 3 4 5 6 
#
# 1 126.8118 35.2188 35.0630 0.0000 -6.2857 0.0000
# 2 35.2188 110.9732 20.4561 0.0000 -4.2744 0.0000
# 3 35.0630 20.4561 76.8748 0.0000 -1.0224 0.0000
# 4 0.0000 0.0000 0.0000 30.0310 0.0000 0.2127
# 5 -6.2857 -4.2744 -1.0224 0.0000 20.7933 0.0000
# 6 0.0000 0.0000 0.0000 0.2127 0.0000 35.7598
#
#
#
# Elastic Compliance Matrix: (Units=1/GPa)
#
#
# Indices 1 2 3 4 5 6 
#
# 1 0.009677 -0.002288 -0.003775 0.000000 0.002270 0.000000
# 2 -0.002288 0.010087 -0.001623 0.000000 0.001302 0.000000
# 3 -0.003775 -0.001623 0.015152 0.000000 -0.000730 0.000000
# 4 0.000000 0.000000 0.000000 0.033300 0.000000 -0.000198
# 5 0.002270 0.001302 -0.000730 0.000000 0.049010 0.000000
# 6 0.000000 0.000000 0.000000 -0.000198 0.000000 0.027966
#
#
# Mechanical properties :
#
#
# Convention : Reuss Voigt Hill
#
# Bulk Modulus (GPa) = 51.16632 55.12616 53.14624
# Shear Modulus (GPa) = 29.92596 32.24495 31.08546
#
# Velocity S-wave (km/s) = 4.03777 4.19129 4.11525
# Velocity P-wave (km/s) = 7.04367 7.31130 7.17873
#
# Compressibility (1/GPa) = 0.01954411
#
# Stress axis : x y z
#
# Youngs Moduli (GPa) = 103.33387 99.14087 65.99739
#
# Poissons Ratio (x) = 0.22683 0.24913
# Poissons Ratio (y) = 0.23643 0.10712
# Poissons Ratio (z) = 0.39007 0.16092
#
# Static dielectric constant tensor:
#      x y z
#    x 3.210640 0.000000 0.084040 
#    y 0.000000 4.608630 0.000000 
#    z 0.084040 0.000000 3.429070 
# 
# 
# High freq. dielectric constant tensor:
#      x y z
#    x 1.707170 0.000000 -0.000100 
#    y 0.000000 1.730230 0.000000 
#    z -0.000100 0.000000 1.693250 
# 
# From -- ./inp_files/63039.got.cif
#   From: 2010.06.25/outbox.cif.g09.slc.cpg/sg11_32_cif.got.tgz:63039.got - 2010.06.27 23:14:04.
