data_PCOD8069881
_publ_section_title
;
Structure prediction by ZEFSAII (Michael W. Deem and Ramdas Pophale) SiO2 
 PCOD8069881
Probable space group: P 21/M
;
_chemical_formula_sum "Si O2"
_cell_formula_units_Z 24
_cell_length_a 5.135361
_cell_length_b 23.961551
_cell_length_c 9.028731
_cell_angle_alpha 90.000000
_cell_angle_beta 77.709079
_cell_angle_gamma 90.000000
_cell_volume 1085.531522
_symmetry_space_group_name_H-M "P 21/M"
_symmetry_group_IT_number 11
_symmetry_cell_setting 'monoclinic'
loop_
_space_group_symop_operation_xyz
x,y,z
-x,1/2+y,-z
-x,-y,-z
x,1/2-y,z
loop_
_atom_site_type_symbol
_atom_site_label
_atom_site_fract_x
_atom_site_fract_y
_atom_site_fract_z
Si Si1 0.768852 0.425695 0.487707
Si Si2 0.671300 0.129485 0.072332
Si Si3 0.351900 0.955942 0.165820
Si Si4 0.840060 0.476853 0.185851
Si Si5 0.176443 0.250000 0.329922
Si Si6 0.253990 0.750000 0.868578
Si Si7 0.311775 0.134651 0.389623
O O1 0.689918 0.447014 0.656571
O O2 0.755729 0.476289 0.369908
O O3 0.564026 0.376519 0.465968
O O4 0.077441 0.408177 0.451455
O O5 0.880728 0.087586 0.128781
O O6 0.805013 0.191482 0.037657
O O7 0.406149 0.130882 0.206741
O O8 0.600538 0.103894 0.919631
O O9 0.600286 0.997595 0.116683
O O10 0.095967 0.985479 0.123638
O O11 0.430737 0.250000 0.192278
O O12 0.191138 0.196069 0.434221
O O13 0.905994 0.250000 0.266298
#
# Coordination Sequence:
#
# PCOD8069881 Si02
#       7
#     4   4   4   4   2   2   4
#     4  11  22  39  58  87 124 158 192 241 303 355
#     4  10  23  41  62  90 118 155 204 247 295 350
#     4  12  24  38  61  90 125 157 193 246 303 355
#     4  11  22  38  61  88 119 159 201 243 287 355
#     4  10  18  36  62  88 108 154 211 246 283 338
#     4  10  22  38  62  88 118 152 193 252 299 344
#     4  10  21  38  61  85 117 156 201 248 287 354
#
# _framework density 22.108982000000001
#
# number of rings (size 3 to 8) (size 9 to 14) (size 15 to 20)
#    0.000    1.333    0.000    8.000    0.000    6.667 
#    0.000    1.667    0.000    0.000    0.000    0.000 
#    0.000    0.000    0.000    0.000    0.000    0.000 
#
# Total GULP energy -297524.596816 kJ/mol
# GULP energy per Si atom -12396.858201 kJ/mol
# Density = 2.205866 g / cm^3
# Si number density = 22.108982 Si / 1000 Ang^3
#
#
#
# Elastic Constant Matrix: (Units=GPa)
#
#
# Indices 1 2 3 4 5 6 
#
# 1 108.6977 47.3578 29.1355 0.0000 13.7851 0.0000
# 2 47.3578 159.2577 35.1366 0.0000 8.5438 0.0000
# 3 29.1355 35.1366 68.4218 0.0000 1.1696 0.0000
# 4 0.0000 0.0000 0.0000 24.4570 0.0000 9.0345
# 5 13.7851 8.5438 1.1696 0.0000 19.9217 0.0000
# 6 0.0000 0.0000 0.0000 9.0345 0.0000 25.6117
#
#
#
# Elastic Compliance Matrix: (Units=1/GPa)
#
#
# Indices 1 2 3 4 5 6 
#
# 1 0.012180 -0.002390 -0.003836 0.000000 -0.007178 0.000000
# 2 -0.002390 0.007713 -0.002918 0.000000 -0.001483 0.000000
# 3 -0.003836 -0.002918 0.017698 0.000000 0.002867 0.000000
# 4 0.000000 0.000000 0.000000 0.047014 0.000000 -0.016584
# 5 -0.007178 -0.001483 0.002867 0.000000 0.055631 0.000000
# 6 0.000000 0.000000 0.000000 -0.016584 0.000000 0.044895
#
#
# Mechanical properties :
#
#
# Convention : Reuss Voigt Hill
#
# Bulk Modulus (GPa) = 51.80691 62.18188 56.99440
# Shear Modulus (GPa) = 23.82609 28.98122 26.40366
#
# Velocity S-wave (km/s) = 3.28634 3.62447 3.45954
# Velocity P-wave (km/s) = 6.15495 6.76032 6.46473
#
# Compressibility (1/GPa) = 0.01930244
#
# Stress axis : x y z
#
# Youngs Moduli (GPa) = 82.10302 129.64731 56.50325
#
# Poissons Ratio (x) = 0.30991 0.21676
# Poissons Ratio (y) = 0.19626 0.16486
# Poissons Ratio (z) = 0.31496 0.37828
#
# Static dielectric constant tensor:
#      x y z
#    x 3.976590 0.000000 0.074590 
#    y 0.000000 4.456340 0.000000 
#    z 0.074590 0.000000 3.851260 
# 
# 
# High freq. dielectric constant tensor:
#      x y z
#    x 1.877250 0.000000 0.008100 
#    y 0.000000 1.871140 0.000000 
#    z 0.008100 0.000000 1.852770 
# 
# From -- ./inp_files/10451.got.cif
#   From: 2010.06.25/outbox.cif.g09.slc.cpg/sg11_6_cif.got.tgz:10451.got - 2010.06.27 23:14:04.
