data_PCOD8069218
_publ_section_title
;
Structure prediction by ZEFSAII (Michael W. Deem and Ramdas Pophale) SiO2 
 PCOD8069218
Probable space group: P 21/M
;
_chemical_formula_sum "Si O2"
_cell_formula_units_Z 28
_cell_length_a 17.630283
_cell_length_b 8.912443
_cell_length_c 16.271976
_cell_angle_alpha 90.000000
_cell_angle_beta 41.242525
_cell_angle_gamma 90.000000
_cell_volume 1685.562970
_symmetry_space_group_name_H-M "P 21/M"
_symmetry_group_IT_number 11
_symmetry_cell_setting 'monoclinic'
loop_
_space_group_symop_operation_xyz
x,y,z
-x,1/2+y,-z
-x,-y,-z
x,1/2-y,z
loop_
_atom_site_type_symbol
_atom_site_label
_atom_site_fract_x
_atom_site_fract_y
_atom_site_fract_z
Si Si1 0.215950 0.423402 0.571924
Si Si2 0.414087 0.571864 0.134223
Si Si3 0.172948 0.075984 0.316560
Si Si4 0.969107 0.577357 0.405956
Si Si5 0.675085 0.081581 0.374736
Si Si6 0.439177 0.426450 0.287541
Si Si7 0.441993 0.080560 0.667650
O O1 0.228855 0.250000 0.584279
O O2 0.093831 0.458837 0.628782
O O3 0.223975 0.514767 0.650294
O O4 0.316668 0.468701 0.426883
O O5 0.422742 0.750000 0.124253
O O6 0.286241 0.522052 0.213957
O O7 0.450429 0.514664 0.193962
O O8 0.500000 0.500000 0.000000
O O9 0.204152 0.250000 0.280041
O O10 0.120604 0.042319 0.448459
O O11 0.081131 0.027041 0.321861
O O12 0.008211 0.750000 0.378777
O O13 0.708685 0.250000 0.323153
O O14 0.557148 0.075671 0.520683
O O15 0.662316 0.987138 0.301243
O O16 0.450788 0.250000 0.261577
O O17 0.541440 0.480838 0.264269
O O18 0.410525 0.250000 0.718472
#
# Coordination Sequence:
#
# PCOD8069218 Si02
#       7
#     4   4   4   4   4   4   4
#     4   9  16  27  43  63  92 124 154 189 229 277
#     4  12  24  37  52  69  92 123 160 201 242 284
#     4  10  19  33  49  69  93 121 157 197 238 280
#     4   9  17  30  47  69  95 125 157 192 234 282
#     4   9  16  24  36  58  86 118 154 189 226 270
#     4  10  18  31  47  65  89 119 155 195 235 278
#     4   9  16  26  39  58  84 118 154 187 227 276
#
# _framework density 16.611660000000001
#
# number of rings (size 3 to 8) (size 9 to 14) (size 15 to 20)
#    0.000    2.286    1.429    3.000    0.000    5.143 
#    0.000    0.000    0.000    0.000    0.000    0.000 
#    0.000    1.143    0.000    4.286    0.000    6.571 
#
# Total GULP energy -347203.091114 kJ/mol
# GULP energy per Si atom -12400.110397 kJ/mol
# Density = 1.657385 g / cm^3
# Si number density = 16.611660 Si / 1000 Ang^3
#
#
#
# Elastic Constant Matrix: (Units=GPa)
#
#
# Indices 1 2 3 4 5 6 
#
# 1 132.5245 58.7251 34.7591 0.0000 8.2660 0.0000
# 2 58.7251 114.5807 34.8084 0.0000 4.0432 0.0000
# 3 34.7591 34.8084 41.3526 0.0000 0.9848 0.0000
# 4 0.0000 0.0000 0.0000 18.3008 0.0000 2.9302
# 5 8.2660 4.0432 0.9848 0.0000 10.1180 0.0000
# 6 0.0000 0.0000 0.0000 2.9302 0.0000 36.0704
#
#
#
# Elastic Compliance Matrix: (Units=1/GPa)
#
#
# Indices 1 2 3 4 5 6 
#
# 1 0.011222 -0.003609 -0.006225 0.000000 -0.007120 0.000000
# 2 -0.003609 0.013029 -0.007898 0.000000 -0.001489 0.000000
# 3 -0.006225 -0.007898 0.035950 0.000000 0.004743 0.000000
# 4 0.000000 0.000000 0.000000 0.055363 0.000000 -0.004497
# 5 -0.007120 -0.001489 0.004743 0.000000 0.104784 0.000000
# 6 0.000000 0.000000 0.000000 -0.004497 0.000000 0.028089
#
#
# Mechanical properties :
#
#
# Convention : Reuss Voigt Hill
#
# Bulk Modulus (GPa) = 40.42614 60.56032 50.49323
# Shear Modulus (GPa) = 17.11467 23.57552 20.34509
#
# Velocity S-wave (km/s) = 3.21328 3.77133 3.50344
# Velocity P-wave (km/s) = 6.17703 7.44981 6.84307
#
# Compressibility (1/GPa) = 0.02473647
#
# Stress axis : x y z
#
# Youngs Moduli (GPa) = 89.11148 76.75104 27.81633
#
# Poissons Ratio (x) = 0.27700 0.17316
# Poissons Ratio (y) = 0.32161 0.21970
# Poissons Ratio (z) = 0.55473 0.60619
#
# Static dielectric constant tensor:
#      x y z
#    x 3.370410 0.000000 0.086900 
#    y 0.000000 3.245240 0.000000 
#    z 0.086900 0.000000 2.620780 
# 
# 
# High freq. dielectric constant tensor:
#      x y z
#    x 1.655970 0.000000 0.011620 
#    y 0.000000 1.654130 0.000000 
#    z 0.011620 0.000000 1.565030 
# 
# From -- ./inp_files/44968.got.cif
#   From: 2010.06.25/outbox.cif.g09.slc.cpg/sg11_23_cif.got.tgz:44968.got - 2010.06.27 23:14:04.
