data_PCOD8069810
_publ_section_title
;
Structure prediction by ZEFSAII (Michael W. Deem and Ramdas Pophale) SiO2 
 PCOD8069810
Probable space group: P 21/M
;
_chemical_formula_sum "Si O2"
_cell_formula_units_Z 32
_cell_length_a 10.337843
_cell_length_b 17.139497
_cell_length_c 11.684023
_cell_angle_alpha 90.000000
_cell_angle_beta 55.099248
_cell_angle_gamma 90.000000
_cell_volume 1697.894549
_symmetry_space_group_name_H-M "P 21/M"
_symmetry_group_IT_number 11
_symmetry_cell_setting 'monoclinic'
loop_
_space_group_symop_operation_xyz
x,y,z
-x,1/2+y,-z
-x,-y,-z
x,1/2-y,z
loop_
_atom_site_type_symbol
_atom_site_label
_atom_site_fract_x
_atom_site_fract_y
_atom_site_fract_z
Si Si1 0.683278 0.015411 0.407638
Si Si2 0.638444 0.158338 0.087827
Si Si3 0.152998 0.162226 0.069462
Si Si4 0.778317 0.162377 0.255114
Si Si5 0.931889 0.342362 0.799804
Si Si6 0.119346 0.437932 0.885460
Si Si7 0.097125 0.437070 0.521744
Si Si8 0.286050 0.342754 0.242424
O O1 0.711964 0.108720 0.391147
O O2 0.500000 0.000000 0.500000
O O3 0.754540 0.981365 0.255442
O O4 0.766459 0.979487 0.475937
O O5 0.624633 0.250000 0.106349
O O6 0.715173 0.127620 0.166728
O O7 0.463863 0.123293 0.158957
O O8 0.749343 0.138079 0.922850
O O9 0.216381 0.250000 0.018095
O O10 0.213426 0.128865 0.159256
O O11 0.965371 0.159429 0.160546
O O12 0.215795 0.105646 0.937775
O O13 0.717240 0.250000 0.308793
O O14 0.959902 0.250000 0.768316
O O15 0.033994 0.370648 0.855681
O O16 0.977025 0.389369 0.663054
O O17 0.000000 0.500000 0.000000
O O18 0.180671 0.376129 0.396852
O O19 0.000000 0.500000 0.500000
O O20 0.280716 0.250000 0.255903
#
# Coordination Sequence:
#
# PCOD8069810 Si02
#       8
#     4   4   4   4   4   4   4   4
#     4  11  23  39  57  85 121 150 185 241 288 336
#     4   9  17  33  58  86 110 138 186 238 280 333
#     4  10  19  34  59  87 112 144 194 240 278 336
#     4  10  18  34  61  84 109 149 197 231 276 343
#     4  10  20  37  61  85 111 148 193 237 282 343
#     4  11  20  34  61  87 114 144 191 237 287 332
#     4  11  24  39  57  80 117 153 195 231 281 346
#     4  10  21  37  58  83 115 151 188 233 287 344
#
# _framework density 18.846871
#
# number of rings (size 3 to 8) (size 9 to 14) (size 15 to 20)
#    0.000    1.750    2.500    2.250    1.750    0.000 
#    2.250    4.375    0.000    0.000    0.000    0.000 
#    0.000    0.000    0.000    0.000    0.000    0.000 
#
# Total GULP energy -396764.691867 kJ/mol
# GULP energy per Si atom -12398.896621 kJ/mol
# Density = 1.880397 g / cm^3
# Si number density = 18.846871 Si / 1000 Ang^3
#
#
#
# Elastic Constant Matrix: (Units=GPa)
#
#
# Indices 1 2 3 4 5 6 
#
# 1 127.1114 36.4450 56.5894 0.0000 8.8530 0.0000
# 2 36.4450 84.5814 38.7295 0.0000 10.0646 0.0000
# 3 56.5894 38.7295 102.9747 0.0000 2.3942 0.0000
# 4 0.0000 0.0000 0.0000 25.5916 0.0000 14.1735
# 5 8.8530 10.0646 2.3942 0.0000 31.7079 0.0000
# 6 0.0000 0.0000 0.0000 14.1735 0.0000 18.7905
#
#
#
# Elastic Compliance Matrix: (Units=1/GPa)
#
#
# Indices 1 2 3 4 5 6 
#
# 1 0.010903 -0.002101 -0.005155 0.000000 -0.001988 0.000000
# 2 -0.002101 0.015250 -0.004490 0.000000 -0.003915 0.000000
# 3 -0.005155 -0.004490 0.014191 0.000000 0.001793 0.000000
# 4 0.000000 0.000000 0.000000 0.067111 0.000000 -0.050622
# 5 -0.001988 -0.003915 0.001793 0.000000 0.033200 0.000000
# 6 0.000000 0.000000 0.000000 -0.050622 0.000000 0.091402
#
#
# Mechanical properties :
#
#
# Convention : Reuss Voigt Hill
#
# Bulk Modulus (GPa) = 59.34088 64.24391 61.79239
# Shear Modulus (GPa) = 19.14479 27.41158 23.27819
#
# Velocity S-wave (km/s) = 3.19063 3.81785 3.51824
# Velocity P-wave (km/s) = 6.71771 7.32092 7.02579
#
# Compressibility (1/GPa) = 0.01685179
#
# Stress axis : x y z
#
# Youngs Moduli (GPa) = 91.71736 65.57379 70.46561
#
# Poissons Ratio (x) = 0.13776 0.36328
# Poissons Ratio (y) = 0.19268 0.31640
# Poissons Ratio (z) = 0.47284 0.29443
#
# Static dielectric constant tensor:
#      x y z
#    x 3.382770 0.000000 -0.293590 
#    y 0.000000 3.982010 0.000000 
#    z -0.293590 0.000000 2.984780 
# 
# 
# High freq. dielectric constant tensor:
#      x y z
#    x 1.729800 0.000000 0.005780 
#    y 0.000000 1.738010 0.000000 
#    z 0.005780 0.000000 1.725020 
# 
# From -- ./inp_files/32818.got.cif
#   From: 2010.06.25/outbox.cif.g09.slc.cpg/sg11_17_cif.got.tgz:32818.got - 2010.06.27 23:14:04.
