data_PCOD8069787
_publ_section_title
;
Structure prediction by ZEFSAII (Michael W. Deem and Ramdas Pophale) SiO2 
 PCOD8069787
Probable space group: P 21/M
;
_chemical_formula_sum "Si O2"
_cell_formula_units_Z 32
_cell_length_a 26.768346
_cell_length_b 9.035647
_cell_length_c 20.922830
_cell_angle_alpha 90.000000
_cell_angle_beta 19.821662
_cell_angle_gamma 90.000000
_cell_volume 1716.014034
_symmetry_space_group_name_H-M "P 21/M"
_symmetry_group_IT_number 11
_symmetry_cell_setting 'monoclinic'
loop_
_space_group_symop_operation_xyz
x,y,z
-x,1/2+y,-z
-x,-y,-z
x,1/2-y,z
loop_
_atom_site_type_symbol
_atom_site_label
_atom_site_fract_x
_atom_site_fract_y
_atom_site_fract_z
Si Si1 0.013174 0.425350 0.249499
Si Si2 0.466535 0.420701 0.838586
Si Si3 0.217344 0.926909 0.578834
Si Si4 0.341920 0.079039 0.851206
Si Si5 0.550418 0.921639 0.503412
Si Si6 0.222475 0.075668 0.223460
Si Si7 0.055512 0.923629 0.528101
Si Si8 0.854589 0.923401 0.201211
O O1 0.017360 0.250000 0.250820
O O2 0.907713 0.478447 0.319816
O O3 0.955843 0.488455 0.386338
O O4 0.177546 0.480047 0.034630
O O5 0.491700 0.250000 0.822613
O O6 0.628396 0.490508 0.634662
O O7 0.367789 0.442693 0.894901
O O8 0.375185 0.486466 0.008750
O O9 0.220447 0.750000 0.585179
O O10 0.188599 0.003175 0.680385
O O11 0.361932 0.250000 0.806633
O O12 0.458563 0.981848 0.673293
O O13 0.516428 0.750000 0.536640
O O14 0.723361 0.949716 0.308289
O O15 0.500000 0.000000 0.500000
O O16 0.229893 0.250000 0.225343
O O17 0.093564 0.034193 0.329143
O O18 0.194524 0.998547 0.325224
O O19 0.084256 0.750000 0.494004
O O20 0.883953 0.750000 0.176053
O O21 0.000000 0.000000 0.000000
#
# Coordination Sequence:
#
# PCOD8069787 Si02
#       8
#     4   4   4   4   4   4   4   4
#     4   9  18  32  54  81 109 141 180 224 271 325
#     4   9  16  30  54  78 102 140 183 222 268 323
#     4  10  20  36  58  82 108 142 184 226 270 327
#     4  10  18  34  58  81 108 142 181 228 274 321
#     4  11  25  42  60  86 116 146 182 228 276 327
#     4   9  16  28  48  73 101 137 180 221 266 321
#     4   9  16  29  47  72 104 137 175 222 271 319
#     4  11  25  43  61  83 114 150 185 224 273 331
#
# _framework density 18.647864999999999
#
# number of rings (size 3 to 8) (size 9 to 14) (size 15 to 20)
#    0.000    2.250    2.500    0.750    1.750    1.500 
#    0.000    3.125    0.000    0.000    0.000    0.000 
#    0.000    0.000    0.000    0.000    0.000    0.000 
#
# Total GULP energy -396727.651503 kJ/mol
# GULP energy per Si atom -12397.739109 kJ/mol
# Density = 1.860542 g / cm^3
# Si number density = 18.647865 Si / 1000 Ang^3
#
#
#
# Elastic Constant Matrix: (Units=GPa)
#
#
# Indices 1 2 3 4 5 6 
#
# 1 64.9908 35.3351 38.8162 0.0000 -4.8346 0.0000
# 2 35.3351 56.5117 45.5274 0.0000 2.0280 0.0000
# 3 38.8162 45.5274 154.0292 0.0000 1.8610 0.0000
# 4 0.0000 0.0000 0.0000 27.3494 0.0000 6.1448
# 5 -4.8346 2.0280 1.8610 0.0000 33.7691 0.0000
# 6 0.0000 0.0000 0.0000 6.1448 0.0000 22.6926
#
#
#
# Elastic Compliance Matrix: (Units=1/GPa)
#
#
# Indices 1 2 3 4 5 6 
#
# 1 0.024467 -0.013713 -0.002166 0.000000 0.004446 0.000000
# 2 -0.013713 0.030947 -0.005649 0.000000 -0.003510 0.000000
# 3 -0.002166 -0.005649 0.008713 0.000000 -0.000451 0.000000
# 4 0.000000 0.000000 0.000000 0.038932 0.000000 -0.010542
# 5 0.004446 -0.003510 -0.000451 0.000000 0.030485 0.000000
# 6 0.000000 0.000000 0.000000 -0.010542 0.000000 0.046922
#
#
# Mechanical properties :
#
#
# Convention : Reuss Voigt Hill
#
# Bulk Modulus (GPa) = 47.45915 57.20988 52.33451
# Shear Modulus (GPa) = 21.68766 27.15242 24.42004
#
# Velocity S-wave (km/s) = 3.41399 3.81998 3.62268
# Velocity P-wave (km/s) = 6.40671 7.08533 6.75455
#
# Compressibility (1/GPa) = 0.02107075
#
# Stress axis : x y z
#
# Youngs Moduli (GPa) = 40.87161 32.31383 114.76624
#
# Poissons Ratio (x) = 0.44311 0.24862
# Poissons Ratio (y) = 0.56046 0.64831
# Poissons Ratio (z) = 0.08854 0.18254
#
# Static dielectric constant tensor:
#      x y z
#    x 3.402490 0.000000 0.026640 
#    y 0.000000 3.212200 0.000000 
#    z 0.026640 0.000000 3.819460 
# 
# 
# High freq. dielectric constant tensor:
#      x y z
#    x 1.718210 0.000000 0.008790 
#    y 0.000000 1.691030 0.000000 
#    z 0.008790 0.000000 1.740590 
# 
# From -- ./inp_files/66995.got.cif
#   From: 2010.06.25/outbox.cif.g09.slc.cpg/sg11_34_cif.got.tgz:66995.got - 2010.06.27 23:14:04.
