data_PCOD8069325
_publ_section_title
;
Structure prediction by ZEFSAII (Michael W. Deem and Ramdas Pophale) SiO2 
 PCOD8069325
Probable space group: P 21/M
;
_chemical_formula_sum "Si O2"
_cell_formula_units_Z 32
_cell_length_a 20.653379
_cell_length_b 9.185043
_cell_length_c 26.241844
_cell_angle_alpha 90.000000
_cell_angle_beta 20.093033
_cell_angle_gamma 90.000000
_cell_volume 1710.215835
_symmetry_space_group_name_H-M "P 21/M"
_symmetry_group_IT_number 11
_symmetry_cell_setting 'monoclinic'
loop_
_space_group_symop_operation_xyz
x,y,z
-x,1/2+y,-z
-x,-y,-z
x,1/2-y,z
loop_
_atom_site_type_symbol
_atom_site_label
_atom_site_fract_x
_atom_site_fract_y
_atom_site_fract_z
Si Si1 0.427522 0.078719 0.898563
Si Si2 0.395758 0.080277 0.808570
Si Si3 0.819327 0.419750 0.485156
Si Si4 0.157110 0.923736 0.416945
Si Si5 0.969015 0.923922 0.770885
Si Si6 0.359895 0.587587 0.655500
Si Si7 0.214575 0.422746 0.675681
Si Si8 0.165603 0.911530 0.901128
O O1 0.441974 0.250000 0.884196
O O2 0.382315 0.021152 0.875762
O O3 0.638725 0.024723 0.757162
O O4 0.254870 0.032891 0.063318
O O5 0.347440 0.250000 0.839562
O O6 0.601931 0.046939 0.632983
O O7 0.237088 0.989409 0.898402
O O8 0.857166 0.250000 0.459056
O O9 0.867336 0.479611 0.506349
O O10 0.947991 0.484651 0.344218
O O11 0.135684 0.750000 0.429775
O O12 0.000000 0.000000 0.500000
O O13 0.995685 0.750000 0.756652
O O14 0.070676 0.000328 0.743393
O O15 0.344008 0.750000 0.643848
O O16 0.203407 0.486532 0.741886
O O17 0.573054 0.529026 0.495157
O O18 0.328197 0.590915 0.739004
O O19 0.179397 0.250000 0.700614
O O20 0.098710 0.750000 0.965438
O O21 0.000000 0.000000 0.000000
#
# Coordination Sequence:
#
# PCOD8069325 Si02
#       8
#     4   4   4   4   4   4   4   4
#     4   8  17  32  52  75 102 133 166 200 247 306
#     4   9  17  33  52  70  94 129 167 209 254 303
#     4   8  16  31  54  78 100 130 171 205 239 296
#     4   9  17  34  56  79 105 136 169 201 238 291
#     4  10  18  31  52  75  98 131 169 205 248 301
#     4   9  20  37  50  64  92 131 172 206 254 318
#     4  10  20  33  51  73  97 126 162 214 263 302
#     4  11  23  35  48  68  95 129 169 215 261 307
#
# _framework density 18.711089000000001
#
# number of rings (size 3 to 8) (size 9 to 14) (size 15 to 20)
#    0.000    2.750    0.000    3.000    1.750    1.500 
#    0.000    4.375    0.000    0.000    0.000    0.000 
#    0.000    0.000    0.000    0.000    0.000    0.000 
#
# Total GULP energy -396487.377748 kJ/mol
# GULP energy per Si atom -12390.230555 kJ/mol
# Density = 1.866850 g / cm^3
# Si number density = 18.711089 Si / 1000 Ang^3
#
#
#
# Elastic Constant Matrix: (Units=GPa)
#
#
# Indices 1 2 3 4 5 6 
#
# 1 75.1439 30.2952 30.9093 0.0000 -21.6795 0.0000
# 2 30.2952 62.6215 27.8817 0.0000 -14.5392 0.0000
# 3 30.9093 27.8817 85.5744 0.0000 -7.8097 0.0000
# 4 0.0000 0.0000 0.0000 19.6718 0.0000 -7.4562
# 5 -21.6795 -14.5392 -7.8097 0.0000 31.7988 0.0000
# 6 0.0000 0.0000 0.0000 -7.4562 0.0000 29.8970
#
#
#
# Elastic Compliance Matrix: (Units=1/GPa)
#
#
# Indices 1 2 3 4 5 6 
#
# 1 0.020362 -0.005390 -0.004661 0.000000 0.010273 0.000000
# 2 -0.005390 0.021873 -0.004708 0.000000 0.005170 0.000000
# 3 -0.004661 -0.004708 0.014747 0.000000 -0.001708 0.000000
# 4 0.000000 0.000000 0.000000 0.056141 0.000000 0.014001
# 5 0.010273 0.005170 -0.001708 0.000000 0.040396 0.000000
# 6 0.000000 0.000000 0.000000 0.014001 0.000000 0.036940
#
#
# Mechanical properties :
#
#
# Convention : Reuss Voigt Hill
#
# Bulk Modulus (GPa) = 36.41127 44.61246 40.51187
# Shear Modulus (GPa) = 21.82144 25.22376 23.52260
#
# Velocity S-wave (km/s) = 3.41872 3.67558 3.54947
# Velocity P-wave (km/s) = 5.92330 6.47362 6.20456
#
# Compressibility (1/GPa) = 0.02746402
#
# Stress axis : x y z
#
# Youngs Moduli (GPa) = 49.11103 45.71806 67.80926
#
# Poissons Ratio (x) = 0.24644 0.31605
# Poissons Ratio (y) = 0.26473 0.31924
# Poissons Ratio (z) = 0.22890 0.21523
#
# Static dielectric constant tensor:
#      x y z
#    x 3.665890 0.000000 0.448370 
#    y 0.000000 3.205040 0.000000 
#    z 0.448370 0.000000 4.017550 
# 
# 
# High freq. dielectric constant tensor:
#      x y z
#    x 1.712930 0.000000 0.005410 
#    y 0.000000 1.698210 0.000000 
#    z 0.005410 0.000000 1.735040 
# 
# From -- ./inp_files/67001.got.cif
#   From: 2010.06.25/outbox.cif.g09.slc.cpg/sg11_34_cif.got.tgz:67001.got - 2010.06.27 23:14:04.
