data_PCOD8069329
_publ_section_title
;
Structure prediction by ZEFSAII (Michael W. Deem and Ramdas Pophale) SiO2 
 PCOD8069329
Probable space group: P 21/M
;
_chemical_formula_sum "Si O2"
_cell_formula_units_Z 32
_cell_length_a 14.577800
_cell_length_b 8.584968
_cell_length_c 25.976151
_cell_angle_alpha 90.000000
_cell_angle_beta 32.056192
_cell_angle_gamma 90.000000
_cell_volume 1725.424898
_symmetry_space_group_name_H-M "P 21/M"
_symmetry_group_IT_number 11
_symmetry_cell_setting 'monoclinic'
loop_
_space_group_symop_operation_xyz
x,y,z
-x,1/2+y,-z
-x,-y,-z
x,1/2-y,z
loop_
_atom_site_type_symbol
_atom_site_label
_atom_site_fract_x
_atom_site_fract_y
_atom_site_fract_z
Si Si1 0.358006 0.430080 0.777567
Si Si2 0.032109 0.068091 0.407896
Si Si3 0.230841 0.568126 0.941551
Si Si4 0.728869 0.930034 0.611654
Si Si5 0.436211 0.932935 0.942332
Si Si6 0.181094 0.434724 0.227590
Si Si7 0.102953 0.565621 0.159576
Si Si8 0.075426 0.931937 0.849107
O O1 0.335411 0.250000 0.775696
O O2 0.260690 0.468216 0.876774
O O3 0.558939 0.468853 0.685387
O O4 0.271268 0.527810 0.772319
O O5 0.986592 0.250000 0.432908
O O6 0.187591 0.027827 0.372963
O O7 0.088155 0.016624 0.324426
O O8 0.862774 0.970013 0.502617
O O9 0.232985 0.750000 0.926123
O O10 0.383093 0.526062 0.909250
O O11 0.047889 0.526189 0.053493
O O12 0.677190 0.750000 0.633507
O O13 0.448421 0.750000 0.943036
O O14 0.623942 0.005151 0.864961
O O15 0.290752 0.996825 0.050835
O O16 0.182131 0.250000 0.220455
O O17 0.075795 0.512926 0.231148
O O18 0.087471 0.750000 0.161093
O O19 0.955001 0.487085 0.195061
O O20 0.038169 0.750000 0.871673
#
# Coordination Sequence:
#
# PCOD8069329 Si02
#       8
#     4   4   4   4   4   4   4   4
#     4  12  23  35  53  78 106 138 176 216 260 312
#     4   9  19  35  55  80 110 140 171 212 261 312
#     4  10  19  34  53  77 109 142 176 215 259 306
#     4  10  20  36  57  80 107 139 173 213 261 311
#     4   8  16  30  49  73 105 141 174 212 255 300
#     4  10  18  31  52  76 103 139 178 213 256 308
#     4  10  20  34  50  73 105 140 178 220 262 302
#     4  11  22  37  54  74 102 139 180 219 261 308
#
# _framework density 18.546157000000001
#
# number of rings (size 3 to 8) (size 9 to 14) (size 15 to 20)
#    0.000    2.000    0.000    5.625    0.000    3.000 
#    0.000    4.375    0.000    0.750    0.000    0.000 
#    0.000    0.000    0.000    0.000    0.000    0.000 
#
# Total GULP energy -396882.441130 kJ/mol
# GULP energy per Si atom -12402.576285 kJ/mol
# Density = 1.850395 g / cm^3
# Si number density = 18.546157 Si / 1000 Ang^3
#
#
#
# Elastic Constant Matrix: (Units=GPa)
#
#
# Indices 1 2 3 4 5 6 
#
# 1 126.2445 31.4180 52.6423 0.0000 7.4039 0.0000
# 2 31.4180 59.9689 20.4390 0.0000 1.1972 0.0000
# 3 52.6423 20.4390 62.0420 0.0000 5.5910 0.0000
# 4 0.0000 0.0000 0.0000 26.8217 0.0000 0.2634
# 5 7.4039 1.1972 5.5910 0.0000 27.0521 0.0000
# 6 0.0000 0.0000 0.0000 0.2634 0.0000 29.2605
#
#
#
# Elastic Compliance Matrix: (Units=1/GPa)
#
#
# Indices 1 2 3 4 5 6 
#
# 1 0.012894 -0.003426 -0.009688 0.000000 -0.001375 0.000000
# 2 -0.003426 0.019700 -0.003657 0.000000 0.000822 0.000000
# 3 -0.009688 -0.003657 0.025770 0.000000 -0.002513 0.000000
# 4 0.000000 0.000000 0.000000 0.037287 0.000000 -0.000336
# 5 -0.001375 0.000822 -0.002513 0.000000 0.037825 0.000000
# 6 0.000000 0.000000 0.000000 -0.000336 0.000000 0.034179
#
#
# Mechanical properties :
#
#
# Convention : Reuss Voigt Hill
#
# Bulk Modulus (GPa) = 40.28736 50.80600 45.54668
# Shear Modulus (GPa) = 23.86969 26.21059 25.04014
#
# Velocity S-wave (km/s) = 3.59143 3.76342 3.67843
# Velocity P-wave (km/s) = 6.24241 6.80722 6.53092
#
# Compressibility (1/GPa) = 0.02482168
#
# Stress axis : x y z
#
# Youngs Moduli (GPa) = 77.55429 50.76092 38.80533
#
# Poissons Ratio (x) = 0.17390 0.37595
# Poissons Ratio (y) = 0.26569 0.14192
# Poissons Ratio (z) = 0.75135 0.18564
#
# Static dielectric constant tensor:
#      x y z
#    x 3.557400 0.000000 -0.069400 
#    y 0.000000 3.274390 0.000000 
#    z -0.069400 0.000000 3.338170 
# 
# 
# High freq. dielectric constant tensor:
#      x y z
#    x 1.724650 0.000000 -0.002220 
#    y 0.000000 1.716000 0.000000 
#    z -0.002220 0.000000 1.694340 
# 
# From -- ./inp_files/71604.got.cif
#   From: 2010.06.25/outbox.cif.g09.slc.cpg/sg11_36_cif.got.tgz:71604.got - 2010.06.27 23:14:04.
