data_PCOD8069447
_publ_section_title
;
Structure prediction by ZEFSAII (Michael W. Deem and Ramdas Pophale) SiO2 
 PCOD8069447
Probable space group: P 21/M
;
_chemical_formula_sum "Si O2"
_cell_formula_units_Z 32
_cell_length_a 30.465831
_cell_length_b 9.338669
_cell_length_c 14.799822
_cell_angle_alpha 90.000000
_cell_angle_beta 28.723661
_cell_angle_gamma 90.000000
_cell_volume 2023.603089
_symmetry_space_group_name_H-M "P 21/M"
_symmetry_group_IT_number 11
_symmetry_cell_setting 'monoclinic'
loop_
_space_group_symop_operation_xyz
x,y,z
-x,1/2+y,-z
-x,-y,-z
x,1/2-y,z
loop_
_atom_site_type_symbol
_atom_site_label
_atom_site_fract_x
_atom_site_fract_y
_atom_site_fract_z
Si Si1 0.193986 0.584094 0.179414
Si Si2 0.240713 0.584790 0.784320
Si Si3 0.921923 0.414570 0.436606
Si Si4 0.432598 0.913982 0.507367
Si Si5 0.397203 0.915928 0.776329
Si Si6 0.122268 0.419295 0.141273
Si Si7 0.076737 0.083263 0.743368
Si Si8 0.876454 0.086018 0.172958
O O1 0.185444 0.750000 0.164822
O O2 0.153524 0.558384 0.351145
O O3 0.138437 0.488002 0.209607
O O4 0.299720 0.536426 0.991921
O O5 0.220045 0.750000 0.848770
O O6 0.349200 0.554880 0.589593
O O7 0.206352 0.552155 0.745395
O O8 0.192309 0.482098 0.942624
O O9 0.923610 0.250000 0.402034
O O10 0.893235 0.511724 0.404183
O O11 0.020263 0.460590 0.296562
O O12 0.462526 0.750000 0.450943
O O13 0.398337 0.958203 0.668884
O O14 0.521479 0.003536 0.317625
O O15 0.414637 0.750000 0.760317
O O16 0.136687 0.250000 0.121891
O O17 0.099422 0.250000 0.698191
O O18 0.135108 0.014912 0.719471
O O19 0.969937 0.051645 0.951437
O O20 0.875688 0.250000 0.207286
#
# Coordination Sequence:
#
# PCOD8069447 Si02
#       8
#     4   4   4   4   4   4   4   4
#     4  10  20  35  50  64  91 132 167 194 229 279
#     4  10  18  32  50  69  94 130 160 185 231 287
#     4  10  21  34  48  67  94 128 165 198 230 273
#     4   9  17  29  47  68  92 120 154 193 233 279
#     4   9  17  30  47  66  90 122 157 193 233 276
#     4  11  21  30  44  70  98 125 160 201 231 263
#     4  10  19  31  49  70  94 124 156 195 237 275
#     4   9  18  31  49  69  93 124 157 191 231 282
#
# _framework density 15.813376999999999
#
# number of rings (size 3 to 8) (size 9 to 14) (size 15 to 20)
#    0.000    2.250    2.500    1.125    0.000    3.000 
#    0.000    0.000    0.000    0.000    0.000    0.875 
#    0.000    0.000    0.000    0.000    0.000    0.000 
#
# Total GULP energy -396874.512447 kJ/mol
# GULP energy per Si atom -12402.328514 kJ/mol
# Density = 1.577739 g / cm^3
# Si number density = 15.813377 Si / 1000 Ang^3
#
#
#
# Elastic Constant Matrix: (Units=GPa)
#
#
# Indices 1 2 3 4 5 6 
#
# 1 108.2738 51.6330 45.9694 0.0000 -3.1673 0.0000
# 2 51.6330 66.6042 33.6312 0.0000 5.7082 0.0000
# 3 45.9694 33.6312 67.9366 0.0000 -1.3086 0.0000
# 4 0.0000 0.0000 0.0000 22.7394 0.0000 -1.0570
# 5 -3.1673 5.7082 -1.3086 0.0000 21.0487 0.0000
# 6 0.0000 0.0000 0.0000 -1.0570 0.0000 26.7381
#
#
#
# Elastic Compliance Matrix: (Units=1/GPa)
#
#
# Indices 1 2 3 4 5 6 
#
# 1 0.017029 -0.010482 -0.006237 0.000000 0.005017 0.000000
# 2 -0.010482 0.027271 -0.006588 0.000000 -0.009383 0.000000
# 3 -0.006237 -0.006588 0.022244 0.000000 0.002231 0.000000
# 4 0.000000 0.000000 0.000000 0.044057 0.000000 0.001742
# 5 0.005017 -0.009383 0.002231 0.000000 0.050947 0.000000
# 6 0.000000 0.000000 0.000000 0.001742 0.000000 0.037469
#
#
# Mechanical properties :
#
#
# Convention : Reuss Voigt Hill
#
# Bulk Modulus (GPa) = 50.17650 56.14241 53.15946
# Shear Modulus (GPa) = 19.81958 21.54397 20.68177
#
# Velocity S-wave (km/s) = 3.54410 3.69506 3.62037
# Velocity P-wave (km/s) = 6.96755 7.33381 7.15303
#
# Compressibility (1/GPa) = 0.01992965
#
# Stress axis : x y z
#
# Youngs Moduli (GPa) = 58.72188 36.66937 44.95520
#
# Poissons Ratio (x) = 0.38437 0.28040
# Poissons Ratio (y) = 0.61553 0.29617
# Poissons Ratio (z) = 0.36627 0.24158
#
# Static dielectric constant tensor:
#      x y z
#    x 2.986260 0.000000 -0.134890 
#    y 0.000000 3.047450 0.000000 
#    z -0.134890 0.000000 2.876480 
# 
# 
# High freq. dielectric constant tensor:
#      x y z
#    x 1.598010 0.000000 -0.010050 
#    y 0.000000 1.612640 0.000000 
#    z -0.010050 0.000000 1.582950 
# 
# From -- ./inp_files/51205.got.cif
#   From: 2010.06.25/outbox.cif.g09.slc.cpg/sg11_26_cif.got.tgz:51205.got - 2010.06.27 23:14:04.
