data_PCOD8069358
_publ_section_title
;
Structure prediction by ZEFSAII (Michael W. Deem and Ramdas Pophale) SiO2 
 PCOD8069358
Probable space group: P 21/M
;
_chemical_formula_sum "Si O2"
_cell_formula_units_Z 24
_cell_length_a 23.287082
_cell_length_b 8.504995
_cell_length_c 17.610164
_cell_angle_alpha 90.000000
_cell_angle_beta 19.908403
_cell_angle_gamma 90.000000
_cell_volume 1187.659391
_symmetry_space_group_name_H-M "P 21/M"
_symmetry_group_IT_number 11
_symmetry_cell_setting 'monoclinic'
loop_
_space_group_symop_operation_xyz
x,y,z
-x,1/2+y,-z
-x,-y,-z
x,1/2-y,z
loop_
_atom_site_type_symbol
_atom_site_label
_atom_site_fract_x
_atom_site_fract_y
_atom_site_fract_z
Si Si1 0.954966 0.064140 0.731541
Si Si2 0.845220 0.064316 0.644303
Si Si3 0.650095 0.565698 0.013744
Si Si4 0.355064 0.562974 0.626625
Si Si5 0.663434 0.564087 0.515934
Si Si6 0.024333 0.936280 0.123362
O O1 0.972742 0.250000 0.707625
O O2 0.953928 0.997574 0.818452
O O3 0.120988 0.991526 0.483877
O O4 0.780559 0.017301 0.908582
O O5 0.833842 0.250000 0.662453
O O6 0.000000 0.000000 0.500000
O O7 0.679020 0.990363 0.890342
O O8 0.678513 0.750000 0.984813
O O9 0.461449 0.518760 0.269863
O O10 0.500000 0.500000 0.500000
O O11 0.363133 0.750000 0.610236
O O12 0.384787 0.486073 0.508428
O O13 0.176810 0.502661 0.881481
O O14 0.646729 0.750000 0.545572
O O15 0.850490 0.502618 0.303131
O O16 0.026935 0.750000 0.123004
#
# Coordination Sequence:
#
# PCOD8069358 Si02
#       6
#     4   4   4   4   4   4
#     4  10  18  34  58  84 111 146 187 233 280 330
#     4  10  18  31  52  81 112 146 184 231 281 329
#     4  11  21  35  55  83 112 146 189 234 277 330
#     4  11  22  39  61  88 114 145 185 229 274 327
#     4  11  22  39  58  81 112 149 185 228 279 331
#     4   9  21  38  58  81 112 148 185 225 276 331
#
# _framework density 20.207813999999999
#
# number of rings (size 3 to 8) (size 9 to 14) (size 15 to 20)
#    0.000    1.667    0.000    8.000    0.000    1.333 
#    0.000    9.167    0.000    0.000    0.000    0.000 
#    0.000    0.000    0.000    0.000    0.000    0.000 
#
# Total GULP energy -297625.846424 kJ/mol
# GULP energy per Si atom -12401.076934 kJ/mol
# Density = 2.016182 g / cm^3
# Si number density = 20.207814 Si / 1000 Ang^3
#
#
#
# Elastic Constant Matrix: (Units=GPa)
#
#
# Indices 1 2 3 4 5 6 
#
# 1 36.6337 13.2090 30.1475 0.0000 1.0060 0.0000
# 2 13.2090 72.9828 23.5895 0.0000 10.7123 0.0000
# 3 30.1475 23.5895 148.2423 0.0000 15.1380 0.0000
# 4 0.0000 0.0000 0.0000 31.5677 0.0000 6.5711
# 5 1.0060 10.7123 15.1380 0.0000 36.6958 0.0000
# 6 0.0000 0.0000 0.0000 6.5711 0.0000 24.4920
#
#
#
# Elastic Compliance Matrix: (Units=1/GPa)
#
#
# Indices 1 2 3 4 5 6 
#
# 1 0.034243 -0.004531 -0.006558 0.000000 0.003090 0.000000
# 2 -0.004531 0.015466 -0.001139 0.000000 -0.003921 0.000000
# 3 -0.006558 -0.001139 0.008569 0.000000 -0.003023 0.000000
# 4 0.000000 0.000000 0.000000 0.033552 0.000000 -0.009002
# 5 0.003090 -0.003921 -0.003023 0.000000 0.029558 0.000000
# 6 0.000000 0.000000 0.000000 -0.009002 0.000000 0.043245
#
#
# Mechanical properties :
#
#
# Convention : Reuss Voigt Hill
#
# Bulk Modulus (GPa) = 29.56759 43.52786 36.54772
# Shear Modulus (GPa) = 24.95457 31.27863 28.11660
#
# Velocity S-wave (km/s) = 3.51792 3.93854 3.73416
# Velocity P-wave (km/s) = 5.58252 6.50151 6.05946
#
# Compressibility (1/GPa) = 0.03382082
#
# Stress axis : x y z
#
# Youngs Moduli (GPa) = 29.20263 64.65958 116.69408
#
# Poissons Ratio (x) = 0.29299 0.76533
# Poissons Ratio (y) = 0.13233 0.13293
# Poissons Ratio (z) = 0.19152 0.07366
#
# Static dielectric constant tensor:
#      x y z
#    x 3.775660 0.000000 0.402060 
#    y 0.000000 3.590870 0.000000 
#    z 0.402060 0.000000 4.189750 
# 
# 
# High freq. dielectric constant tensor:
#      x y z
#    x 1.777670 0.000000 0.023760 
#    y 0.000000 1.788380 0.000000 
#    z 0.023760 0.000000 1.802070 
# 
# From -- ./inp_files/46582.got.cif
#   From: 2010.06.25/outbox.cif.g09.slc.cpg/sg11_24_cif.got.tgz:46582.got - 2010.06.27 23:14:04.
