data_PCOD8069825
_publ_section_title
;
Structure prediction by ZEFSAII (Michael W. Deem and Ramdas Pophale) SiO2 
 PCOD8069825
Probable space group: P 21/M
;
_chemical_formula_sum "Si O2"
_cell_formula_units_Z 32
_cell_length_a 8.792768
_cell_length_b 12.336430
_cell_length_c 20.298588
_cell_angle_alpha 90.000000
_cell_angle_beta 132.372257
_cell_angle_gamma 90.000000
_cell_volume 1626.661185
_symmetry_space_group_name_H-M "P 21/M"
_symmetry_group_IT_number 11
_symmetry_cell_setting 'monoclinic'
loop_
_space_group_symop_operation_xyz
x,y,z
-x,1/2+y,-z
-x,-y,-z
x,1/2-y,z
loop_
_atom_site_type_symbol
_atom_site_label
_atom_site_fract_x
_atom_site_fract_y
_atom_site_fract_z
Si Si1 0.226709 0.122657 0.534999
Si Si2 0.233748 0.538715 0.130689
Si Si3 0.920666 0.521318 0.379172
Si Si4 0.334150 0.874473 0.294528
Si Si5 0.641810 0.438051 0.109356
Si Si6 0.578864 0.370981 0.229164
Si Si7 0.078730 0.122090 0.760747
Si Si8 0.780729 0.037368 0.017662
O O1 0.218530 0.250000 0.515736
O O2 0.459495 0.077704 0.612335
O O3 0.123386 0.054180 0.445839
O O4 0.100064 0.101357 0.565005
O O5 0.341353 0.612087 0.217253
O O6 0.351232 0.423486 0.160760
O O7 0.998696 0.522064 0.082337
O O8 0.246940 0.596280 0.061897
O O9 0.724108 0.441666 0.318350
O O10 0.939144 0.598049 0.321680
O O11 0.332503 0.750000 0.311461
O O12 0.129165 0.925547 0.266150
O O13 0.676658 0.364042 0.183845
O O14 0.730785 0.558447 0.151408
O O15 0.754568 0.388427 0.076377
O O16 0.397321 0.446899 0.024842
O O17 0.560404 0.250000 0.252527
O O18 0.111084 0.250000 0.782270
#
# Coordination Sequence:
#
# PCOD8069825 Si02
#       8
#     4   4   4   4   4   4   4   4
#     4  10  20  35  57  85 111 138 179 220 265 322
#     4  10  18  35  54  78 109 143 179 225 273 322
#     4  10  20  35  57  82 110 143 173 225 266 313
#     4  10  20  35  56  82 110 142 178 220 271 323
#     4   9  18  35  53  78 108 143 178 225 273 319
#     4  10  20  35  54  74 104 146 184 218 269 321
#     4  10  20  35  57  82 111 143 179 219 267 324
#     4   9  18  33  55  76 108 144 176 225 281 318
#
# _framework density 19.672196
#
# number of rings (size 3 to 8) (size 9 to 14) (size 15 to 20)
#    0.000    2.250    2.500    0.750    0.000    0.500 
#    0.000   13.125    0.000    0.000    0.000    0.000 
#    0.000    0.000    0.000    0.000    0.000    0.000 
#
# Total GULP energy -396510.098842 kJ/mol
# GULP energy per Si atom -12390.940589 kJ/mol
# Density = 1.962742 g / cm^3
# Si number density = 19.672196 Si / 1000 Ang^3
#
#
#
# Elastic Constant Matrix: (Units=GPa)
#
#
# Indices 1 2 3 4 5 6 
#
# 1 91.0595 13.4648 27.2504 0.0000 6.9580 0.0000
# 2 13.4648 59.2300 17.9194 0.0000 10.0431 0.0000
# 3 27.2504 17.9194 91.5561 0.0000 14.6553 0.0000
# 4 0.0000 0.0000 0.0000 12.4754 0.0000 -0.2522
# 5 6.9580 10.0431 14.6553 0.0000 32.7781 0.0000
# 6 0.0000 0.0000 0.0000 -0.2522 0.0000 14.9436
#
#
#
# Elastic Compliance Matrix: (Units=1/GPa)
#
#
# Indices 1 2 3 4 5 6 
#
# 1 0.012243 -0.001704 -0.003208 0.000000 -0.000643 0.000000
# 2 -0.001704 0.018745 -0.002478 0.000000 -0.004274 0.000000
# 3 -0.003208 -0.002478 0.013066 0.000000 -0.004402 0.000000
# 4 0.000000 0.000000 0.000000 0.080185 0.000000 0.001353
# 5 -0.000643 -0.004274 -0.004402 0.000000 0.033922 0.000000
# 6 0.000000 0.000000 0.000000 0.001353 0.000000 0.066941
#
#
# Mechanical properties :
#
#
# Convention : Reuss Voigt Hill
#
# Bulk Modulus (GPa) = 34.15708 39.90162 37.02935
# Shear Modulus (GPa) = 20.02892 24.25350 22.14121
#
# Velocity S-wave (km/s) = 3.19428 3.51505 3.35850
# Velocity P-wave (km/s) = 5.56825 6.06642 5.82266
#
# Compressibility (1/GPa) = 0.02927650
#
# Stress axis : x y z
#
# Youngs Moduli (GPa) = 81.68091 53.34780 76.53166
#
# Poissons Ratio (x) = 0.09089 0.24548
# Poissons Ratio (y) = 0.13917 0.18961
# Poissons Ratio (z) = 0.26200 0.13217
#
# Static dielectric constant tensor:
#      x y z
#    x 3.873250 0.000000 0.013790 
#    y 0.000000 3.086030 0.000000 
#    z 0.013790 0.000000 3.832610 
# 
# 
# High freq. dielectric constant tensor:
#      x y z
#    x 1.772010 0.000000 0.000690 
#    y 0.000000 1.718370 0.000000 
#    z 0.000690 0.000000 1.783020 
# 
# From -- ./inp_files/63655.got.cif
#   From: 2010.06.25/outbox.cif.g09.slc.cpg/sg11_32_cif.got.tgz:63655.got - 2010.06.27 23:14:04.
