data_PCOD8069856
_publ_section_title
;
Structure prediction by ZEFSAII (Michael W. Deem and Ramdas Pophale) SiO2 
 PCOD8069856
Probable space group: P 21/M
;
_chemical_formula_sum "Si O2"
_cell_formula_units_Z 32
_cell_length_a 17.561964
_cell_length_b 15.776986
_cell_length_c 12.358489
_cell_angle_alpha 90.000000
_cell_angle_beta 23.785875
_cell_angle_gamma 90.000000
_cell_volume 1381.058122
_symmetry_space_group_name_H-M "P 21/M"
_symmetry_group_IT_number 11
_symmetry_cell_setting 'monoclinic'
loop_
_space_group_symop_operation_xyz
x,y,z
-x,1/2+y,-z
-x,-y,-z
x,1/2-y,z
loop_
_atom_site_type_symbol
_atom_site_label
_atom_site_fract_x
_atom_site_fract_y
_atom_site_fract_z
Si Si1 0.698730 0.149001 0.824554
Si Si2 0.461223 0.576333 0.407161
Si Si3 0.901025 0.489821 0.017338
Si Si4 0.564289 0.394590 0.225871
Si Si5 0.481632 0.649113 0.164633
Si Si6 0.276308 0.343973 0.775134
Si Si7 0.957755 0.157586 0.797503
Si Si8 0.098630 0.345407 0.380568
O O1 0.709355 0.250000 0.811047
O O2 0.913073 0.111221 0.565684
O O3 0.558154 0.120538 0.104104
O O4 0.614138 0.113963 0.821076
O O5 0.305133 0.549660 0.697093
O O6 0.589948 0.494508 0.214357
O O7 0.577886 0.650024 0.314909
O O8 0.369216 0.613752 0.415787
O O9 0.883567 0.585051 0.991860
O O10 0.016716 0.422606 0.794624
O O11 0.000000 0.500000 0.000000
O O12 0.373541 0.360659 0.531530
O O13 0.739988 0.344419 0.045991
O O14 0.480632 0.750000 0.160710
O O15 0.695718 0.613041 0.908699
O O16 0.185868 0.250000 0.893492
O O17 0.991278 0.250000 0.810823
O O18 0.086758 0.151899 0.525017
O O19 0.104180 0.250000 0.329280
#
# Coordination Sequence:
#
# PCOD8069856 Si02
#       8
#     4   4   4   4   4   4   4   4
#     4   9  18  34  57  85 116 156 208 260 309 364
#     4  11  22  39  60  87 123 165 205 250 315 389
#     4  11  24  41  59  93 133 160 204 266 315 382
#     4  10  18  35  61  89 116 151 207 269 310 361
#     4  10  21  38  58  86 127 169 210 256 310 383
#     4  11  21  39  65  90 119 166 215 258 316 379
#     4  10  18  35  64  90 119 161 207 261 318 364
#     4   8  17  34  58  87 115 155 211 262 309 364
#
# _framework density 23.170639000000001
#
# number of rings (size 3 to 8) (size 9 to 14) (size 15 to 20)
#    0.000    2.000    2.500    3.000    0.000    3.500 
#    2.250    3.750    0.000    0.000    0.000    0.000 
#    0.000    0.000    0.000    0.000    0.000    0.000 
#
# Total GULP energy -396556.737419 kJ/mol
# GULP energy per Si atom -12392.398044 kJ/mol
# Density = 2.311790 g / cm^3
# Si number density = 23.170639 Si / 1000 Ang^3
#
#
#
# Elastic Constant Matrix: (Units=GPa)
#
#
# Indices 1 2 3 4 5 6 
#
# 1 123.7461 37.0441 10.0514 0.0000 14.5727 0.0000
# 2 37.0441 117.6067 17.6019 0.0000 8.2697 0.0000
# 3 10.0514 17.6019 26.4987 0.0000 4.0653 0.0000
# 4 0.0000 0.0000 0.0000 11.7820 0.0000 10.8877
# 5 14.5727 8.2697 4.0653 0.0000 30.9967 0.0000
# 6 0.0000 0.0000 0.0000 10.8877 0.0000 32.9326
#
#
#
# Elastic Compliance Matrix: (Units=1/GPa)
#
#
# Indices 1 2 3 4 5 6 
#
# 1 0.009356 -0.002496 -0.001346 0.000000 -0.003556 0.000000
# 2 -0.002496 0.010199 -0.005706 0.000000 -0.000800 0.000000
# 3 -0.001346 -0.005706 0.042564 0.000000 -0.003427 0.000000
# 4 0.000000 0.000000 0.000000 0.122212 0.000000 -0.040404
# 5 -0.003556 -0.000800 -0.003427 0.000000 0.034596 0.000000
# 6 0.000000 0.000000 0.000000 -0.040404 0.000000 0.043723
#
#
# Mechanical properties :
#
#
# Convention : Reuss Voigt Hill
#
# Bulk Modulus (GPa) = 23.24191 44.13846 33.69019
# Shear Modulus (GPa) = 16.88698 28.68586 22.78642
#
# Velocity S-wave (km/s) = 2.70258 3.52238 3.13935
# Velocity P-wave (km/s) = 4.44872 5.96938 5.26425
#
# Compressibility (1/GPa) = 0.04302572
#
# Stress axis : x y z
#
# Youngs Moduli (GPa) = 106.88042 98.04750 23.49405
#
# Poissons Ratio (x) = 0.24468 0.03162
# Poissons Ratio (y) = 0.26673 0.13405
# Poissons Ratio (z) = 0.14383 0.55942
#
# Static dielectric constant tensor:
#      x y z
#    x 4.014430 0.000000 0.533840 
#    y 0.000000 4.261690 0.000000 
#    z 0.533840 0.000000 3.224380 
# 
# 
# High freq. dielectric constant tensor:
#      x y z
#    x 1.912230 0.000000 0.014190 
#    y 0.000000 1.904740 0.000000 
#    z 0.014190 0.000000 1.893070 
# 
# From -- ./inp_files/41655.got.cif
#   From: 2010.06.25/outbox.cif.g09.slc.cpg/sg11_21_cif.got.tgz:41655.got - 2010.06.27 23:14:04.
