data_PCOD8069773
_publ_section_title
;
Structure prediction by ZEFSAII (Michael W. Deem and Ramdas Pophale) SiO2 
 PCOD8069773
Probable space group: P 21/M
;
_chemical_formula_sum "Si O2"
_cell_formula_units_Z 28
_cell_length_a 29.953390
_cell_length_b 9.040068
_cell_length_c 10.185755
_cell_angle_alpha 90.000000
_cell_angle_beta 146.037114
_cell_angle_gamma 90.000000
_cell_volume 1540.831651
_symmetry_space_group_name_H-M "P 21/M"
_symmetry_group_IT_number 11
_symmetry_cell_setting 'monoclinic'
loop_
_space_group_symop_operation_xyz
x,y,z
-x,1/2+y,-z
-x,-y,-z
x,1/2-y,z
loop_
_atom_site_type_symbol
_atom_site_label
_atom_site_fract_x
_atom_site_fract_y
_atom_site_fract_z
Si Si1 0.600785 0.425439 0.488334
Si Si2 0.987405 0.077398 0.107459
Si Si3 0.835222 0.922285 0.730365
Si Si4 0.421224 0.424749 0.089755
Si Si5 0.658843 0.576805 0.372877
Si Si6 0.160890 0.078035 0.555341
Si Si7 0.684414 0.926037 0.926645
O O1 0.608403 0.250000 0.510584
O O2 0.512456 0.479620 0.314349
O O3 0.616867 0.481588 0.381747
O O4 0.664642 0.496984 0.741606
O O5 0.972406 0.250000 0.050489
O O6 0.070651 0.049942 0.390427
O O7 0.909081 0.005284 0.984566
O O8 0.000000 0.000000 0.000000
O O9 0.856521 0.750000 0.778974
O O10 0.753806 0.952673 0.609722
O O11 0.827816 0.987313 0.564061
O O12 0.415932 0.250000 0.075139
O O13 0.376145 0.482784 0.850068
O O14 0.377280 0.483506 0.112825
O O15 0.639971 0.750000 0.347471
O O16 0.179947 0.250000 0.587423
O O17 0.227156 0.015226 0.816982
O O18 0.680552 0.750000 0.897880
#
# Coordination Sequence:
#
# PCOD8069773 Si02
#       7
#     4   4   4   4   4   4   4
#     4  11  23  35  47  75 111 136 164 212 266 304
#     4   9  16  26  44  73 105 132 161 202 252 299
#     4   9  16  29  50  75 100 127 166 211 252 297
#     4   9  18  34  57  77  97 130 175 220 255 296
#     4  10  19  35  57  76  97 136 180 210 246 308
#     4   8  14  27  49  74  97 126 166 206 242 292
#     4  10  18  34  57  75  96 135 178 210 245 300
#
# _framework density 18.172003
#
# number of rings (size 3 to 8) (size 9 to 14) (size 15 to 20)
#    0.000    2.571    1.429    2.571    0.000    0.571 
#    0.000    5.714    0.000    0.857    0.000    0.000 
#    0.000    0.000    0.000    0.000    0.000    0.000 
#
# Total GULP energy -347043.187010 kJ/mol
# GULP energy per Si atom -12394.399536 kJ/mol
# Density = 1.813064 g / cm^3
# Si number density = 18.172003 Si / 1000 Ang^3
#
#
#
# Elastic Constant Matrix: (Units=GPa)
#
#
# Indices 1 2 3 4 5 6 
#
# 1 30.0246 16.3608 26.3805 0.0000 -0.0648 0.0000
# 2 16.3608 49.6175 29.9256 0.0000 8.6570 0.0000
# 3 26.3805 29.9256 98.5242 0.0000 18.3171 0.0000
# 4 0.0000 0.0000 0.0000 21.9541 0.0000 3.3508
# 5 -0.0648 8.6570 18.3171 0.0000 30.9696 0.0000
# 6 0.0000 0.0000 0.0000 3.3508 0.0000 26.8488
#
#
#
# Elastic Compliance Matrix: (Units=1/GPa)
#
#
# Indices 1 2 3 4 5 6 
#
# 1 0.049773 -0.011032 -0.011875 0.000000 0.010211 0.000000
# 2 -0.011032 0.027333 -0.004408 0.000000 -0.005056 0.000000
# 3 -0.011875 -0.004408 0.016228 0.000000 -0.008391 0.000000
# 4 0.000000 0.000000 0.000000 0.046434 0.000000 -0.005795
# 5 0.010211 -0.005056 -0.008391 0.000000 0.038687 0.000000
# 6 0.000000 0.000000 0.000000 -0.005795 0.000000 0.037969
#
#
# Mechanical properties :
#
#
# Convention : Reuss Voigt Hill
#
# Bulk Modulus (GPa) = 25.83667 35.94445 30.89056
# Shear Modulus (GPa) = 17.60849 22.98778 20.29814
#
# Velocity S-wave (km/s) = 3.11624 3.56056 3.34578
# Velocity P-wave (km/s) = 5.21504 6.06024 5.65346
#
# Compressibility (1/GPa) = 0.03870467
#
# Stress axis : x y z
#
# Youngs Moduli (GPa) = 20.09137 36.58644 61.62108
#
# Poissons Ratio (x) = 0.40361 0.73173
# Poissons Ratio (y) = 0.22164 0.27164
# Poissons Ratio (z) = 0.23858 0.16128
#
# Static dielectric constant tensor:
#      x y z
#    x 3.323510 0.000000 0.401840 
#    y 0.000000 3.129250 0.000000 
#    z 0.401840 0.000000 3.709820 
# 
# 
# High freq. dielectric constant tensor:
#      x y z
#    x 1.683090 0.000000 0.026990 
#    y 0.000000 1.675440 0.000000 
#    z 0.026990 0.000000 1.711310 
# 
# From -- ./inp_files/28616.got.cif
#   From: 2010.06.25/outbox.cif.g09.slc.cpg/sg11_15_cif.got.tgz:28616.got - 2010.06.27 23:14:04.
