data_PCOD8069241
_publ_section_title
;
Structure prediction by ZEFSAII (Michael W. Deem and Ramdas Pophale) SiO2 
 PCOD8069241
Probable space group: P 21/M
;
_chemical_formula_sum "Si O2"
_cell_formula_units_Z 32
_cell_length_a 17.743273
_cell_length_b 8.501028
_cell_length_c 23.884211
_cell_angle_alpha 90.000000
_cell_angle_beta 30.759803
_cell_angle_gamma 90.000000
_cell_volume 1842.514323
_symmetry_space_group_name_H-M "P 21/M"
_symmetry_group_IT_number 11
_symmetry_cell_setting 'monoclinic'
loop_
_space_group_symop_operation_xyz
x,y,z
-x,1/2+y,-z
-x,-y,-z
x,1/2-y,z
loop_
_atom_site_type_symbol
_atom_site_label
_atom_site_fract_x
_atom_site_fract_y
_atom_site_fract_z
Si Si1 0.550858 0.936200 0.026541
Si Si2 0.593067 0.434849 0.571842
Si Si3 0.700631 0.434009 0.729981
Si Si4 0.607681 0.064660 0.384510
Si Si5 0.038205 0.434047 0.368946
Si Si6 0.126019 0.063532 0.189502
Si Si7 0.276501 0.067462 0.403171
Si Si8 0.170646 0.935746 0.669768
O O1 0.552686 0.750000 0.021899
O O2 0.441755 0.995155 0.144789
O O3 0.716652 0.000143 0.933118
O O4 0.500000 0.000000 0.000000
O O5 0.603310 0.250000 0.575420
O O6 0.432052 0.479656 0.648732
O O7 0.612087 0.522449 0.618344
O O8 0.718832 0.498622 0.449008
O O9 0.727189 0.250000 0.722999
O O10 0.844982 0.527929 0.657318
O O11 0.672774 0.468476 0.682970
O O12 0.587786 0.250000 0.389849
O O13 0.771381 0.022506 0.304335
O O14 0.500000 0.000000 0.500000
O O15 0.999778 0.250000 0.394074
O O16 0.104688 0.489668 0.267310
O O17 0.889973 0.528961 0.473979
O O18 0.123007 0.250000 0.188158
O O19 0.992983 0.993711 0.236148
O O20 0.291101 0.250000 0.379853
O O21 0.167515 0.750000 0.664275
#
# Coordination Sequence:
#
# PCOD8069241 Si02
#       8
#     4   4   4   4   4   4   4   4
#     4  10  20  34  54  75  97 128 170 214 255 299
#     4  10  18  31  49  71 100 135 166 200 250 304
#     4  11  23  37  51  72 101 133 173 214 253 299
#     4   9  16  26  43  69 100 135 168 202 243 297
#     4  11  20  34  55  74 100 134 169 208 253 302
#     4   9  16  29  51  76  99 130 165 203 251 298
#     4  12  24  36  51  73 101 133 172 211 252 304
#     4   8  14  26  46  71  99 129 162 196 241 298
#
# _framework density 17.367573
#
# number of rings (size 3 to 8) (size 9 to 14) (size 15 to 20)
#    0.000    2.000    2.500    3.750    0.000    0.500 
#    0.000    0.000    0.000    0.000    0.000    0.875 
#    0.000    0.000    0.000    0.000    0.000    0.000 
#
# Total GULP energy -396664.444899 kJ/mol
# GULP energy per Si atom -12395.763903 kJ/mol
# Density = 1.732804 g / cm^3
# Si number density = 17.367573 Si / 1000 Ang^3
#
#
#
# Elastic Constant Matrix: (Units=GPa)
#
#
# Indices 1 2 3 4 5 6 
#
# 1 139.6748 9.1446 44.4583 0.0000 -14.0188 0.0000
# 2 9.1446 35.0791 11.6620 0.0000 -2.0712 0.0000
# 3 44.4583 11.6620 61.7277 0.0000 -0.7011 0.0000
# 4 0.0000 0.0000 0.0000 12.0955 0.0000 0.4352
# 5 -14.0188 -2.0712 -0.7011 0.0000 22.8823 0.0000
# 6 0.0000 0.0000 0.0000 0.4352 0.0000 27.3039
#
#
#
# Elastic Compliance Matrix: (Units=1/GPa)
#
#
# Indices 1 2 3 4 5 6 
#
# 1 0.010034 0.000123 -0.007182 0.000000 0.005938 0.000000
# 2 0.000123 0.030572 -0.005834 0.000000 0.002664 0.000000
# 3 -0.007182 -0.005834 0.022427 0.000000 -0.004241 0.000000
# 4 0.000000 0.000000 0.000000 0.082723 0.000000 -0.001318
# 5 0.005938 0.002664 -0.004241 0.000000 0.047451 0.000000
# 6 0.000000 0.000000 0.000000 -0.001318 0.000000 0.036646
#
#
# Mechanical properties :
#
#
# Convention : Reuss Voigt Hill
#
# Bulk Modulus (GPa) = 26.84892 40.77905 33.81399
# Shear Modulus (GPa) = 18.65296 23.87079 21.26187
#
# Velocity S-wave (km/s) = 3.28077 3.71137 3.50269
# Velocity P-wave (km/s) = 5.46297 6.47277 5.98919
#
# Compressibility (1/GPa) = 0.03724544
#
# Stress axis : x y z
#
# Youngs Moduli (GPa) = 99.66574 32.70992 44.58891
#
# Poissons Ratio (x) = -0.00402 0.32025
# Poissons Ratio (y) = -0.01223 0.26013
# Poissons Ratio (z) = 0.71582 0.19083
#
# Static dielectric constant tensor:
#      x y z
#    x 3.681270 0.000000 -0.283560 
#    y 0.000000 3.109370 0.000000 
#    z -0.283560 0.000000 3.269520 
# 
# 
# High freq. dielectric constant tensor:
#      x y z
#    x 1.681410 0.000000 -0.014720 
#    y 0.000000 1.660310 0.000000 
#    z -0.014720 0.000000 1.632690 
# 
# From -- ./inp_files/42527.got.cif
#   From: 2010.06.25/outbox.cif.g09.slc.cpg/sg11_22_cif.got.tgz:42527.got - 2010.06.27 23:14:04.
