data_PCOD8069273
_publ_section_title
;
Structure prediction by ZEFSAII (Michael W. Deem and Ramdas Pophale) SiO2 
 PCOD8069273
Probable space group: P 21/M
;
_chemical_formula_sum "Si O2"
_cell_formula_units_Z 28
_cell_length_a 30.639630
_cell_length_b 8.459338
_cell_length_c 9.870400
_cell_angle_alpha 90.000000
_cell_angle_beta 144.283645
_cell_angle_gamma 90.000000
_cell_volume 1493.477378
_symmetry_space_group_name_H-M "P 21/M"
_symmetry_group_IT_number 11
_symmetry_cell_setting 'monoclinic'
loop_
_space_group_symop_operation_xyz
x,y,z
-x,1/2+y,-z
-x,-y,-z
x,1/2-y,z
loop_
_atom_site_type_symbol
_atom_site_label
_atom_site_fract_x
_atom_site_fract_y
_atom_site_fract_z
Si Si1 0.224198 0.935445 0.474130
Si Si2 0.655400 0.566631 0.025411
Si Si3 0.943044 0.062364 0.246576
Si Si4 0.650043 0.063573 0.713469
Si Si5 0.062431 0.063693 0.058394
Si Si6 0.503957 0.063727 0.661087
Si Si7 0.775303 0.063475 0.829549
O O1 0.238804 0.750000 0.531374
O O2 0.243980 0.992314 0.371584
O O3 0.274130 0.033893 0.703201
O O4 0.138286 0.973285 0.288454
O O5 0.648090 0.750000 0.974633
O O6 0.665628 0.478743 0.908330
O O7 0.580525 0.507488 0.916129
O O8 0.949081 0.250000 0.242951
O O9 0.859348 0.011051 0.080622
O O10 0.000000 0.000000 0.500000
O O11 0.963674 0.977911 0.158615
O O12 0.646025 0.250000 0.689193
O O13 0.716414 0.990776 0.787972
O O14 0.572010 0.993599 0.457664
O O15 0.073801 0.250000 0.103607
O O16 0.000000 0.000000 0.000000
O O17 0.509144 0.250000 0.678508
O O18 0.500000 0.000000 0.500000
O O19 0.770260 0.250000 0.822227
#
# Coordination Sequence:
#
# PCOD8069273 Si02
#       7
#     4   4   4   4   4   4   4
#     4  10  20  38  58  79 107 141 176 219 268 318
#     4  11  21  34  52  79 108 140 179 219 260 314
#     4  10  20  37  57  81 110 144 182 224 269 321
#     4  10  18  33  55  79 104 137 176 220 267 316
#     4  11  22  38  58  82 109 143 181 223 271 323
#     4  10  18  31  50  75 104 137 173 218 268 314
#     4   8  18  35  56  77 104 138 174 213 264 318
#
# _framework density 18.748193000000001
#
# number of rings (size 3 to 8) (size 9 to 14) (size 15 to 20)
#    0.000    2.000    0.000    7.714    0.000    1.143 
#    0.000   13.571    0.000    0.000    0.000    0.000 
#    0.000    0.000    0.000    0.000    0.000    0.000 
#
# Total GULP energy -347160.492121 kJ/mol
# GULP energy per Si atom -12398.589004 kJ/mol
# Density = 1.870552 g / cm^3
# Si number density = 18.748193 Si / 1000 Ang^3
#
#
#
# Elastic Constant Matrix: (Units=GPa)
#
#
# Indices 1 2 3 4 5 6 
#
# 1 140.0630 14.4390 55.5847 0.0000 20.5270 0.0000
# 2 14.4390 71.0823 5.7244 0.0000 3.4836 0.0000
# 3 55.5847 5.7244 106.9116 0.0000 8.5812 0.0000
# 4 0.0000 0.0000 0.0000 31.8090 0.0000 4.7611
# 5 20.5270 3.4836 8.5812 0.0000 17.4898 0.0000
# 6 0.0000 0.0000 0.0000 4.7611 0.0000 23.3557
#
#
#
# Elastic Compliance Matrix: (Units=1/GPa)
#
#
# Indices 1 2 3 4 5 6 
#
# 1 0.010553 -0.001288 -0.004627 0.000000 -0.009860 0.000000
# 2 -0.001288 0.014396 0.000008 0.000000 -0.001360 0.000000
# 3 -0.004627 0.000008 0.011787 0.000000 -0.000355 0.000000
# 4 0.000000 0.000000 0.000000 0.032427 0.000000 -0.006610
# 5 -0.009860 -0.001360 -0.000355 0.000000 0.069193 0.000000
# 6 0.000000 0.000000 0.000000 -0.006610 0.000000 0.044164
#
#
# Mechanical properties :
#
#
# Convention : Reuss Voigt Hill
#
# Bulk Modulus (GPa) = 40.12332 52.17255 46.14794
# Shear Modulus (GPa) = 24.67425 30.68484 27.67955
#
# Velocity S-wave (km/s) = 3.63173 4.04998 3.84654
# Velocity P-wave (km/s) = 6.24768 7.05395 6.66303
#
# Compressibility (1/GPa) = 0.02492316
#
# Stress axis : x y z
#
# Youngs Moduli (GPa) = 94.75556 69.46467 84.83939
#
# Poissons Ratio (x) = 0.08947 0.39251
# Poissons Ratio (y) = 0.12204 -0.00067
# Poissons Ratio (z) = 0.43839 -0.00055
#
# Static dielectric constant tensor:
#      x y z
#    x 3.830210 0.000000 0.330040 
#    y 0.000000 3.457320 0.000000 
#    z 0.330040 0.000000 3.567100 
# 
# 
# High freq. dielectric constant tensor:
#      x y z
#    x 1.724190 0.000000 0.019360 
#    y 0.000000 1.733480 0.000000 
#    z 0.019360 0.000000 1.725930 
# 
# From -- ./inp_files/29115.got.cif
#   From: 2010.06.25/outbox.cif.g09.slc.cpg/sg11_15_cif.got.tgz:29115.got - 2010.06.27 23:14:04.
