data_PCOD8069601
_publ_section_title
;
Structure prediction by ZEFSAII (Michael W. Deem and Ramdas Pophale) SiO2 
 PCOD8069601
Probable space group: P 21/M
;
_chemical_formula_sum "Si O2"
_cell_formula_units_Z 28
_cell_length_a 12.572701
_cell_length_b 17.540624
_cell_length_c 12.765168
_cell_angle_alpha 90.000000
_cell_angle_beta 147.376103
_cell_angle_gamma 90.000000
_cell_volume 1517.704787
_symmetry_space_group_name_H-M "P 21/M"
_symmetry_group_IT_number 11
_symmetry_cell_setting 'monoclinic'
loop_
_space_group_symop_operation_xyz
x,y,z
-x,1/2+y,-z
-x,-y,-z
x,1/2-y,z
loop_
_atom_site_type_symbol
_atom_site_label
_atom_site_fract_x
_atom_site_fract_y
_atom_site_fract_z
Si Si1 0.439413 0.418163 0.496498
Si Si2 0.025008 0.410667 0.498632
Si Si3 0.032500 0.160729 0.127160
Si Si4 0.821913 0.075691 0.131909
Si Si5 0.901522 0.068013 0.607404
Si Si6 0.598073 0.550520 0.298131
Si Si7 0.193979 0.836479 0.272565
O O1 0.500000 0.500000 0.500000
O O2 0.219412 0.394862 0.283626
O O3 0.459498 0.413839 0.638236
O O4 0.580099 0.355064 0.563806
O O5 0.243138 0.395677 0.631524
O O6 0.000000 0.500000 0.500000
O O7 0.859734 0.383804 0.276856
O O8 0.989123 0.377397 0.586083
O O9 0.085931 0.250000 0.187066
O O10 0.878806 0.135730 0.089274
O O11 0.936866 0.144574 0.936212
O O12 0.597076 0.047597 0.935008
O O13 0.962258 0.002457 0.245671
O O14 0.886760 0.117147 0.697525
O O15 0.689295 0.033807 0.393978
O O16 0.179208 0.750000 0.293989
#
# Coordination Sequence:
#
# PCOD8069601 Si02
#       7
#     4   4   4   4   4   4   4
#     4  12  21  36  59  85 110 140 189 229 279 330
#     4   8  18  34  53  84 111 139 185 224 277 319
#     4  11  23  37  54  81 116 148 179 227 283 333
#     4  10  18  34  58  83 110 139 184 231 273 320
#     4  10  21  36  56  81 113 146 188 222 267 334
#     4  10  18  32  58  85 106 136 183 235 273 309
#     4  11  24  38  54  81 115 149 180 222 279 337
#
# _framework density 18.448910000000001
#
# number of rings (size 3 to 8) (size 9 to 14) (size 15 to 20)
#    0.000    2.000    5.714    0.429    2.000    6.286 
#    0.000    0.714    0.000    0.000    0.000    0.000 
#    0.000    0.000    0.000    0.000    0.000    0.000 
#
# Total GULP energy -346971.865499 kJ/mol
# GULP energy per Si atom -12391.852339 kJ/mol
# Density = 1.840692 g / cm^3
# Si number density = 18.448910 Si / 1000 Ang^3
#
#
#
# Elastic Constant Matrix: (Units=GPa)
#
#
# Indices 1 2 3 4 5 6 
#
# 1 132.7235 31.6879 39.1926 0.0000 -24.2898 0.0000
# 2 31.6879 46.4777 37.5314 0.0000 -8.7345 0.0000
# 3 39.1926 37.5314 115.4140 0.0000 5.7770 0.0000
# 4 0.0000 0.0000 0.0000 22.3884 0.0000 0.1736
# 5 -24.2898 -8.7345 5.7770 0.0000 28.9227 0.0000
# 6 0.0000 0.0000 0.0000 0.1736 0.0000 7.7282
#
#
#
# Elastic Compliance Matrix: (Units=1/GPa)
#
#
# Indices 1 2 3 4 5 6 
#
# 1 0.010805 -0.003281 -0.003037 0.000000 0.008690 0.000000
# 2 -0.003281 0.033957 -0.010408 0.000000 0.009578 0.000000
# 3 -0.003037 -0.010408 0.013500 0.000000 -0.008390 0.000000
# 4 0.000000 0.000000 0.000000 0.044674 0.000000 -0.001004
# 5 0.008690 0.009578 -0.008390 0.000000 0.046442 0.000000
# 6 0.000000 0.000000 0.000000 -0.001004 0.000000 0.129419
#
#
# Mechanical properties :
#
#
# Convention : Reuss Voigt Hill
#
# Bulk Modulus (GPa) = 40.30556 56.82654 48.56605
# Shear Modulus (GPa) = 15.59968 24.22139 19.91054
#
# Velocity S-wave (km/s) = 2.91101 3.62731 3.28872
# Velocity P-wave (km/s) = 5.76135 6.95789 6.38770
#
# Compressibility (1/GPa) = 0.02481047
#
# Stress axis : x y z
#
# Youngs Moduli (GPa) = 92.54905 29.44891 74.07228
#
# Poissons Ratio (x) = 0.09662 0.22498
# Poissons Ratio (y) = 0.30366 0.77093
# Poissons Ratio (z) = 0.28109 0.30650
#
# Static dielectric constant tensor:
#      x y z
#    x 4.297860 0.000000 -0.238480 
#    y 0.000000 3.106110 0.000000 
#    z -0.238480 0.000000 3.637620 
# 
# 
# High freq. dielectric constant tensor:
#      x y z
#    x 1.737780 0.000000 -0.007260 
#    y 0.000000 1.671910 0.000000 
#    z -0.007260 0.000000 1.720760 
# 
# From -- ./inp_files/36421.got.cif
#   From: 2010.06.25/outbox.cif.g09.slc.cpg/sg11_19_cif.got.tgz:36421.got - 2010.06.27 23:14:04.
