data_PCOD8069385
_publ_section_title
;
Structure prediction by ZEFSAII (Michael W. Deem and Ramdas Pophale) SiO2 
 PCOD8069385
Probable space group: P 21/M
;
_chemical_formula_sum "Si O2"
_cell_formula_units_Z 24
_cell_length_a 15.354565
_cell_length_b 8.742525
_cell_length_c 18.148073
_cell_angle_alpha 90.000000
_cell_angle_beta 29.760994
_cell_angle_gamma 90.000000
_cell_volume 1209.266139
_symmetry_space_group_name_H-M "P 21/M"
_symmetry_group_IT_number 11
_symmetry_cell_setting 'monoclinic'
loop_
_space_group_symop_operation_xyz
x,y,z
-x,1/2+y,-z
-x,-y,-z
x,1/2-y,z
loop_
_atom_site_type_symbol
_atom_site_label
_atom_site_fract_x
_atom_site_fract_y
_atom_site_fract_z
Si Si1 0.675735 0.927901 0.840679
Si Si2 0.024300 0.427930 0.817037
Si Si3 0.676342 0.569586 0.136777
Si Si4 0.985988 0.926260 0.343928
Si Si5 0.664134 0.929496 0.680519
Si Si6 0.823107 0.431790 0.163661
O O1 0.653204 0.750000 0.866928
O O2 0.707385 0.972616 0.732638
O O3 0.839602 0.979836 0.768568
O O4 0.500000 0.000000 0.000000
O O5 0.006647 0.250000 0.850013
O O6 0.073836 0.453944 0.695893
O O7 0.183194 0.503029 0.748209
O O8 0.839420 0.507371 0.970053
O O9 0.694763 0.750000 0.131688
O O10 0.501588 0.527540 0.222061
O O11 0.667775 0.493613 0.225079
O O12 0.029683 0.750000 0.326941
O O13 0.829614 0.983116 0.510940
O O14 0.623467 0.750000 0.699955
O O15 0.822691 0.250000 0.165180
O O16 0.000000 0.500000 0.000000
#
# Coordination Sequence:
#
# PCOD8069385 Si02
#       6
#     4   4   4   4   4   4
#     4  11  23  38  60  85 112 143 182 227 271 322
#     4  10  19  34  56  82 110 143 182 228 275 324
#     4  11  21  34  55  83 111 144 185 229 271 322
#     4  10  22  39  59  81 111 146 182 224 275 327
#     4  10  22  40  57  79 111 148 183 223 274 326
#     4  10  18  31  53  80 110 144 181 227 274 321
#
# _framework density 19.846747000000001
#
# number of rings (size 3 to 8) (size 9 to 14) (size 15 to 20)
#    0.000    1.667    0.000    7.500    0.000    7.333 
#    0.000    0.833    0.000    0.000    0.000    0.000 
#    0.000    0.000    0.000    0.000    0.000    0.000 
#
# Total GULP energy -297640.951454 kJ/mol
# GULP energy per Si atom -12401.706311 kJ/mol
# Density = 1.980158 g / cm^3
# Si number density = 19.846747 Si / 1000 Ang^3
#
#
#
# Elastic Constant Matrix: (Units=GPa)
#
#
# Indices 1 2 3 4 5 6 
#
# 1 78.7638 42.8880 5.8159 0.0000 24.2778 0.0000
# 2 42.8880 120.1330 22.9228 0.0000 11.4771 0.0000
# 3 5.8159 22.9228 67.5646 0.0000 24.6977 0.0000
# 4 0.0000 0.0000 0.0000 22.0213 0.0000 -3.6984
# 5 24.2778 11.4771 24.6977 0.0000 26.5078 0.0000
# 6 0.0000 0.0000 0.0000 -3.6984 0.0000 39.3453
#
#
#
# Elastic Compliance Matrix: (Units=1/GPa)
#
#
# Indices 1 2 3 4 5 6 
#
# 1 0.026348 -0.008717 0.012330 0.000000 -0.031846 0.000000
# 2 -0.008717 0.011828 -0.006534 0.000000 0.008950 0.000000
# 3 0.012330 -0.006534 0.028889 0.000000 -0.035380 0.000000
# 4 0.000000 0.000000 0.000000 0.046139 0.000000 0.004337
# 5 -0.031846 0.008950 -0.035380 0.000000 0.095981 0.000000
# 6 0.000000 0.000000 0.000000 0.004337 0.000000 0.025824
#
#
# Mechanical properties :
#
#
# Convention : Reuss Voigt Hill
#
# Bulk Modulus (GPa) = 16.33352 45.52387 30.92869
# Shear Modulus (GPa) = 19.13818 30.56384 24.85101
#
# Velocity S-wave (km/s) = 3.10868 3.92853 3.54241
# Velocity P-wave (km/s) = 4.59705 6.60040 5.68763
#
# Compressibility (1/GPa) = 0.06122379
#
# Stress axis : x y z
#
# Youngs Moduli (GPa) = 37.95340 84.54714 34.61500
#
# Poissons Ratio (x) = 0.73697 -0.42681
# Poissons Ratio (y) = 0.33083 0.22618
# Poissons Ratio (z) = -0.46798 0.55245
#
# Static dielectric constant tensor:
#      x y z
#    x 4.213840 0.000000 0.204730 
#    y 0.000000 3.649800 0.000000 
#    z 0.204730 0.000000 3.343500 
# 
# 
# High freq. dielectric constant tensor:
#      x y z
#    x 1.797500 0.000000 0.008000 
#    y 0.000000 1.782240 0.000000 
#    z 0.008000 0.000000 1.747590 
# 
# From -- ./inp_files/53340.got.cif
#   From: 2010.06.25/outbox.cif.g09.slc.cpg/sg11_27_cif.got.tgz:53340.got - 2010.06.27 23:14:04.
