data_PCOD8069651
_publ_section_title
;
Structure prediction by ZEFSAII (Michael W. Deem and Ramdas Pophale) SiO2 
 PCOD8069651
Probable space group: P 21/M
;
_chemical_formula_sum "Si O2"
_cell_formula_units_Z 28
_cell_length_a 31.631570
_cell_length_b 8.563311
_cell_length_c 9.677860
_cell_angle_alpha 90.000000
_cell_angle_beta 145.558703
_cell_angle_gamma 90.000000
_cell_volume 1482.592141
_symmetry_space_group_name_H-M "P 21/M"
_symmetry_group_IT_number 11
_symmetry_cell_setting 'monoclinic'
loop_
_space_group_symop_operation_xyz
x,y,z
-x,1/2+y,-z
-x,-y,-z
x,1/2-y,z
loop_
_atom_site_type_symbol
_atom_site_label
_atom_site_fract_x
_atom_site_fract_y
_atom_site_fract_z
Si Si1 0.417825 0.064747 0.294560
Si Si2 0.896847 0.069459 0.111733
Si Si3 0.304515 0.566716 0.194779
Si Si4 0.704632 0.565338 0.248500
Si Si5 0.738620 0.566751 0.641909
Si Si6 0.818059 0.565952 0.329450
Si Si7 0.956005 0.430842 0.573835
O O1 0.418331 0.250000 0.311354
O O2 0.500000 0.000000 0.500000
O O3 0.381376 0.991816 0.333714
O O4 0.370377 0.010172 0.032491
O O5 0.875715 0.250000 0.036574
O O6 0.917752 0.029147 0.325059
O O7 0.966822 0.025922 0.202452
O O8 0.826878 0.964475 0.881458
O O9 0.294767 0.750000 0.146158
O O10 0.306185 0.526654 0.361448
O O11 0.233297 0.479216 0.939116
O O12 0.707827 0.750000 0.258690
O O13 0.706205 0.501973 0.408758
O O14 0.777269 0.506339 0.358955
O O15 0.723888 0.750000 0.620159
O O16 0.830300 0.750000 0.360475
O O17 0.898591 0.483145 0.538383
O O18 0.975191 0.250000 0.640143
#
# Coordination Sequence:
#
# PCOD8069651 Si02
#       7
#     4   4   4   4   4   4   4
#     4  10  20  39  63  88 113 141 177 219 265 315
#     4  10  20  32  48  74 108 141 180 229 275 319
#     4  11  21  34  54  83 112 143 182 221 261 316
#     4   8  19  36  56  81 110 142 177 218 267 323
#     4  11  20  35  56  79 109 145 181 221 271 321
#     4  10  18  33  55  78 105 141 184 230 274 319
#     4  10  19  31  49  75 106 139 183 231 275 320
#
# _framework density 18.885843000000001
#
# number of rings (size 3 to 8) (size 9 to 14) (size 15 to 20)
#    0.000    2.000    1.429    4.286    0.000    1.143 
#    0.000   10.000    0.000    0.000    0.000    0.000 
#    0.000    0.000    0.000    0.000    0.000    0.000 
#
# Total GULP energy -347232.525507 kJ/mol
# GULP energy per Si atom -12401.161625 kJ/mol
# Density = 1.884286 g / cm^3
# Si number density = 18.885843 Si / 1000 Ang^3
#
#
#
# Elastic Constant Matrix: (Units=GPa)
#
#
# Indices 1 2 3 4 5 6 
#
# 1 126.3661 12.4019 58.6556 0.0000 5.1250 0.0000
# 2 12.4019 40.9262 14.6465 0.0000 -1.6683 0.0000
# 3 58.6556 14.6465 72.6833 0.0000 4.4092 0.0000
# 4 0.0000 0.0000 0.0000 20.6835 0.0000 9.5005
# 5 5.1250 -1.6683 4.4092 0.0000 36.2154 0.0000
# 6 0.0000 0.0000 0.0000 9.5005 0.0000 30.5691
#
#
#
# Elastic Compliance Matrix: (Units=1/GPa)
#
#
# Indices 1 2 3 4 5 6 
#
# 1 0.012666 -0.000232 -0.010140 0.000000 -0.000569 0.000000
# 2 -0.000232 0.026464 -0.005260 0.000000 0.001892 0.000000
# 3 -0.010140 -0.005260 0.023100 0.000000 -0.001620 0.000000
# 4 0.000000 0.000000 0.000000 0.056399 0.000000 -0.017528
# 5 -0.000569 0.001892 -0.001620 0.000000 0.027977 0.000000
# 6 0.000000 0.000000 0.000000 -0.017528 0.000000 0.038160
#
#
# Mechanical properties :
#
#
# Convention : Reuss Voigt Hill
#
# Bulk Modulus (GPa) = 32.29491 45.70928 39.00210
# Shear Modulus (GPa) = 22.08928 27.77838 24.93383
#
# Velocity S-wave (km/s) = 3.42368 3.83934 3.63745
# Velocity P-wave (km/s) = 5.72416 6.62642 6.19175
#
# Compressibility (1/GPa) = 0.03096463
#
# Stress axis : x y z
#
# Youngs Moduli (GPa) = 78.94988 37.78679 43.29033
#
# Poissons Ratio (x) = 0.00878 0.43898
# Poissons Ratio (y) = 0.01835 0.22771
# Poissons Ratio (z) = 0.80058 0.19876
#
# Static dielectric constant tensor:
#      x y z
#    x 3.692070 0.000000 -0.026920 
#    y 0.000000 3.373340 0.000000 
#    z -0.026920 0.000000 3.344940 
# 
# 
# High freq. dielectric constant tensor:
#      x y z
#    x 1.738050 0.000000 0.009900 
#    y 0.000000 1.734570 0.000000 
#    z 0.009900 0.000000 1.706510 
# 
# From -- ./inp_files/28646.got.cif
#   From: 2010.06.25/outbox.cif.g09.slc.cpg/sg11_15_cif.got.tgz:28646.got - 2010.06.27 23:14:04.
