data_PCOD8069257
_publ_section_title
;
Structure prediction by ZEFSAII (Michael W. Deem and Ramdas Pophale) SiO2 
 PCOD8069257
Probable space group: P 21/M
;
_chemical_formula_sum "Si O2"
_cell_formula_units_Z 24
_cell_length_a 23.676030
_cell_length_b 8.589248
_cell_length_c 11.919060
_cell_angle_alpha 90.000000
_cell_angle_beta 146.353211
_cell_angle_gamma 90.000000
_cell_volume 1342.987215
_symmetry_space_group_name_H-M "P 21/M"
_symmetry_group_IT_number 11
_symmetry_cell_setting 'monoclinic'
loop_
_space_group_symop_operation_xyz
x,y,z
-x,1/2+y,-z
-x,-y,-z
x,1/2-y,z
loop_
_atom_site_type_symbol
_atom_site_label
_atom_site_fract_x
_atom_site_fract_y
_atom_site_fract_z
Si Si1 0.887831 0.935696 0.802348
Si Si2 0.738525 0.433105 0.384417
Si Si3 0.567289 0.927490 0.254434
Si Si4 0.726468 0.574312 0.707920
Si Si5 0.639746 0.567832 0.021833
Si Si6 0.392117 0.064099 0.282487
O O1 0.886451 0.750000 0.799902
O O2 0.819795 0.005245 0.793659
O O3 0.840307 0.993593 0.606534
O O4 0.000000 0.000000 0.000000
O O5 0.743167 0.250000 0.407552
O O6 0.638457 0.503199 0.276327
O O7 0.730292 0.480301 0.239393
O O8 0.538217 0.750000 0.175812
O O9 0.623522 0.934675 0.466071
O O10 0.467284 0.031961 0.095641
O O11 0.761322 0.750000 0.785808
O O12 0.696853 0.500582 0.779806
O O13 0.661647 0.750000 0.061548
O O14 0.637549 0.504886 0.890485
O O15 0.398618 0.250000 0.297772
O O16 0.500000 0.000000 0.500000
#
# Coordination Sequence:
#
# PCOD8069257 Si02
#       6
#     4   4   4   4   4   4
#     4  10  20  37  60  83 105 130 166 215 270 320
#     4  11  22  35  51  73 103 136 175 217 263 313
#     4  10  18  31  50  71 103 140 176 215 258 309
#     4   8  16  31  51  75 104 136 170 210 258 304
#     4  11  21  31  47  73 106 142 178 214 255 307
#     4  10  19  32  50  74 105 143 181 214 250 301
#
# _framework density 17.870609999999999
#
# number of rings (size 3 to 8) (size 9 to 14) (size 15 to 20)
#    0.000    2.000    1.667    4.500    0.000    0.667 
#    0.000    0.833    0.000    1.000    0.000    0.000 
#    0.000    0.000    0.000    0.000    0.000    0.000 
#
# Total GULP energy -297484.166392 kJ/mol
# GULP energy per Si atom -12395.173600 kJ/mol
# Density = 1.782994 g / cm^3
# Si number density = 17.870610 Si / 1000 Ang^3
#
#
#
# Elastic Constant Matrix: (Units=GPa)
#
#
# Indices 1 2 3 4 5 6 
#
# 1 87.0063 24.6689 75.0743 0.0000 -15.8319 0.0000
# 2 24.6689 54.1713 19.6020 0.0000 -8.8094 0.0000
# 3 75.0743 19.6020 114.7781 0.0000 -10.1932 0.0000
# 4 0.0000 0.0000 0.0000 30.0564 0.0000 -0.0245
# 5 -15.8319 -8.8094 -10.1932 0.0000 28.9110 0.0000
# 6 0.0000 0.0000 0.0000 -0.0245 0.0000 18.0941
#
#
#
# Elastic Compliance Matrix: (Units=1/GPa)
#
#
# Indices 1 2 3 4 5 6 
#
# 1 0.030258 -0.005883 -0.018039 0.000000 0.008417 0.000000
# 2 -0.005883 0.021535 0.000482 0.000000 0.003510 0.000000
# 3 -0.018039 0.000482 0.020197 0.000000 -0.002611 0.000000
# 4 0.000000 0.000000 0.000000 0.033271 0.000000 0.000045
# 5 0.008417 0.003510 -0.002611 0.000000 0.039347 0.000000
# 6 0.000000 0.000000 0.000000 0.000045 0.000000 0.055267
#
#
# Mechanical properties :
#
#
# Convention : Reuss Voigt Hill
#
# Bulk Modulus (GPa) = 39.82388 54.96069 47.39229
# Shear Modulus (GPa) = 19.59807 24.51965 22.05886
#
# Velocity S-wave (km/s) = 3.31519 3.70816 3.51716
# Velocity P-wave (km/s) = 6.08168 7.01110 6.56286
#
# Compressibility (1/GPa) = 0.02511056
#
# Stress axis : x y z
#
# Youngs Moduli (GPa) = 33.04875 46.43496 49.51111
#
# Poissons Ratio (x) = 0.27317 0.89314
# Poissons Ratio (y) = 0.19442 -0.02385
# Poissons Ratio (z) = 0.59617 -0.02237
#
# Static dielectric constant tensor:
#      x y z
#    x 3.469250 0.000000 -0.286460 
#    y 0.000000 3.225840 0.000000 
#    z -0.286460 0.000000 3.325500 
# 
# 
# High freq. dielectric constant tensor:
#      x y z
#    x 1.683230 0.000000 -0.022510 
#    y 0.000000 1.685170 0.000000 
#    z -0.022510 0.000000 1.676160 
# 
# From -- ./inp_files/33830.got.cif
#   From: 2010.06.25/outbox.cif.g09.slc.cpg/sg11_17_cif.got.tgz:33830.got - 2010.06.27 23:14:04.
