data_PCOD8069913
_publ_section_title
;
Structure prediction by ZEFSAII (Michael W. Deem and Ramdas Pophale) SiO2 
 PCOD8069913
Probable space group: P 21/M
;
_chemical_formula_sum "Si O2"
_cell_formula_units_Z 32
_cell_length_a 18.749326
_cell_length_b 13.423960
_cell_length_c 20.812742
_cell_angle_alpha 90.000000
_cell_angle_beta 33.261985
_cell_angle_gamma 90.000000
_cell_volume 2873.075397
_symmetry_space_group_name_H-M "P 21/M"
_symmetry_group_IT_number 11
_symmetry_cell_setting 'monoclinic'
loop_
_space_group_symop_operation_xyz
x,y,z
-x,1/2+y,-z
-x,-y,-z
x,1/2-y,z
loop_
_atom_site_type_symbol
_atom_site_label
_atom_site_fract_x
_atom_site_fract_y
_atom_site_fract_z
Si Si1 0.754423 0.139403 0.101447
Si Si2 0.395638 0.001281 0.715613
Si Si3 0.987607 0.639404 0.156525
Si Si4 0.604147 0.361843 0.524599
Si Si5 0.534788 0.864422 0.508213
Si Si6 0.152716 0.138828 0.874435
Si Si7 0.108778 0.861172 0.864068
Si Si8 0.784358 0.498716 0.326895
O O1 0.701416 0.250000 0.125661
O O2 0.636977 0.059244 0.193689
O O3 0.817033 0.137693 0.124707
O O4 0.861976 0.108827 0.967400
O O5 0.440402 0.921228 0.628388
O O6 0.510975 0.079425 0.644504
O O7 0.268411 0.060661 0.788982
O O8 0.981185 0.750000 0.191741
O O9 0.911287 0.637694 0.146976
O O10 0.910939 0.559243 0.258398
O O11 0.628839 0.250000 0.530436
O O12 0.534489 0.365827 0.508149
O O13 0.740574 0.420568 0.414902
O O14 0.557483 0.750000 0.513568
O O15 0.670892 0.921235 0.397897
O O16 0.206608 0.250000 0.848183
O O17 0.042423 0.109715 0.010013
O O18 0.117951 0.750000 0.827256
O O19 0.175542 0.939340 0.767062
#
# Coordination Sequence:
#
# PCOD8069913 Si02
#       8
#     4   4   4   4   4   4   4   4
#     4   9  16  23  30  39  46  49  54  63  71  78
#     4  11  17  23  32  36  41  52  59  62  70  79
#     4   9  16  23  30  39  46  49  54  63  71  78
#     4  10  19  25  28  35  43  50  59  67  70  73
#     4  10  19  25  28  35  43  50  59  67  70  73
#     4   9  16  23  30  39  46  49  54  63  71  78
#     4   9  16  23  30  39  46  49  54  63  71  78
#     4  11  17  23  32  36  41  52  59  62  70  79
#
# _framework density 11.137891
#
# number of rings (size 3 to 8) (size 9 to 14) (size 15 to 20)
#    0.000    2.250    0.000    9.000    0.000    6.000 
#    0.000    0.000    0.000    0.000    0.000    0.000 
#    0.000    0.000    0.000    0.000    0.000    0.000 
#
# Total GULP energy -396455.833195 kJ/mol
# GULP energy per Si atom -12389.244787 kJ/mol
# Density = 1.111254 g / cm^3
# Si number density = 11.137891 Si / 1000 Ang^3
#
#
#
# Elastic Constant Matrix: (Units=GPa)
#
#
# Indices 1 2 3 4 5 6 
#
# 1 0.0184 0.7823 1.2230 0.0000 -0.1521 0.0000
# 2 0.7823 95.3992 50.4749 0.0000 -6.2852 0.0000
# 3 1.2230 50.4749 78.9114 0.0000 -9.8257 0.0000
# 4 0.0000 0.0000 0.0000 25.3520 0.0000 -3.1566
# 5 -0.1521 -6.2852 -9.8257 0.0000 1.2233 0.0000
# 6 0.0000 0.0000 0.0000 -3.1566 0.0000 0.3930
#
#
#
# Elastic Compliance Matrix: (Units=1/GPa)
#
#
# Indices 1 2 3 4 5 6 
#
# 1 ********** -0.010583********** 0.000008********** 0.000063
# 2 -0.010583 0.015844 -0.016434 0.000000 -0.051907 0.000000
# 3 ********** -0.016434********** 0.000002********** 0.000019
# 4 0.000006 0.000000 0.000002********** 0.000013**********
# 5 ********** -0.051907********** 0.000020********** 0.000161
# 6 0.000047 0.000000 0.000013********** 0.000107**********
#
#
# Mechanical properties :
#
#
# Convention : Reuss Voigt Hill
#
# Bulk Modulus (GPa) = -0.00029 31.03216 15.51593
# Shear Modulus (GPa) = -0.00007 13.51693 6.75843
#
# Velocity S-wave (km/s) = -0.00799 3.48745 2.46600
# Velocity P-wave (km/s) = 0.01861 6.64370 4.69779
#
# Compressibility (1/GPa) = *************
#
# Stress axis : x y z
#
# Youngs Moduli (GPa) = -0.00040 63.11422 -0.00495
#
# Poissons Ratio (x) = 0.66792 -1.79190
# Poissons Ratio (y) = 0.00000 -0.00008
# Poissons Ratio (z) = -0.14385 1.03721
#
# Static dielectric constant tensor:
#      x y z
#    x 1.496320 0.000000 -0.187330 
#    y 0.000000 3.108400 0.000000 
#    z -0.187330 0.000000 2.977480 
# 
# 
# High freq. dielectric constant tensor:
#      x y z
#    x 1.278030 0.000000 -0.021830 
#    y 0.000000 1.454690 0.000000 
#    z -0.021830 0.000000 1.450640 
# 
# From -- ./inp_files/53677.got.cif
#   From: 2010.06.25/outbox.cif.g09.slc.cpg/sg11_27_cif.got.tgz:53677.got - 2010.06.27 23:14:04.
