data_PCOD8069214
_publ_section_title
;
Structure prediction by ZEFSAII (Michael W. Deem and Ramdas Pophale) SiO2 
 PCOD8069214
Probable space group: P 21/M
;
_chemical_formula_sum "Si O2"
_cell_formula_units_Z 32
_cell_length_a 11.869068
_cell_length_b 8.896321
_cell_length_c 20.432378
_cell_angle_alpha 90.000000
_cell_angle_beta 114.480160
_cell_angle_gamma 90.000000
_cell_volume 1963.529311
_symmetry_space_group_name_H-M "P 21/M"
_symmetry_group_IT_number 11
_symmetry_cell_setting 'monoclinic'
loop_
_space_group_symop_operation_xyz
x,y,z
-x,1/2+y,-z
-x,-y,-z
x,1/2-y,z
loop_
_atom_site_type_symbol
_atom_site_label
_atom_site_fract_x
_atom_site_fract_y
_atom_site_fract_z
Si Si1 0.093836 0.922588 0.608097
Si Si2 0.816790 0.577917 0.492963
Si Si3 0.051207 0.573533 0.740404
Si Si4 0.226853 0.429011 0.302964
Si Si5 0.099517 0.082185 0.876877
Si Si6 0.809899 0.078452 0.836106
Si Si7 0.133022 0.427462 0.025584
Si Si8 0.631583 0.071383 0.545315
O O1 0.134715 0.750000 0.608743
O O2 0.113912 0.979635 0.687533
O O3 0.949349 0.941086 0.558223
O O4 0.176825 0.025443 0.580987
O O5 0.771470 0.750000 0.485016
O O6 0.721942 0.472733 0.508044
O O7 0.045570 0.750000 0.740329
O O8 0.132358 0.520094 0.822151
O O9 0.910587 0.513243 0.711062
O O10 0.239552 0.250000 0.310007
O O11 0.259423 0.486114 0.237715
O O12 0.322055 0.505280 0.375021
O O13 0.130837 0.250000 0.862244
O O14 0.956077 0.066034 0.860650
O O15 0.178441 0.040384 0.961428
O O16 0.763574 0.250000 0.824762
O O17 0.776798 0.002994 0.898650
O O18 0.123229 0.250000 0.036190
O O19 0.000000 0.500000 0.000000
O O20 0.622076 0.250000 0.547677
O O21 0.500000 0.000000 0.500000
#
# Coordination Sequence:
#
# PCOD8069214 Si02
#       8
#     4   4   4   4   4   4   4   4
#     4   9  17  30  46  67  92 117 147 185 226 269
#     4  10  19  33  49  68  90 114 148 186 227 273
#     4   9  16  26  41  60  85 114 144 180 220 261
#     4  10  18  31  46  63  85 111 145 185 224 267
#     4   8  15  23  32  50  77 106 142 178 212 255
#     4   9  16  25  37  55  76 104 141 180 217 260
#     4   9  15  23  33  48  72 105 141 180 217 256
#     4  12  24  37  52  68  89 118 150 189 232 275
#
# _framework density 16.297184999999999
#
# number of rings (size 3 to 8) (size 9 to 14) (size 15 to 20)
#    0.000    2.500    1.250    3.375    0.000    5.000 
#    0.000    0.000    0.000    0.000    0.000    0.000 
#    0.000    0.000    0.000    1.125    0.000   15.375 
#
# Total GULP energy -396604.940455 kJ/mol
# GULP energy per Si atom -12393.904389 kJ/mol
# Density = 1.626009 g / cm^3
# Si number density = 16.297185 Si / 1000 Ang^3
#
#
#
# Elastic Constant Matrix: (Units=GPa)
#
#
# Indices 1 2 3 4 5 6 
#
# 1 26.9181 23.0021 41.0781 0.0000 -8.4795 0.0000
# 2 23.0021 91.9565 55.7764 0.0000 -9.9100 0.0000
# 3 41.0781 55.7764 140.5801 0.0000 -34.0282 0.0000
# 4 0.0000 0.0000 0.0000 33.1042 0.0000 -6.9572
# 5 -8.4795 -9.9100 -34.0282 0.0000 20.9265 0.0000
# 6 0.0000 0.0000 0.0000 -6.9572 0.0000 17.4585
#
#
#
# Elastic Compliance Matrix: (Units=1/GPa)
#
#
# Indices 1 2 3 4 5 6 
#
# 1 0.070566 -0.006450 -0.019589 0.000000 -0.006314 0.000000
# 2 -0.006450 0.015122 -0.004971 0.000000 -0.003535 0.000000
# 3 -0.019589 -0.004971 0.020314 0.000000 0.022741 0.000000
# 4 0.000000 0.000000 0.000000 0.032969 0.000000 0.013138
# 5 -0.006314 -0.003535 0.022741 0.000000 0.080532 0.000000
# 6 0.000000 0.000000 0.000000 0.013138 0.000000 0.062514
#
#
# Mechanical properties :
#
#
# Convention : Reuss Voigt Hill
#
# Bulk Modulus (GPa) = 22.73625 55.46308 39.09966
# Shear Modulus (GPa) = 13.93928 23.60438 18.77183
#
# Velocity S-wave (km/s) = 2.92776 3.80988 3.39757
# Velocity P-wave (km/s) = 5.04086 7.31162 6.27973
#
# Compressibility (1/GPa) = 0.04398263
#
# Stress axis : x y z
#
# Youngs Moduli (GPa) = 14.17111 66.12776 49.22683
#
# Poissons Ratio (x) = 0.42654 0.96430
# Poissons Ratio (y) = 0.09141 0.24470
# Poissons Ratio (z) = 0.27760 0.32871
#
# Static dielectric constant tensor:
#      x y z
#    x 2.667820 0.000000 -0.421250 
#    y 0.000000 3.172630 0.000000 
#    z -0.421250 0.000000 3.487920 
# 
# 
# High freq. dielectric constant tensor:
#      x y z
#    x 1.554200 0.000000 -0.039740 
#    y 0.000000 1.638260 0.000000 
#    z -0.039740 0.000000 1.636500 
# 
# From -- ./inp_files/42530.got.cif
#   From: 2010.06.25/outbox.cif.g09.slc.cpg/sg11_22_cif.got.tgz:42530.got - 2010.06.27 23:14:04.
