data_PCOD8069795
_publ_section_title
;
Structure prediction by ZEFSAII (Michael W. Deem and Ramdas Pophale) SiO2 
 PCOD8069795
Probable space group: P 21/M
;
_chemical_formula_sum "Si O2"
_cell_formula_units_Z 32
_cell_length_a 19.126732
_cell_length_b 14.827631
_cell_length_c 12.149576
_cell_angle_alpha 90.000000
_cell_angle_beta 151.661172
_cell_angle_gamma 90.000000
_cell_volume 1635.607037
_symmetry_space_group_name_H-M "P 21/M"
_symmetry_group_IT_number 11
_symmetry_cell_setting 'monoclinic'
loop_
_space_group_symop_operation_xyz
x,y,z
-x,1/2+y,-z
-x,-y,-z
x,1/2-y,z
loop_
_atom_site_type_symbol
_atom_site_label
_atom_site_fract_x
_atom_site_fract_y
_atom_site_fract_z
Si Si1 0.948937 0.028551 0.079836
Si Si2 0.366591 0.650229 0.070980
Si Si3 0.221947 0.144053 0.806422
Si Si4 0.485698 0.017637 0.108377
Si Si5 0.444105 0.088460 0.485107
Si Si6 0.053725 0.852619 0.716080
Si Si7 0.243945 0.999716 0.380455
Si Si8 0.177636 0.351976 0.995046
O O1 0.908401 0.089352 0.125575
O O2 0.844310 0.060498 0.832651
O O3 0.119176 0.044956 0.284379
O O4 0.918897 0.922871 0.068082
O O5 0.410951 0.750000 0.090765
O O6 0.438884 0.578284 0.091666
O O7 0.417013 0.639676 0.269280
O O8 0.190561 0.638696 0.822394
O O9 0.251723 0.250000 0.838376
O O10 0.090837 0.111185 0.545678
O O11 0.369048 0.094394 0.973299
O O12 0.173849 0.117815 0.862854
O O13 0.640304 0.050886 0.378189
O O14 0.500000 0.000000 0.000000
O O15 0.350227 0.147617 0.269451
O O16 0.500000 0.000000 0.500000
O O17 0.336891 0.071724 0.440365
O O18 0.030551 0.750000 0.721831
O O19 0.115355 0.250000 0.924336
#
# Coordination Sequence:
#
# PCOD8069795 Si02
#       8
#     4   4   4   4   4   4   4   4
#     4  10  19  37  57  77 113 145 178 230 276 322
#     4  10  21  36  56  84 113 142 184 232 275 332
#     4  10  22  38  55  80 110 140 184 234 277 330
#     4  11  22  37  57  80 110 150 188 224 281 339
#     4  10  18  34  59  83 111 145 183 226 275 326
#     4  10  21  37  58  82 106 141 185 228 282 338
#     4   9  20  35  54  83 110 141 185 228 271 328
#     4  10  20  34  56  82 110 146 180 217 273 331
#
# _framework density 19.564602000000001
#
# number of rings (size 3 to 8) (size 9 to 14) (size 15 to 20)
#    0.000    2.000    0.000    4.875    0.000    3.500 
#    0.000   11.875    0.000    1.500    0.000    0.000 
#    0.000    0.000    0.000    0.000    0.000    0.000 
#
# Total GULP energy -396608.553027 kJ/mol
# GULP energy per Si atom -12394.017282 kJ/mol
# Density = 1.952007 g / cm^3
# Si number density = 19.564602 Si / 1000 Ang^3
#
#
#
# Elastic Constant Matrix: (Units=GPa)
#
#
# Indices 1 2 3 4 5 6 
#
# 1 94.9517 43.1302 40.8805 0.0000 -5.0042 0.0000
# 2 43.1302 68.5954 35.6035 0.0000 0.6654 0.0000
# 3 40.8805 35.6035 145.0964 0.0000 -4.1278 0.0000
# 4 0.0000 0.0000 0.0000 26.6742 0.0000 0.8411
# 5 -5.0042 0.6654 -4.1278 0.0000 33.7827 0.0000
# 6 0.0000 0.0000 0.0000 0.8411 0.0000 17.0281
#
#
#
# Elastic Compliance Matrix: (Units=1/GPa)
#
#
# Indices 1 2 3 4 5 6 
#
# 1 0.015515 -0.008641 -0.002188 0.000000 0.002201 0.000000
# 2 -0.008641 0.021541 -0.002910 0.000000 -0.002060 0.000000
# 3 -0.002188 -0.002910 0.008244 0.000000 0.000740 0.000000
# 4 0.000000 0.000000 0.000000 0.037548 0.000000 -0.001855
# 5 0.002201 -0.002060 0.000740 0.000000 0.030058 0.000000
# 6 0.000000 0.000000 0.000000 -0.001855 0.000000 0.058818
#
#
# Mechanical properties :
#
#
# Convention : Reuss Voigt Hill
#
# Bulk Modulus (GPa) = 56.11049 60.87465 58.49257
# Shear Modulus (GPa) = 24.37335 28.09895 26.23615
#
# Velocity S-wave (km/s) = 3.53340 3.79385 3.66594
# Velocity P-wave (km/s) = 6.73709 7.09742 6.91960
#
# Compressibility (1/GPa) = 0.01782198
#
# Stress axis : x y z
#
# Youngs Moduli (GPa) = 64.45502 46.42214 121.30550
#
# Poissons Ratio (x) = 0.40111 0.26547
# Poissons Ratio (y) = 0.55693 0.35299
# Poissons Ratio (z) = 0.14105 0.13509
#
# Static dielectric constant tensor:
#      x y z
#    x 3.571120 0.000000 -0.100290 
#    y 0.000000 3.607150 0.000000 
#    z -0.100290 0.000000 4.160630 
# 
# 
# High freq. dielectric constant tensor:
#      x y z
#    x 1.757240 0.000000 -0.006790 
#    y 0.000000 1.737780 0.000000 
#    z -0.006790 0.000000 1.786230 
# 
# From -- ./inp_files/41684.got.cif
#   From: 2010.06.25/outbox.cif.g09.slc.cpg/sg11_21_cif.got.tgz:41684.got - 2010.06.27 23:14:04.
