data_PCOD8069985
_publ_section_title
;
Structure prediction by ZEFSAII (Michael W. Deem and Ramdas Pophale) SiO2 
 PCOD8069985
Probable space group: P 21/M
;
_chemical_formula_sum "Si O2"
_cell_formula_units_Z 28
_cell_length_a 20.961399
_cell_length_b 9.303129
_cell_length_c 11.478791
_cell_angle_alpha 90.000000
_cell_angle_beta 49.285848
_cell_angle_gamma 90.000000
_cell_volume 1696.677626
_symmetry_space_group_name_H-M "P 21/M"
_symmetry_group_IT_number 11
_symmetry_cell_setting 'monoclinic'
loop_
_space_group_symop_operation_xyz
x,y,z
-x,1/2+y,-z
-x,-y,-z
x,1/2-y,z
loop_
_atom_site_type_symbol
_atom_site_label
_atom_site_fract_x
_atom_site_fract_y
_atom_site_fract_z
Si Si1 0.736713 0.418542 0.032978
Si Si2 0.401796 0.910808 0.504740
Si Si3 0.051572 0.417787 0.600898
Si Si4 0.932590 0.916366 0.155360
Si Si5 0.447568 0.591212 0.720091
Si Si6 0.244304 0.417807 0.754108
Si Si7 0.121432 0.916490 0.313534
O O1 0.745489 0.250000 0.056089
O O2 0.639985 0.455415 0.113982
O O3 0.767277 0.511232 0.105977
O O4 0.793555 0.459210 0.854943
O O5 0.384705 0.750000 0.477729
O O6 0.429629 0.905771 0.604598
O O7 0.477513 0.980947 0.338793
O O8 0.318412 0.007053 0.591912
O O9 0.070359 0.250000 0.569486
O O10 0.064758 0.474691 0.715837
O O11 0.118145 0.495894 0.437425
O O12 0.956803 0.456885 0.676099
O O13 0.958089 0.750000 0.121460
O O14 0.840175 0.943176 0.216578
O O15 0.000000 0.000000 0.000000
O O16 0.475152 0.750000 0.729130
O O17 0.265898 0.250000 0.743837
O O18 0.119900 0.750000 0.348217
#
# Coordination Sequence:
#
# PCOD8069985 Si02
#       7
#     4   4   4   4   4   4   4
#     4   9  17  29  45  66  92 120 148 181 224 266
#     4   9  16  26  40  59  86 119 149 178 218 264
#     4   9  18  32  47  64  89 118 147 181 221 260
#     4  10  21  34  48  67  91 120 151 184 221 261
#     4   8  14  24  39  60  86 115 145 178 217 263
#     4  10  19  29  43  65  91 119 152 184 217 262
#     4   9  17  30  48  67  87 114 148 183 218 261
#
# _framework density 16.502841
#
# number of rings (size 3 to 8) (size 9 to 14) (size 15 to 20)
#    0.000    2.857    0.000    2.571    0.000    6.857 
#    0.000    2.857    0.000    0.000    0.000    1.000 
#    0.000    0.000    0.000    0.000    0.000    0.000 
#
# Total GULP energy -347157.727953 kJ/mol
# GULP energy per Si atom -12398.490284 kJ/mol
# Density = 1.646528 g / cm^3
# Si number density = 16.502841 Si / 1000 Ang^3
#
#
#
# Elastic Constant Matrix: (Units=GPa)
#
#
# Indices 1 2 3 4 5 6 
#
# 1 64.0136 47.8256 61.2623 0.0000 -3.2897 0.0000
# 2 47.8256 88.9483 66.6532 0.0000 -7.9829 0.0000
# 3 61.2623 66.6532 148.8531 0.0000 -14.9583 0.0000
# 4 0.0000 0.0000 0.0000 30.5936 0.0000 -4.2627
# 5 -3.2897 -7.9829 -14.9583 0.0000 24.2748 0.0000
# 6 0.0000 0.0000 0.0000 -4.2627 0.0000 20.5454
#
#
#
# Elastic Compliance Matrix: (Units=1/GPa)
#
#
# Indices 1 2 3 4 5 6 
#
# 1 0.031968 -0.011132 -0.008640 0.000000 -0.004652 0.000000
# 2 -0.011132 0.020817 -0.004481 0.000000 0.002576 0.000000
# 3 -0.008640 -0.004481 0.012808 0.000000 0.005248 0.000000
# 4 0.000000 0.000000 0.000000 0.033660 0.000000 0.006984
# 5 -0.004652 0.002576 0.005248 0.000000 0.044645 0.000000
# 6 0.000000 0.000000 0.000000 0.006984 0.000000 0.050122
#
#
# Mechanical properties :
#
#
# Convention : Reuss Voigt Hill
#
# Bulk Modulus (GPa) = 58.52329 72.58859 65.55594
# Shear Modulus (GPa) = 20.14346 23.48767 21.81557
#
# Velocity S-wave (km/s) = 3.49751 3.77669 3.63978
# Velocity P-wave (km/s) = 7.20067 7.94348 7.58118
#
# Compressibility (1/GPa) = 0.01708721
#
# Stress axis : x y z
#
# Youngs Moduli (GPa) = 31.28169 48.03803 78.07835
#
# Poissons Ratio (x) = 0.53475 0.67457
# Poissons Ratio (y) = 0.34822 0.34987
# Poissons Ratio (z) = 0.27026 0.21526
#
# Static dielectric constant tensor:
#      x y z
#    x 2.914090 0.000000 -0.275140 
#    y 0.000000 3.239840 0.000000 
#    z -0.275140 0.000000 3.242070 
# 
# 
# High freq. dielectric constant tensor:
#      x y z
#    x 1.600730 0.000000 -0.027600 
#    y 0.000000 1.640970 0.000000 
#    z -0.027600 0.000000 1.630630 
# 
# From -- ./inp_files/42361.got.cif
#   From: 2010.06.25/outbox.cif.g09.slc.cpg/sg11_22_cif.got.tgz:42361.got - 2010.06.27 23:14:04.
