data_PCOD8069553
_publ_section_title
;
Structure prediction by ZEFSAII (Michael W. Deem and Ramdas Pophale) SiO2 
 PCOD8069553
Probable space group: P 21/M
;
_chemical_formula_sum "Si O2"
_cell_formula_units_Z 28
_cell_length_a 14.102958
_cell_length_b 8.730597
_cell_length_c 17.566549
_cell_angle_alpha 90.000000
_cell_angle_beta 135.917330
_cell_angle_gamma 90.000000
_cell_volume 1504.734350
_symmetry_space_group_name_H-M "P 21/M"
_symmetry_group_IT_number 11
_symmetry_cell_setting 'monoclinic'
loop_
_space_group_symop_operation_xyz
x,y,z
-x,1/2+y,-z
-x,-y,-z
x,1/2-y,z
loop_
_atom_site_type_symbol
_atom_site_label
_atom_site_fract_x
_atom_site_fract_y
_atom_site_fract_z
Si Si1 0.375486 0.432414 0.634041
Si Si2 0.866419 0.929161 0.065388
Si Si3 0.070830 0.425429 0.731038
Si Si4 0.859287 0.571720 0.392550
Si Si5 0.792875 0.570038 0.601715
Si Si6 0.847214 0.568158 0.799722
Si Si7 0.678092 0.068408 0.838447
O O1 0.377447 0.250000 0.637626
O O2 0.269544 0.497490 0.635942
O O3 0.328691 0.490571 0.522862
O O4 0.525698 0.496031 0.737537
O O5 0.887498 0.750000 0.060726
O O6 0.846991 0.962983 0.144173
O O7 0.994788 0.021720 0.106313
O O8 0.731808 0.990695 0.946508
O O9 0.022405 0.250000 0.703977
O O10 0.164415 0.460011 0.711328
O O11 0.935495 0.525548 0.646008
O O12 0.869786 0.750000 0.416508
O O13 0.000000 0.500000 0.500000
O O14 0.788623 0.750000 0.603016
O O15 0.781889 0.508768 0.682009
O O16 0.834353 0.750000 0.803702
O O17 0.770044 0.479824 0.820909
O O18 0.680736 0.250000 0.849146
#
# Coordination Sequence:
#
# PCOD8069553 Si02
#       7
#     4   4   4   4   4   4   4
#     4   9  19  34  52  75 107 141 170 205 253 310
#     4  10  20  36  55  76 104 135 172 216 258 300
#     4   9  18  31  52  81 106 130 165 213 260 298
#     4  10  18  32  55  81 106 134 168 206 253 306
#     4   9  17  32  53  77 104 135 169 206 254 310
#     4  10  20  34  55  80 103 131 172 217 259 304
#     4  11  22  36  52  72 102 142 180 211 252 304
#
# _framework density 18.607935000000001
#
# number of rings (size 3 to 8) (size 9 to 14) (size 15 to 20)
#    0.000    2.286    1.429    1.714    0.000    1.714 
#    0.000    3.571    0.000    0.000    0.000    0.000 
#    0.000    0.000    0.000    0.000    0.000    0.000 
#
# Total GULP energy -347119.433926 kJ/mol
# GULP energy per Si atom -12397.122640 kJ/mol
# Density = 1.856558 g / cm^3
# Si number density = 18.607935 Si / 1000 Ang^3
#
#
#
# Elastic Constant Matrix: (Units=GPa)
#
#
# Indices 1 2 3 4 5 6 
#
# 1 57.1618 11.2999 50.2458 0.0000 -13.8514 0.0000
# 2 11.2999 22.8290 18.6495 0.0000 -5.7193 0.0000
# 3 50.2458 18.6495 156.3908 0.0000 -5.8303 0.0000
# 4 0.0000 0.0000 0.0000 22.8268 0.0000 0.5879
# 5 -13.8514 -5.7193 -5.8303 0.0000 24.3844 0.0000
# 6 0.0000 0.0000 0.0000 0.5879 0.0000 18.2641
#
#
#
# Elastic Compliance Matrix: (Units=1/GPa)
#
#
# Indices 1 2 3 4 5 6 
#
# 1 0.028839 -0.004155 -0.008269 0.000000 0.013430 0.000000
# 2 -0.004155 0.051722 -0.004509 0.000000 0.008693 0.000000
# 3 -0.008269 -0.004509 0.009458 0.000000 -0.003493 0.000000
# 4 0.000000 0.000000 0.000000 0.043845 0.000000 -0.001411
# 5 0.013430 0.008693 -0.003493 0.000000 0.049842 0.000000
# 6 0.000000 0.000000 0.000000 -0.001411 0.000000 0.054798
#
#
# Mechanical properties :
#
#
# Convention : Reuss Voigt Hill
#
# Bulk Modulus (GPa) = 17.80843 44.08578 30.94710
# Shear Modulus (GPa) = 17.17704 23.50748 20.34226
#
# Velocity S-wave (km/s) = 3.04156 3.55815 3.30995
# Velocity P-wave (km/s) = 4.68251 6.37369 5.59240
#
# Compressibility (1/GPa) = 0.05615319
#
# Stress axis : x y z
#
# Youngs Moduli (GPa) = 34.67576 19.33430 105.72530
#
# Poissons Ratio (x) = 0.08033 0.87427
# Poissons Ratio (y) = 0.14406 0.47670
# Poissons Ratio (z) = 0.28674 0.08718
#
# Static dielectric constant tensor:
#      x y z
#    x 3.559090 0.000000 -0.273950 
#    y 0.000000 3.289780 0.000000 
#    z -0.273950 0.000000 3.843760 
# 
# 
# High freq. dielectric constant tensor:
#      x y z
#    x 1.713470 0.000000 -0.022200 
#    y 0.000000 1.709590 0.000000 
#    z -0.022200 0.000000 1.726910 
# 
# From -- ./inp_files/53228.got.cif
#   From: 2010.06.25/outbox.cif.g09.slc.cpg/sg11_27_cif.got.tgz:53228.got - 2010.06.27 23:14:04.
