data_PCOD8069669
_publ_section_title
;
Structure prediction by ZEFSAII (Michael W. Deem and Ramdas Pophale) SiO2 
 PCOD8069669
Probable space group: P 21/M
;
_chemical_formula_sum "Si O2"
_cell_formula_units_Z 32
_cell_length_a 19.222666
_cell_length_b 13.670331
_cell_length_c 6.821561
_cell_angle_alpha 90.000000
_cell_angle_beta 87.309299
_cell_angle_gamma 90.000000
_cell_volume 1790.594914
_symmetry_space_group_name_H-M "P 21/M"
_symmetry_group_IT_number 11
_symmetry_cell_setting 'monoclinic'
loop_
_space_group_symop_operation_xyz
x,y,z
-x,1/2+y,-z
-x,-y,-z
x,1/2-y,z
loop_
_atom_site_type_symbol
_atom_site_label
_atom_site_fract_x
_atom_site_fract_y
_atom_site_fract_z
Si Si1 0.207844 0.135557 0.873105
Si Si2 0.094058 0.049918 0.152963
Si Si3 0.575586 0.003766 0.584257
Si Si4 0.649017 0.977326 0.182035
Si Si5 0.599711 0.139284 0.931076
Si Si6 0.555394 0.860225 0.922482
Si Si7 0.902420 0.860142 0.440711
Si Si8 0.983086 0.360971 0.897350
O O1 0.217076 0.250000 0.919570
O O2 0.281579 0.084772 0.843389
O O3 0.165843 0.119333 0.678763
O O4 0.167382 0.084464 0.056784
O O5 0.096482 0.062143 0.385582
O O6 0.081892 0.935368 0.103791
O O7 0.030744 0.115475 0.079048
O O8 0.587809 0.101048 0.711730
O O9 0.500000 0.000000 0.500000
O O10 0.634751 0.002679 0.410133
O O11 0.584895 0.909772 0.722374
O O12 0.584486 0.913523 0.111130
O O13 0.655171 0.075403 0.047927
O O14 0.627264 0.250000 0.914326
O O15 0.527782 0.132831 0.061208
O O16 0.582466 0.750000 0.917769
O O17 0.900090 0.750000 0.525317
O O18 0.971144 0.875412 0.302772
O O19 0.955010 0.250000 0.919374
#
# Coordination Sequence:
#
# PCOD8069669 Si02
#       8
#     4   4   4   4   4   4   4   4
#     4  10  22  36  52  77 106 140 178 214 259 319
#     4  10  18  33  56  77 110 148 174 212 265 311
#     4  11  19  34  53  78 104 132 171 220 270 323
#     4  11  21  37  54  75 108 139 177 225 269 321
#     4  10  21  36  55  78 103 134 173 220 275 330
#     4  10  20  33  53  81 106 131 168 217 275 328
#     4   9  17  31  52  79 109 139 176 217 260 310
#     4   9  18  31  52  85 110 135 179 221 258 304
#
# _framework density 17.871154000000001
#
# number of rings (size 3 to 8) (size 9 to 14) (size 15 to 20)
#    0.000    2.000    2.500    3.375    0.000    4.000 
#    0.000    1.875    0.000    0.750    0.000    0.000 
#    0.000    0.000    0.000    0.000    0.000    0.000 
#
# Total GULP energy -396847.829356 kJ/mol
# GULP energy per Si atom -12401.494667 kJ/mol
# Density = 1.783048 g / cm^3
# Si number density = 17.871154 Si / 1000 Ang^3
#
#
#
# Elastic Constant Matrix: (Units=GPa)
#
#
# Indices 1 2 3 4 5 6 
#
# 1 60.0634 36.0222 22.6389 0.0000 -8.5876 0.0000
# 2 36.0222 143.9311 47.4062 0.0000 -3.6568 0.0000
# 3 22.6389 47.4062 103.3253 0.0000 -1.9748 0.0000
# 4 0.0000 0.0000 0.0000 20.7232 0.0000 -0.5780
# 5 -8.5876 -3.6568 -1.9748 0.0000 12.4294 0.0000
# 6 0.0000 0.0000 0.0000 -0.5780 0.0000 31.4783
#
#
#
# Elastic Compliance Matrix: (Units=1/GPa)
#
#
# Indices 1 2 3 4 5 6 
#
# 1 0.022189 -0.004349 -0.002606 0.000000 0.013637 0.000000
# 2 -0.004349 0.009078 -0.003228 0.000000 -0.000847 0.000000
# 3 -0.002606 -0.003228 0.011713 0.000000 -0.000889 0.000000
# 4 0.000000 0.000000 0.000000 0.048280 0.000000 0.000886
# 5 0.013637 -0.000847 -0.000889 0.000000 0.089486 0.000000
# 6 0.000000 0.000000 0.000000 0.000886 0.000000 0.031784
#
#
# Mechanical properties :
#
#
# Convention : Reuss Voigt Hill
#
# Bulk Modulus (GPa) = 44.21927 57.71715 50.96821
# Shear Modulus (GPa) = 20.79567 26.34299 23.56933
#
# Velocity S-wave (km/s) = 3.41492 3.84350 3.63553
# Velocity P-wave (km/s) = 6.35185 7.21547 6.79739
#
# Compressibility (1/GPa) = 0.02261458
#
# Stress axis : x y z
#
# Youngs Moduli (GPa) = 45.06730 110.15738 85.37268
#
# Poissons Ratio (x) = 0.47903 0.22247
# Poissons Ratio (y) = 0.19598 0.27562
# Poissons Ratio (z) = 0.11744 0.35563
#
# Static dielectric constant tensor:
#      x y z
#    x 3.035550 0.000000 0.055350 
#    y 0.000000 3.445430 0.000000 
#    z 0.055350 0.000000 3.393340 
# 
# 
# High freq. dielectric constant tensor:
#      x y z
#    x 1.659840 0.000000 0.004260 
#    y 0.000000 1.696190 0.000000 
#    z 0.004260 0.000000 1.698210 
# 
# From -- ./inp_files/8107.got.cif
#   From: 2010.06.25/outbox.cif.g09.slc.cpg/sg11_5_cif.got.tgz:8107.got - 2010.06.27 23:14:04.
