data_PCOD8069455
_publ_section_title
;
Structure prediction by ZEFSAII (Michael W. Deem and Ramdas Pophale) SiO2 
 PCOD8069455
Probable space group: P 21/M
;
_chemical_formula_sum "Si O2"
_cell_formula_units_Z 32
_cell_length_a 23.153765
_cell_length_b 13.523837
_cell_length_c 16.323565
_cell_angle_alpha 90.000000
_cell_angle_beta 160.703088
_cell_angle_gamma 90.000000
_cell_volume 1689.118402
_symmetry_space_group_name_H-M "P 21/M"
_symmetry_group_IT_number 11
_symmetry_cell_setting 'monoclinic'
loop_
_space_group_symop_operation_xyz
x,y,z
-x,1/2+y,-z
-x,-y,-z
x,1/2-y,z
loop_
_atom_site_type_symbol
_atom_site_label
_atom_site_fract_x
_atom_site_fract_y
_atom_site_fract_z
Si Si1 0.170450 0.137336 0.680039
Si Si2 0.917320 0.361908 0.491093
Si Si3 0.428858 0.528378 0.994416
Si Si4 0.954107 0.457230 0.252398
Si Si5 0.591474 0.137156 0.569368
Si Si6 0.437168 0.552207 0.290257
Si Si7 0.356682 0.363806 0.582908
Si Si8 0.025174 0.860760 0.886876
O O1 0.235031 0.250000 0.768881
O O2 0.029130 0.113655 0.560198
O O3 0.075591 0.115674 0.467317
O O4 0.341133 0.068667 0.918191
O O5 0.937152 0.250000 0.546308
O O6 0.991528 0.429264 0.662764
O O7 0.715015 0.385420 0.203939
O O8 0.581438 0.568691 0.257659
O O9 0.500000 0.500000 0.000000
O O10 0.986031 0.439022 0.200444
O O11 0.752264 0.440718 0.005251
O O12 0.534352 0.250000 0.473726
O O13 0.554981 0.114988 0.615942
O O14 0.481400 0.063082 0.365333
O O15 0.797308 0.120556 0.824059
O O16 0.569408 0.600123 0.403989
O O17 0.410146 0.250000 0.671256
O O18 0.147935 0.374132 0.290711
O O19 0.034310 0.750000 0.861595
#
# Coordination Sequence:
#
# PCOD8069455 Si02
#       8
#     4   4   4   4   4   4   4   4
#     4  10  20  34  52  73 102 139 176 216 260 309
#     4  10  20  33  49  70 100 138 176 214 259 309
#     4  11  22  35  52  77 110 143 177 218 264 309
#     4  10  18  32  51  73 100 131 171 212 256 308
#     4   9  19  37  56  77 107 138 167 211 272 326
#     4  10  20  33  56  84 105 131 174 222 264 314
#     4  11  21  34  54  80 106 136 179 223 258 301
#     4   9  19  34  53  75 100 134 171 208 258 316
#
# _framework density 18.944794999999999
#
# number of rings (size 3 to 8) (size 9 to 14) (size 15 to 20)
#    0.000    2.000    0.000    5.625    0.000    5.500 
#    0.000    0.625    0.000    0.750    0.000    0.000 
#    0.000    0.000    0.000    0.000    0.000    0.000 
#
# Total GULP energy -396792.965702 kJ/mol
# GULP energy per Si atom -12399.780178 kJ/mol
# Density = 1.890168 g / cm^3
# Si number density = 18.944795 Si / 1000 Ang^3
#
#
#
# Elastic Constant Matrix: (Units=GPa)
#
#
# Indices 1 2 3 4 5 6 
#
# 1 66.1631 26.3541 26.8372 0.0000 20.8812 0.0000
# 2 26.3541 110.1998 22.7190 0.0000 8.7517 0.0000
# 3 26.8372 22.7190 52.2561 0.0000 13.8865 0.0000
# 4 0.0000 0.0000 0.0000 21.7460 0.0000 0.9220
# 5 20.8812 8.7517 13.8865 0.0000 28.0907 0.0000
# 6 0.0000 0.0000 0.0000 0.9220 0.0000 24.7295
#
#
#
# Elastic Compliance Matrix: (Units=1/GPa)
#
#
# Indices 1 2 3 4 5 6 
#
# 1 0.023309 -0.003066 -0.007238 0.000000 -0.012793 0.000000
# 2 -0.003066 0.010401 -0.003099 0.000000 0.000571 0.000000
# 3 -0.007238 -0.003099 0.025920 0.000000 -0.006467 0.000000
# 4 0.000000 0.000000 0.000000 0.046058 0.000000 -0.001717
# 5 -0.012793 0.000571 -0.006467 0.000000 0.048128 0.000000
# 6 0.000000 0.000000 0.000000 -0.001717 0.000000 0.040502
#
#
# Mechanical properties :
#
#
# Convention : Reuss Voigt Hill
#
# Bulk Modulus (GPa) = 30.46592 42.27106 36.36849
# Shear Modulus (GPa) = 21.54560 25.09381 23.31971
#
# Velocity S-wave (km/s) = 3.37602 3.64342 3.51227
# Velocity P-wave (km/s) = 5.59580 6.32934 5.97384
#
# Compressibility (1/GPa) = 0.03282356
#
# Stress axis : x y z
#
# Youngs Moduli (GPa) = 42.90187 96.14214 38.58049
#
# Poissons Ratio (x) = 0.29478 0.27925
# Poissons Ratio (y) = 0.13154 0.11956
# Poissons Ratio (z) = 0.31053 0.29795
#
# Static dielectric constant tensor:
#      x y z
#    x 3.278520 0.000000 0.218340 
#    y 0.000000 3.558520 0.000000 
#    z 0.218340 0.000000 3.549800 
# 
# 
# High freq. dielectric constant tensor:
#      x y z
#    x 1.721530 0.000000 0.018310 
#    y 0.000000 1.743380 0.000000 
#    z 0.018310 0.000000 1.734670 
# 
# From -- ./inp_files/26853.got.cif
#   From: 2010.06.25/outbox.cif.g09.slc.cpg/sg11_14_cif.got.tgz:26853.got - 2010.06.27 23:14:04.
