data_PCOD8069232
_publ_section_title
;
Structure prediction by ZEFSAII (Michael W. Deem and Ramdas Pophale) SiO2 
 PCOD8069232
Probable space group: P 21/M
;
_chemical_formula_sum "Si O2"
_cell_formula_units_Z 32
_cell_length_a 23.813535
_cell_length_b 8.682601
_cell_length_c 12.404966
_cell_angle_alpha 90.000000
_cell_angle_beta 46.250346
_cell_angle_gamma 90.000000
_cell_volume 1852.797147
_symmetry_space_group_name_H-M "P 21/M"
_symmetry_group_IT_number 11
_symmetry_cell_setting 'monoclinic'
loop_
_space_group_symop_operation_xyz
x,y,z
-x,1/2+y,-z
-x,-y,-z
x,1/2-y,z
loop_
_atom_site_type_symbol
_atom_site_label
_atom_site_fract_x
_atom_site_fract_y
_atom_site_fract_z
Si Si1 0.682173 0.068677 0.720863
Si Si2 0.162158 0.069470 0.169405
Si Si3 0.681314 0.931127 0.137227
Si Si4 0.162473 0.067672 0.414146
Si Si5 0.596958 0.427586 0.051715
Si Si6 0.578568 0.927431 0.677062
Si Si7 0.577190 0.430191 0.447979
Si Si8 0.993227 0.431286 0.391203
O O1 0.675154 0.250000 0.711803
O O2 0.771583 0.016707 0.604613
O O3 0.643554 0.981047 0.673466
O O4 0.639841 0.016736 0.886915
O O5 0.174132 0.250000 0.165261
O O6 0.167796 0.004759 0.284049
O O7 0.078228 0.033522 0.225150
O O8 0.232205 0.002937 0.003922
O O9 0.681524 0.750000 0.157210
O O10 0.624342 0.967630 0.113931
O O11 0.652843 0.012599 0.283341
O O12 0.171810 0.250000 0.411714
O O13 0.078211 0.015914 0.574455
O O14 0.616346 0.250000 0.052353
O O15 0.505327 0.453298 0.157140
O O16 0.591663 0.750000 0.629447
O O17 0.586889 0.026600 0.558789
O O18 0.500000 0.500000 0.500000
O O19 0.570062 0.250000 0.444716
O O20 0.977015 0.250000 0.417488
O O21 0.000000 0.500000 0.500000
#
# Coordination Sequence:
#
# PCOD8069232 Si02
#       8
#     4   4   4   4   4   4   4   4
#     4  11  22  35  52  78 108 141 177 217 261 310
#     4   8  16  29  47  73 104 135 171 210 256 307
#     4  11  20  33  55  79 104 140 176 215 263 310
#     4  10  18  31  48  72 104 141 176 211 256 310
#     4  10  21  35  52  76 106 138 176 216 260 312
#     4  11  23  39  56  75 101 138 179 221 264 312
#     4  12  24  39  56  77 102 134 176 223 267 312
#     4   9  16  28  45  70 102 137 172 210 253 309
#
# _framework density 17.271183000000001
#
# number of rings (size 3 to 8) (size 9 to 14) (size 15 to 20)
#    0.000    1.750    2.500    4.125    0.000    1.000 
#    0.000    1.875    0.000    0.000    0.000    0.875 
#    0.000    0.000    0.000    0.000    0.000    0.000 
#
# Total GULP energy -396765.752058 kJ/mol
# GULP energy per Si atom -12398.929752 kJ/mol
# Density = 1.723187 g / cm^3
# Si number density = 17.271183 Si / 1000 Ang^3
#
#
#
# Elastic Constant Matrix: (Units=GPa)
#
#
# Indices 1 2 3 4 5 6 
#
# 1 88.8871 18.6776 46.6545 0.0000 -20.3521 0.0000
# 2 18.6776 68.7419 26.8668 0.0000 -6.3783 0.0000
# 3 46.6545 26.8668 78.2663 0.0000 -18.3792 0.0000
# 4 0.0000 0.0000 0.0000 23.6841 0.0000 -0.8900
# 5 -20.3521 -6.3783 -18.3792 0.0000 31.7041 0.0000
# 6 0.0000 0.0000 0.0000 -0.8900 0.0000 28.5467
#
#
#
# Elastic Compliance Matrix: (Units=1/GPa)
#
#
# Indices 1 2 3 4 5 6 
#
# 1 0.017320 -0.000768 -0.008666 0.000000 0.005940 0.000000
# 2 -0.000768 0.016835 -0.005373 0.000000 -0.000221 0.000000
# 3 -0.008666 -0.005373 0.021099 0.000000 0.005587 0.000000
# 4 0.000000 0.000000 0.000000 0.042272 0.000000 0.001318
# 5 0.005940 -0.000221 0.005587 0.000000 0.038550 0.000000
# 6 0.000000 0.000000 0.000000 0.001318 0.000000 0.035071
#
#
# Mechanical properties :
#
#
# Convention : Reuss Voigt Hill
#
# Bulk Modulus (GPa) = 39.00076 46.69924 42.85000
# Shear Modulus (GPa) = 23.88810 26.36675 25.12742
#
# Velocity S-wave (km/s) = 3.72306 3.91145 3.81842
# Velocity P-wave (km/s) = 6.41187 6.89179 6.65616
#
# Compressibility (1/GPa) = 0.02564053
#
# Stress axis : x y z
#
# Youngs Moduli (GPa) = 57.73581 59.39869 47.39474
#
# Poissons Ratio (x) = 0.04561 0.41073
# Poissons Ratio (y) = 0.04433 0.25467
# Poissons Ratio (z) = 0.50034 0.31917
#
# Static dielectric constant tensor:
#      x y z
#    x 3.233440 0.000000 -0.346350 
#    y 0.000000 3.240250 0.000000 
#    z -0.346350 0.000000 3.523440 
# 
# 
# High freq. dielectric constant tensor:
#      x y z
#    x 1.649320 0.000000 -0.028640 
#    y 0.000000 1.672960 0.000000 
#    z -0.028640 0.000000 1.654390 
# 
# From -- ./inp_files/42741.got.cif
#   From: 2010.06.25/outbox.cif.g09.slc.cpg/sg11_22_cif.got.tgz:42741.got - 2010.06.27 23:14:04.
