data_PCOD8069629
_publ_section_title
;
Structure prediction by ZEFSAII (Michael W. Deem and Ramdas Pophale) SiO2 
 PCOD8069629
Probable space group: P 21/M
;
_chemical_formula_sum "Si O2"
_cell_formula_units_Z 28
_cell_length_a 25.932315
_cell_length_b 10.372322
_cell_length_c 19.730374
_cell_angle_alpha 90.000000
_cell_angle_beta 16.324331
_cell_angle_gamma 90.000000
_cell_volume 1491.673207
_symmetry_space_group_name_H-M "P 21/M"
_symmetry_group_IT_number 11
_symmetry_cell_setting 'monoclinic'
loop_
_space_group_symop_operation_xyz
x,y,z
-x,1/2+y,-z
-x,-y,-z
x,1/2-y,z
loop_
_atom_site_type_symbol
_atom_site_label
_atom_site_fract_x
_atom_site_fract_y
_atom_site_fract_z
Si Si1 0.250255 0.019403 0.249243
Si Si2 0.647130 0.390413 0.750602
Si Si3 0.243831 0.399845 0.491085
Si Si4 0.482035 0.598999 0.740467
Si Si5 0.051824 0.892473 0.028378
Si Si6 0.746040 0.895661 0.298339
Si Si7 0.141362 0.895755 0.247007
O O1 0.071031 0.091537 0.505307
O O2 0.298492 0.902005 0.238730
O O3 0.198971 0.977479 0.238836
O O4 0.426523 0.111082 0.022482
O O5 0.715818 0.250000 0.638227
O O6 0.744769 0.507945 0.588437
O O7 0.274533 0.250000 0.430897
O O8 0.401570 0.452558 0.342401
O O9 0.045955 0.416866 0.776118
O O10 0.520491 0.750000 0.689107
O O11 0.560099 0.549409 0.569484
O O12 0.268665 0.561944 0.021914
O O13 0.145270 0.750000 0.911182
O O14 0.901792 0.895045 0.158790
O O15 0.203050 0.004204 0.825696
O O16 0.722698 0.750000 0.298021
O O17 0.190026 0.750000 0.203955
#
# Coordination Sequence:
#
# PCOD8069629 Si02
#       7
#     4   4   4   4   4   4   4
#     4  10  22  34  50  72 100 132 169 209 251 299
#     4  11  22  35  50  74 104 134 167 209 254 297
#     4   9  17  30  48  69  96 132 168 202 242 294
#     4   8  14  26  46  69  94 126 163 200 243 292
#     4   8  14  24  39  62  93 126 159 193 237 288
#     4   8  13  22  39  63  92 123 157 192 234 289
#     4  10  18  33  54  73  95 131 171 208 247 295
#
# _framework density 18.770866999999999
#
# number of rings (size 3 to 8) (size 9 to 14) (size 15 to 20)
#    0.000    2.857    1.429    2.571    0.000    3.429 
#    0.000    2.143    0.000    0.000    0.000    1.000 
#    0.000    0.000    0.000    0.000    0.000    0.000 
#
# Total GULP energy -346899.705411 kJ/mol
# GULP energy per Si atom -12389.275193 kJ/mol
# Density = 1.872814 g / cm^3
# Si number density = 18.770867 Si / 1000 Ang^3
#
#
#
# Elastic Constant Matrix: (Units=GPa)
#
#
# Indices 1 2 3 4 5 6 
#
# 1 34.4674 21.9653 25.6512 0.0000 3.2544 0.0000
# 2 21.9653 106.0303 50.8649 0.0000 20.3718 0.0000
# 3 25.6512 50.8649 123.2827 0.0000 23.4913 0.0000
# 4 0.0000 0.0000 0.0000 24.4960 0.0000 11.6527
# 5 3.2544 20.3718 23.4913 0.0000 20.0928 0.0000
# 6 0.0000 0.0000 0.0000 11.6527 0.0000 10.9259
#
#
#
# Elastic Compliance Matrix: (Units=1/GPa)
#
#
# Indices 1 2 3 4 5 6 
#
# 1 0.037106 -0.005966 -0.006776 0.000000 0.007961 0.000000
# 2 -0.005966 0.013822 -0.002542 0.000000 -0.010077 0.000000
# 3 -0.006776 -0.002542 0.012699 0.000000 -0.011172 0.000000
# 4 0.000000 0.000000 0.000000 0.082862 0.000000 -0.088374
# 5 0.007961 -0.010077 -0.011172 0.000000 0.071759 0.000000
# 6 0.000000 0.000000 0.000000 -0.088374 0.000000 0.185778
#
#
# Mechanical properties :
#
#
# Convention : Reuss Voigt Hill
#
# Bulk Modulus (GPa) = 30.24773 51.19369 40.72071
# Shear Modulus (GPa) = 11.22049 22.12286 16.67167
#
# Velocity S-wave (km/s) = 2.44757 3.43676 2.98345
# Velocity P-wave (km/s) = 4.91290 6.56358 5.79729
#
# Compressibility (1/GPa) = 0.03306033
#
# Stress axis : x y z
#
# Youngs Moduli (GPa) = 26.94974 72.34606 78.74738
#
# Poissons Ratio (x) = 0.43160 0.53360
# Poissons Ratio (y) = 0.16078 0.20014
# Poissons Ratio (z) = 0.18262 0.18387
#
# Static dielectric constant tensor:
#      x y z
#    x 3.016580 0.000000 0.204570 
#    y 0.000000 3.350740 0.000000 
#    z 0.204570 0.000000 3.798550 
# 
# 
# High freq. dielectric constant tensor:
#      x y z
#    x 1.687830 0.000000 0.018980 
#    y 0.000000 1.707970 0.000000 
#    z 0.018980 0.000000 1.734080 
# 
# From -- ./inp_files/61920.got.cif
#   From: 2010.06.25/outbox.cif.g09.slc.cpg/sg11_31_cif.got.tgz:61920.got - 2010.06.27 23:14:04.
