data_PCOD8069680
_publ_section_title
;
Structure prediction by ZEFSAII (Michael W. Deem and Ramdas Pophale) SiO2 
 PCOD8069680
Probable space group: P 21/M
;
_chemical_formula_sum "Si O2"
_cell_formula_units_Z 28
_cell_length_a 27.704319
_cell_length_b 8.587563
_cell_length_c 9.797560
_cell_angle_alpha 90.000000
_cell_angle_beta 38.437688
_cell_angle_gamma 90.000000
_cell_volume 1449.073677
_symmetry_space_group_name_H-M "P 21/M"
_symmetry_group_IT_number 11
_symmetry_cell_setting 'monoclinic'
loop_
_space_group_symop_operation_xyz
x,y,z
-x,1/2+y,-z
-x,-y,-z
x,1/2-y,z
loop_
_atom_site_type_symbol
_atom_site_label
_atom_site_fract_x
_atom_site_fract_y
_atom_site_fract_z
Si Si1 0.508089 0.065530 0.132885
Si Si2 0.936316 0.430643 0.740040
Si Si3 0.649053 0.067294 0.494277
Si Si4 0.224180 0.432967 0.981612
Si Si5 0.032148 0.428620 0.792739
Si Si6 0.800981 0.934819 0.657030
Si Si7 0.333910 0.065529 0.243861
O O1 0.506489 0.250000 0.139491
O O2 0.433516 0.999096 0.378974
O O3 0.500000 0.000000 0.000000
O O4 0.590978 0.003408 0.002868
O O5 0.921002 0.250000 0.739106
O O6 0.858881 0.530927 0.899744
O O7 0.000000 0.500000 0.500000
O O8 0.966321 0.452640 0.826318
O O9 0.642154 0.250000 0.531927
O O10 0.673563 0.992945 0.584587
O O11 0.711587 0.028987 0.241504
O O12 0.241354 0.250000 0.930513
O O13 0.225734 0.492606 0.134479
O O14 0.049413 0.250000 0.782944
O O15 0.114126 0.506132 0.565421
O O16 0.000000 0.500000 0.000000
O O17 0.805745 0.750000 0.651942
O O18 0.740786 0.992208 0.675380
O O19 0.340719 0.250000 0.230521
#
# Coordination Sequence:
#
# PCOD8069680 Si02
#       7
#     4   4   4   4   4   4   4
#     4  10  18  33  56  84 115 150 188 231 283 335
#     4  11  22  39  61  85 114 150 193 235 282 337
#     4  11  22  37  57  87 118 147 190 237 279 337
#     4  11  22  40  61  83 114 152 192 237 285 337
#     4  10  22  40  58  84 115 149 190 237 283 335
#     4   9  20  39  59  81 114 151 189 233 285 339
#     4  10  19  35  60  87 114 151 190 232 287 338
#
# _framework density 19.322690000000001
#
# number of rings (size 3 to 8) (size 9 to 14) (size 15 to 20)
#    0.000    1.714    1.429    5.571    2.000    1.143 
#    0.000    4.286    0.000    0.000    0.000    0.000 
#    0.000    0.000    0.000    0.000    0.000    0.000 
#
# Total GULP energy -347185.223084 kJ/mol
# GULP energy per Si atom -12399.472253 kJ/mol
# Density = 1.927871 g / cm^3
# Si number density = 19.322690 Si / 1000 Ang^3
#
#
#
# Elastic Constant Matrix: (Units=GPa)
#
#
# Indices 1 2 3 4 5 6 
#
# 1 89.3523 28.4136 51.0525 0.0000 -1.8973 0.0000
# 2 28.4136 84.6210 25.2177 0.0000 1.5807 0.0000
# 3 51.0525 25.2177 141.1381 0.0000 -4.6582 0.0000
# 4 0.0000 0.0000 0.0000 35.5983 0.0000 -3.7538
# 5 -1.8973 1.5807 -4.6582 0.0000 31.0465 0.0000
# 6 0.0000 0.0000 0.0000 -3.7538 0.0000 25.5403
#
#
#
# Elastic Compliance Matrix: (Units=1/GPa)
#
#
# Indices 1 2 3 4 5 6 
#
# 1 0.015101 -0.003648 -0.004798 0.000000 0.000389 0.000000
# 2 -0.003648 0.013393 -0.001109 0.000000 -0.001071 0.000000
# 3 -0.004798 -0.001109 0.009056 0.000000 0.001122 0.000000
# 4 0.000000 0.000000 0.000000 0.028533 0.000000 0.004194
# 5 0.000389 -0.001071 0.001122 0.000000 0.032456 0.000000
# 6 0.000000 0.000000 0.000000 0.004194 0.000000 0.039770
#
#
# Mechanical properties :
#
#
# Convention : Reuss Voigt Hill
#
# Bulk Modulus (GPa) = 54.22793 58.27545 56.25169
# Shear Modulus (GPa) = 30.56872 32.46553 31.51712
#
# Velocity S-wave (km/s) = 3.98177 4.10344 4.04306
# Velocity P-wave (km/s) = 7.01887 7.25779 7.13933
#
# Compressibility (1/GPa) = 0.01844068
#
# Stress axis : x y z
#
# Youngs Moduli (GPa) = 66.21962 74.66730 110.42597
#
# Poissons Ratio (x) = 0.27239 0.52980
# Poissons Ratio (y) = 0.24158 0.12243
# Poissons Ratio (z) = 0.31771 0.08278
#
# Static dielectric constant tensor:
#      x y z
#    x 2.448140 0.000000 0.317530 
#    y 0.000000 3.393980 0.000000 
#    z 0.317530 0.000000 3.475910 
# 
# 
# High freq. dielectric constant tensor:
#      x y z
#    x 1.746680 0.000000 -0.016810 
#    y 0.000000 1.750540 0.000000 
#    z -0.016810 0.000000 1.760030 
# 
# From -- ./inp_files/28296.got.cif
#   From: 2010.06.25/outbox.cif.g09.slc.cpg/sg11_15_cif.got.tgz:28296.got - 2010.06.27 23:14:04.
