data_PCOD8069673
_publ_section_title
;
Structure prediction by ZEFSAII (Michael W. Deem and Ramdas Pophale) SiO2 
 PCOD8069673
Probable space group: P 21/M
;
_chemical_formula_sum "Si O2"
_cell_formula_units_Z 28
_cell_length_a 12.297315
_cell_length_b 19.345627
_cell_length_c 8.353370
_cell_angle_alpha 90.000000
_cell_angle_beta 129.753481
_cell_angle_gamma 90.000000
_cell_volume 1527.811888
_symmetry_space_group_name_H-M "P 21/M"
_symmetry_group_IT_number 11
_symmetry_cell_setting 'monoclinic'
loop_
_space_group_symop_operation_xyz
x,y,z
-x,1/2+y,-z
-x,-y,-z
x,1/2-y,z
loop_
_atom_site_type_symbol
_atom_site_label
_atom_site_fract_x
_atom_site_fract_y
_atom_site_fract_z
Si Si1 0.519391 0.328808 0.231032
Si Si2 0.263960 0.913594 0.413113
Si Si3 0.744345 0.590645 0.115697
Si Si4 0.309023 0.951006 0.104611
Si Si5 0.595477 0.524903 0.238300
Si Si6 0.740420 0.326834 0.162874
Si Si7 0.966446 0.329880 0.644572
O O1 0.479420 0.250000 0.221313
O O2 0.616180 0.353881 0.470557
O O3 0.603567 0.340688 0.144484
O O4 0.377371 0.372598 0.100518
O O5 0.260577 0.953462 0.242553
O O6 0.112741 0.877095 0.298360
O O7 0.302718 0.966403 0.593235
O O8 0.698731 0.583346 0.260566
O O9 0.880551 0.638156 0.238295
O O10 0.765269 0.515190 0.055845
O O11 0.481471 0.950273 0.262675
O O12 0.251569 0.880730 0.973129
O O13 0.500000 0.500000 0.000000
O O14 0.731085 0.250000 0.080002
O O15 0.882231 0.333785 0.399714
O O16 0.977877 0.250000 0.713429
#
# Coordination Sequence:
#
# PCOD8069673 Si02
#       7
#     4   4   4   4   4   4   4
#     4  10  18  33  56  80 106 147 192 229 274 329
#     4  11  21  35  57  83 116 150 183 226 285 340
#     4  11  20  35  59  83 112 145 188 241 285 317
#     4  11  21  34  59  88 116 144 187 236 281 338
#     4  10  18  34  57  85 110 138 184 240 272 318
#     4   9  19  36  57  80 109 148 192 231 272 329
#     4  10  22  39  57  81 111 149 194 233 275 338
#
# _framework density 18.326864
#
# number of rings (size 3 to 8) (size 9 to 14) (size 15 to 20)
#    0.000    1.714    4.286    4.714    0.000    4.000 
#    0.000    0.000    0.000    0.000    0.000    0.000 
#    0.000    0.000    0.000    0.000    0.000    0.000 
#
# Total GULP energy -347098.050592 kJ/mol
# GULP energy per Si atom -12396.358950 kJ/mol
# Density = 1.828515 g / cm^3
# Si number density = 18.326864 Si / 1000 Ang^3
#
#
#
# Elastic Constant Matrix: (Units=GPa)
#
#
# Indices 1 2 3 4 5 6 
#
# 1 86.0291 27.5910 34.6083 0.0000 15.1283 0.0000
# 2 27.5910 85.7032 28.8409 0.0000 4.6413 0.0000
# 3 34.6083 28.8409 50.2027 0.0000 6.5545 0.0000
# 4 0.0000 0.0000 0.0000 30.2101 0.0000 9.3523
# 5 15.1283 4.6413 6.5545 0.0000 29.5993 0.0000
# 6 0.0000 0.0000 0.0000 9.3523 0.0000 25.2843
#
#
#
# Elastic Compliance Matrix: (Units=1/GPa)
#
#
# Indices 1 2 3 4 5 6 
#
# 1 0.017402 -0.001860 -0.010097 0.000000 -0.006367 0.000000
# 2 -0.001860 0.014669 -0.007176 0.000000 0.000240 0.000000
# 3 -0.010097 -0.007176 0.031080 0.000000 -0.000597 0.000000
# 4 0.000000 0.000000 0.000000 0.037382 0.000000 -0.013827
# 5 -0.006367 0.000240 -0.000597 0.000000 0.037133 0.000000
# 6 0.000000 0.000000 0.000000 -0.013827 0.000000 0.044665
#
#
# Mechanical properties :
#
#
# Convention : Reuss Voigt Hill
#
# Bulk Modulus (GPa) = 40.18415 44.89061 42.53738
# Shear Modulus (GPa) = 21.84443 25.74507 23.79475
#
# Velocity S-wave (km/s) = 3.45619 3.75209 3.60718
# Velocity P-wave (km/s) = 6.15637 6.58168 6.37258
#
# Compressibility (1/GPa) = 0.02488543
#
# Stress axis : x y z
#
# Youngs Moduli (GPa) = 57.46545 68.17141 32.17476
#
# Poissons Ratio (x) = 0.12678 0.32486
# Poissons Ratio (y) = 0.10687 0.23090
# Poissons Ratio (z) = 0.58021 0.48922
#
# Static dielectric constant tensor:
#      x y z
#    x 3.485800 0.000000 0.103880 
#    y 0.000000 3.579490 0.000000 
#    z 0.103880 0.000000 3.131630 
# 
# 
# High freq. dielectric constant tensor:
#      x y z
#    x 1.692420 0.000000 0.010620 
#    y 0.000000 1.722990 0.000000 
#    z 0.010620 0.000000 1.687780 
# 
# From -- ./inp_files/14037.got.cif
#   From: 2010.06.25/outbox.cif.g09.slc.cpg/sg11_8_cif.got.tgz:14037.got - 2010.06.27 23:14:04.
