data_PCOD8069056
_publ_section_title
;
Structure prediction by ZEFSAII (Michael W. Deem and Ramdas Pophale) SiO2 
 PCOD8069056
Probable space group: P 21/M
;
_chemical_formula_sum "Si O2"
_cell_formula_units_Z 24
_cell_length_a 11.623064
_cell_length_b 8.855577
_cell_length_c 25.416418
_cell_angle_alpha 90.000000
_cell_angle_beta 143.861999
_cell_angle_gamma 90.000000
_cell_volume 1542.789308
_symmetry_space_group_name_H-M "P 21/M"
_symmetry_group_IT_number 11
_symmetry_cell_setting 'monoclinic'
loop_
_space_group_symop_operation_xyz
x,y,z
-x,1/2+y,-z
-x,-y,-z
x,1/2-y,z
loop_
_atom_site_type_symbol
_atom_site_label
_atom_site_fract_x
_atom_site_fract_y
_atom_site_fract_z
Si Si1 0.535710 0.920414 0.257566
Si Si2 0.843530 0.571775 0.904014
Si Si3 0.752239 0.927960 0.550391
Si Si4 0.775490 0.079980 0.777729
Si Si5 0.941388 0.428756 0.423379
Si Si6 0.685696 0.071041 0.630481
O O1 0.574148 0.750000 0.251270
O O2 0.451595 0.915753 0.286432
O O3 0.369638 0.001921 0.160271
O O4 0.730753 0.016810 0.326909
O O5 0.841171 0.750000 0.909879
O O6 0.897237 0.526103 0.863117
O O7 0.000000 0.500000 0.000000
O O8 0.760514 0.750000 0.560055
O O9 0.538229 0.984794 0.454203
O O10 0.905534 0.984616 0.563818
O O11 0.806854 0.000701 0.626990
O O12 0.862096 0.250000 0.811699
O O13 0.780477 0.014471 0.720412
O O14 0.942255 0.250000 0.429868
O O15 0.000000 0.500000 0.500000
O O16 0.695456 0.250000 0.631117
#
# Coordination Sequence:
#
# PCOD8069056 Si02
#       6
#     4   4   4   4   4   4
#     4   9  18  32  47  67  96 124 154 194 236 280
#     4  10  18  30  48  73  99 125 156 191 239 289
#     4   9  19  31  43  63  92 124 159 200 237 271
#     4   8  16  29  46  67  94 122 150 192 238 275
#     4  11  21  32  46  66  94 129 164 198 237 282
#     4   9  16  30  47  64  88 123 161 198 235 275
#
# _framework density 15.556239
#
# number of rings (size 3 to 8) (size 9 to 14) (size 15 to 20)
#    1.000    1.667    0.000    3.000    0.000    4.667 
#    0.000    1.667    0.000    0.000    0.000    1.167 
#    0.000    0.000    0.000    0.000    0.000    0.000 
#
# Total GULP energy -297395.938225 kJ/mol
# GULP energy per Si atom -12391.497426 kJ/mol
# Density = 1.552083 g / cm^3
# Si number density = 15.556239 Si / 1000 Ang^3
#
#
#
# Elastic Constant Matrix: (Units=GPa)
#
#
# Indices 1 2 3 4 5 6 
#
# 1 95.0556 36.7505 56.6420 0.0000 -12.2860 0.0000
# 2 36.7505 75.7145 44.2818 0.0000 -4.6765 0.0000
# 3 56.6420 44.2818 115.1842 0.0000 -10.0997 0.0000
# 4 0.0000 0.0000 0.0000 28.7975 0.0000 -1.6376
# 5 -12.2860 -4.6765 -10.0997 0.0000 24.5573 0.0000
# 6 0.0000 0.0000 0.0000 -1.6376 0.0000 24.0115
#
#
#
# Elastic Compliance Matrix: (Units=1/GPa)
#
#
# Indices 1 2 3 4 5 6 
#
# 1 0.016329 -0.004100 -0.006023 0.000000 0.004912 0.000000
# 2 -0.004100 0.018076 -0.004991 0.000000 -0.000662 0.000000
# 3 -0.006023 -0.004991 0.013709 0.000000 0.001674 0.000000
# 4 0.000000 0.000000 0.000000 0.034860 0.000000 0.002377
# 5 0.004912 -0.000662 0.001674 0.000000 0.043741 0.000000
# 6 0.000000 0.000000 0.000000 0.002377 0.000000 0.041809
#
#
# Mechanical properties :
#
#
# Convention : Reuss Voigt Hill
#
# Bulk Modulus (GPa) = 55.90929 62.36701 59.13815
# Shear Modulus (GPa) = 24.42434 25.35861 24.89147
#
# Velocity S-wave (km/s) = 3.96671 4.04186 4.00446
# Velocity P-wave (km/s) = 7.54969 7.87150 7.71227
#
# Compressibility (1/GPa) = 0.01788612
#
# Stress axis : x y z
#
# Youngs Moduli (GPa) = 61.24027 55.32312 72.94417
#
# Poissons Ratio (x) = 0.22682 0.43934
# Poissons Ratio (y) = 0.25108 0.36406
# Poissons Ratio (z) = 0.36885 0.27611
#
# Static dielectric constant tensor:
#      x y z
#    x 2.898620 0.000000 -0.101270 
#    y 0.000000 2.949800 0.000000 
#    z -0.101270 0.000000 2.875510 
# 
# 
# High freq. dielectric constant tensor:
#      x y z
#    x 1.571510 0.000000 -0.012540 
#    y 0.000000 1.603790 0.000000 
#    z -0.012540 0.000000 1.579780 
# 
# From -- ./inp_files/68263.got.cif
#   From: 2010.06.25/outbox.cif.g09.slc.cpg/sg11_35_cif.got.tgz:68263.got - 2010.06.27 23:14:04.
