data_PCOD8069827
_publ_section_title
;
Structure prediction by ZEFSAII (Michael W. Deem and Ramdas Pophale) SiO2 
 PCOD8069827
Probable space group: P 21/M
;
_chemical_formula_sum "Si O2"
_cell_formula_units_Z 28
_cell_length_a 13.991737
_cell_length_b 12.448149
_cell_length_c 9.529927
_cell_angle_alpha 90.000000
_cell_angle_beta 120.095069
_cell_angle_gamma 90.000000
_cell_volume 1436.083772
_symmetry_space_group_name_H-M "P 21/M"
_symmetry_group_IT_number 11
_symmetry_cell_setting 'monoclinic'
loop_
_space_group_symop_operation_xyz
x,y,z
-x,1/2+y,-z
-x,-y,-z
x,1/2-y,z
loop_
_atom_site_type_symbol
_atom_site_label
_atom_site_fract_x
_atom_site_fract_y
_atom_site_fract_z
Si Si1 0.874489 0.375656 0.948876
Si Si2 0.716824 0.559851 0.863974
Si Si3 0.246654 0.127980 0.422174
Si Si4 0.646043 0.555066 0.235939
Si Si5 0.848462 0.627469 0.217327
Si Si6 0.487020 0.127716 0.113835
Si Si7 0.961339 0.005801 0.750157
O O1 0.851453 0.250000 0.943642
O O2 0.757671 0.436397 0.887501
O O3 0.923137 0.405285 0.833659
O O4 0.964099 0.411645 0.129146
O O5 0.714508 0.610510 0.708084
O O6 0.595427 0.566096 0.840905
O O7 0.804020 0.626062 0.023780
O O8 0.208964 0.250000 0.414270
O O9 0.348063 0.101499 0.601898
O O10 0.145270 0.051572 0.394015
O O11 0.766779 0.559868 0.255567
O O12 0.604803 0.431630 0.208745
O O13 0.560599 0.624704 0.079653
O O14 0.855625 0.750000 0.275569
O O15 0.968410 0.570878 0.314577
O O16 0.502870 0.250000 0.173623
#
# Coordination Sequence:
#
# PCOD8069827 Si02
#       7
#     4   4   4   4   4   4   4
#     4   9  16  30  48  77 111 141 174 217 252 294
#     4   9  19  33  56  81 104 136 179 210 255 320
#     4  11  20  34  53  81 112 136 165 219 265 299
#     4  10  22  36  56  80 102 130 179 216 256 313
#     4  10  18  35  55  75 104 145 181 211 246 305
#     4  10  20  41  61  75  99 137 173 214 260 315
#     4   9  19  29  49  76 106 144 181 205 250 314
#
# _framework density 19.49747
#
# number of rings (size 3 to 8) (size 9 to 14) (size 15 to 20)
#    0.000    2.286    0.000    5.143    0.000    1.143 
#    0.000   17.143    0.000    0.000    0.000    0.000 
#    0.000    0.000    0.000    0.000    0.000    0.000 
#
# Total GULP energy -347155.518217 kJ/mol
# GULP energy per Si atom -12398.411365 kJ/mol
# Density = 1.945309 g / cm^3
# Si number density = 19.497470 Si / 1000 Ang^3
#
#
#
# Elastic Constant Matrix: (Units=GPa)
#
#
# Indices 1 2 3 4 5 6 
#
# 1 100.2391 66.9123 28.1856 0.0000 2.2804 0.0000
# 2 66.9123 152.1928 22.1567 0.0000 7.9223 0.0000
# 3 28.1856 22.1567 88.7065 0.0000 -6.4470 0.0000
# 4 0.0000 0.0000 0.0000 14.0942 0.0000 2.2670
# 5 2.2804 7.9223 -6.4470 0.0000 16.4016 0.0000
# 6 0.0000 0.0000 0.0000 2.2670 0.0000 24.0291
#
#
#
# Elastic Compliance Matrix: (Units=1/GPa)
#
#
# Indices 1 2 3 4 5 6 
#
# 1 0.014964 -0.006081 -0.003267 0.000000 -0.000427 0.000000
# 2 -0.006081 0.009566 -0.000753 0.000000 -0.004071 0.000000
# 3 -0.003267 -0.000753 0.012928 0.000000 0.005899 0.000000
# 4 0.000000 0.000000 0.000000 0.072044 0.000000 -0.006797
# 5 -0.000427 -0.004071 0.005899 0.000000 0.065314 0.000000
# 6 0.000000 0.000000 0.000000 -0.006797 0.000000 0.042257
#
#
# Mechanical properties :
#
#
# Convention : Reuss Voigt Hill
#
# Bulk Modulus (GPa) = 57.95121 63.96084 60.95602
# Shear Modulus (GPa) = 20.57388 25.83057 23.20223
#
# Velocity S-wave (km/s) = 3.25192 3.64375 3.45340
# Velocity P-wave (km/s) = 6.62472 7.11185 6.87261
#
# Compressibility (1/GPa) = 0.01725590
#
# Stress axis : x y z
#
# Youngs Moduli (GPa) = 66.82849 104.54016 77.35188
#
# Poissons Ratio (x) = 0.63571 0.25269
# Poissons Ratio (y) = 0.40639 0.05824
# Poissons Ratio (z) = 0.21831 0.07871
#
# Static dielectric constant tensor:
#      x y z
#    x 3.528660 0.000000 -0.059600 
#    y 0.000000 3.454930 0.000000 
#    z -0.059600 0.000000 3.476130 
# 
# 
# High freq. dielectric constant tensor:
#      x y z
#    x 1.752650 0.000000 -0.009150 
#    y 0.000000 1.752700 0.000000 
#    z -0.009150 0.000000 1.743240 
# 
# From -- ./inp_files/21629.got.cif
#   From: 2010.06.25/outbox.cif.g09.slc.cpg/sg11_11_cif.got.tgz:21629.got - 2010.06.27 23:14:04.
