data_PCOD8069905
_publ_section_title
;
Structure prediction by ZEFSAII (Michael W. Deem and Ramdas Pophale) SiO2 
 PCOD8069905
Probable space group: P 21/M
;
_chemical_formula_sum "Si O2"
_cell_formula_units_Z 24
_cell_length_a 10.385174
_cell_length_b 18.047745
_cell_length_c 15.188790
_cell_angle_alpha 90.000000
_cell_angle_beta 155.233154
_cell_angle_gamma 90.000000
_cell_volume 1192.608699
_symmetry_space_group_name_H-M "P 21/M"
_symmetry_group_IT_number 11
_symmetry_cell_setting 'monoclinic'
loop_
_space_group_symop_operation_xyz
x,y,z
-x,1/2+y,-z
-x,-y,-z
x,1/2-y,z
loop_
_atom_site_type_symbol
_atom_site_label
_atom_site_fract_x
_atom_site_fract_y
_atom_site_fract_z
Si Si1 0.910143 0.594016 0.694265
Si Si2 0.759015 0.985892 0.971781
Si Si3 0.998097 0.750000 0.475678
Si Si4 0.657115 0.369895 0.201573
Si Si5 0.695206 0.407347 0.777808
Si Si6 0.000349 0.750000 0.763008
Si Si7 0.654192 0.750000 0.092901
Si Si8 0.516968 0.750000 0.311864
O O1 0.563316 0.572706 0.454429
O O2 0.906447 0.671493 0.750353
O O3 0.046803 0.526770 0.832945
O O4 0.102221 0.608828 0.724731
O O5 0.971644 0.926625 0.053731
O O6 0.471021 0.945032 0.836357
O O7 0.622549 0.045513 0.819779
O O8 0.175788 0.823554 0.617523
O O9 0.958622 0.750000 0.344035
O O10 0.646286 0.750000 0.293087
O O11 0.368263 0.323469 0.982051
O O12 0.695969 0.320651 0.801773
O O13 0.829713 0.750000 0.562445
O O14 0.360381 0.750000 0.973128
#
# Coordination Sequence:
#
# PCOD8069905 Si02
#       8
#     4   4   2   4   4   2   2   2
#     4  10  19  37  59  84 117 152 198 239 287 341
#     4  11  24  37  57  86 129 154 183 242 297 354
#     4  11  19  37  62  87 116 149 200 255 272 343
#     4  10  21  38  56  92 119 147 194 247 291 337
#     4  10  23  40  58  86 113 161 200 230 289 350
#     4   8  16  33  56  84 107 138 198 243 267 329
#     4   9  19  33  60  84 113 148 193 237 299 329
#     4  10  18  39  62  79 108 151 203 241 276 337
#
# _framework density 20.123951999999999
#
# number of rings (size 3 to 8) (size 9 to 14) (size 15 to 20)
#    0.000    2.000    5.000    1.000    4.667    3.333 
#    0.000    0.000    0.000    0.000    0.000    0.000 
#    0.000    0.000    0.000    0.000    0.000    0.000 
#
# Total GULP energy -297471.899037 kJ/mol
# GULP energy per Si atom -12394.662460 kJ/mol
# Density = 2.007815 g / cm^3
# Si number density = 20.123952 Si / 1000 Ang^3
#
#
#
# Elastic Constant Matrix: (Units=GPa)
#
#
# Indices 1 2 3 4 5 6 
#
# 1 40.6200 30.8742 19.9476 0.0000 -8.6831 0.0000
# 2 30.8742 126.1169 46.1569 0.0000 -4.7324 0.0000
# 3 19.9476 46.1569 69.8960 0.0000 -15.0082 0.0000
# 4 0.0000 0.0000 0.0000 23.7506 0.0000 5.2345
# 5 -8.6831 -4.7324 -15.0082 0.0000 25.7180 0.0000
# 6 0.0000 0.0000 0.0000 5.2345 0.0000 15.2039
#
#
#
# Elastic Compliance Matrix: (Units=1/GPa)
#
#
# Indices 1 2 3 4 5 6 
#
# 1 0.032940 -0.006527 -0.003384 0.000000 0.007945 0.000000
# 2 -0.006527 0.011882 -0.006845 0.000000 -0.004012 0.000000
# 3 -0.003384 -0.006845 0.022039 0.000000 0.010459 0.000000
# 4 0.000000 0.000000 0.000000 0.045561 0.000000 -0.015686
# 5 0.007945 -0.004012 0.010459 0.000000 0.046931 0.000000
# 6 0.000000 0.000000 0.000000 -0.015686 0.000000 0.071173
#
#
# Mechanical properties :
#
#
# Convention : Reuss Voigt Hill
#
# Bulk Modulus (GPa) = 29.98724 47.84336 38.91530
# Shear Modulus (GPa) = 18.17160 22.24477 20.20819
#
# Velocity S-wave (km/s) = 3.00823 3.32834 3.17233
# Velocity P-wave (km/s) = 5.19611 6.21260 5.72695
#
# Compressibility (1/GPa) = 0.03334752
#
# Stress axis : x y z
#
# Youngs Moduli (GPa) = 30.35826 84.16357 45.37465
#
# Poissons Ratio (x) = 0.54935 0.15357
# Poissons Ratio (y) = 0.19815 0.31058
# Poissons Ratio (z) = 0.10274 0.57609
#
# Static dielectric constant tensor:
#      x y z
#    x 3.351360 0.000000 -0.191060 
#    y 0.000000 4.087010 0.000000 
#    z -0.191060 0.000000 3.492520 
# 
# 
# High freq. dielectric constant tensor:
#      x y z
#    x 1.752560 0.000000 -0.017360 
#    y 0.000000 1.799720 0.000000 
#    z -0.017360 0.000000 1.782090 
# 
# From -- ./inp_files/59660.got.cif
#   From: 2010.06.25/outbox.cif.g09.slc.cpg/sg11_30_cif.got.tgz:59660.got - 2010.06.27 23:14:04.
