data_PCOD8069711
_publ_section_title
;
Structure prediction by ZEFSAII (Michael W. Deem and Ramdas Pophale) SiO2 
 PCOD8069711
Probable space group: P 21/M
;
_chemical_formula_sum "Si O2"
_cell_formula_units_Z 32
_cell_length_a 15.425097
_cell_length_b 8.744663
_cell_length_c 11.991046
_cell_angle_alpha 90.000000
_cell_angle_beta 90.374304
_cell_angle_gamma 90.000000
_cell_volume 1617.405005
_symmetry_space_group_name_H-M "P 21/M"
_symmetry_group_IT_number 11
_symmetry_cell_setting 'monoclinic'
loop_
_space_group_symop_operation_xyz
x,y,z
-x,1/2+y,-z
-x,-y,-z
x,1/2-y,z
loop_
_atom_site_type_symbol
_atom_site_label
_atom_site_fract_x
_atom_site_fract_y
_atom_site_fract_z
Si Si1 0.905087 0.930698 0.496399
Si Si2 0.406179 0.569839 0.500881
Si Si3 0.500237 0.930269 0.121056
Si Si4 0.656353 0.429469 0.733036
Si Si5 0.349181 0.926096 0.740464
Si Si6 0.847296 0.427585 0.269874
Si Si7 0.152057 0.570781 0.278718
Si Si8 0.994034 0.930674 0.121622
O O1 0.911976 0.750000 0.484994
O O2 0.853724 0.995937 0.390623
O O3 0.855471 0.975906 0.608042
O O4 0.000000 0.000000 0.500000
O O5 0.500000 0.500000 0.500000
O O6 0.415243 0.750000 0.494889
O O7 0.354485 0.506515 0.392898
O O8 0.356356 0.519786 0.612172
O O9 0.493065 0.750000 0.110479
O O10 0.416949 0.000254 0.186412
O O11 0.589353 0.971126 0.183216
O O12 0.500000 0.000000 0.000000
O O13 0.640788 0.250000 0.731514
O O14 0.753973 0.467814 0.774556
O O15 0.377745 0.750000 0.754127
O O16 0.249985 0.949050 0.777251
O O17 0.871963 0.250000 0.281267
O O18 0.909595 0.506769 0.181903
O O19 0.143918 0.750000 0.307868
O O20 0.079179 0.518931 0.190818
O O21 0.987465 0.750000 0.112499
O O22 0.000000 0.000000 0.000000
#
# Coordination Sequence:
#
# PCOD8069711 Si02
#       8
#     4   4   4   4   4   4   4   4
#     4  12  23  37  61  93 127 161 197 244 306 370
#     4  10  18  33  58  87 118 151 190 237 293 357
#     4  11  23  40  62  87 120 161 205 255 302 358
#     4   9  19  37  61  87 117 156 197 239 299 360
#     4  10  22  39  62  90 121 159 201 247 305 365
#     4  11  23  41  65  90 123 163 204 253 305 364
#     4  10  21  40  64  88 118 158 203 250 300 362
#     4  11  24  41  63  89 120 160 207 256 304 361
#
# _framework density 19.784777999999999
#
# number of rings (size 3 to 8) (size 9 to 14) (size 15 to 20)
#    0.000    1.500    2.500    3.000    0.000    4.500 
#    0.000    5.625    0.000    0.000    0.000    0.000 
#    0.000    0.000    0.000    0.000    0.000    0.000 
#
# Total GULP energy -396849.909442 kJ/mol
# GULP energy per Si atom -12401.559670 kJ/mol
# Density = 1.973975 g / cm^3
# Si number density = 19.784778 Si / 1000 Ang^3
#
#
#
# Elastic Constant Matrix: (Units=GPa)
#
#
# Indices 1 2 3 4 5 6 
#
# 1 141.7615 33.2938 68.8160 0.0000 -6.5437 0.0000
# 2 33.2938 68.6839 48.2988 0.0000 -1.6061 0.0000
# 3 68.8160 48.2988 162.3738 0.0000 -7.6288 0.0000
# 4 0.0000 0.0000 0.0000 34.2084 0.0000 0.0275
# 5 -6.5437 -1.6061 -7.6288 0.0000 12.1366 0.0000
# 6 0.0000 0.0000 0.0000 0.0275 0.0000 31.6001
#
#
#
# Elastic Compliance Matrix: (Units=1/GPa)
#
#
# Indices 1 2 3 4 5 6 
#
# 1 0.009213 -0.002208 -0.003120 0.000000 0.002714 0.000000
# 2 -0.002208 0.018952 -0.004781 0.000000 -0.001688 0.000000
# 3 -0.003120 -0.004781 0.009062 0.000000 0.003381 0.000000
# 4 0.000000 0.000000 0.000000 0.029233 0.000000 -0.000025
# 5 0.002714 -0.001688 0.003381 0.000000 0.085761 0.000000
# 6 0.000000 0.000000 0.000000 -0.000025 0.000000 0.031646
#
#
# Mechanical properties :
#
#
# Convention : Reuss Voigt Hill
#
# Bulk Modulus (GPa) = 58.79410 74.84848 66.82129
# Shear Modulus (GPa) = 23.83752 30.41638 27.12695
#
# Velocity S-wave (km/s) = 3.47485 3.92518 3.70686
# Velocity P-wave (km/s) = 6.77353 7.64566 7.22277
#
# Compressibility (1/GPa) = 0.01700851
#
# Stress axis : x y z
#
# Youngs Moduli (GPa) = 108.54735 52.76399 110.35211
#
# Poissons Ratio (x) = 0.11651 0.34431
# Poissons Ratio (y) = 0.23969 0.52758
# Poissons Ratio (z) = 0.33867 0.25226
#
# Static dielectric constant tensor:
#      x y z
#    x 3.833790 0.000000 -0.081340 
#    y 0.000000 3.536980 0.000000 
#    z -0.081340 0.000000 3.764290 
# 
# 
# High freq. dielectric constant tensor:
#      x y z
#    x 1.786590 0.000000 -0.001780 
#    y 0.000000 1.759980 0.000000 
#    z -0.001780 0.000000 1.772480 
# 
# From -- ./inp_files/38064.got.cif
#   From: 2010.06.25/outbox.cif.g09.slc.cpg/sg11_20_cif.got.tgz:38064.got - 2010.06.27 23:14:04.
