data_PCOD8069135
_publ_section_title
;
Structure prediction by ZEFSAII (Michael W. Deem and Ramdas Pophale) SiO2 
 PCOD8069135
Probable space group: P 21/M
;
_chemical_formula_sum "Si O2"
_cell_formula_units_Z 28
_cell_length_a 9.660980
_cell_length_b 8.798914
_cell_length_c 28.599588
_cell_angle_alpha 90.000000
_cell_angle_beta 141.657826
_cell_angle_gamma 90.000000
_cell_volume 1508.173768
_symmetry_space_group_name_H-M "P 21/M"
_symmetry_group_IT_number 11
_symmetry_cell_setting 'monoclinic'
loop_
_space_group_symop_operation_xyz
x,y,z
-x,1/2+y,-z
-x,-y,-z
x,1/2-y,z
loop_
_atom_site_type_symbol
_atom_site_label
_atom_site_fract_x
_atom_site_fract_y
_atom_site_fract_z
Si Si1 0.689777 0.425083 0.580513
Si Si2 0.809775 0.572434 0.298236
Si Si3 0.862127 0.575920 0.901920
Si Si4 0.770303 0.069560 0.706198
Si Si5 0.332277 0.575490 0.060718
Si Si6 0.549786 0.572992 0.734806
Si Si7 0.771591 0.428270 0.188836
O O1 0.500000 0.500000 0.500000
O O2 0.632856 0.250000 0.566451
O O3 0.690238 0.486118 0.633852
O O4 0.930692 0.457052 0.621202
O O5 0.766588 0.750000 0.276993
O O6 0.667874 0.513851 0.304284
O O7 0.738454 0.478881 0.233667
O O8 0.815864 0.750000 0.905357
O O9 0.746092 0.464349 0.907689
O O10 0.762205 0.543329 0.824451
O O11 0.128222 0.544568 0.970819
O O12 0.766964 0.250000 0.710315
O O13 0.603284 0.994246 0.698484
O O14 0.022240 0.012303 0.781163
O O15 0.406765 0.750000 0.079906
O O16 0.544211 0.474056 0.101543
O O17 0.493344 0.750000 0.715559
O O18 0.812303 0.250000 0.196495
#
# Coordination Sequence:
#
# PCOD8069135 Si02
#       7
#     4   4   4   4   4   4   4
#     4   9  20  38  61  86 111 138 176 219 264 319
#     4  10  20  35  56  83 111 145 182 220 266 323
#     4   9  19  32  48  75 109 141 182 232 276 320
#     4  10  22  39  57  80 111 146 180 220 272 330
#     4  10  18  30  50  75 105 143 184 229 280 326
#     4  11  21  35  55  83 113 144 183 228 273 321
#     4  11  20  33  53  79 107 140 187 236 272 320
#
# _framework density 18.5655
#
# number of rings (size 3 to 8) (size 9 to 14) (size 15 to 20)
#    0.000    2.000    1.429    3.857    0.000    4.571 
#    0.000    1.429    0.000    0.000    0.000    0.000 
#    0.000    0.000    0.000    0.000    0.000    0.000 
#
# Total GULP energy -347242.837800 kJ/mol
# GULP energy per Si atom -12401.529921 kJ/mol
# Density = 1.852324 g / cm^3
# Si number density = 18.565500 Si / 1000 Ang^3
#
#
#
# Elastic Constant Matrix: (Units=GPa)
#
#
# Indices 1 2 3 4 5 6 
#
# 1 103.7401 20.3429 40.3801 0.0000 3.6402 0.0000
# 2 20.3429 65.1539 41.7567 0.0000 2.8615 0.0000
# 3 40.3801 41.7567 98.7383 0.0000 10.4781 0.0000
# 4 0.0000 0.0000 0.0000 30.6532 0.0000 3.9300
# 5 3.6402 2.8615 10.4781 0.0000 20.0833 0.0000
# 6 0.0000 0.0000 0.0000 3.9300 0.0000 32.3626
#
#
#
# Elastic Compliance Matrix: (Units=1/GPa)
#
#
# Indices 1 2 3 4 5 6 
#
# 1 0.011496 -0.000780 -0.004406 0.000000 0.000326 0.000000
# 2 -0.000780 0.021166 -0.008815 0.000000 0.001725 0.000000
# 3 -0.004406 -0.008815 0.016345 0.000000 -0.006473 0.000000
# 4 0.000000 0.000000 0.000000 0.033139 0.000000 -0.004024
# 5 0.000326 0.001725 -0.006473 0.000000 0.052865 0.000000
# 6 0.000000 0.000000 0.000000 -0.004024 0.000000 0.031389
#
#
# Mechanical properties :
#
#
# Convention : Reuss Voigt Hill
#
# Bulk Modulus (GPa) = 47.61024 52.51017 50.06021
# Shear Modulus (GPa) = 24.82596 27.63000 26.22798
#
# Velocity S-wave (km/s) = 3.66075 3.86196 3.76270
# Velocity P-wave (km/s) = 6.60063 6.94489 6.77495
#
# Compressibility (1/GPa) = 0.02100388
#
# Stress axis : x y z
#
# Youngs Moduli (GPa) = 86.98641 47.24663 61.18219
#
# Poissons Ratio (x) = 0.03684 0.26959
# Poissons Ratio (y) = 0.06783 0.53933
# Poissons Ratio (z) = 0.38329 0.41648
#
# Static dielectric constant tensor:
#      x y z
#    x 3.287720 0.000000 0.155670 
#    y 0.000000 3.454820 0.000000 
#    z 0.155670 0.000000 3.597830 
# 
# 
# High freq. dielectric constant tensor:
#      x y z
#    x 1.703560 0.000000 0.019370 
#    y 0.000000 1.730970 0.000000 
#    z 0.019370 0.000000 1.711070 
# 
# From -- ./inp_files/28609.got.cif
#   From: 2010.06.25/outbox.cif.g09.slc.cpg/sg11_15_cif.got.tgz:28609.got - 2010.06.27 23:14:04.
