data_PCOD8069071
_publ_section_title
;
Structure prediction by ZEFSAII (Michael W. Deem and Ramdas Pophale) SiO2 
 PCOD8069071
Probable space group: P 21/M
;
_chemical_formula_sum "Si O2"
_cell_formula_units_Z 24
_cell_length_a 11.833352
_cell_length_b 8.986032
_cell_length_c 24.139380
_cell_angle_alpha 90.000000
_cell_angle_beta 32.040975
_cell_angle_gamma 90.000000
_cell_volume 1361.783941
_symmetry_space_group_name_H-M "P 21/M"
_symmetry_group_IT_number 11
_symmetry_cell_setting 'monoclinic'
loop_
_space_group_symop_operation_xyz
x,y,z
-x,1/2+y,-z
-x,-y,-z
x,1/2-y,z
loop_
_atom_site_type_symbol
_atom_site_label
_atom_site_fract_x
_atom_site_fract_y
_atom_site_fract_z
Si Si1 0.649975 0.074576 0.216994
Si Si2 0.008897 0.075977 0.865005
Si Si3 0.170566 0.075176 0.390103
Si Si4 0.289229 0.576220 0.110498
Si Si5 0.249843 0.082104 0.932890
Si Si6 0.744158 0.416178 0.752760
O O1 0.677239 0.250000 0.206557
O O2 0.403431 0.028711 0.315998
O O3 0.758057 0.001769 0.226729
O O4 0.788668 0.008698 0.108060
O O5 0.031131 0.250000 0.867567
O O6 0.914219 0.044311 0.843619
O O7 0.849178 0.004122 0.974956
O O8 0.137378 0.250000 0.405049
O O9 0.135666 0.019750 0.341662
O O10 0.000000 0.000000 0.500000
O O11 0.343477 0.750000 0.091679
O O12 0.227521 0.516267 0.197279
O O13 0.500000 0.500000 0.000000
O O14 0.157228 0.250000 0.966396
O O15 0.498550 0.088389 0.840183
O O16 0.842163 0.250000 0.708546
#
# Coordination Sequence:
#
# PCOD8069071 Si02
#       6
#     4   4   4   4   4   4
#     4  10  21  35  50  72 102 133 170 211 258 311
#     4  11  21  31  47  72 105 142 176 210 250 298
#     4  10  21  37  59  82 101 127 164 215 269 315
#     4  10  20  33  50  74 106 144 181 214 249 296
#     4  10  18  30  49  71 101 139 175 211 253 301
#     4   9  18  33  52  76 105 137 173 213 256 302
#
# _framework density 17.623940000000001
#
# number of rings (size 3 to 8) (size 9 to 14) (size 15 to 20)
#    0.000    2.000    1.667    2.500    0.000    4.000 
#    0.000    0.000    0.000    1.000    0.000    0.000 
#    0.000    0.000    0.000    0.000    0.000    0.000 
#
# Total GULP energy -297585.587778 kJ/mol
# GULP energy per Si atom -12399.399491 kJ/mol
# Density = 1.758383 g / cm^3
# Si number density = 17.623940 Si / 1000 Ang^3
#
#
#
# Elastic Constant Matrix: (Units=GPa)
#
#
# Indices 1 2 3 4 5 6 
#
# 1 113.8044 55.4946 46.2861 0.0000 21.4234 0.0000
# 2 55.4946 91.0109 46.1752 0.0000 5.9737 0.0000
# 3 46.2861 46.1752 95.9890 0.0000 18.4495 0.0000
# 4 0.0000 0.0000 0.0000 28.2844 0.0000 0.6256
# 5 21.4234 5.9737 18.4495 0.0000 18.4155 0.0000
# 6 0.0000 0.0000 0.0000 0.6256 0.0000 27.8981
#
#
#
# Elastic Compliance Matrix: (Units=1/GPa)
#
#
# Indices 1 2 3 4 5 6 
#
# 1 0.016056 -0.008394 -0.000789 0.000000 -0.015165 0.000000
# 2 -0.008394 0.019045 -0.007187 0.000000 0.010788 0.000000
# 3 -0.000789 -0.007187 0.016882 0.000000 -0.013663 0.000000
# 4 0.000000 0.000000 0.000000 0.035373 0.000000 -0.000793
# 5 -0.015165 0.010788 -0.013663 0.000000 0.082133 0.000000
# 6 0.000000 0.000000 0.000000 -0.000793 0.000000 0.035863
#
#
# Mechanical properties :
#
#
# Convention : Reuss Voigt Hill
#
# Bulk Modulus (GPa) = 51.97278 66.30178 59.13728
# Shear Modulus (GPa) = 20.44937 25.10948 22.77943
#
# Velocity S-wave (km/s) = 3.41004 3.77866 3.59907
# Velocity P-wave (km/s) = 6.71255 7.53258 7.13436
#
# Compressibility (1/GPa) = 0.01924084
#
# Stress axis : x y z
#
# Youngs Moduli (GPa) = 62.28110 52.50833 59.23475
#
# Poissons Ratio (x) = 0.44078 0.04677
# Poissons Ratio (y) = 0.52282 0.42572
# Poissons Ratio (z) = 0.04917 0.37738
#
# Static dielectric constant tensor:
#      x y z
#    x 3.642780 0.000000 0.002740 
#    y 0.000000 3.541060 0.000000 
#    z 0.002740 0.000000 3.045440 
# 
# 
# High freq. dielectric constant tensor:
#      x y z
#    x 1.688510 0.000000 -0.002150 
#    y 0.000000 1.692450 0.000000 
#    z -0.002150 0.000000 1.648080 
# 
# From -- ./inp_files/36971.got.cif
#   From: 2010.06.25/outbox.cif.g09.slc.cpg/sg11_19_cif.got.tgz:36971.got - 2010.06.27 23:14:04.
