data_PCOD8069168
_publ_section_title
;
Structure prediction by ZEFSAII (Michael W. Deem and Ramdas Pophale) SiO2 
 PCOD8069168
Probable space group: P 21/M
;
_chemical_formula_sum "Si O2"
_cell_formula_units_Z 32
_cell_length_a 26.722873
_cell_length_b 9.311815
_cell_length_c 21.388144
_cell_angle_alpha 90.000000
_cell_angle_beta 20.360369
_cell_angle_gamma 90.000000
_cell_volume 1851.716695
_symmetry_space_group_name_H-M "P 21/M"
_symmetry_group_IT_number 11
_symmetry_cell_setting 'monoclinic'
loop_
_space_group_symop_operation_xyz
x,y,z
-x,1/2+y,-z
-x,-y,-z
x,1/2-y,z
loop_
_atom_site_type_symbol
_atom_site_label
_atom_site_fract_x
_atom_site_fract_y
_atom_site_fract_z
Si Si1 0.444848 0.919411 0.503908
Si Si2 0.357603 0.415116 0.179308
Si Si3 0.658635 0.914713 0.662844
Si Si4 0.756589 0.407681 0.441127
Si Si5 0.853198 0.920467 0.685959
Si Si6 0.137016 0.579944 0.813484
Si Si7 0.658804 0.080323 0.010475
Si Si8 0.563957 0.590316 0.234019
O O1 0.451788 0.750000 0.507239
O O2 0.280714 0.967142 0.682269
O O3 0.549127 0.961148 0.323447
O O4 0.500000 0.000000 0.500000
O O5 0.402441 0.250000 0.125594
O O6 0.297051 0.456276 0.318654
O O7 0.240246 0.452719 0.265649
O O8 0.500000 0.500000 0.000000
O O9 0.682365 0.750000 0.619949
O O10 0.769178 0.994954 0.487670
O O11 0.491993 0.955543 0.846590
O O12 0.810978 0.250000 0.396548
O O13 0.851394 0.467575 0.272783
O O14 0.594007 0.400122 0.608890
O O15 0.873851 0.750000 0.673114
O O16 0.781490 0.993176 0.830367
O O17 0.000000 0.000000 0.500000
O O18 0.116178 0.750000 0.842988
O O19 0.000000 0.500000 0.000000
O O20 0.693188 0.250000 0.970246
O O21 0.656775 0.022689 0.084531
O O22 0.634080 0.750000 0.148454
#
# Coordination Sequence:
#
# PCOD8069168 Si02
#       8
#     4   4   4   4   4   4   4   4
#     4   9  18  32  51  76 105 134 168 211 254 298
#     4  10  20  34  53  78 104 131 165 208 254 300
#     4   9  17  29  48  76 104 125 157 207 253 295
#     4   8  15  28  46  70  99 130 164 202 245 294
#     4  11  23  37  54  74 102 139 174 208 252 303
#     4   9  18  32  50  74 103 134 170 207 247 298
#     4  10  18  30  51  77 103 129 164 210 254 301
#     4   8  15  29  48  71 100 131 165 207 252 298
#
# _framework density 17.281261000000001
#
# number of rings (size 3 to 8) (size 9 to 14) (size 15 to 20)
#    0.000    2.750    1.250    2.250    0.000    3.000 
#    0.000    2.500    2.750    0.000    0.000    0.000 
#    0.000    0.000    0.000    0.000    0.000    0.000 
#
# Total GULP energy -396646.448699 kJ/mol
# GULP energy per Si atom -12395.201522 kJ/mol
# Density = 1.724193 g / cm^3
# Si number density = 17.281261 Si / 1000 Ang^3
#
#
#
# Elastic Constant Matrix: (Units=GPa)
#
#
# Indices 1 2 3 4 5 6 
#
# 1 110.2530 57.8850 65.1988 0.0000 24.6449 0.0000
# 2 57.8850 83.5649 68.0542 0.0000 14.6943 0.0000
# 3 65.1988 68.0542 120.7149 0.0000 26.7929 0.0000
# 4 0.0000 0.0000 0.0000 33.2982 0.0000 7.3579
# 5 24.6449 14.6943 26.7929 0.0000 24.9708 0.0000
# 6 0.0000 0.0000 0.0000 7.3579 0.0000 28.8054
#
#
#
# Elastic Compliance Matrix: (Units=1/GPa)
#
#
# Indices 1 2 3 4 5 6 
#
# 1 0.016803 -0.007938 -0.002568 0.000000 -0.009157 0.000000
# 2 -0.007938 0.025879 -0.011368 0.000000 0.004804 0.000000
# 3 -0.002568 -0.011368 0.018419 0.000000 -0.010539 0.000000
# 4 0.000000 0.000000 0.000000 0.031828 0.000000 -0.008130
# 5 -0.009157 0.004804 -0.010539 0.000000 0.057566 0.000000
# 6 0.000000 0.000000 0.000000 -0.008130 0.000000 0.036792
#
#
# Mechanical properties :
#
#
# Convention : Reuss Voigt Hill
#
# Bulk Modulus (GPa) = 57.62752 77.42322 67.52537
# Shear Modulus (GPa) = 21.11309 25.64120 23.37715
#
# Velocity S-wave (km/s) = 3.49912 3.85614 3.68196
# Velocity P-wave (km/s) = 7.05297 8.04521 7.56538
#
# Compressibility (1/GPa) = 0.01735282
#
# Stress axis : x y z
#
# Youngs Moduli (GPa) = 59.51280 38.64156 54.29168
#
# Poissons Ratio (x) = 0.30673 0.13941
# Poissons Ratio (y) = 0.47241 0.61720
# Poissons Ratio (z) = 0.15282 0.43929
#
# Static dielectric constant tensor:
#      x y z
#    x 3.351780 0.000000 0.341910 
#    y 0.000000 3.204430 0.000000 
#    z 0.341910 0.000000 3.133840 
# 
# 
# High freq. dielectric constant tensor:
#      x y z
#    x 1.658300 0.000000 0.030110 
#    y 0.000000 1.669400 0.000000 
#    z 0.030110 0.000000 1.649440 
# 
# From -- ./inp_files/67106.got.cif
#   From: 2010.06.25/outbox.cif.g09.slc.cpg/sg11_34_cif.got.tgz:67106.got - 2010.06.27 23:14:04.
