data_PCOD8069801
_publ_section_title
;
Structure prediction by ZEFSAII (Michael W. Deem and Ramdas Pophale) SiO2 
 PCOD8069801
Probable space group: P 21/M
;
_chemical_formula_sum "Si O2"
_cell_formula_units_Z 32
_cell_length_a 21.601402
_cell_length_b 13.981710
_cell_length_c 15.863120
_cell_angle_alpha 90.000000
_cell_angle_beta 161.458234
_cell_angle_gamma 90.000000
_cell_volume 1523.534524
_symmetry_space_group_name_H-M "P 21/M"
_symmetry_group_IT_number 11
_symmetry_cell_setting 'monoclinic'
loop_
_space_group_symop_operation_xyz
x,y,z
-x,1/2+y,-z
-x,-y,-z
x,1/2-y,z
loop_
_atom_site_type_symbol
_atom_site_label
_atom_site_fract_x
_atom_site_fract_y
_atom_site_fract_z
Si Si1 0.345278 0.018833 0.120350
Si Si2 0.352987 0.137207 0.793484
Si Si3 0.578790 0.144341 0.547022
Si Si4 0.202208 0.861463 0.647989
Si Si5 0.058548 0.004266 0.333573
Si Si6 0.583869 0.645373 0.486104
Si Si7 0.811500 0.637051 0.234437
Si Si8 0.891649 0.512673 0.943458
O O1 0.403450 0.089025 0.272732
O O2 0.505353 0.933337 0.316944
O O3 0.321063 0.078470 0.002988
O O4 0.146883 0.965927 0.890595
O O5 0.336746 0.250000 0.763574
O O6 0.212330 0.089446 0.543749
O O7 0.268291 0.105152 0.776506
O O8 0.573045 0.102244 0.053184
O O9 0.600458 0.250000 0.534152
O O10 0.563238 0.154672 0.626929
O O11 0.770795 0.083814 0.789021
O O12 0.206809 0.750000 0.638591
O O13 0.045945 0.886120 0.522450
O O14 0.125880 0.906346 0.463573
O O15 0.041506 0.980777 0.213572
O O16 0.613456 0.750000 0.480654
O O17 0.775605 0.611291 0.783064
O O18 0.776758 0.750000 0.175717
O O19 0.000000 0.500000 0.000000
#
# Coordination Sequence:
#
# PCOD8069801 Si02
#       8
#     4   4   4   4   4   4   4   4
#     4  10  18  34  59  89 117 147 201 245 295 356
#     4  10  22  40  61  85 119 158 198 248 306 363
#     4  10  19  36  61  84 116 157 197 246 295 352
#     4   9  20  37  58  84 118 152 194 250 300 355
#     4  11  21  37  60  84 111 154 200 233 304 356
#     4  10  20  37  60  85 118 158 201 244 293 355
#     4   9  19  36  61  91 117 153 203 249 297 359
#     4  11  23  39  57  87 124 155 198 248 297 364
#
# _framework density 21.003792000000001
#
# number of rings (size 3 to 8) (size 9 to 14) (size 15 to 20)
#    0.000    2.000    2.500    1.500    0.000    6.500 
#    0.000    3.750    0.000    3.750    0.000    0.000 
#    0.000    0.000    0.000    0.000    0.000    0.000 
#
# Total GULP energy -396425.986202 kJ/mol
# GULP energy per Si atom -12388.312069 kJ/mol
# Density = 2.095599 g / cm^3
# Si number density = 21.003792 Si / 1000 Ang^3
#
#
#
# Elastic Constant Matrix: (Units=GPa)
#
#
# Indices 1 2 3 4 5 6 
#
# 1 62.4842 14.8759 27.0335 0.0000 13.6470 0.0000
# 2 14.8759 86.6789 39.1726 0.0000 8.8841 0.0000
# 3 27.0335 39.1726 109.3419 0.0000 -0.2835 0.0000
# 4 0.0000 0.0000 0.0000 16.6468 0.0000 -11.1164
# 5 13.6470 8.8841 -0.2835 0.0000 18.9615 0.0000
# 6 0.0000 0.0000 0.0000 -11.1164 0.0000 6.4943
#
#
#
# Elastic Compliance Matrix: (Units=1/GPa)
#
#
# Indices 1 2 3 4 5 6 
#
# 1 0.021809 0.000418 -0.005583 0.000000 -0.015976 0.000000
# 2 0.000418 0.014631 -0.005364 0.000000 -0.007236 0.000000
# 3 -0.005583 -0.005364 0.012465 0.000000 0.006718 0.000000
# 4 0.000000 0.000000 0.000000 -0.419945 0.000000 -0.718825
# 5 -0.015976 -0.007236 0.006718 0.000000 0.067727 0.000000
# 6 0.000000 0.000000 0.000000 -0.718825 0.000000 -1.076440
#
#
# Mechanical properties :
#
#
# Convention : Reuss Voigt Hill
#
# Bulk Modulus (GPa) = 35.91064 46.74100 41.32582
# Shear Modulus (GPa) = -3.70532 20.24872 8.27170
#
# Velocity S-wave (km/s) = -1.32964 3.10828 1.98664
# Velocity P-wave (km/s) = 3.84410 5.93160 4.99804
#
# Compressibility (1/GPa) = 0.02784690
#
# Stress axis : x y z
#
# Youngs Moduli (GPa) = 45.85187 68.34911 80.22475
#
# Poissons Ratio (x) = -0.02855 0.44791
# Poissons Ratio (y) = -0.01915 0.43030
# Poissons Ratio (z) = 0.25600 0.36660
#
# Static dielectric constant tensor:
#      x y z
#    x 3.703310 0.000000 0.103580 
#    y 0.000000 3.758900 0.000000 
#    z 0.103580 0.000000 3.993480 
# 
# 
# High freq. dielectric constant tensor:
#      x y z
#    x 1.804600 0.000000 0.006440 
#    y 0.000000 1.832090 0.000000 
#    z 0.006440 0.000000 1.823680 
# 
# From -- ./inp_files/55012.got.cif
#   From: 2010.06.25/outbox.cif.g09.slc.cpg/sg11_28_cif.got.tgz:55012.got - 2010.06.27 23:14:04.
