data_PCOD8069327
_publ_section_title
;
Structure prediction by ZEFSAII (Michael W. Deem and Ramdas Pophale) SiO2 
 PCOD8069327
Probable space group: P 21/M
;
_chemical_formula_sum "Si O2"
_cell_formula_units_Z 32
_cell_length_a 15.551330
_cell_length_b 8.541185
_cell_length_c 27.580635
_cell_angle_alpha 90.000000
_cell_angle_beta 151.847267
_cell_angle_gamma 90.000000
_cell_volume 1728.500660
_symmetry_space_group_name_H-M "P 21/M"
_symmetry_group_IT_number 11
_symmetry_cell_setting 'monoclinic'
loop_
_space_group_symop_operation_xyz
x,y,z
-x,1/2+y,-z
-x,-y,-z
x,1/2-y,z
loop_
_atom_site_type_symbol
_atom_site_label
_atom_site_fract_x
_atom_site_fract_y
_atom_site_fract_z
Si Si1 0.934096 0.934244 0.854810
Si Si2 0.703493 0.069491 0.544726
Si Si3 0.294287 0.568870 0.622947
Si Si4 0.288416 0.066643 0.724194
Si Si5 0.070439 0.430520 0.427463
Si Si6 0.328977 0.566570 0.197737
Si Si7 0.711296 0.567742 0.650744
Si Si8 0.311007 0.934472 0.080154
O O1 0.910937 0.750000 0.853014
O O2 0.856114 0.980620 0.763716
O O3 0.830996 0.027125 0.845172
O O4 0.146302 0.987768 0.963068
O O5 0.742124 0.250000 0.552203
O O6 0.491246 0.027211 0.430949
O O7 0.824570 0.963914 0.569986
O O8 0.760076 0.033583 0.628023
O O9 0.287394 0.750000 0.634197
O O10 0.255595 0.464758 0.650919
O O11 0.142813 0.535776 0.507394
O O12 0.488884 0.525391 0.695995
O O13 0.267484 0.250000 0.724037
O O14 0.491375 0.003016 0.839435
O O15 0.142933 0.973622 0.684707
O O16 0.094280 0.250000 0.452684
O O17 0.372056 0.750000 0.220442
O O18 0.270596 0.509114 0.114997
O O19 0.724015 0.750000 0.643352
O O20 0.324777 0.750000 0.087608
#
# Coordination Sequence:
#
# PCOD8069327 Si02
#       8
#     4   4   4   4   4   4   4   4
#     4  10  18  31  52  76 102 135 174 212 255 305
#     4  10  20  35  54  77 105 135 165 201 250 305
#     4  11  21  34  51  74 104 138 174 210 252 300
#     4  10  20  36  53  73 103 137 174 213 254 298
#     4  12  23  35  53  77 103 133 170 210 254 303
#     4  10  19  31  47  73 107 140 174 211 253 299
#     4   9  19  34  53  77 104 132 163 203 252 305
#     4   8  17  32  50  72 101 137 174 214 255 296
#
# _framework density 18.513155999999999
#
# number of rings (size 3 to 8) (size 9 to 14) (size 15 to 20)
#    0.000    2.000    0.000    5.625    0.000    2.000 
#    0.000    3.125    0.000    0.750    0.000    0.000 
#    0.000    0.000    0.000    0.000    0.000    0.000 
#
# Total GULP energy -396838.944098 kJ/mol
# GULP energy per Si atom -12401.217003 kJ/mol
# Density = 1.847102 g / cm^3
# Si number density = 18.513156 Si / 1000 Ang^3
#
#
#
# Elastic Constant Matrix: (Units=GPa)
#
#
# Indices 1 2 3 4 5 6 
#
# 1 76.4647 18.8199 49.2895 0.0000 13.3106 0.0000
# 2 18.8199 58.7084 23.9265 0.0000 3.3044 0.0000
# 3 49.2895 23.9265 129.9682 0.0000 4.8656 0.0000
# 4 0.0000 0.0000 0.0000 21.1014 0.0000 1.8164
# 5 13.3106 3.3044 4.8656 0.0000 23.6880 0.0000
# 6 0.0000 0.0000 0.0000 1.8164 0.0000 28.3278
#
#
#
# Elastic Compliance Matrix: (Units=1/GPa)
#
#
# Indices 1 2 3 4 5 6 
#
# 1 0.019677 -0.003120 -0.006541 0.000000 -0.009278 0.000000
# 2 -0.003120 0.018994 -0.002298 0.000000 -0.000424 0.000000
# 3 -0.006541 -0.002298 0.010529 0.000000 0.001833 0.000000
# 4 0.000000 0.000000 0.000000 0.047653 0.000000 -0.003056
# 5 -0.009278 -0.000424 0.001833 0.000000 0.047112 0.000000
# 6 0.000000 0.000000 0.000000 -0.003056 0.000000 0.035497
#
#
# Mechanical properties :
#
#
# Convention : Reuss Voigt Hill
#
# Bulk Modulus (GPa) = 39.55145 49.91256 44.73200
# Shear Modulus (GPa) = 23.60654 26.16381 24.88518
#
# Velocity S-wave (km/s) = 3.57476 3.76341 3.67030
# Velocity P-wave (km/s) = 6.20072 6.77521 6.49432
#
# Compressibility (1/GPa) = 0.02528353
#
# Stress axis : x y z
#
# Youngs Moduli (GPa) = 50.82067 52.64893 94.97551
#
# Poissons Ratio (x) = 0.16426 0.62120
# Poissons Ratio (y) = 0.15856 0.21821
# Poissons Ratio (z) = 0.33240 0.12096
#
# Static dielectric constant tensor:
#      x y z
#    x 3.227640 0.000000 0.205640 
#    y 0.000000 3.280900 0.000000 
#    z 0.205640 0.000000 3.697930 
# 
# 
# High freq. dielectric constant tensor:
#      x y z
#    x 1.697650 0.000000 0.014470 
#    y 0.000000 1.714250 0.000000 
#    z 0.014470 0.000000 1.715270 
# 
# From -- ./inp_files/51628.got.cif
#   From: 2010.06.25/outbox.cif.g09.slc.cpg/sg11_26_cif.got.tgz:51628.got - 2010.06.27 23:14:04.
