data_PCOD8069980
_publ_section_title
;
Structure prediction by ZEFSAII (Michael W. Deem and Ramdas Pophale) SiO2 
 PCOD8069980
Probable space group: P 21/M
;
_chemical_formula_sum "Si O2"
_cell_formula_units_Z 32
_cell_length_a 20.234323
_cell_length_b 9.384792
_cell_length_c 28.881965
_cell_angle_alpha 90.000000
_cell_angle_beta 159.240690
_cell_angle_gamma 90.000000
_cell_volume 1943.956090
_symmetry_space_group_name_H-M "P 21/M"
_symmetry_group_IT_number 11
_symmetry_cell_setting 'monoclinic'
loop_
_space_group_symop_operation_xyz
x,y,z
-x,1/2+y,-z
-x,-y,-z
x,1/2-y,z
loop_
_atom_site_type_symbol
_atom_site_label
_atom_site_fract_x
_atom_site_fract_y
_atom_site_fract_z
Si Si1 0.070043 0.919691 0.695257
Si Si2 0.715817 0.415169 0.810004
Si Si3 0.757932 0.081623 0.097441
Si Si4 0.572953 0.918404 0.239129
Si Si5 0.039634 0.414929 0.094695
Si Si6 0.833287 0.080313 0.047334
Si Si7 0.669234 0.580985 0.401353
Si Si8 0.336354 0.082630 0.802349
O O1 0.092120 0.750000 0.705921
O O2 0.142882 0.981373 0.792033
O O3 0.855523 0.968452 0.549621
O O4 0.185611 0.990028 0.730014
O O5 0.706618 0.250000 0.790968
O O6 0.785892 0.497164 0.810321
O O7 0.512395 0.476128 0.690361
O O8 0.854153 0.443126 0.943300
O O9 0.771422 0.250000 0.107973
O O10 0.865667 0.027114 0.121543
O O11 0.541552 0.036402 0.954350
O O12 0.555360 0.750000 0.231116
O O13 0.672013 0.979218 0.350290
O O14 0.686599 0.957232 0.267028
O O15 0.364354 0.982282 0.099465
O O16 0.095569 0.250000 0.130198
O O17 0.996189 0.468439 0.118755
O O18 0.821055 0.250000 0.038460
O O19 0.656645 0.750000 0.391198
O O20 0.302626 0.250000 0.789022
#
# Coordination Sequence:
#
# PCOD8069980 Si02
#       8
#     4   4   4   4   4   4   4   4
#     4  10  19  29  43  63  85 109 139 174 209 244
#     4   9  16  26  41  62  87 110 132 163 204 249
#     4   8  15  27  44  65  83 104 140 180 207 233
#     4   8  13  24  42  62  81 107 142 171 198 240
#     4   9  15  24  43  67  84 102 134 172 206 237
#     4   8  12  22  42  64  83 104 137 176 203 232
#     4   9  16  27  42  60  85 115 141 165 199 249
#     4   9  17  29  46  63  81 107 140 177 211 242
#
# _framework density 16.461276999999999
#
# number of rings (size 3 to 8) (size 9 to 14) (size 15 to 20)
#    0.000    3.250    1.250    1.875    0.000    0.500 
#    0.000    0.625    0.000    5.250    0.000    0.000 
#    0.000    0.000    0.000    0.000    0.000    0.000 
#
# Total GULP energy -396524.475881 kJ/mol
# GULP energy per Si atom -12391.389871 kJ/mol
# Density = 1.642381 g / cm^3
# Si number density = 16.461277 Si / 1000 Ang^3
#
#
#
# Elastic Constant Matrix: (Units=GPa)
#
#
# Indices 1 2 3 4 5 6 
#
# 1 134.6770 30.6773 65.6221 0.0000 23.6832 0.0000
# 2 30.6773 21.6460 21.4457 0.0000 6.5530 0.0000
# 3 65.6221 21.4457 94.9827 0.0000 10.2752 0.0000
# 4 0.0000 0.0000 0.0000 11.8599 0.0000 6.6975
# 5 23.6832 6.5530 10.2752 0.0000 18.0584 0.0000
# 6 0.0000 0.0000 0.0000 6.6975 0.0000 23.1512
#
#
#
# Elastic Compliance Matrix: (Units=1/GPa)
#
#
# Indices 1 2 3 4 5 6 
#
# 1 0.015530 -0.011558 -0.006788 0.000000 -0.012311 0.000000
# 2 -0.011558 0.072107 -0.007571 0.000000 -0.006701 0.000000
# 3 -0.006788 -0.007571 0.016695 0.000000 0.002151 0.000000
# 4 0.000000 0.000000 0.000000 0.100783 0.000000 -0.029156
# 5 -0.012311 -0.006701 0.002151 0.000000 0.072730 0.000000
# 6 0.000000 0.000000 0.000000 -0.029156 0.000000 0.051629
#
#
# Mechanical properties :
#
#
# Convention : Reuss Voigt Hill
#
# Bulk Modulus (GPa) = 19.04810 54.08842 36.56826
# Shear Modulus (GPa) = 12.53740 19.51792 16.02766
#
# Velocity S-wave (km/s) = 2.76276 3.44712 3.12373
# Velocity P-wave (km/s) = 4.66623 6.98375 5.93913
#
# Compressibility (1/GPa) = 0.05249866
#
# Stress axis : x y z
#
# Youngs Moduli (GPa) = 64.38967 13.86830 59.89835
#
# Poissons Ratio (x) = 0.16028 0.40661
# Poissons Ratio (y) = 0.74419 0.45348
# Poissons Ratio (z) = 0.43710 0.10499
#
# Static dielectric constant tensor:
#      x y z
#    x 3.543890 0.000000 -0.144940 
#    y 0.000000 2.640640 0.000000 
#    z -0.144940 0.000000 3.150970 
# 
# 
# High freq. dielectric constant tensor:
#      x y z
#    x 1.648950 0.000000 0.004350 
#    y 0.000000 1.579330 0.000000 
#    z 0.004350 0.000000 1.609610 
# 
# From -- ./inp_files/38971.got.cif
#   From: 2010.06.25/outbox.cif.g09.slc.cpg/sg11_20_cif.got.tgz:38971.got - 2010.06.27 23:14:04.
