data_PCOD8069190
_publ_section_title
;
Structure prediction by ZEFSAII (Michael W. Deem and Ramdas Pophale) SiO2 
 PCOD8069190
Probable space group: P 21/M
;
_chemical_formula_sum "Si O2"
_cell_formula_units_Z 20
_cell_length_a 28.854053
_cell_length_b 9.012749
_cell_length_c 15.163151
_cell_angle_alpha 90.000000
_cell_angle_beta 17.926321
_cell_angle_gamma 90.000000
_cell_volume 1213.705554
_symmetry_space_group_name_H-M "P 21/M"
_symmetry_group_IT_number 11
_symmetry_cell_setting 'monoclinic'
loop_
_space_group_symop_operation_xyz
x,y,z
-x,1/2+y,-z
-x,-y,-z
x,1/2-y,z
loop_
_atom_site_type_symbol
_atom_site_label
_atom_site_fract_x
_atom_site_fract_y
_atom_site_fract_z
Si Si1 0.126892 0.425646 0.328382
Si Si2 0.719684 0.084107 0.314418
Si Si3 0.049489 0.075123 0.999999
Si Si4 0.965900 0.584107 0.314416
Si Si5 0.455274 0.074354 0.671619
O O1 0.105271 0.250000 0.362680
O O2 0.000000 0.500000 0.500000
O O3 0.111004 0.480572 0.458376
O O4 0.288991 0.476497 0.000000
O O5 0.690118 0.250000 0.405610
O O6 0.569379 0.019429 0.541626
O O7 0.852400 0.089971 0.000001
O O8 0.779457 0.978662 0.285804
O O9 0.043866 0.250000 0.000001
O O10 0.934741 0.021337 0.285800
O O11 0.000000 0.000000 0.000000
O O12 0.904273 0.750000 0.405610
O O13 0.467950 0.250000 0.637322
O O14 0.500000 0.000000 0.500000
#
# Coordination Sequence:
#
# PCOD8069190 Si02
#       5
#     4   4   4   4   4
#     4  10  20  33  50  72 101 137 173 209 252 299
#     4   8  16  31  48  69  99 130 163 204 250 294
#     4  10  18  30  52  78 100 126 164 208 253 302
#     4   8  16  31  48  69  99 130 163 204 250 294
#     4  10  20  33  50  72 101 137 173 209 252 299
#
# _framework density 16.478460999999999
#
# number of rings (size 3 to 8) (size 9 to 14) (size 15 to 20)
#    1.200    1.600    0.000    2.400    0.000    4.000 
#    0.000    0.000    0.000    1.200    0.000    0.000 
#    0.000    0.000    0.000    0.000    0.000    0.000 
#
# Total GULP energy -247775.080731 kJ/mol
# GULP energy per Si atom -12388.754037 kJ/mol
# Density = 1.644096 g / cm^3
# Si number density = 16.478461 Si / 1000 Ang^3
#
#
#
# Elastic Constant Matrix: (Units=GPa)
#
#
# Indices 1 2 3 4 5 6 
#
# 1 152.3776 67.2305 67.4963 0.0000 2.7074 0.0000
# 2 67.2305 84.9617 34.1979 0.0000 3.0181 0.0000
# 3 67.4963 34.1979 97.2374 0.0000 2.3304 0.0000
# 4 0.0000 0.0000 0.0000 19.7126 0.0000 1.2183
# 5 2.7074 3.0181 2.3304 0.0000 27.6591 0.0000
# 6 0.0000 0.0000 0.0000 1.2183 0.0000 33.0470
#
#
#
# Elastic Compliance Matrix: (Units=1/GPa)
#
#
# Indices 1 2 3 4 5 6 
#
# 1 0.012565 -0.007496 -0.006088 0.000000 0.000101 0.000000
# 2 -0.007496 0.018216 -0.001176 0.000000 -0.001155 0.000000
# 3 -0.006088 -0.001176 0.014936 0.000000 -0.000534 0.000000
# 4 0.000000 0.000000 0.000000 0.050845 0.000000 -0.001874
# 5 0.000101 -0.001155 -0.000534 0.000000 0.036316 0.000000
# 6 0.000000 0.000000 0.000000 -0.001874 0.000000 0.030329
#
#
# Mechanical properties :
#
#
# Convention : Reuss Voigt Hill
#
# Bulk Modulus (GPa) = 61.73538 74.71400 68.22469
# Shear Modulus (GPa) = 25.23680 27.12721 26.18200
#
# Velocity S-wave (km/s) = 3.91769 4.06177 3.99038
# Velocity P-wave (km/s) = 7.61643 8.21195 7.91979
#
# Compressibility (1/GPa) = 0.01619817
#
# Stress axis : x y z
#
# Youngs Moduli (GPa) = 79.58855 54.89815 66.95147
#
# Poissons Ratio (x) = 0.41149 0.40759
# Poissons Ratio (y) = 0.59656 0.07871
# Poissons Ratio (z) = 0.48452 0.06454
#
# Static dielectric constant tensor:
#      x y z
#    x 3.007100 0.000000 -0.010910 
#    y 0.000000 1.304080 0.000000 
#    z -0.010910 0.000000 3.126530 
# 
# 
# High freq. dielectric constant tensor:
#      x y z
#    x 1.627060 0.000000 0.001420 
#    y 0.000000 1.629060 0.000000 
#    z 0.001420 0.000000 1.611560 
# 
# From -- ./inp_files/25492.got.cif
#   From: 2010.06.25/outbox.cif.g09.slc.cpg/sg11_13_cif.got.tgz:25492.got - 2010.06.27 23:14:04.
