data_PCOD8069888
_publ_section_title
;
Structure prediction by ZEFSAII (Michael W. Deem and Ramdas Pophale) SiO2 
 PCOD8069888
Probable space group: P 21/M
;
_chemical_formula_sum "Si O2"
_cell_formula_units_Z 32
_cell_length_a 7.917653
_cell_length_b 21.246266
_cell_length_c 10.991211
_cell_angle_alpha 90.000000
_cell_angle_beta 59.202364
_cell_angle_gamma 90.000000
_cell_volume 1588.210977
_symmetry_space_group_name_H-M "P 21/M"
_symmetry_group_IT_number 11
_symmetry_cell_setting 'monoclinic'
loop_
_space_group_symop_operation_xyz
x,y,z
-x,1/2+y,-z
-x,-y,-z
x,1/2-y,z
loop_
_atom_site_type_symbol
_atom_site_label
_atom_site_fract_x
_atom_site_fract_y
_atom_site_fract_z
Si Si1 0.234269 0.822441 0.636269
Si Si2 0.730927 0.495729 0.135936
Si Si3 0.529755 0.891427 0.082225
Si Si4 0.231701 0.424828 0.655166
Si Si5 0.551803 0.602051 0.661051
Si Si6 0.846074 0.465788 0.842778
Si Si7 0.822989 0.891885 0.772609
Si Si8 0.485691 0.321067 0.681469
O O1 0.183744 0.750000 0.683534
O O2 0.402067 0.844105 0.670354
O O3 0.317607 0.831301 0.469733
O O4 0.038509 0.863923 0.717673
O O5 0.642688 0.560832 0.126128
O O6 0.790089 0.510280 0.254829
O O7 0.562451 0.443335 0.205649
O O8 0.892064 0.474880 0.972946
O O9 0.357581 0.928946 0.080521
O O10 0.458977 0.836126 0.199018
O O11 0.677078 0.862930 0.927701
O O12 0.357291 0.436464 0.487266
O O13 0.308603 0.363701 0.696231
O O14 0.997880 0.418807 0.716662
O O15 0.735680 0.628889 0.672572
O O16 0.829463 0.532377 0.780036
O O17 0.409362 0.250000 0.698482
#
# Coordination Sequence:
#
# PCOD8069888 Si02
#       8
#     4   4   4   4   4   4   4   4
#     4  10  24  43  62  84 115 157 203 248 300 351
#     4  10  18  37  55  82 124 158 185 238 300 347
#     4  10  20  37  60  85 121 153 193 242 292 355
#     4  10  22  32  58  89 116 154 199 241 294 356
#     4  11  21  38  59  89 121 155 196 248 291 358
#     4  11  20  36  57  90 123 157 190 241 301 359
#     4  11  22  39  62  90 124 158 195 243 304 356
#     4   9  21  43  61  78 112 156 200 249 296 348
#
# _framework density 20.148455999999999
#
# number of rings (size 3 to 8) (size 9 to 14) (size 15 to 20)
#    0.000    1.750    2.500    2.250    1.750    5.500 
#    0.000    0.625    0.000    0.000    0.000    0.000 
#    0.000    0.000    0.000    0.000    0.000    0.000 
#
# Total GULP energy -396511.212077 kJ/mol
# GULP energy per Si atom -12390.975377 kJ/mol
# Density = 2.010260 g / cm^3
# Si number density = 20.148456 Si / 1000 Ang^3
#
#
#
# Elastic Constant Matrix: (Units=GPa)
#
#
# Indices 1 2 3 4 5 6 
#
# 1 93.6354 35.9418 39.8456 0.0000 1.6792 0.0000
# 2 35.9418 70.4359 59.2298 0.0000 -8.4015 0.0000
# 3 39.8456 59.2298 114.7982 0.0000 -2.4741 0.0000
# 4 0.0000 0.0000 0.0000 21.3860 0.0000 -4.3070
# 5 1.6792 -8.4015 -2.4741 0.0000 34.4733 0.0000
# 6 0.0000 0.0000 0.0000 -4.3070 0.0000 14.2610
#
#
#
# Elastic Compliance Matrix: (Units=1/GPa)
#
#
# Indices 1 2 3 4 5 6 
#
# 1 0.013693 -0.005673 -0.001873 0.000000 -0.002184 0.000000
# 2 -0.005673 0.028391 -0.012543 0.000000 0.006295 0.000000
# 3 -0.001873 -0.012543 0.015793 0.000000 -0.001832 0.000000
# 4 0.000000 0.000000 0.000000 0.049788 0.000000 0.015037
# 5 -0.002184 0.006295 -0.001832 0.000000 0.030517 0.000000
# 6 0.000000 0.000000 0.000000 0.015037 0.000000 0.074663
#
#
# Mechanical properties :
#
#
# Convention : Reuss Voigt Hill
#
# Bulk Modulus (GPa) = 56.50109 60.98932 58.74521
# Shear Modulus (GPa) = 19.31072 23.61421 21.46247
#
# Velocity S-wave (km/s) = 3.09920 3.42718 3.26731
# Velocity P-wave (km/s) = 6.39609 6.78207 6.59190
#
# Compressibility (1/GPa) = 0.01769877
#
# Stress axis : x y z
#
# Youngs Moduli (GPa) = 73.02741 35.22271 63.31790
#
# Poissons Ratio (x) = 0.19982 0.11860
# Poissons Ratio (y) = 0.41428 0.79422
# Poissons Ratio (z) = 0.13678 0.44181
#
# Static dielectric constant tensor:
#      x y z
#    x 3.783280 0.000000 0.048010 
#    y 0.000000 3.402680 0.000000 
#    z 0.048010 0.000000 3.985640 
# 
# 
# High freq. dielectric constant tensor:
#      x y z
#    x 1.790250 0.000000 -0.001870 
#    y 0.000000 1.752680 0.000000 
#    z -0.001870 0.000000 1.805670 
# 
# From -- ./inp_files/32832.got.cif
#   From: 2010.06.25/outbox.cif.g09.slc.cpg/sg11_17_cif.got.tgz:32832.got - 2010.06.27 23:14:04.
