data_PCOD8069929
_publ_section_title
;
Structure prediction by ZEFSAII (Michael W. Deem and Ramdas Pophale) SiO2 
 PCOD8069929
Probable space group: P 21/M
;
_chemical_formula_sum "Si O2"
_cell_formula_units_Z 32
_cell_length_a 18.247645
_cell_length_b 9.379718
_cell_length_c 13.523631
_cell_angle_alpha 90.000000
_cell_angle_beta 70.202477
_cell_angle_gamma 90.000000
_cell_volume 2177.866568
_symmetry_space_group_name_H-M "P 21/M"
_symmetry_group_IT_number 11
_symmetry_cell_setting 'monoclinic'
loop_
_space_group_symop_operation_xyz
x,y,z
-x,1/2+y,-z
-x,-y,-z
x,1/2-y,z
loop_
_atom_site_type_symbol
_atom_site_label
_atom_site_fract_x
_atom_site_fract_y
_atom_site_fract_z
Si Si1 0.545077 0.085184 0.113926
Si Si2 0.089348 0.586555 0.352871
Si Si3 0.753626 0.911133 0.502908
Si Si4 0.480711 0.585682 0.653403
Si Si5 0.385948 0.584096 0.504095
Si Si6 0.766078 0.915851 0.728685
Si Si7 0.384639 0.083355 0.085465
Si Si8 0.922391 0.588166 0.446853
O O1 0.562518 0.250000 0.085991
O O2 0.555268 0.045391 0.224211
O O3 0.457455 0.045132 0.121999
O O4 0.607612 0.995373 0.023117
O O5 0.116350 0.750000 0.340673
O O6 0.156363 0.496408 0.267009
O O7 0.079738 0.531987 0.468779
O O8 0.001852 0.569275 0.345239
O O9 0.723362 0.750000 0.500675
O O10 0.751745 0.949715 0.620092
O O11 0.842324 0.928628 0.420838
O O12 0.699676 0.018191 0.466552
O O13 0.508225 0.750000 0.639190
O O14 0.414564 0.555650 0.602508
O O15 0.556437 0.490304 0.599875
O O16 0.382864 0.750000 0.479932
O O17 0.779570 0.750000 0.740477
O O18 0.692489 0.972266 0.824217
O O19 0.379767 0.250000 0.066215
O O20 0.922288 0.750000 0.493086
#
# Coordination Sequence:
#
# PCOD8069929 Si02
#       8
#     4   4   4   4   4   4   4   4
#     4   9  17  30  45  57  74 103 133 160 194 233
#     4   9  15  23  37  56  76 100 134 169 192 220
#     4   9  16  27  41  55  78 111 137 157 191 237
#     4   9  18  32  45  56  77 108 133 157 198 243
#     4  10  19  28  41  62  81  99 132 171 196 223
#     4   9  17  28  40  55  80 112 136 156 193 240
#     4   9  17  28  42  60  79 100 130 164 193 227
#     4   8  15  26  37  51  75 107 135 158 193 237
#
# _framework density 14.693279
#
# number of rings (size 3 to 8) (size 9 to 14) (size 15 to 20)
#    0.000    3.000    0.000    2.250    0.000    6.000 
#    0.000    2.500    0.000    0.000    0.000    0.000 
#    0.000    1.000    0.000    2.250    0.000    4.250 
#
# Total GULP energy -396593.680978 kJ/mol
# GULP energy per Si atom -12393.552531 kJ/mol
# Density = 1.465984 g / cm^3
# Si number density = 14.693279 Si / 1000 Ang^3
#
#
#
# Elastic Constant Matrix: (Units=GPa)
#
#
# Indices 1 2 3 4 5 6 
#
# 1 99.5457 47.0306 42.5874 0.0000 -21.0752 0.0000
# 2 47.0306 60.4039 31.5074 0.0000 -7.6566 0.0000
# 3 42.5874 31.5074 70.8731 0.0000 -11.2576 0.0000
# 4 0.0000 0.0000 0.0000 21.3265 0.0000 -3.7804
# 5 -21.0752 -7.6566 -11.2576 0.0000 22.8662 0.0000
# 6 0.0000 0.0000 0.0000 -3.7804 0.0000 25.8356
#
#
#
# Elastic Compliance Matrix: (Units=1/GPa)
#
#
# Indices 1 2 3 4 5 6 
#
# 1 0.020314 -0.011598 -0.005092 0.000000 0.012333 0.000000
# 2 -0.011598 0.028330 -0.006310 0.000000 -0.004310 0.000000
# 3 -0.005092 -0.006310 0.020497 0.000000 0.003285 0.000000
# 4 0.000000 0.000000 0.000000 0.048139 0.000000 0.007044
# 5 0.012333 -0.004310 0.003285 0.000000 0.055274 0.000000
# 6 0.000000 0.000000 0.000000 0.007044 0.000000 0.039737
#
#
# Mechanical properties :
#
#
# Convention : Reuss Voigt Hill
#
# Bulk Modulus (GPa) = 43.21193 52.56370 47.88782
# Shear Modulus (GPa) = 18.79669 21.31882 20.05776
#
# Velocity S-wave (km/s) = 3.58057 3.81323 3.69873
# Velocity P-wave (km/s) = 6.82401 7.43231 7.13465
#
# Compressibility (1/GPa) = 0.02314176
#
# Stress axis : x y z
#
# Youngs Moduli (GPa) = 49.22598 35.29792 48.78872
#
# Poissons Ratio (x) = 0.40937 0.24844
# Poissons Ratio (y) = 0.57090 0.30787
# Poissons Ratio (z) = 0.25066 0.22274
#
# Static dielectric constant tensor:
#      x y z
#    x 3.029700 0.000000 -0.243640 
#    y 0.000000 2.902800 0.000000 
#    z -0.243640 0.000000 2.662080 
# 
# 
# High freq. dielectric constant tensor:
#      x y z
#    x 1.556600 0.000000 -0.023750 
#    y 0.000000 1.570050 0.000000 
#    z -0.023750 0.000000 1.519250 
# 
# From -- ./inp_files/52927.got.cif
#   From: 2010.06.25/outbox.cif.g09.slc.cpg/sg11_27_cif.got.tgz:52927.got - 2010.06.27 23:14:04.
