data_PCOD8069202
_publ_section_title
;
Structure prediction by ZEFSAII (Michael W. Deem and Ramdas Pophale) SiO2 
 PCOD8069202
Probable space group: P 21/M
;
_chemical_formula_sum "Si O2"
_cell_formula_units_Z 32
_cell_length_a 11.980795
_cell_length_b 8.872052
_cell_length_c 19.805723
_cell_angle_alpha 90.000000
_cell_angle_beta 122.647100
_cell_angle_gamma 90.000000
_cell_volume 1772.626597
_symmetry_space_group_name_H-M "P 21/M"
_symmetry_group_IT_number 11
_symmetry_cell_setting 'monoclinic'
loop_
_space_group_symop_operation_xyz
x,y,z
-x,1/2+y,-z
-x,-y,-z
x,1/2-y,z
loop_
_atom_site_type_symbol
_atom_site_label
_atom_site_fract_x
_atom_site_fract_y
_atom_site_fract_z
Si Si1 0.911204 0.926733 0.842001
Si Si2 0.208979 0.576705 0.967974
Si Si3 0.196734 0.576270 0.605892
Si Si4 0.034920 0.576759 0.272504
Si Si5 0.593128 0.927940 0.234128
Si Si6 0.318665 0.427219 0.131983
Si Si7 0.245261 0.924658 0.827731
Si Si8 0.938730 0.421724 0.570957
O O1 0.908796 0.750000 0.828066
O O2 0.803909 0.978734 0.861469
O O3 0.056003 0.976765 0.915278
O O4 0.879452 0.004540 0.759845
O O5 0.218074 0.750000 0.994648
O O6 0.277082 0.554653 0.917273
O O7 0.287831 0.472020 0.045183
O O8 0.228805 0.750000 0.631796
O O9 0.315342 0.476031 0.673377
O O10 0.181472 0.545506 0.520394
O O11 0.059457 0.534595 0.597264
O O12 0.008793 0.750000 0.246485
O O13 0.113080 0.557121 0.369111
O O14 0.894636 0.496576 0.236146
O O15 0.592799 0.750000 0.227546
O O16 0.446310 0.986782 0.201414
O O17 0.640969 0.996362 0.178637
O O18 0.343759 0.250000 0.144119
O O19 0.239264 0.750000 0.805934
O O20 0.990142 0.250000 0.577038
#
# Coordination Sequence:
#
# PCOD8069202 Si02
#       8
#     4   4   4   4   4   4   4   4
#     4   9  20  37  56  79 107 138 177 222 264 313
#     4   9  19  36  57  81 107 132 168 222 272 315
#     4  10  19  32  52  77 109 145 175 212 260 312
#     4  10  18  30  53  83 112 139 171 216 264 311
#     4  12  24  37  53  75 108 144 180 221 264 318
#     4  11  23  38  56  77 102 140 184 221 265 317
#     4  10  20  35  54  78 108 142 176 213 264 319
#     4   9  18  31  50  81 113 139 173 214 259 311
#
# _framework density 18.052306999999999
#
# number of rings (size 3 to 8) (size 9 to 14) (size 15 to 20)
#    0.000    2.000    1.250    3.750    0.000    5.000 
#    0.000    0.000    0.000    0.750    0.000    0.000 
#    0.000    0.000    0.000    0.000    0.000    0.000 
#
# Total GULP energy -396832.477832 kJ/mol
# GULP energy per Si atom -12401.014932 kJ/mol
# Density = 1.801122 g / cm^3
# Si number density = 18.052307 Si / 1000 Ang^3
#
#
#
# Elastic Constant Matrix: (Units=GPa)
#
#
# Indices 1 2 3 4 5 6 
#
# 1 49.7709 29.9864 40.5477 0.0000 2.9894 0.0000
# 2 29.9864 81.4463 34.0001 0.0000 -1.0147 0.0000
# 3 40.5477 34.0001 108.5035 0.0000 -10.0992 0.0000
# 4 0.0000 0.0000 0.0000 30.3565 0.0000 -0.8375
# 5 2.9894 -1.0147 -10.0992 0.0000 24.5783 0.0000
# 6 0.0000 0.0000 0.0000 -0.8375 0.0000 25.8541
#
#
#
# Elastic Compliance Matrix: (Units=1/GPa)
#
#
# Indices 1 2 3 4 5 6 
#
# 1 0.034784 -0.008211 -0.011282 0.000000 -0.009206 0.000000
# 2 -0.008211 0.016103 -0.001895 0.000000 0.000885 0.000000
# 3 -0.011282 -0.001895 0.014709 0.000000 0.007338 0.000000
# 4 0.000000 0.000000 0.000000 0.032971 0.000000 0.001068
# 5 -0.009206 0.000885 0.007338 0.000000 0.044858 0.000000
# 6 0.000000 0.000000 0.000000 0.001068 0.000000 0.038713
#
#
# Mechanical properties :
#
#
# Convention : Reuss Voigt Hill
#
# Bulk Modulus (GPa) = 43.82354 49.86545 46.84449
# Shear Modulus (GPa) = 21.50327 25.17024 23.33675
#
# Velocity S-wave (km/s) = 3.45507 3.73808 3.59936
# Velocity P-wave (km/s) = 6.34391 6.80542 6.57871
#
# Compressibility (1/GPa) = 0.02281879
#
# Stress axis : x y z
#
# Youngs Moduli (GPa) = 28.74900 62.09883 67.98362
#
# Poissons Ratio (x) = 0.50991 0.76702
# Poissons Ratio (y) = 0.23607 0.12884
# Poissons Ratio (z) = 0.32436 0.11769
#
# Static dielectric constant tensor:
#      x y z
#    x 3.277810 0.000000 -0.211270 
#    y 0.000000 3.401130 0.000000 
#    z -0.211270 0.000000 3.445070 
# 
# 
# High freq. dielectric constant tensor:
#      x y z
#    x 1.673010 0.000000 -0.020030 
#    y 0.000000 1.710560 0.000000 
#    z -0.020030 0.000000 1.699730 
# 
# From -- ./inp_files/64437.got.cif
#   From: 2010.06.25/outbox.cif.g09.slc.cpg/sg11_33_cif.got.tgz:64437.got - 2010.06.27 23:14:04.
