data_PCOD8069687
_publ_section_title
;
Structure prediction by ZEFSAII (Michael W. Deem and Ramdas Pophale) SiO2 
 PCOD8069687
Probable space group: P 21/M
;
_chemical_formula_sum "Si O2"
_cell_formula_units_Z 24
_cell_length_a 9.695398
_cell_length_b 8.501870
_cell_length_c 16.585380
_cell_angle_alpha 90.000000
_cell_angle_beta 111.358948
_cell_angle_gamma 90.000000
_cell_volume 1273.218858
_symmetry_space_group_name_H-M "P 21/M"
_symmetry_group_IT_number 11
_symmetry_cell_setting 'monoclinic'
loop_
_space_group_symop_operation_xyz
x,y,z
-x,1/2+y,-z
-x,-y,-z
x,1/2-y,z
loop_
_atom_site_type_symbol
_atom_site_label
_atom_site_fract_x
_atom_site_fract_y
_atom_site_fract_z
Si Si1 0.300742 0.066916 0.643614
Si Si2 0.173869 0.933998 0.769856
Si Si3 0.535030 0.934355 0.094460
Si Si4 0.336697 0.434984 0.472106
Si Si5 0.589740 0.565733 0.776479
Si Si6 0.846277 0.934865 0.716348
O O1 0.272959 0.250000 0.654884
O O2 0.265855 0.021656 0.543742
O O3 0.194951 0.964887 0.678899
O O4 0.471930 0.028899 0.698151
O O5 0.192762 0.750000 0.792172
O O6 0.012880 0.000437 0.761591
O O7 0.295891 0.028202 0.846454
O O8 0.508311 0.750000 0.090676
O O9 0.420815 0.014666 0.132695
O O10 0.500000 0.000000 0.000000
O O11 0.500000 0.500000 0.500000
O O12 0.349673 0.250000 0.464087
O O13 0.233144 0.507854 0.379827
O O14 0.554960 0.750000 0.760873
O O15 0.752543 0.524602 0.776668
O O16 0.859347 0.750000 0.705641
#
# Coordination Sequence:
#
# PCOD8069687 Si02
#       6
#     4   4   4   4   4   4
#     4  10  19  31  49  76 108 143 185 230 267 308
#     4  10  20  36  56  78 108 145 179 217 269 320
#     4  11  22  39  61  85 108 133 172 216 262 322
#     4  10  19  32  50  75 107 144 188 231 265 306
#     4  10  18  33  57  80 106 142 180 217 265 317
#     4   9  19  34  53  78 110 145 182 223 267 314
#
# _framework density 18.849864
#
# number of rings (size 3 to 8) (size 9 to 14) (size 15 to 20)
#    0.000    2.000    1.667    5.000    0.000    1.333 
#    0.000    5.833    0.000    0.000    0.000    0.000 
#    0.000    0.000    0.000    0.000    0.000    0.000 
#
# Total GULP energy -297571.668972 kJ/mol
# GULP energy per Si atom -12398.819541 kJ/mol
# Density = 1.880696 g / cm^3
# Si number density = 18.849864 Si / 1000 Ang^3
#
#
#
# Elastic Constant Matrix: (Units=GPa)
#
#
# Indices 1 2 3 4 5 6 
#
# 1 148.4675 9.4092 58.4007 0.0000 -4.8225 0.0000
# 2 9.4092 28.7604 13.9138 0.0000 -6.9000 0.0000
# 3 58.4007 13.9138 125.8233 0.0000 -18.0855 0.0000
# 4 0.0000 0.0000 0.0000 27.4276 0.0000 -2.9786
# 5 -4.8225 -6.9000 -18.0855 0.0000 21.4381 0.0000
# 6 0.0000 0.0000 0.0000 -2.9786 0.0000 23.1350
#
#
#
# Elastic Compliance Matrix: (Units=1/GPa)
#
#
# Indices 1 2 3 4 5 6 
#
# 1 0.008326 -0.001245 -0.004000 0.000000 -0.001903 0.000000
# 2 -0.001245 0.038726 -0.002223 0.000000 0.010309 0.000000
# 3 -0.004000 -0.002223 0.011173 0.000000 0.007810 0.000000
# 4 0.000000 0.000000 0.000000 0.036977 0.000000 0.004761
# 5 -0.001903 0.010309 0.007810 0.000000 0.056125 0.000000
# 6 0.000000 0.000000 0.000000 0.004761 0.000000 0.043838
#
#
# Mechanical properties :
#
#
# Convention : Reuss Voigt Hill
#
# Bulk Modulus (GPa) = 23.10071 51.83317 37.46694
# Shear Modulus (GPa) = 22.26873 29.15529 25.71201
#
# Velocity S-wave (km/s) = 3.44084 3.93709 3.69730
# Velocity P-wave (km/s) = 5.29788 6.94444 6.17627
#
# Compressibility (1/GPa) = 0.04328872
#
# Stress axis : x y z
#
# Youngs Moduli (GPa) = 120.10347 25.82243 89.50290
#
# Poissons Ratio (x) = 0.03215 0.35804
# Poissons Ratio (y) = 0.14954 0.19893
# Poissons Ratio (z) = 0.48046 0.05739
#
# Static dielectric constant tensor:
#      x y z
#    x 3.469240 0.000000 0.153470 
#    y 0.000000 3.420780 0.000000 
#    z 0.153470 0.000000 2.973270 
# 
# 
# High freq. dielectric constant tensor:
#      x y z
#    x 1.731710 0.000000 -0.013840 
#    y 0.000000 1.725840 0.000000 
#    z -0.013840 0.000000 1.721800 
# 
# From -- ./inp_files/57418.got.cif
#   From: 2010.06.25/outbox.cif.g09.slc.cpg/sg11_29_cif.got.tgz:57418.got - 2010.06.27 23:14:04.
