data_PCOD8069050
_publ_section_title
;
Structure prediction by ZEFSAII (Michael W. Deem and Ramdas Pophale) SiO2 
 PCOD8069050
Probable space group: P 21/M
;
_chemical_formula_sum "Si O2"
_cell_formula_units_Z 32
_cell_length_a 19.805802
_cell_length_b 8.939839
_cell_length_c 24.558894
_cell_angle_alpha 90.000000
_cell_angle_beta 156.183546
_cell_angle_gamma 90.000000
_cell_volume 1755.924713
_symmetry_space_group_name_H-M "P 21/M"
_symmetry_group_IT_number 11
_symmetry_cell_setting 'monoclinic'
loop_
_space_group_symop_operation_xyz
x,y,z
-x,1/2+y,-z
-x,-y,-z
x,1/2-y,z
loop_
_atom_site_type_symbol
_atom_site_label
_atom_site_fract_x
_atom_site_fract_y
_atom_site_fract_z
Si Si1 0.694649 0.078633 0.498866
Si Si2 0.179582 0.573906 0.127301
Si Si3 0.477267 0.573907 0.424985
Si Si4 0.385599 0.071639 0.961868
Si Si5 0.989233 0.927422 0.331357
Si Si6 0.112130 0.571815 0.537374
Si Si7 0.607305 0.578633 0.803086
Si Si8 0.515610 0.427424 0.173486
O O1 0.698829 0.250000 0.522450
O O2 0.575997 0.064326 0.358665
O O3 0.879316 0.020848 0.618107
O O4 0.631820 0.975880 0.501578
O O5 0.156384 0.750000 0.109869
O O6 0.302360 0.523780 0.267454
O O7 0.258907 0.524126 0.128666
O O8 0.000000 0.500000 0.000000
O O9 0.500000 0.500000 0.500000
O O10 0.483162 0.750000 0.436648
O O11 0.398049 0.250000 0.966017
O O12 0.196293 0.012548 0.816878
O O13 0.441966 0.012547 0.062548
O O14 0.500000 0.000000 0.000000
O O15 0.991507 0.750000 0.334566
O O16 0.046740 0.990367 0.431755
O O17 0.103255 0.750000 0.534414
O O18 0.298211 0.509635 0.683222
O O19 0.000000 0.500000 0.500000
O O20 0.669695 0.750000 0.846072
O O21 0.595694 0.520854 0.856901
O O22 0.520679 0.250000 0.177622
#
# Coordination Sequence:
#
# PCOD8069050 Si02
#       8
#     4   4   4   4   4   4   4   4
#     4   9  16  31  55  77 100 135 174 215 262 310
#     4  10  21  37  57  83 113 145 180 218 263 318
#     4  10  21  37  57  83 113 145 180 218 263 318
#     4  10  20  34  50  70  99 134 169 210 259 310
#     4   9  17  31  51  72  97 131 171 209 252 309
#     4  10  18  30  48  72  97 126 167 210 251 300
#     4   9  16  31  55  77 100 135 174 215 262 310
#     4   9  17  31  51  72  97 131 171 209 252 309
#
# _framework density 18.224015999999999
#
# number of rings (size 3 to 8) (size 9 to 14) (size 15 to 20)
#    0.000    2.500    1.250    1.500    0.000    1.500 
#    2.250    2.500    0.000    0.000    0.000    0.000 
#    0.000    0.000    0.000    0.000    0.000    0.000 
#
# Total GULP energy -396746.953882 kJ/mol
# GULP energy per Si atom -12398.342309 kJ/mol
# Density = 1.818254 g / cm^3
# Si number density = 18.224016 Si / 1000 Ang^3
#
#
#
# Elastic Constant Matrix: (Units=GPa)
#
#
# Indices 1 2 3 4 5 6 
#
# 1 170.0693 41.3456 94.2907 0.0000 -2.0306 0.0000
# 2 41.3456 41.6457 35.5835 0.0000 2.3371 0.0000
# 3 94.2907 35.5835 153.6365 0.0000 8.6817 0.0000
# 4 0.0000 0.0000 0.0000 17.5784 0.0000 6.0468
# 5 -2.0306 2.3371 8.6817 0.0000 36.0501 0.0000
# 6 0.0000 0.0000 0.0000 6.0468 0.0000 32.5036
#
#
#
# Elastic Compliance Matrix: (Units=1/GPa)
#
#
# Indices 1 2 3 4 5 6 
#
# 1 0.010080 -0.005907 -0.004939 0.000000 0.002140 0.000000
# 2 -0.005907 0.033401 -0.004024 0.000000 -0.001529 0.000000
# 3 -0.004939 -0.004024 0.010618 0.000000 -0.002574 0.000000
# 4 0.000000 0.000000 0.000000 0.060777 0.000000 -0.011307
# 5 0.002140 -0.001529 -0.002574 0.000000 0.028579 0.000000
# 6 0.000000 0.000000 0.000000 -0.011307 0.000000 0.032869
#
#
# Mechanical properties :
#
#
# Convention : Reuss Voigt Hill
#
# Bulk Modulus (GPa) = 41.05503 78.64346 59.84924
# Shear Modulus (GPa) = 23.34441 30.16855 26.75648
#
# Velocity S-wave (km/s) = 3.58295 4.07311 3.83587
# Velocity P-wave (km/s) = 6.30028 8.08503 7.24780
#
# Compressibility (1/GPa) = 0.02435755
#
# Stress axis : x y z
#
# Youngs Moduli (GPa) = 99.20632 29.93927 94.18322
#
# Poissons Ratio (x) = 0.17686 0.46518
# Poissons Ratio (y) = 0.58604 0.37900
# Poissons Ratio (z) = 0.48999 0.12048
#
# Static dielectric constant tensor:
#      x y z
#    x 3.506940 0.000000 -0.043900 
#    y 0.000000 3.007630 0.000000 
#    z -0.043900 0.000000 3.615260 
# 
# 
# High freq. dielectric constant tensor:
#      x y z
#    x 1.717720 0.000000 0.005220 
#    y 0.000000 1.676220 0.000000 
#    z 0.005220 0.000000 1.704830 
# 
# From -- ./inp_files/72152.got.cif
#   From: 2010.06.25/outbox.cif.g09.slc.cpg/sg11_37_cif.got.tgz:72152.got - 2010.06.27 23:14:04.
