data_PCOD8069573
_publ_section_title
;
Structure prediction by ZEFSAII (Michael W. Deem and Ramdas Pophale) SiO2 
 PCOD8069573
Probable space group: P 21/M
;
_chemical_formula_sum "Si O2"
_cell_formula_units_Z 28
_cell_length_a 27.861529
_cell_length_b 8.767212
_cell_length_c 7.473196
_cell_angle_alpha 90.000000
_cell_angle_beta 46.649060
_cell_angle_gamma 90.000000
_cell_volume 1327.408023
_symmetry_space_group_name_H-M "P 21/M"
_symmetry_group_IT_number 11
_symmetry_cell_setting 'monoclinic'
loop_
_space_group_symop_operation_xyz
x,y,z
-x,1/2+y,-z
-x,-y,-z
x,1/2-y,z
loop_
_atom_site_type_symbol
_atom_site_label
_atom_site_fract_x
_atom_site_fract_y
_atom_site_fract_z
Si Si1 0.699472 0.570685 0.461892
Si Si2 0.295860 0.932169 0.938019
Si Si3 0.568243 0.081938 0.790207
Si Si4 0.166550 0.931334 0.872972
Si Si5 0.565793 0.414454 0.376743
Si Si6 0.166295 0.072234 0.263061
Si Si7 0.071389 0.071956 0.828925
O O1 0.701458 0.750000 0.489850
O O2 0.704093 0.529441 0.242967
O O3 0.630164 0.507039 0.719586
O O4 0.763836 0.493279 0.386531
O O5 0.294648 0.750000 0.904338
O O6 0.363051 0.976953 0.878219
O O7 0.228882 0.989870 0.203620
O O8 0.565464 0.250000 0.883909
O O9 0.578417 0.094154 0.554081
O O10 0.500000 0.000000 0.000000
O O11 0.169248 0.750000 0.876420
O O12 0.109189 0.984897 0.889108
O O13 0.151405 0.995496 0.109964
O O14 0.500000 0.500000 0.500000
O O15 0.553190 0.250000 0.324282
O O16 0.181673 0.250000 0.194485
O O17 0.104686 0.046528 0.550676
O O18 0.067898 0.250000 0.886750
O O19 0.000000 0.000000 0.000000
#
# Coordination Sequence:
#
# PCOD8069573 Si02
#       7
#     4   4   4   4   4   4   4
#     4  10  18  32  56  82 110 148 192 242 293 349
#     4   9  17  32  54  80 110 146 191 240 288 349
#     4  10  20  35  52  76 108 146 190 240 293 352
#     4  11  22  39  65  93 123 162 203 248 302 363
#     4   9  19  33  50  74 106 143 185 232 285 342
#     4  10  21  39  64  92 121 158 202 249 302 361
#     4  11  25  44  65  93 128 163 203 252 304 364
#
# _framework density 21.093741000000001
#
# number of rings (size 3 to 8) (size 9 to 14) (size 15 to 20)
#    0.000    2.000    0.000    6.857    0.000    6.286 
#    2.571    0.000    0.000    0.000    0.000    0.000 
#    0.000    0.000    0.000    0.000    0.000    0.000 
#
# Total GULP energy -346940.346105 kJ/mol
# GULP energy per Si atom -12390.726647 kJ/mol
# Density = 2.104573 g / cm^3
# Si number density = 21.093741 Si / 1000 Ang^3
#
#
#
# Elastic Constant Matrix: (Units=GPa)
#
#
# Indices 1 2 3 4 5 6 
#
# 1 130.7681 69.1462 58.8471 0.0000 -42.3573 0.0000
# 2 69.1462 175.0116 65.7125 0.0000 -26.8667 0.0000
# 3 58.8471 65.7125 112.8717 0.0000 -41.2086 0.0000
# 4 0.0000 0.0000 0.0000 30.0305 0.0000 -11.5893
# 5 -42.3573 -26.8667 -41.2086 0.0000 46.3344 0.0000
# 6 0.0000 0.0000 0.0000 -11.5893 0.0000 35.3747
#
#
#
# Elastic Compliance Matrix: (Units=1/GPa)
#
#
# Indices 1 2 3 4 5 6 
#
# 1 0.012788 -0.003089 -0.001858 0.000000 0.008247 0.000000
# 2 -0.003089 0.008073 -0.003571 0.000000 -0.001319 0.000000
# 3 -0.001858 -0.003571 0.015595 0.000000 0.010101 0.000000
# 4 0.000000 0.000000 0.000000 0.038119 0.000000 0.012488
# 5 0.008247 -0.001319 0.010101 0.000000 0.037340 0.000000
# 6 0.000000 0.000000 0.000000 0.012488 0.000000 0.032360
#
#
# Mechanical properties :
#
#
# Convention : Reuss Voigt Hill
#
# Bulk Modulus (GPa) = 51.49338 89.56256 70.52797
# Shear Modulus (GPa) = 29.80050 37.34427 33.57238
#
# Velocity S-wave (km/s) = 3.76275 4.21217 3.99379
# Velocity P-wave (km/s) = 6.58350 8.13683 7.40103
#
# Compressibility (1/GPa) = 0.01941997
#
# Stress axis : x y z
#
# Youngs Moduli (GPa) = 78.20054 123.87618 64.12366
#
# Poissons Ratio (x) = 0.38262 0.11914
# Poissons Ratio (y) = 0.24154 0.22897
# Poissons Ratio (z) = 0.14530 0.44234
#
# Static dielectric constant tensor:
#      x y z
#    x 4.323840 0.000000 -1.041660 
#    y 0.000000 3.926130 0.000000 
#    z -1.041660 0.000000 4.719300 
# 
# 
# High freq. dielectric constant tensor:
#      x y z
#    x 1.819470 0.000000 -0.024900 
#    y 0.000000 1.837220 0.000000 
#    z -0.024900 0.000000 1.826780 
# 
# From -- ./inp_files/28982.got.cif
#   From: 2010.06.25/outbox.cif.g09.slc.cpg/sg11_15_cif.got.tgz:28982.got - 2010.06.27 23:14:04.
