data_PCOD8069386
_publ_section_title
;
Structure prediction by ZEFSAII (Michael W. Deem and Ramdas Pophale) SiO2 
 PCOD8069386
Probable space group: P 21/M
;
_chemical_formula_sum "Si O2"
_cell_formula_units_Z 28
_cell_length_a 20.253739
_cell_length_b 8.721901
_cell_length_c 28.430299
_cell_angle_alpha 90.000000
_cell_angle_beta 19.943338
_cell_angle_gamma 90.000000
_cell_volume 1713.040534
_symmetry_space_group_name_H-M "P 21/M"
_symmetry_group_IT_number 11
_symmetry_cell_setting 'monoclinic'
loop_
_space_group_symop_operation_xyz
x,y,z
-x,1/2+y,-z
-x,-y,-z
x,1/2-y,z
loop_
_atom_site_type_symbol
_atom_site_label
_atom_site_fract_x
_atom_site_fract_y
_atom_site_fract_z
Si Si1 0.038023 0.072736 0.110911
Si Si2 0.665136 0.428503 0.421578
Si Si3 0.890027 0.569847 0.117520
Si Si4 0.571864 0.077307 0.140494
Si Si5 0.531924 0.567852 0.602900
Si Si6 0.184413 0.929965 0.401306
Si Si7 0.337358 0.077389 0.384043
O O1 0.043400 0.250000 0.092095
O O2 0.873212 0.042120 0.259540
O O3 0.006668 0.967874 0.086525
O O4 0.241361 0.023129 0.997852
O O5 0.500000 0.500000 0.500000
O O6 0.619505 0.250000 0.458475
O O7 0.670457 0.510620 0.468525
O O8 0.874026 0.750000 0.121468
O O9 0.678782 0.499513 0.264169
O O10 0.000000 0.500000 0.000000
O O11 0.596805 0.250000 0.104312
O O12 0.539507 0.078847 0.219070
O O13 0.378802 0.000625 0.246982
O O14 0.515364 0.750000 0.613918
O O15 0.621569 0.507815 0.592034
O O16 0.183408 0.750000 0.395458
O O17 0.182752 0.974437 0.458328
O O18 0.000000 0.000000 0.500000
O O19 0.254249 0.250000 0.443789
#
# Coordination Sequence:
#
# PCOD8069386 Si02
#       7
#     4   4   4   4   4   4   4
#     4  11  22  36  52  72 100 135 178 223 264 308
#     4  11  23  37  53  72  98 135 184 229 268 309
#     4  12  24  35  51  71  99 135 174 216 265 316
#     4   9  18  33  52  76 107 135 167 208 257 309
#     4  11  21  36  54  73 101 135 178 223 264 309
#     4  10  18  31  53  80 111 140 168 201 250 312
#     4   8  18  33  50  75 106 134 166 208 256 307
#
# _framework density 16.345205
#
# number of rings (size 3 to 8) (size 9 to 14) (size 15 to 20)
#    0.857    0.857    1.429    4.714    0.000    4.000 
#    0.000    0.000    0.000    0.000    0.000    1.000 
#    0.000    0.000    0.000    0.000    0.000    0.000 
#
# Total GULP energy -347106.288979 kJ/mol
# GULP energy per Si atom -12396.653178 kJ/mol
# Density = 1.630800 g / cm^3
# Si number density = 16.345205 Si / 1000 Ang^3
#
#
#
# Elastic Constant Matrix: (Units=GPa)
#
#
# Indices 1 2 3 4 5 6 
#
# 1 61.0052 32.4083 51.4576 0.0000 -13.3696 0.0000
# 2 32.4083 104.1559 46.5468 0.0000 -4.0274 0.0000
# 3 51.4576 46.5468 99.0467 0.0000 -10.4776 0.0000
# 4 0.0000 0.0000 0.0000 28.8381 0.0000 -0.8372
# 5 -13.3696 -4.0274 -10.4776 0.0000 27.3249 0.0000
# 6 0.0000 0.0000 0.0000 -0.8372 0.0000 27.0321
#
#
#
# Elastic Compliance Matrix: (Units=1/GPa)
#
#
# Indices 1 2 3 4 5 6 
#
# 1 0.032261 -0.003333 -0.014150 0.000000 0.009868 0.000000
# 2 -0.003333 0.012502 -0.004296 0.000000 -0.001435 0.000000
# 3 -0.014150 -0.004296 0.019456 0.000000 -0.000096 0.000000
# 4 0.000000 0.000000 0.000000 0.034708 0.000000 0.001075
# 5 0.009868 -0.001435 -0.000096 0.000000 0.041176 0.000000
# 6 0.000000 0.000000 0.000000 0.001075 0.000000 0.037026
#
#
# Mechanical properties :
#
#
# Convention : Reuss Voigt Hill
#
# Bulk Modulus (GPa) = 48.39873 58.33701 53.36787
# Shear Modulus (GPa) = 21.97084 25.55871 23.76478
#
# Velocity S-wave (km/s) = 3.67028 3.95863 3.81718
# Velocity P-wave (km/s) = 6.90188 7.52745 7.22144
#
# Compressibility (1/GPa) = 0.02066170
#
# Stress axis : x y z
#
# Youngs Moduli (GPa) = 30.99742 79.98567 51.39712
#
# Poissons Ratio (x) = 0.26657 0.72729
# Poissons Ratio (y) = 0.10331 0.22079
# Poissons Ratio (z) = 0.43862 0.34360
#
# Static dielectric constant tensor:
#      x y z
#    x 3.100190 0.000000 0.158870 
#    y 0.000000 3.307090 0.000000 
#    z 0.158870 0.000000 3.236000 
# 
# 
# High freq. dielectric constant tensor:
#      x y z
#    x 1.605000 0.000000 -0.002400 
#    y 0.000000 1.647000 0.000000 
#    z -0.002400 0.000000 1.614740 
# 
# From -- ./inp_files/73592.got.cif
#   From: 2010.06.25/outbox.cif.g09.slc.cpg/sg11_37_cif.got.tgz:73592.got - 2010.06.27 23:14:04.
