data_PCOD8069606
_publ_section_title
;
Structure prediction by ZEFSAII (Michael W. Deem and Ramdas Pophale) SiO2 
 PCOD8069606
Probable space group: P 21/M
;
_chemical_formula_sum "Si O2"
_cell_formula_units_Z 26
_cell_length_a 7.696989
_cell_length_b 12.157976
_cell_length_c 21.962119
_cell_angle_alpha 90.000000
_cell_angle_beta 145.072792
_cell_angle_gamma 90.000000
_cell_volume 1176.680718
_symmetry_space_group_name_H-M "P 21/M"
_symmetry_group_IT_number 11
_symmetry_cell_setting 'monoclinic'
loop_
_space_group_symop_operation_xyz
x,y,z
-x,1/2+y,-z
-x,-y,-z
x,1/2-y,z
loop_
_atom_site_type_symbol
_atom_site_label
_atom_site_fract_x
_atom_site_fract_y
_atom_site_fract_z
Si Si1 0.590050 0.250000 0.230165
Si Si2 0.224933 0.964164 0.513266
Si Si3 0.308131 0.624423 0.313342
Si Si4 0.111781 0.750000 0.801826
Si Si5 0.315186 0.374111 0.702722
Si Si6 0.224237 0.034146 0.117243
Si Si7 0.177502 0.529360 0.880600
Si Si8 0.552770 0.250000 0.358730
O O1 0.889502 0.250000 0.272742
O O2 0.390276 0.147433 0.151959
O O3 0.696168 0.250000 0.331500
O O4 0.370856 0.853997 0.579706
O O5 0.013863 0.936393 0.394017
O O6 0.491582 0.055192 0.578875
O O7 0.000000 0.000000 0.500000
O O8 0.249498 0.750000 0.319056
O O9 0.517133 0.626427 0.313846
O O10 0.982706 0.564877 0.207784
O O11 0.267685 0.637579 0.868515
O O12 0.802416 0.750000 0.749891
O O13 0.264274 0.250000 0.711357
O O14 0.525269 0.437852 0.810399
O O15 0.057225 0.051282 0.132932
O O16 0.000000 0.000000 0.000000
O O17 0.500000 0.500000 0.000000
#
# Coordination Sequence:
#
# PCOD8069606 Si02
#       8
#     2   4   4   2   4   4   4   2
#     4  12  24  42  65  97 132 173 225 276 331 394
#     4  10  18  32  62  97 125 172 217 270 327 402
#     4   9  18  32  52  89 132 160 210 271 319 392
#     4  12  24  42  66  93 132 181 222 277 333 398
#     4   9  18  34  59  96 126 167 221 261 330 400
#     4  11  23  41  63  95 134 173 221 282 330 397
#     4  11  22  39  61  94 131 173 224 273 334 398
#     4  12  20  42  67  98 134 164 231 273 330 406
#
# _framework density 22.096052
#
# number of rings (size 3 to 8) (size 9 to 14) (size 15 to 20)
#    0.000    1.538    3.846    2.769    3.231    0.000 
#    1.385    0.000    0.000    3.692    0.000    0.000 
#    0.000    0.000    0.000    0.000    0.000    0.000 
#
# Total GULP energy -322132.740564 kJ/mol
# GULP energy per Si atom -12389.720791 kJ/mol
# Density = 2.204576 g / cm^3
# Si number density = 22.096052 Si / 1000 Ang^3
#
#
#
# Elastic Constant Matrix: (Units=GPa)
#
#
# Indices 1 2 3 4 5 6 
#
# 1 57.3565 13.2047 8.9783 0.0000 1.4334 0.0000
# 2 13.2047 191.5146 88.4521 0.0000 1.3464 0.0000
# 3 8.9783 88.4521 178.8027 0.0000 -0.9880 0.0000
# 4 0.0000 0.0000 0.0000 29.5880 0.0000 3.7205
# 5 1.4334 1.3464 -0.9880 0.0000 25.4309 0.0000
# 6 0.0000 0.0000 0.0000 3.7205 0.0000 2.1484
#
#
#
# Elastic Compliance Matrix: (Units=1/GPa)
#
#
# Indices 1 2 3 4 5 6 
#
# 1 0.017758 -0.001041 -0.000382 0.000000 -0.000961 0.000000
# 2 -0.001041 0.006835 -0.003331 0.000000 -0.000433 0.000000
# 3 -0.000382 -0.003331 0.007263 0.000000 0.000480 0.000000
# 4 0.000000 0.000000 0.000000 0.043206 0.000000 -0.074822
# 5 -0.000961 -0.000433 0.000480 0.000000 0.039418 0.000000
# 6 0.000000 0.000000 0.000000 -0.074822 0.000000 0.595029
#
#
# Mechanical properties :
#
#
# Convention : Reuss Voigt Hill
#
# Bulk Modulus (GPa) = 44.74897 72.10487 58.42692
# Shear Modulus (GPa) = 6.88263 32.56939 19.72601
#
# Velocity S-wave (km/s) = 1.76681 3.84342 2.99112
# Velocity P-wave (km/s) = 4.94552 7.23873 6.19909
#
# Compressibility (1/GPa) = 0.02234688
#
# Stress axis : x y z
#
# Youngs Moduli (GPa) = 56.31160 146.30696 137.69277
#
# Poissons Ratio (x) = 0.15235 0.05258
# Poissons Ratio (y) = 0.05864 0.45869
# Poissons Ratio (z) = 0.02151 0.48739
#
# Static dielectric constant tensor:
#      x y z
#    x 2.363710 0.000000 -1.799470 
#    y 0.000000 4.280210 0.000000 
#    z -1.799470 0.000000 1.371560 
# 
# 
# High freq. dielectric constant tensor:
#      x y z
#    x 1.835290 0.000000 0.010260 
#    y 0.000000 1.890440 0.000000 
#    z 0.010260 0.000000 1.872540 
# 
# From -- ./inp_files/71075.got.cif
#   From: 2010.06.25/outbox.cif.g09.slc.cpg/sg11_36_cif.got.tgz:71075.got - 2010.06.27 23:14:04.
