data_PCOD8069909
_publ_section_title
;
Structure prediction by ZEFSAII (Michael W. Deem and Ramdas Pophale) SiO2 
 PCOD8069909
Probable space group: P 21/M
;
_chemical_formula_sum "Si O2"
_cell_formula_units_Z 24
_cell_length_a 7.342905
_cell_length_b 26.976693
_cell_length_c 5.764504
_cell_angle_alpha 90.000000
_cell_angle_beta 114.537182
_cell_angle_gamma 90.000000
_cell_volume 1038.754511
_symmetry_space_group_name_H-M "P 21/M"
_symmetry_group_IT_number 11
_symmetry_cell_setting 'monoclinic'
loop_
_space_group_symop_operation_xyz
x,y,z
-x,1/2+y,-z
-x,-y,-z
x,1/2-y,z
loop_
_atom_site_type_symbol
_atom_site_label
_atom_site_fract_x
_atom_site_fract_y
_atom_site_fract_z
Si Si1 0.203050 0.103262 0.738001
Si Si2 0.286612 0.195813 0.516869
Si Si3 0.796951 0.103262 0.762000
Si Si4 0.500000 0.971805 0.250000
Si Si5 0.500001 0.353810 0.250001
Si Si6 0.713389 0.304188 0.983133
O O1 0.150992 0.153930 0.568862
O O2 0.294338 0.060661 0.621958
O O3 0.000001 0.084518 0.750001
O O4 0.385290 0.111043 0.012063
O O5 0.180664 0.250000 0.472813
O O6 0.329171 0.180826 0.274327
O O7 0.500001 0.197915 0.750001
O O8 0.705663 0.060661 0.878043
O O9 0.614712 0.111043 0.487938
O O10 0.849009 0.153930 0.931140
O O11 0.500000 0.000000 0.500000
O O12 0.500000 0.000000 0.000000
O O13 0.670830 0.319174 0.225674
O O14 0.819337 0.250000 0.027189
#
# Coordination Sequence:
#
# PCOD8069909 Si02
#       6
#     4   4   4   4   4   4
#     4  11  24  43  68  98 135 176 224 281 344 410
#     4   9  18  35  63  97 135 179 221 270 330 403
#     4  11  24  43  68  98 135 176 224 281 344 410
#     4  12  27  50  74 100 137 177 234 301 354 414
#     4  10  18  40  63  94 138 181 220 275 327 402
#     4   9  18  35  63  97 135 179 221 270 330 403
#
# _framework density 23.104590999999999
#
# number of rings (size 3 to 8) (size 9 to 14) (size 15 to 20)
#    0.000    1.667    5.000    1.500    0.000    4.667 
#    0.000    1.667    0.000    0.000    0.000    0.000 
#    0.000    0.000    0.000    0.000    0.000    0.000 
#
# Total GULP energy -297369.634190 kJ/mol
# GULP energy per Si atom -12390.401425 kJ/mol
# Density = 2.305200 g / cm^3
# Si number density = 23.104591 Si / 1000 Ang^3
#
#
#
# Elastic Constant Matrix: (Units=GPa)
#
#
# Indices 1 2 3 4 5 6 
#
# 1 153.5803 72.7996 23.9634 0.0000 -27.6116 0.0000
# 2 72.7996 144.6219 36.9055 0.0000 -23.0150 0.0000
# 3 23.9634 36.9055 87.3187 0.0000 -29.5453 0.0000
# 4 0.0000 0.0000 0.0000 -68.7541 0.0000 -92.2001
# 5 -27.6116 -23.0150 -29.5453 0.0000 33.4753 0.0000
# 6 0.0000 0.0000 0.0000 -92.2001 0.0000 -30.5842
#
#
#
# Elastic Compliance Matrix: (Units=1/GPa)
#
#
# Indices 1 2 3 4 5 6 
#
# 1 0.009310 -0.004039 0.001156 0.000000 0.005923 0.000000
# 2 -0.004039 0.009797 -0.002681 0.000000 0.001038 0.000000
# 3 0.001156 -0.002681 0.017063 0.000000 0.014170 0.000000
# 4 0.000000 0.000000 0.000000 0.004780 0.000000 -0.014411
# 5 0.005923 0.001038 0.014170 0.000000 0.047978 0.000000
# 6 0.000000 0.000000 0.000000 -0.014411 0.000000 0.010746
#
#
# Mechanical properties :
#
#
# Convention : Reuss Voigt Hill
#
# Bulk Modulus (GPa) = 39.93300 72.53975 56.23638
# Shear Modulus (GPa) = 41.96391 3.61755 22.79073
#
# Velocity S-wave (km/s) = 4.26638 1.25265 3.14413
# Velocity P-wave (km/s) = 6.44907 5.79280 6.12972
#
# Compressibility (1/GPa) = 0.02504194
#
# Stress axis : x y z
#
# Youngs Moduli (GPa) = 107.40786 102.07090 58.60720
#
# Poissons Ratio (x) = 0.41227 -0.06776
# Poissons Ratio (y) = 0.43383 0.15714
# Poissons Ratio (z) = -0.12418 0.27367
#
# Static dielectric constant tensor:
#      x y z
#    x 4.031930 0.000000 -0.583360 
#    y 0.000000 4.590800 0.000000 
#    z -0.583360 0.000000 4.339980 
# 
# 
# High freq. dielectric constant tensor:
#      x y z
#    x 1.901070 0.000000 -0.026450 
#    y 0.000000 1.914600 0.000000 
#    z -0.026450 0.000000 1.905430 
# 
# From -- ./inp_files/2930.got.cif
#   From: 2010.06.25/outbox.cif.g09.slc.cpg/sg11_2_cif.got.tgz:2930.got - 2010.06.27 23:14:04.
