data_PCOD8069496
_publ_section_title
;
Structure prediction by ZEFSAII (Michael W. Deem and Ramdas Pophale) SiO2 
 PCOD8069496
Probable space group: P 21/M
;
_chemical_formula_sum "Si O2"
_cell_formula_units_Z 24
_cell_length_a 18.902582
_cell_length_b 8.563133
_cell_length_c 24.758221
_cell_angle_alpha 90.000000
_cell_angle_beta 19.070945
_cell_angle_gamma 90.000000
_cell_volume 1309.404382
_symmetry_space_group_name_H-M "P 21/M"
_symmetry_group_IT_number 11
_symmetry_cell_setting 'monoclinic'
loop_
_space_group_symop_operation_xyz
x,y,z
-x,1/2+y,-z
-x,-y,-z
x,1/2-y,z
loop_
_atom_site_type_symbol
_atom_site_label
_atom_site_fract_x
_atom_site_fract_y
_atom_site_fract_z
Si Si1 0.762746 0.564583 0.160727
Si Si2 0.929278 0.431416 0.495456
Si Si3 0.619121 0.934302 0.862620
Si Si4 0.477191 0.434200 0.850656
Si Si5 0.147165 0.566781 0.011828
Si Si6 0.675690 0.065304 0.332515
O O1 0.756092 0.750000 0.164484
O O2 0.698827 0.497707 0.148002
O O3 0.615698 0.501191 0.316024
O O4 0.000000 0.500000 0.000000
O O5 0.918168 0.250000 0.512355
O O6 0.680824 0.485360 0.664309
O O7 0.000000 0.500000 0.500000
O O8 0.122643 0.473733 0.314093
O O9 0.582292 0.750000 0.883406
O O10 0.523561 0.017286 0.878682
O O11 0.500000 0.000000 0.000000
O O12 0.431435 0.250000 0.881339
O O13 0.266411 0.525312 0.981644
O O14 0.111839 0.750000 0.031247
O O15 0.913156 0.486175 0.180428
O O16 0.663844 0.250000 0.339368
O O17 0.500000 0.000000 0.500000
#
# Coordination Sequence:
#
# PCOD8069496 Si02
#       6
#     4   4   4   4   4   4
#     4  10  18  32  53  77 102 134 173 213 255 307
#     4   8  16  30  50  72  97 127 166 207 249 300
#     4  10  19  33  52  77 105 138 174 213 260 317
#     4  10  19  34  54  77 102 134 173 219 267 313
#     4  11  21  35  54  79 107 138 175 220 267 315
#     4  11  21  36  56  80 108 141 177 216 261 316
#
# _framework density 18.328944
#
# number of rings (size 3 to 8) (size 9 to 14) (size 15 to 20)
#    0.000    2.000    0.000    7.500    0.000    1.333 
#    0.000    1.667    0.000    2.000    0.000    0.000 
#    0.000    0.000    0.000    0.000    0.000    0.000 
#
# Total GULP energy -297319.625720 kJ/mol
# GULP energy per Si atom -12388.317738 kJ/mol
# Density = 1.828723 g / cm^3
# Si number density = 18.328944 Si / 1000 Ang^3
#
#
#
# Elastic Constant Matrix: (Units=GPa)
#
#
# Indices 1 2 3 4 5 6 
#
# 1 79.3619 24.3629 43.4510 0.0000 6.1327 0.0000
# 2 24.3629 104.4806 28.2294 0.0000 6.1586 0.0000
# 3 43.4510 28.2294 101.7535 0.0000 17.8352 0.0000
# 4 0.0000 0.0000 0.0000 27.6777 0.0000 4.3707
# 5 6.1327 6.1586 17.8352 0.0000 30.9086 0.0000
# 6 0.0000 0.0000 0.0000 4.3707 0.0000 31.4530
#
#
#
# Elastic Compliance Matrix: (Units=1/GPa)
#
#
# Indices 1 2 3 4 5 6 
#
# 1 0.016908 -0.002166 -0.006794 0.000000 0.000997 0.000000
# 2 -0.002166 0.010630 -0.001923 0.000000 -0.000579 0.000000
# 3 -0.006794 -0.001923 0.014417 0.000000 -0.006588 0.000000
# 4 0.000000 0.000000 0.000000 0.036941 0.000000 -0.005133
# 5 0.000997 -0.000579 -0.006588 0.000000 0.036072 0.000000
# 6 0.000000 0.000000 0.000000 -0.005133 0.000000 0.032507
#
#
# Mechanical properties :
#
#
# Convention : Reuss Voigt Hill
#
# Bulk Modulus (GPa) = 49.52993 53.07583 51.30288
# Shear Modulus (GPa) = 28.41395 30.64470 29.52933
#
# Velocity S-wave (km/s) = 3.94156 4.09336 4.01818
# Velocity P-wave (km/s) = 6.91346 7.16666 7.04120
#
# Compressibility (1/GPa) = 0.02018981
#
# Stress axis : x y z
#
# Youngs Moduli (GPa) = 59.14334 94.07527 69.36244
#
# Poissons Ratio (x) = 0.20374 0.47125
# Poissons Ratio (y) = 0.12809 0.13337
# Poissons Ratio (z) = 0.40182 0.18088
#
# Static dielectric constant tensor:
#      x y z
#    x 3.463520 0.000000 0.028160 
#    y 0.000000 3.549400 0.000000 
#    z 0.028160 0.000000 2.899710 
# 
# 
# High freq. dielectric constant tensor:
#      x y z
#    x 1.691630 0.000000 0.008080 
#    y 0.000000 1.729610 0.000000 
#    z 0.008080 0.000000 1.706370 
# 
# From -- ./inp_files/69503.got.cif
#   From: 2010.06.25/outbox.cif.g09.slc.cpg/sg11_35_cif.got.tgz:69503.got - 2010.06.27 23:14:04.
