data_PCOD8069061
_publ_section_title
;
Structure prediction by ZEFSAII (Michael W. Deem and Ramdas Pophale) SiO2 
 PCOD8069061
Probable space group: P 21/M
;
_chemical_formula_sum "Si O2"
_cell_formula_units_Z 32
_cell_length_a 15.545314
_cell_length_b 9.082412
_cell_length_c 26.103261
_cell_angle_alpha 90.000000
_cell_angle_beta 29.945598
_cell_angle_gamma 90.000000
_cell_volume 1839.714601
_symmetry_space_group_name_H-M "P 21/M"
_symmetry_group_IT_number 11
_symmetry_cell_setting 'monoclinic'
loop_
_space_group_symop_operation_xyz
x,y,z
-x,1/2+y,-z
-x,-y,-z
x,1/2-y,z
loop_
_atom_site_type_symbol
_atom_site_label
_atom_site_fract_x
_atom_site_fract_y
_atom_site_fract_z
Si Si1 0.739505 0.578870 0.315975
Si Si2 0.297471 0.575889 0.921967
Si Si3 0.945844 0.420879 0.125315
Si Si4 0.568742 0.576287 0.575282
Si Si5 0.237139 0.422599 0.149595
Si Si6 0.106484 0.082167 0.653719
Si Si7 0.389565 0.581137 0.766086
Si Si8 0.423459 0.921152 0.966751
O O1 0.732224 0.750000 0.304986
O O2 0.890281 0.501726 0.205939
O O3 0.554846 0.505565 0.401047
O O4 0.783137 0.553885 0.352543
O O5 0.260474 0.750000 0.937046
O O6 0.399676 0.516181 0.818673
O O7 0.410242 0.537524 0.913787
O O8 0.118120 0.492416 0.015511
O O9 0.975605 0.250000 0.122393
O O10 0.802290 0.443985 0.156024
O O11 0.525195 0.750000 0.593754
O O12 0.767556 0.544985 0.459014
O O13 0.527544 0.514488 0.654086
O O14 0.225779 0.250000 0.147569
O O15 0.387336 0.467976 0.111836
O O16 0.058568 0.478448 0.265069
O O17 0.275573 0.493820 0.074482
O O18 0.041688 0.250000 0.684732
O O19 0.437049 0.750000 0.746313
O O20 0.388671 0.750000 0.994210
#
# Coordination Sequence:
#
# PCOD8069061 Si02
#       8
#     4   4   4   4   4   4   4   4
#     4  10  19  30  45  68  96 125 156 187 224 268
#     4  10  18  30  49  69  90 119 155 191 229 272
#     4  10  19  30  44  67  98 126 154 187 224 269
#     4   9  18  33  49  67  93 123 156 191 226 264
#     4  10  20  33  50  71  94 120 150 186 229 276
#     4  10  20  32  48  69  94 124 155 188 226 272
#     4   8  16  30  47  66  90 122 156 189 224 265
#     4   9  19  34  50  70  95 120 148 186 231 277
#
# _framework density 17.394003000000001
#
# number of rings (size 3 to 8) (size 9 to 14) (size 15 to 20)
#    0.000    2.500    0.000    3.375    0.000    5.500 
#    0.000    2.500    0.000    0.750    0.000    0.000 
#    0.000    0.000    0.000    0.000    0.000    0.375 
#
# Total GULP energy -396724.717121 kJ/mol
# GULP energy per Si atom -12397.647410 kJ/mol
# Density = 1.735441 g / cm^3
# Si number density = 17.394003 Si / 1000 Ang^3
#
#
#
# Elastic Constant Matrix: (Units=GPa)
#
#
# Indices 1 2 3 4 5 6 
#
# 1 82.5019 35.2654 58.0703 0.0000 18.6981 0.0000
# 2 35.2654 57.1981 43.0090 0.0000 4.4177 0.0000
# 3 58.0703 43.0090 126.4606 0.0000 12.0020 0.0000
# 4 0.0000 0.0000 0.0000 26.8011 0.0000 -3.4087
# 5 18.6981 4.4177 12.0020 0.0000 21.9711 0.0000
# 6 0.0000 0.0000 0.0000 -3.4087 0.0000 18.7644
#
#
#
# Elastic Compliance Matrix: (Units=1/GPa)
#
#
# Indices 1 2 3 4 5 6 
#
# 1 0.023817 -0.008563 -0.006607 0.000000 -0.014938 0.000000
# 2 -0.008563 0.026572 -0.005579 0.000000 0.004992 0.000000
# 3 -0.006607 -0.005579 0.012866 0.000000 -0.000284 0.000000
# 4 0.000000 0.000000 0.000000 0.038194 0.000000 0.006938
# 5 -0.014938 0.004992 -0.000284 0.000000 0.057379 0.000000
# 6 0.000000 0.000000 0.000000 0.006938 0.000000 0.054553
#
#
# Mechanical properties :
#
#
# Convention : Reuss Voigt Hill
#
# Bulk Modulus (GPa) = 45.96045 59.87222 52.91633
# Shear Modulus (GPa) = 19.07455 22.16169 20.61812
#
# Velocity S-wave (km/s) = 3.31511 3.57333 3.44664
# Velocity P-wave (km/s) = 6.41356 7.17780 6.80642
#
# Compressibility (1/GPa) = 0.02175784
#
# Stress axis : x y z
#
# Youngs Moduli (GPa) = 41.98692 37.63392 77.72627
#
# Poissons Ratio (x) = 0.32225 0.51352
# Poissons Ratio (y) = 0.35952 0.43362
# Poissons Ratio (z) = 0.27740 0.20995
#
# Static dielectric constant tensor:
#      x y z
#    x 3.306780 0.000000 0.254970 
#    y 0.000000 3.193400 0.000000 
#    z 0.254970 0.000000 3.356150 
# 
# 
# High freq. dielectric constant tensor:
#      x y z
#    x 1.656710 0.000000 0.014640 
#    y 0.000000 1.664510 0.000000 
#    z 0.014640 0.000000 1.668840 
# 
# From -- ./inp_files/51702.got.cif
#   From: 2010.06.25/outbox.cif.g09.slc.cpg/sg11_26_cif.got.tgz:51702.got - 2010.06.27 23:14:04.
