data_PCOD8069301
_publ_section_title
;
Structure prediction by ZEFSAII (Michael W. Deem and Ramdas Pophale) SiO2 
 PCOD8069301
Probable space group: P 21/M
;
_chemical_formula_sum "Si O2"
_cell_formula_units_Z 32
_cell_length_a 19.772446
_cell_length_b 8.843543
_cell_length_c 27.614496
_cell_angle_alpha 90.000000
_cell_angle_beta 24.149735
_cell_angle_gamma 90.000000
_cell_volume 1975.501526
_symmetry_space_group_name_H-M "P 21/M"
_symmetry_group_IT_number 11
_symmetry_cell_setting 'monoclinic'
loop_
_space_group_symop_operation_xyz
x,y,z
-x,1/2+y,-z
-x,-y,-z
x,1/2-y,z
loop_
_atom_site_type_symbol
_atom_site_label
_atom_site_fract_x
_atom_site_fract_y
_atom_site_fract_z
Si Si1 0.485306 0.077485 0.705863
Si Si2 0.132118 0.923859 0.214513
Si Si3 0.826443 0.571580 0.478019
Si Si4 0.025455 0.428410 0.431805
Si Si5 0.709209 0.577331 0.077306
Si Si6 0.325553 0.428055 0.008217
Si Si7 0.843864 0.071127 0.076253
Si Si8 0.321259 0.573125 0.186324
O O1 0.496717 0.250000 0.679955
O O2 0.463828 0.072158 0.778909
O O3 0.645011 0.987042 0.583223
O O4 0.322182 0.996725 0.789805
O O5 0.134062 0.750000 0.198551
O O6 0.273299 0.959232 0.162082
O O7 0.952332 0.970980 0.352381
O O8 0.169693 0.016810 0.141362
O O9 0.826075 0.750000 0.487246
O O10 0.883493 0.490711 0.489528
O O11 0.009194 0.250000 0.445289
O O12 0.206271 0.474425 0.295833
O O13 0.000000 0.500000 0.500000
O O14 0.773571 0.750000 0.032201
O O15 0.683496 0.507241 0.040658
O O16 0.843989 0.478169 0.019159
O O17 0.322247 0.250000 0.007699
O O18 0.493100 0.482906 0.924892
O O19 0.847286 0.250000 0.079115
O O20 0.000000 0.000000 0.000000
O O21 0.295144 0.750000 0.215647
#
# Coordination Sequence:
#
# PCOD8069301 Si02
#       8
#     4   4   4   4   4   4   4   4
#     4   9  18  32  50  74 103 130 159 194 239 290
#     4   9  19  33  47  67  96 128 168 215 253 290
#     4  10  20  35  50  68  95 126 163 206 247 288
#     4  11  22  33  46  65  90 123 161 203 251 303
#     4   8  18  32  46  73 104 129 161 199 243 290
#     4  10  19  32  51  70  95 128 165 209 252 295
#     4  10  18  31  51  76 106 136 162 193 235 290
#     4   9  19  34  48  66  93 126 165 212 257 295
#
# _framework density 16.198418
#
# number of rings (size 3 to 8) (size 9 to 14) (size 15 to 20)
#    0.750    1.750    0.000    3.750    1.750    3.500 
#    0.000    0.000    0.000    0.000    0.000    0.875 
#    0.000    0.000    0.000    0.000    0.000    0.000 
#
# Total GULP energy -396613.714540 kJ/mol
# GULP energy per Si atom -12394.178579 kJ/mol
# Density = 1.616155 g / cm^3
# Si number density = 16.198418 Si / 1000 Ang^3
#
#
#
# Elastic Constant Matrix: (Units=GPa)
#
#
# Indices 1 2 3 4 5 6 
#
# 1 64.2456 28.1995 50.3429 0.0000 -8.2364 0.0000
# 2 28.1995 87.0383 41.0805 0.0000 -5.9948 0.0000
# 3 50.3429 41.0805 102.1799 0.0000 -14.3323 0.0000
# 4 0.0000 0.0000 0.0000 30.5219 0.0000 0.0396
# 5 -8.2364 -5.9948 -14.3323 0.0000 17.7258 0.0000
# 6 0.0000 0.0000 0.0000 0.0396 0.0000 24.3103
#
#
#
# Elastic Compliance Matrix: (Units=1/GPa)
#
#
# Indices 1 2 3 4 5 6 
#
# 1 0.026001 -0.002928 -0.011367 0.000000 0.001901 0.000000
# 2 -0.002928 0.014510 -0.004392 0.000000 -0.000004 0.000000
# 3 -0.011367 -0.004392 0.018276 0.000000 0.008010 0.000000
# 4 0.000000 0.000000 0.000000 0.032763 0.000000 -0.000053
# 5 0.001901 -0.000004 0.008010 0.000000 0.063774 0.000000
# 6 0.000000 0.000000 0.000000 -0.000053 0.000000 0.041135
#
#
# Mechanical properties :
#
#
# Convention : Reuss Voigt Hill
#
# Bulk Modulus (GPa) = 46.69724 54.74555 50.72140
# Shear Modulus (GPa) = 20.74941 23.43432 22.09187
#
# Velocity S-wave (km/s) = 3.58292 3.80768 3.69701
# Velocity P-wave (km/s) = 6.78287 7.29394 7.04304
#
# Compressibility (1/GPa) = 0.02141454
#
# Stress axis : x y z
#
# Youngs Moduli (GPa) = 38.45986 68.91599 54.71655
#
# Poissons Ratio (x) = 0.20181 0.62194
# Poissons Ratio (y) = 0.11263 0.24029
# Poissons Ratio (z) = 0.43716 0.30265
#
# Static dielectric constant tensor:
#      x y z
#    x 2.881670 0.000000 -0.013990 
#    y 0.000000 2.985010 0.000000 
#    z -0.013990 0.000000 2.916350 
# 
# 
# High freq. dielectric constant tensor:
#      x y z
#    x 1.592460 0.000000 0.002630 
#    y 0.000000 1.630130 0.000000 
#    z 0.002630 0.000000 1.614290 
# 
# From -- ./inp_files/73618.got.cif
#   From: 2010.06.25/outbox.cif.g09.slc.cpg/sg11_37_cif.got.tgz:73618.got - 2010.06.27 23:14:04.
