data_PCOD8069702
_publ_section_title
;
Structure prediction by ZEFSAII (Michael W. Deem and Ramdas Pophale) SiO2 
 PCOD8069702
Probable space group: P 21/M
;
_chemical_formula_sum "Si O2"
_cell_formula_units_Z 24
_cell_length_a 12.741322
_cell_length_b 10.144768
_cell_length_c 17.825161
_cell_angle_alpha 90.000000
_cell_angle_beta 34.485842
_cell_angle_gamma 90.000000
_cell_volume 1304.553554
_symmetry_space_group_name_H-M "P 21/M"
_symmetry_group_IT_number 11
_symmetry_cell_setting 'monoclinic'
loop_
_space_group_symop_operation_xyz
x,y,z
-x,1/2+y,-z
-x,-y,-z
x,1/2-y,z
loop_
_atom_site_type_symbol
_atom_site_label
_atom_site_fract_x
_atom_site_fract_y
_atom_site_fract_z
Si Si1 0.494444 0.904750 0.681001
Si Si2 0.890781 0.988266 0.860525
Si Si3 0.911115 0.400484 0.111399
Si Si4 0.115467 0.098883 0.604100
Si Si5 0.829309 0.601635 0.740737
Si Si6 0.479593 0.903743 0.855777
O O1 0.503733 0.750000 0.685549
O O2 0.303711 0.943681 0.751754
O O3 0.671565 0.950646 0.527876
O O4 0.499207 0.969204 0.761666
O O5 0.044448 0.085298 0.732007
O O6 0.809271 0.893043 0.843471
O O7 0.723191 0.071118 0.992741
O O8 0.989117 0.905058 0.867402
O O9 0.925651 0.250000 0.072120
O O10 0.000000 0.500000 0.000000
O O11 0.093068 0.250000 0.590264
O O12 0.993028 0.001825 0.622902
O O13 0.875410 0.750000 0.685165
O O14 0.641393 0.543097 0.815101
O O15 0.507761 0.750000 0.832993
#
# Coordination Sequence:
#
# PCOD8069702 Si02
#       6
#     4   4   4   4   4   4
#     4   9  19  36  56  81 109 146 184 220 274 329
#     4  10  20  34  57  81 111 139 186 224 270 318
#     4  11  22  38  61  83 112 144 181 229 276 324
#     4   9  20  36  56  81 111 145 185 224 269 326
#     4   9  20  35  55  82 113 145 181 225 279 322
#     4  10  18  33  58  82 110 148 184 225 271 327
#
# _framework density 18.397098
#
# number of rings (size 3 to 8) (size 9 to 14) (size 15 to 20)
#    1.000    1.333    1.667    1.500    0.000    2.000 
#    0.000    1.667    0.000    0.000    0.000    0.000 
#    0.000    0.000    0.000    0.000    0.000    0.000 
#
# Total GULP energy -297322.529417 kJ/mol
# GULP energy per Si atom -12388.438726 kJ/mol
# Density = 1.835523 g / cm^3
# Si number density = 18.397098 Si / 1000 Ang^3
#
#
#
# Elastic Constant Matrix: (Units=GPa)
#
#
# Indices 1 2 3 4 5 6 
#
# 1 112.1038 18.6018 37.3670 0.0000 -23.4624 0.0000
# 2 18.6018 62.9218 32.0350 0.0000 -9.8003 0.0000
# 3 37.3670 32.0350 141.9617 0.0000 -20.8636 0.0000
# 4 0.0000 0.0000 0.0000 24.4791 0.0000 -2.9547
# 5 -23.4624 -9.8003 -20.8636 0.0000 26.1615 0.0000
# 6 0.0000 0.0000 0.0000 -2.9547 0.0000 22.0867
#
#
#
# Elastic Compliance Matrix: (Units=1/GPa)
#
#
# Indices 1 2 3 4 5 6 
#
# 1 0.011418 -0.001299 -0.001449 0.000000 0.008598 0.000000
# 2 -0.001299 0.018473 -0.003377 0.000000 0.003062 0.000000
# 3 -0.001449 -0.003377 0.008848 0.000000 0.004492 0.000000
# 4 0.000000 0.000000 0.000000 0.041522 0.000000 0.005555
# 5 0.008598 0.003062 0.004492 0.000000 0.050665 0.000000
# 6 0.000000 0.000000 0.000000 0.005555 0.000000 0.046019
#
#
# Mechanical properties :
#
#
# Convention : Reuss Voigt Hill
#
# Bulk Modulus (GPa) = 37.74966 54.77722 46.26344
# Shear Modulus (GPa) = 25.24963 29.81103 27.53033
#
# Velocity S-wave (km/s) = 3.70872 4.02981 3.87259
# Velocity P-wave (km/s) = 6.23725 7.17580 6.72292
#
# Compressibility (1/GPa) = 0.02649030
#
# Stress axis : x y z
#
# Youngs Moduli (GPa) = 87.57877 54.13364 113.02519
#
# Poissons Ratio (x) = 0.07031 0.16375
# Poissons Ratio (y) = 0.11375 0.38164
# Poissons Ratio (z) = 0.12688 0.18279
#
# Static dielectric constant tensor:
#      x y z
#    x 3.572760 0.000000 -0.160200 
#    y 0.000000 3.034420 0.000000 
#    z -0.160200 0.000000 3.489590 
# 
# 
# High freq. dielectric constant tensor:
#      x y z
#    x 1.713530 0.000000 -0.012930 
#    y 0.000000 1.685320 0.000000 
#    z -0.012930 0.000000 1.713410 
# 
# From -- ./inp_files/59116.got.cif
#   From: 2010.06.25/outbox.cif.g09.slc.cpg/sg11_30_cif.got.tgz:59116.got - 2010.06.27 23:14:04.
