data_PCOD8069730
_publ_section_title
;
Structure prediction by ZEFSAII (Michael W. Deem and Ramdas Pophale) SiO2 
 PCOD8069730
Probable space group: P 21/M
;
_chemical_formula_sum "Si O2"
_cell_formula_units_Z 28
_cell_length_a 11.523064
_cell_length_b 14.644733
_cell_length_c 9.497191
_cell_angle_alpha 90.000000
_cell_angle_beta 119.248088
_cell_angle_gamma 90.000000
_cell_volume 1398.350907
_symmetry_space_group_name_H-M "P 21/M"
_symmetry_group_IT_number 11
_symmetry_cell_setting 'monoclinic'
loop_
_space_group_symop_operation_xyz
x,y,z
-x,1/2+y,-z
-x,-y,-z
x,1/2-y,z
loop_
_atom_site_type_symbol
_atom_site_label
_atom_site_fract_x
_atom_site_fract_y
_atom_site_fract_z
Si Si1 0.521922 0.652955 0.920228
Si Si2 0.256694 0.602042 0.873089
Si Si3 0.410024 0.985821 0.203902
Si Si4 0.641047 0.856154 0.281133
Si Si5 0.151474 0.000795 0.547654
Si Si6 0.167940 0.984910 0.240286
Si Si7 0.030735 0.645279 0.940607
O O1 0.561566 0.750000 0.875391
O O2 0.380981 0.667817 0.916666
O O3 0.514496 0.579271 0.791528
O O4 0.627370 0.627295 0.105231
O O5 0.228506 0.559196 0.705553
O O6 0.304239 0.527846 0.015274
O O7 0.128457 0.651773 0.863056
O O8 0.518345 0.906124 0.288183
O O9 0.323763 0.996299 0.294214
O O10 0.638420 0.750000 0.321144
O O11 0.782248 0.898191 0.413750
O O12 0.162280 0.956926 0.399667
O O13 0.000000 0.000000 0.500000
O O14 0.103058 0.900473 0.117400
O O15 0.095562 0.082222 0.171474
O O16 0.987726 0.750000 0.951457
#
# Coordination Sequence:
#
# PCOD8069730 Si02
#       7
#     4   4   4   4   4   4   4
#     4  10  18  33  61  92 116 157 213 260 297 350
#     4  10  18  37  63  87 117 158 205 252 299 355
#     4  10  19  38  62  86 119 160 209 252 298 359
#     4  10  21  38  65  92 121 162 207 252 305 361
#     4  12  22  40  62  89 127 159 199 253 310 365
#     4  10  24  37  62  91 122 165 202 248 314 358
#     4  10  21  41  62  86 122 165 211 249 292 366
#
# _framework density 20.023586000000002
#
# number of rings (size 3 to 8) (size 9 to 14) (size 15 to 20)
#    0.000    1.714    4.286    1.286    0.000    5.143 
#    0.000    3.571    0.000    0.000    0.000    0.000 
#    0.000    0.000    0.000    0.000    0.000    0.000 
#
# Total GULP energy -347026.432174 kJ/mol
# GULP energy per Si atom -12393.801149 kJ/mol
# Density = 1.997801 g / cm^3
# Si number density = 20.023586 Si / 1000 Ang^3
#
#
#
# Elastic Constant Matrix: (Units=GPa)
#
#
# Indices 1 2 3 4 5 6 
#
# 1 137.7276 49.5227 40.7507 0.0000 -2.7475 0.0000
# 2 49.5227 118.0428 32.0379 0.0000 -1.5005 0.0000
# 3 40.7507 32.0379 81.7360 0.0000 -12.1134 0.0000
# 4 0.0000 0.0000 0.0000 18.9040 0.0000 1.6806
# 5 -2.7475 -1.5005 -12.1134 0.0000 34.4881 0.0000
# 6 0.0000 0.0000 0.0000 1.6806 0.0000 14.6808
#
#
#
# Elastic Compliance Matrix: (Units=1/GPa)
#
#
# Indices 1 2 3 4 5 6 
#
# 1 0.009382 -0.002964 -0.003612 0.000000 -0.000650 0.000000
# 2 -0.002964 0.010446 -0.002726 0.000000 -0.000739 0.000000
# 3 -0.003612 -0.002726 0.015870 0.000000 0.005168 0.000000
# 4 0.000000 0.000000 0.000000 0.053443 0.000000 -0.006118
# 5 -0.000650 -0.000739 0.005168 0.000000 0.030727 0.000000
# 6 0.000000 0.000000 0.000000 -0.006118 0.000000 0.068817
#
#
# Mechanical properties :
#
#
# Convention : Reuss Voigt Hill
#
# Bulk Modulus (GPa) = 58.50384 64.68104 61.59244
# Shear Modulus (GPa) = 23.47573 27.96092 25.71833
#
# Velocity S-wave (km/s) = 3.42775 3.74090 3.58774
# Velocity P-wave (km/s) = 6.70424 7.14364 6.92743
#
# Compressibility (1/GPa) = 0.01709289
#
# Stress axis : x y z
#
# Youngs Moduli (GPa) = 106.58362 95.73498 63.01264
#
# Poissons Ratio (x) = 0.28376 0.22762
# Poissons Ratio (y) = 0.31592 0.17178
# Poissons Ratio (z) = 0.38501 0.26098
#
# Static dielectric constant tensor:
#      x y z
#    x 3.788420 0.000000 0.167100 
#    y 0.000000 3.761480 0.000000 
#    z 0.167100 0.000000 3.899430 
# 
# 
# High freq. dielectric constant tensor:
#      x y z
#    x 1.784710 0.000000 0.006190 
#    y 0.000000 1.770220 0.000000 
#    z 0.006190 0.000000 1.764730 
# 
# From -- ./inp_files/17725.got.cif
#   From: 2010.06.25/outbox.cif.g09.slc.cpg/sg11_9_cif.got.tgz:17725.got - 2010.06.27 23:14:04.
