data_PCOD8069416
_publ_section_title
;
Structure prediction by ZEFSAII (Michael W. Deem and Ramdas Pophale) SiO2 
 PCOD8069416
Probable space group: P 21/M
;
_chemical_formula_sum "Si O2"
_cell_formula_units_Z 32
_cell_length_a 12.627471
_cell_length_b 14.260404
_cell_length_c 9.392079
_cell_angle_alpha 90.000000
_cell_angle_beta 85.591955
_cell_angle_gamma 90.000000
_cell_volume 1686.255527
_symmetry_space_group_name_H-M "P 21/M"
_symmetry_group_IT_number 11
_symmetry_cell_setting 'monoclinic'
loop_
_space_group_symop_operation_xyz
x,y,z
-x,1/2+y,-z
-x,-y,-z
x,1/2-y,z
loop_
_atom_site_type_symbol
_atom_site_label
_atom_site_fract_x
_atom_site_fract_y
_atom_site_fract_z
Si Si1 0.836714 0.398759 0.602453
Si Si2 0.698862 0.855463 0.908781
Si Si3 0.648916 0.354151 0.804446
Si Si4 0.114768 0.401653 0.302250
Si Si5 0.120427 0.951526 0.713901
Si Si6 0.071807 0.349513 0.618457
Si Si7 0.295156 0.961101 0.917132
Si Si8 0.482678 0.023677 0.166109
O O1 0.737931 0.341265 0.673878
O O2 0.827223 0.501515 0.669481
O O3 0.834050 0.400763 0.431133
O O4 0.945145 0.353460 0.645481
O O5 0.671192 0.750000 0.966505
O O6 0.809298 0.846052 0.812092
O O7 0.603155 0.891915 0.814074
O O8 0.713671 0.929161 0.036400
O O9 0.600531 0.250000 0.836434
O O10 0.559670 0.427532 0.755711
O O11 0.698584 0.394738 0.945307
O O12 0.100834 0.346082 0.449378
O O13 0.999330 0.418003 0.242217
O O14 0.192112 0.927079 0.842019
O O15 0.125830 0.063892 0.692145
O O16 0.110074 0.250000 0.681511
O O17 0.397569 0.948286 0.798874
O O18 0.500000 0.000000 0.000000
#
# Coordination Sequence:
#
# PCOD8069416 Si02
#       8
#     4   4   4   4   4   4   4   4
#     4   9  16  33  53  74  97 134 177 209 248 300
#     4  10  18  31  55  78 101 134 177 216 249 300
#     4  10  18  33  57  76  97 133 180 222 250 294
#     4   9  16  32  52  74 102 135 169 210 252 303
#     4   9  20  33  53  73 110 144 157 205 269 309
#     4   9  17  29  50  77 102 136 179 206 245 310
#     4  10  21  36  50  78 109 137 168 212 265 308
#     4   8  18  33  52  74 102 132 175 214 254 300
#
# _framework density 18.976956999999999
#
# number of rings (size 3 to 8) (size 9 to 14) (size 15 to 20)
#    0.000    3.000    2.500    2.250    0.000    5.500 
#    0.000    4.375    0.000    0.000    0.000    0.000 
#    0.000    0.000    0.000    0.000    0.000    0.000 
#
# Total GULP energy -396433.356868 kJ/mol
# GULP energy per Si atom -12388.542402 kJ/mol
# Density = 1.893377 g / cm^3
# Si number density = 18.976957 Si / 1000 Ang^3
#
#
#
# Elastic Constant Matrix: (Units=GPa)
#
#
# Indices 1 2 3 4 5 6 
#
# 1 89.1179 12.2853 29.1053 0.0000 -20.4169 0.0000
# 2 12.2853 102.1568 9.2248 0.0000 -4.8168 0.0000
# 3 29.1053 9.2248 38.2649 0.0000 -13.7726 0.0000
# 4 0.0000 0.0000 0.0000 10.3493 0.0000 -1.5235
# 5 -20.4169 -4.8168 -13.7726 0.0000 25.1974 0.0000
# 6 0.0000 0.0000 0.0000 -1.5235 0.0000 8.0561
#
#
#
# Elastic Compliance Matrix: (Units=1/GPa)
#
#
# Indices 1 2 3 4 5 6 
#
# 1 0.016157 -0.000734 -0.009276 0.000000 0.007881 0.000000
# 2 -0.000734 0.010051 -0.001727 0.000000 0.000383 0.000000
# 3 -0.009276 -0.001727 0.038320 0.000000 0.013099 0.000000
# 4 0.000000 0.000000 0.000000 0.099391 0.000000 0.018796
# 5 0.007881 0.000383 0.013099 0.000000 0.053306 0.000000
# 6 0.000000 0.000000 0.000000 0.018796 0.000000 0.127684
#
#
# Mechanical properties :
#
#
# Convention : Reuss Voigt Hill
#
# Bulk Modulus (GPa) = 24.35769 36.75228 30.55498
# Shear Modulus (GPa) = 13.08661 20.64883 16.86772
#
# Velocity S-wave (km/s) = 2.62888 3.30221 2.98460
# Velocity P-wave (km/s) = 4.69872 5.82652 5.29274
#
# Compressibility (1/GPa) = 0.04105480
#
# Stress axis : x y z
#
# Youngs Moduli (GPa) = 61.89118 99.49128 26.09575
#
# Poissons Ratio (x) = 0.07301 0.24207
# Poissons Ratio (y) = 0.04542 0.04507
# Poissons Ratio (z) = 0.57411 0.17184
#
# Static dielectric constant tensor:
#      x y z
#    x 4.035010 0.000000 -0.326910 
#    y 0.000000 3.479230 0.000000 
#    z -0.326910 0.000000 3.059390 
# 
# 
# High freq. dielectric constant tensor:
#      x y z
#    x 1.731190 0.000000 -0.032280 
#    y 0.000000 1.739690 0.000000 
#    z -0.032280 0.000000 1.694420 
# 
# From -- ./inp_files/21847.got.cif
#   From: 2010.06.25/outbox.cif.g09.slc.cpg/sg11_11_cif.got.tgz:21847.got - 2010.06.27 23:14:04.
