data_PCOD8069890
_publ_section_title
;
Structure prediction by ZEFSAII (Michael W. Deem and Ramdas Pophale) SiO2 
 PCOD8069890
Probable space group: P 21/M
;
_chemical_formula_sum "Si O2"
_cell_formula_units_Z 28
_cell_length_a 13.687080
_cell_length_b 18.141156
_cell_length_c 19.624660
_cell_angle_alpha 90.000000
_cell_angle_beta 16.578117
_cell_angle_gamma 90.000000
_cell_volume 1390.316487
_symmetry_space_group_name_H-M "P 21/M"
_symmetry_group_IT_number 11
_symmetry_cell_setting 'monoclinic'
loop_
_space_group_symop_operation_xyz
x,y,z
-x,1/2+y,-z
-x,-y,-z
x,1/2-y,z
loop_
_atom_site_type_symbol
_atom_site_label
_atom_site_fract_x
_atom_site_fract_y
_atom_site_fract_z
Si Si1 0.434751 0.335335 0.355135
Si Si2 0.788729 0.835389 0.703382
Si Si3 0.833098 0.392001 0.968395
Si Si4 0.468725 0.665098 0.553688
Si Si5 0.138543 0.966361 0.720408
Si Si6 0.236606 0.834492 0.276015
Si Si7 0.260222 0.434664 0.135247
O O1 0.515384 0.250000 0.288187
O O2 0.453624 0.357626 0.420829
O O3 0.054193 0.354142 0.584721
O O4 0.714453 0.380599 0.125263
O O5 0.772483 0.750000 0.735956
O O6 0.859455 0.884320 0.722332
O O7 0.098453 0.850253 0.444228
O O8 0.429715 0.855814 0.908980
O O9 0.197774 0.352526 0.714281
O O10 0.849815 0.480364 0.945823
O O11 0.365066 0.750000 0.615583
O O12 0.141556 0.617266 0.747374
O O13 0.074464 0.965283 0.681103
O O14 0.500000 0.000000 0.500000
O O15 0.352372 0.750000 0.191015
O O16 0.551093 0.887351 0.049478
O O17 0.500000 0.500000 0.000000
#
# Coordination Sequence:
#
# PCOD8069890 Si02
#       7
#     4   4   4   4   4   4   4
#     4   9  18  33  59  91 115 149 203 248 293 355
#     4  10  20  37  64  93 120 154 200 254 302 352
#     4  10  18  37  58  87 120 155 197 247 298 354
#     4  10  20  35  57  81 116 161 198 245 298 353
#     4  10  24  41  57  85 124 159 201 243 294 358
#     4   9  20  37  60  93 122 149 198 253 299 355
#     4  12  23  39  61  89 120 160 197 242 303 361
#
# _framework density 20.139299000000001
#
# number of rings (size 3 to 8) (size 9 to 14) (size 15 to 20)
#    0.000    2.000    1.429    3.429    2.000    3.429 
#    0.000    2.857    0.000    3.429    0.000    0.000 
#    0.000    0.000    0.000    0.000    0.000    0.000 
#
# Total GULP energy -347163.732263 kJ/mol
# GULP energy per Si atom -12398.704724 kJ/mol
# Density = 2.009346 g / cm^3
# Si number density = 20.139299 Si / 1000 Ang^3
#
#
#
# Elastic Constant Matrix: (Units=GPa)
#
#
# Indices 1 2 3 4 5 6 
#
# 1 97.1986 46.8673 33.8179 0.0000 -13.5457 0.0000
# 2 46.8673 102.1683 28.8739 0.0000 1.0452 0.0000
# 3 33.8179 28.8739 52.0403 0.0000 7.7889 0.0000
# 4 0.0000 0.0000 0.0000 27.8075 0.0000 -1.1682
# 5 -13.5457 1.0452 7.7889 0.0000 26.1450 0.0000
# 6 0.0000 0.0000 0.0000 -1.1682 0.0000 39.5535
#
#
#
# Elastic Compliance Matrix: (Units=1/GPa)
#
#
# Indices 1 2 3 4 5 6 
#
# 1 0.018629 -0.005578 -0.010979 0.000000 0.013146 0.000000
# 2 -0.005578 0.013336 -0.003415 0.000000 -0.002406 0.000000
# 3 -0.010979 -0.003415 0.030433 0.000000 -0.014618 0.000000
# 4 0.000000 0.000000 0.000000 0.036006 0.000000 0.001063
# 5 0.013146 -0.002406 -0.014618 0.000000 0.049510 0.000000
# 6 0.000000 0.000000 0.000000 0.001063 0.000000 0.025314
#
#
# Mechanical properties :
#
#
# Convention : Reuss Voigt Hill
#
# Bulk Modulus (GPa) = 44.53199 52.28063 48.40631
# Shear Modulus (GPa) = 22.65968 28.15775 25.40871
#
# Velocity S-wave (km/s) = 3.35796 3.74324 3.55582
# Velocity P-wave (km/s) = 6.09873 6.68568 6.39894
#
# Compressibility (1/GPa) = 0.02245577
#
# Stress axis : x y z
#
# Youngs Moduli (GPa) = 53.67838 74.98509 32.85902
#
# Poissons Ratio (x) = 0.41823 0.36076
# Poissons Ratio (y) = 0.29939 0.11221
# Poissons Ratio (z) = 0.58934 0.25606
#
# Static dielectric constant tensor:
#      x y z
#    x 3.727890 0.000000 0.000140 
#    y 0.000000 4.101550 0.000000 
#    z 0.000140 0.000000 3.450740 
# 
# 
# High freq. dielectric constant tensor:
#      x y z
#    x 1.785700 0.000000 0.003380 
#    y 0.000000 1.801250 0.000000 
#    z 0.003380 0.000000 1.763220 
# 
# From -- ./inp_files/59706.got.cif
#   From: 2010.06.25/outbox.cif.g09.slc.cpg/sg11_30_cif.got.tgz:59706.got - 2010.06.27 23:14:04.
