data_PCOD8069429
_publ_section_title
;
Structure prediction by ZEFSAII (Michael W. Deem and Ramdas Pophale) SiO2 
 PCOD8069429
Probable space group: P 21/M
;
_chemical_formula_sum "Si O2"
_cell_formula_units_Z 28
_cell_length_a 9.548314
_cell_length_b 16.378393
_cell_length_c 14.101131
_cell_angle_alpha 90.000000
_cell_angle_beta 41.633682
_cell_angle_gamma 90.000000
_cell_volume 1465.072545
_symmetry_space_group_name_H-M "P 21/M"
_symmetry_group_IT_number 11
_symmetry_cell_setting 'monoclinic'
loop_
_space_group_symop_operation_xyz
x,y,z
-x,1/2+y,-z
-x,-y,-z
x,1/2-y,z
loop_
_atom_site_type_symbol
_atom_site_label
_atom_site_fract_x
_atom_site_fract_y
_atom_site_fract_z
Si Si1 0.494259 0.344842 0.274027
Si Si2 0.886118 0.345435 0.942634
Si Si3 0.737855 0.155249 0.649452
Si Si4 0.915268 0.066049 0.738291
Si Si5 0.404745 0.085090 0.513908
Si Si6 0.902781 0.570475 0.615920
Si Si7 0.348552 0.343412 0.737342
O O1 0.426839 0.250000 0.311730
O O2 0.532856 0.379470 0.359906
O O3 0.319662 0.396133 0.306708
O O4 0.714901 0.357007 0.109951
O O5 0.901909 0.250000 0.901906
O O6 0.827887 0.404220 0.883776
O O7 0.110717 0.377242 0.870592
O O8 0.708150 0.250000 0.679508
O O9 0.791791 0.118370 0.723284
O O10 0.519448 0.114155 0.720860
O O11 0.921926 0.141577 0.477288
O O12 0.163747 0.080086 0.602783
O O13 0.872927 0.969545 0.736294
O O14 0.423690 0.147408 0.591026
O O15 0.500000 0.000000 0.500000
O O16 0.000000 0.500000 0.500000
O O17 0.348513 0.250000 0.765025
#
# Coordination Sequence:
#
# PCOD8069429 Si02
#       7
#     4   4   4   4   4   4   4
#     4  11  22  38  62  87 116 153 196 244 292 345
#     4   9  20  38  58  83 115 156 201 238 282 349
#     4  10  18  31  58  85 112 149 194 245 292 344
#     4  10  20  35  57  84 116 154 191 237 288 353
#     4  11  21  35  60  84 114 150 192 244 291 343
#     4  10  19  32  55  85 117 143 186 242 291 338
#     4   9  19  34  55  82 113 150 196 240 286 348
#
# _framework density 19.111682999999999
#
# number of rings (size 3 to 8) (size 9 to 14) (size 15 to 20)
#    0.000    2.000    2.857    2.143    2.000    1.714 
#    0.000    2.857    6.286    0.000    0.000    0.000 
#    0.000    0.000    0.000    0.000    0.000    0.000 
#
# Total GULP energy -346982.428803 kJ/mol
# GULP energy per Si atom -12392.229600 kJ/mol
# Density = 1.906818 g / cm^3
# Si number density = 19.111683 Si / 1000 Ang^3
#
#
#
# Elastic Constant Matrix: (Units=GPa)
#
#
# Indices 1 2 3 4 5 6 
#
# 1 148.4875 38.4098 59.5318 0.0000 -14.8230 0.0000
# 2 38.4098 52.1299 32.4769 0.0000 2.5932 0.0000
# 3 59.5318 32.4769 109.4260 0.0000 0.5049 0.0000
# 4 0.0000 0.0000 0.0000 24.3417 0.0000 2.1388
# 5 -14.8230 2.5932 0.5049 0.0000 25.2098 0.0000
# 6 0.0000 0.0000 0.0000 2.1388 0.0000 35.9709
#
#
#
# Elastic Compliance Matrix: (Units=1/GPa)
#
#
# Indices 1 2 3 4 5 6 
#
# 1 0.010483 -0.005509 -0.004100 0.000000 0.006813 0.000000
# 2 -0.005509 0.026561 -0.004859 0.000000 -0.005874 0.000000
# 3 -0.004100 -0.004859 0.012821 0.000000 -0.002168 0.000000
# 4 0.000000 0.000000 0.000000 0.041298 0.000000 -0.002456
# 5 0.006813 -0.005874 -0.002168 0.000000 0.044321 0.000000
# 6 0.000000 0.000000 0.000000 -0.002456 0.000000 0.027946
#
#
# Mechanical properties :
#
#
# Convention : Reuss Voigt Hill
#
# Bulk Modulus (GPa) = 47.77767 63.43117 55.60442
# Shear Modulus (GPa) = 25.08246 29.07947 27.08096
#
# Velocity S-wave (km/s) = 3.62666 3.90494 3.76837
# Velocity P-wave (km/s) = 6.52613 7.32074 6.93482
#
# Compressibility (1/GPa) = 0.02093028
#
# Stress axis : x y z
#
# Youngs Moduli (GPa) = 95.38902 37.64878 77.99626
#
# Poissons Ratio (x) = 0.20741 0.31977
# Poissons Ratio (y) = 0.52550 0.37898
# Poissons Ratio (z) = 0.39107 0.18294
#
# Static dielectric constant tensor:
#      x y z
#    x 3.867020 0.000000 -0.239150 
#    y 0.000000 3.780280 0.000000 
#    z -0.239150 0.000000 3.517110 
# 
# 
# High freq. dielectric constant tensor:
#      x y z
#    x 1.751570 0.000000 -0.013650 
#    y 0.000000 1.739400 0.000000 
#    z -0.013650 0.000000 1.724390 
# 
# From -- ./inp_files/22763.got.cif
#   From: 2010.06.25/outbox.cif.g09.slc.cpg/sg11_12_cif.got.tgz:22763.got - 2010.06.27 23:14:04.
