data_PCOD8069932
_publ_section_title
;
Structure prediction by ZEFSAII (Michael W. Deem and Ramdas Pophale) SiO2 
 PCOD8069932
Probable space group: P 21/M
;
_chemical_formula_sum "Si O2"
_cell_formula_units_Z 32
_cell_length_a 32.903981
_cell_length_b 8.987145
_cell_length_c 21.947463
_cell_angle_alpha 90.000000
_cell_angle_beta 18.099334
_cell_angle_gamma 90.000000
_cell_volume 2016.263927
_symmetry_space_group_name_H-M "P 21/M"
_symmetry_group_IT_number 11
_symmetry_cell_setting 'monoclinic'
loop_
_space_group_symop_operation_xyz
x,y,z
-x,1/2+y,-z
-x,-y,-z
x,1/2-y,z
loop_
_atom_site_type_symbol
_atom_site_label
_atom_site_fract_x
_atom_site_fract_y
_atom_site_fract_z
Si Si1 0.689346 0.080987 0.458694
Si Si2 0.732752 0.419319 0.044131
Si Si3 0.576547 0.421849 0.143928
Si Si4 0.359630 0.426409 0.706224
Si Si5 0.961463 0.077318 0.116881
Si Si6 0.810084 0.074443 0.155884
Si Si7 0.204647 0.419311 0.227753
Si Si8 0.956086 0.419631 0.642654
O O1 0.640652 0.250000 0.525729
O O2 0.803983 0.061352 0.346133
O O3 0.740076 0.035068 0.319376
O O4 0.569683 0.981293 0.649788
O O5 0.703369 0.250000 0.107441
O O6 0.644382 0.460367 0.111526
O O7 0.699870 0.535633 0.143336
O O8 0.887133 0.437533 0.806992
O O9 0.568166 0.250000 0.143980
O O10 0.661977 0.486482 0.965812
O O11 0.500000 0.500000 0.500000
O O12 0.371493 0.250000 0.681955
O O13 0.266880 0.492714 0.787252
O O14 0.002529 0.250000 0.057113
O O15 0.000000 0.000000 0.000000
O O16 0.041630 0.991957 0.055664
O O17 0.815787 0.250000 0.135440
O O18 0.248862 0.250000 0.158849
O O19 0.109211 0.460371 0.308307
O O20 0.114592 0.445429 0.417193
O O21 0.926872 0.250000 0.660946
#
# Coordination Sequence:
#
# PCOD8069932 Si02
#       8
#     4   4   4   4   4   4   4   4
#     4   9  18  30  45  65  88 114 144 177 215 260
#     4   9  18  32  45  60  85 116 151 187 219 254
#     4  10  19  28  41  62  89 119 148 179 216 257
#     4  12  24  35  47  64  87 117 152 187 223 259
#     4   9  17  30  47  67  89 113 143 180 221 264
#     4  10  20  34  50  66  85 113 149 187 225 262
#     4   9  15  24  40  60  83 111 141 174 213 257
#     4   8  15  27  42  59  80 109 143 177 214 255
#
# _framework density 15.870938000000001
#
# number of rings (size 3 to 8) (size 9 to 14) (size 15 to 20)
#    0.000    2.500    0.000    4.875    0.000    8.000 
#    0.000    0.000    0.000    0.000    0.000    0.000 
#    0.000    1.000    0.000    3.000    0.000    4.250 
#
# Total GULP energy -396519.012660 kJ/mol
# GULP energy per Si atom -12391.219146 kJ/mol
# Density = 1.583482 g / cm^3
# Si number density = 15.870938 Si / 1000 Ang^3
#
#
#
# Elastic Constant Matrix: (Units=GPa)
#
#
# Indices 1 2 3 4 5 6 
#
# 1 50.9621 36.6304 45.2280 0.0000 -8.7024 0.0000
# 2 36.6304 103.3655 66.9999 0.0000 -5.6152 0.0000
# 3 45.2280 66.9999 128.2771 0.0000 0.3528 0.0000
# 4 0.0000 0.0000 0.0000 29.6942 0.0000 -2.2802
# 5 -8.7024 -5.6152 0.3528 0.0000 21.2468 0.0000
# 6 0.0000 0.0000 0.0000 -2.2802 0.0000 21.6465
#
#
#
# Elastic Compliance Matrix: (Units=1/GPa)
#
#
# Indices 1 2 3 4 5 6 
#
# 1 0.033708 -0.005349 -0.009126 0.000000 0.012544 0.000000
# 2 -0.005349 0.015822 -0.006384 0.000000 0.002097 0.000000
# 3 -0.009126 -0.006384 0.014363 0.000000 -0.005663 0.000000
# 4 0.000000 0.000000 0.000000 0.033951 0.000000 0.003576
# 5 0.012544 0.002097 -0.005663 0.000000 0.052852 0.000000
# 6 0.000000 0.000000 0.000000 0.003576 0.000000 0.046574
#
#
# Mechanical properties :
#
#
# Convention : Reuss Voigt Hill
#
# Bulk Modulus (GPa) = 45.09291 64.48014 54.78652
# Shear Modulus (GPa) = 20.29410 23.43391 21.86401
#
# Velocity S-wave (km/s) = 3.57976 3.84673 3.71565
# Velocity P-wave (km/s) = 6.74983 7.77469 7.28032
#
# Compressibility (1/GPa) = 0.02217644
#
# Stress axis : x y z
#
# Youngs Moduli (GPa) = 29.66663 63.20498 69.62411
#
# Poissons Ratio (x) = 0.33808 0.63535
# Poissons Ratio (y) = 0.15868 0.44445
# Poissons Ratio (z) = 0.27072 0.40347
#
# Static dielectric constant tensor:
#      x y z
#    x 2.748360 0.000000 -0.028920 
#    y 0.000000 3.319720 0.000000 
#    z -0.028920 0.000000 3.404410 
# 
# 
# High freq. dielectric constant tensor:
#      x y z
#    x 1.550160 0.000000 -0.000430 
#    y 0.000000 1.626290 0.000000 
#    z -0.000430 0.000000 1.618880 
# 
# From -- ./inp_files/61750.got.cif
#   From: 2010.06.25/outbox.cif.g09.slc.cpg/sg11_31_cif.got.tgz:61750.got - 2010.06.27 23:14:04.
