data_PCOD8069399
_publ_section_title
;
Structure prediction by ZEFSAII (Michael W. Deem and Ramdas Pophale) SiO2 
 PCOD8069399
Probable space group: P 21/M
;
_chemical_formula_sum "Si O2"
_cell_formula_units_Z 32
_cell_length_a 13.432835
_cell_length_b 13.543065
_cell_length_c 19.424694
_cell_angle_alpha 90.000000
_cell_angle_beta 151.473988
_cell_angle_gamma 90.000000
_cell_volume 1687.581173
_symmetry_space_group_name_H-M "P 21/M"
_symmetry_group_IT_number 11
_symmetry_cell_setting 'monoclinic'
loop_
_space_group_symop_operation_xyz
x,y,z
-x,1/2+y,-z
-x,-y,-z
x,1/2-y,z
loop_
_atom_site_type_symbol
_atom_site_label
_atom_site_fract_x
_atom_site_fract_y
_atom_site_fract_z
Si Si1 0.303519 0.518428 0.290000
Si Si2 0.000893 0.365374 0.698470
Si Si3 0.918862 0.640337 0.612436
Si Si4 0.303165 0.520151 0.833159
Si Si5 0.454298 0.865233 0.793764
Si Si6 0.065294 0.362470 0.896229
Si Si7 0.337886 0.968956 0.586307
Si Si8 0.369136 0.360040 0.431768
O O1 0.431849 0.504798 0.297211
O O2 0.273766 0.411789 0.306564
O O3 0.419708 0.589235 0.414722
O O4 0.078248 0.568947 0.141747
O O5 0.023015 0.250000 0.698458
O O6 0.167910 0.419054 0.749408
O O7 0.048847 0.394370 0.806339
O O8 0.768514 0.403843 0.539169
O O9 0.917767 0.750000 0.579677
O O10 0.805255 0.566804 0.488893
O O11 0.802599 0.636781 0.613769
O O12 0.154427 0.606551 0.772391
O O13 0.374898 0.558147 0.802466
O O14 0.500000 0.500000 0.000000
O O15 0.395295 0.750000 0.773320
O O16 0.346342 0.900831 0.658217
O O17 0.700786 0.876218 0.935749
O O18 0.991602 0.250000 0.860320
O O19 0.428412 0.250000 0.445915
#
# Coordination Sequence:
#
# PCOD8069399 Si02
#       8
#     4   4   4   4   4   4   4   4
#     4  10  18  31  54  78 113 150 193 235 280 332
#     4  10  20  36  59  90 118 145 190 241 285 338
#     4   9  19  35  57  84 115 147 188 237 289 341
#     4  11  21  36  61  84 110 145 189 233 284 341
#     4  11  24  40  58  84 118 156 194 235 289 347
#     4  10  20  35  58  85 114 152 195 238 282 337
#     4  10  22  37  56  84 115 155 189 239 286 339
#     4   9  17  29  50  83 112 142 184 235 288 334
#
# _framework density 18.962052
#
# number of rings (size 3 to 8) (size 9 to 14) (size 15 to 20)
#    0.000    2.000    1.250    4.125    0.000    5.500 
#    0.000    1.875    0.000    0.750    0.000    0.000 
#    0.000    0.000    0.000    0.000    0.000    0.000 
#
# Total GULP energy -396699.165679 kJ/mol
# GULP energy per Si atom -12396.848927 kJ/mol
# Density = 1.891889 g / cm^3
# Si number density = 18.962052 Si / 1000 Ang^3
#
#
#
# Elastic Constant Matrix: (Units=GPa)
#
#
# Indices 1 2 3 4 5 6 
#
# 1 53.9308 35.3404 29.4156 0.0000 7.6291 0.0000
# 2 35.3404 123.9245 35.3425 0.0000 5.2466 0.0000
# 3 29.4156 35.3425 75.8575 0.0000 2.9237 0.0000
# 4 0.0000 0.0000 0.0000 28.5186 0.0000 2.5879
# 5 7.6291 5.2466 2.9237 0.0000 29.8584 0.0000
# 6 0.0000 0.0000 0.0000 2.5879 0.0000 28.9092
#
#
#
# Elastic Compliance Matrix: (Units=1/GPa)
#
#
# Indices 1 2 3 4 5 6 
#
# 1 0.026979 -0.005244 -0.007818 0.000000 -0.005206 0.000000
# 2 -0.005244 0.010369 -0.002790 0.000000 -0.000209 0.000000
# 3 -0.007818 -0.002790 0.017484 0.000000 0.000776 0.000000
# 4 0.000000 0.000000 0.000000 0.035352 0.000000 -0.003165
# 5 -0.005206 -0.000209 0.000776 0.000000 0.034782 0.000000
# 6 0.000000 0.000000 0.000000 -0.003165 0.000000 0.034874
#
#
# Mechanical properties :
#
#
# Convention : Reuss Voigt Hill
#
# Bulk Modulus (GPa) = 43.23469 50.43443 46.83456
# Shear Modulus (GPa) = 25.09356 27.69818 26.39587
#
# Velocity S-wave (km/s) = 3.64174 3.82608 3.73505
# Velocity P-wave (km/s) = 6.36657 6.79513 6.58434
#
# Compressibility (1/GPa) = 0.02312958
#
# Stress axis : x y z
#
# Youngs Moduli (GPa) = 37.06561 96.43873 57.19488
#
# Poissons Ratio (x) = 0.50570 0.44715
# Poissons Ratio (y) = 0.19436 0.15955
# Poissons Ratio (z) = 0.28978 0.26903
#
# Static dielectric constant tensor:
#      x y z
#    x 3.273170 0.000000 0.254610 
#    y 0.000000 3.854080 0.000000 
#    z 0.254610 0.000000 3.398990 
# 
# 
# High freq. dielectric constant tensor:
#      x y z
#    x 1.719940 0.000000 0.026380 
#    y 0.000000 1.749280 0.000000 
#    z 0.026380 0.000000 1.723110 
# 
# From -- ./inp_files/59508.got.cif
#   From: 2010.06.25/outbox.cif.g09.slc.cpg/sg11_30_cif.got.tgz:59508.got - 2010.06.27 23:14:04.
