data_PCOD8069157
_publ_section_title
;
Structure prediction by ZEFSAII (Michael W. Deem and Ramdas Pophale) SiO2 
 PCOD8069157
Probable space group: P 21/M
;
_chemical_formula_sum "Si O2"
_cell_formula_units_Z 32
_cell_length_a 21.401101
_cell_length_b 8.952481
_cell_length_c 11.772396
_cell_angle_alpha 90.000000
_cell_angle_beta 127.686278
_cell_angle_gamma 90.000000
_cell_volume 1784.941355
_symmetry_space_group_name_H-M "P 21/M"
_symmetry_group_IT_number 11
_symmetry_cell_setting 'monoclinic'
loop_
_space_group_symop_operation_xyz
x,y,z
-x,1/2+y,-z
-x,-y,-z
x,1/2-y,z
loop_
_atom_site_type_symbol
_atom_site_label
_atom_site_fract_x
_atom_site_fract_y
_atom_site_fract_z
Si Si1 0.232727 0.078155 0.145872
Si Si2 0.579352 0.580637 0.056472
Si Si3 0.815696 0.421212 0.260333
Si Si4 0.263943 0.074629 0.635941
Si Si5 0.313891 0.418790 0.016643
Si Si6 0.966607 0.074208 0.849980
Si Si7 0.907462 0.074300 0.148476
Si Si8 0.782641 0.075437 0.642182
O O1 0.211712 0.250000 0.147846
O O2 0.310021 0.065666 0.149022
O O3 0.254584 0.995334 0.285967
O O4 0.157521 0.003151 0.003176
O O5 0.562869 0.750000 0.068674
O O6 0.654557 0.524801 0.213020
O O7 0.500000 0.500000 0.000000
O O8 0.599560 0.558074 0.943913
O O9 0.813120 0.250000 0.296481
O O10 0.810156 0.521022 0.367969
O O11 0.892477 0.453692 0.266707
O O12 0.742411 0.455793 0.097251
O O13 0.257026 0.250000 0.610632
O O14 0.262637 0.994962 0.513898
O O15 0.284673 0.250000 0.949287
O O16 0.983028 0.250000 0.871119
O O17 0.874788 0.037176 0.737151
O O18 0.008534 0.999593 0.787461
O O19 0.000000 0.000000 0.000000
O O20 0.907193 0.250000 0.119460
O O21 0.766197 0.250000 0.625870
#
# Coordination Sequence:
#
# PCOD8069157 Si02
#       8
#     4   4   4   4   4   4   4   4
#     4  10  18  30  51  74 100 137 175 213 259 303
#     4   9  18  33  55  83 110 133 163 204 249 301
#     4   9  17  30  50  74 100 131 168 215 261 301
#     4  10  21  37  55  76 104 137 173 209 251 312
#     4   8  16  30  48  75 106 134 169 209 248 299
#     4  11  22  34  50  72 102 136 174 221 267 311
#     4  10  19  31  49  74 102 131 172 221 263 306
#     4  11  23  36  51  74 104 136 174 219 262 308
#
# _framework density 17.927759999999999
#
# number of rings (size 3 to 8) (size 9 to 14) (size 15 to 20)
#    0.000    2.250    1.250    3.000    0.000    6.000 
#    0.000    0.625    0.000    0.750    0.000    0.000 
#    0.000    0.000    0.000    0.000    0.000    0.000 
#
# Total GULP energy -396615.900797 kJ/mol
# GULP energy per Si atom -12394.246900 kJ/mol
# Density = 1.788696 g / cm^3
# Si number density = 17.927760 Si / 1000 Ang^3
#
#
#
# Elastic Constant Matrix: (Units=GPa)
#
#
# Indices 1 2 3 4 5 6 
#
# 1 138.8450 58.9837 50.7933 0.0000 -17.2858 0.0000
# 2 58.9837 95.1664 41.3506 0.0000 -7.7993 0.0000
# 3 50.7933 41.3506 66.7795 0.0000 -18.6232 0.0000
# 4 0.0000 0.0000 0.0000 26.6599 0.0000 -3.8397
# 5 -17.2858 -7.7993 -18.6232 0.0000 26.0750 0.0000
# 6 0.0000 0.0000 0.0000 -3.8397 0.0000 33.5763
#
#
#
# Elastic Compliance Matrix: (Units=1/GPa)
#
#
# Indices 1 2 3 4 5 6 
#
# 1 0.011326 -0.004618 -0.005053 0.000000 0.002518 0.000000
# 2 -0.004618 0.016398 -0.007651 0.000000 -0.003621 0.000000
# 3 -0.005053 -0.007651 0.027451 0.000000 0.013968 0.000000
# 4 0.000000 0.000000 0.000000 0.038138 0.000000 0.004361
# 5 0.002518 -0.003621 0.013968 0.000000 0.048913 0.000000
# 6 0.000000 0.000000 0.000000 0.004361 0.000000 0.030282
#
#
# Mechanical properties :
#
#
# Convention : Reuss Voigt Hill
#
# Bulk Modulus (GPa) = 48.70758 67.00512 57.85635
# Shear Modulus (GPa) = 23.36507 27.23979 25.30243
#
# Velocity S-wave (km/s) = 3.61403 3.90220 3.76088
# Velocity P-wave (km/s) = 6.68152 7.59994 7.15548
#
# Compressibility (1/GPa) = 0.02053069
#
# Stress axis : x y z
#
# Youngs Moduli (GPa) = 88.29175 60.98395 36.42867
#
# Poissons Ratio (x) = 0.28162 0.18408
# Poissons Ratio (y) = 0.40772 0.27872
# Poissons Ratio (z) = 0.44614 0.46659
#
# Static dielectric constant tensor:
#      x y z
#    x 3.720290 0.000000 -0.275190 
#    y 0.000000 3.434590 0.000000 
#    z -0.275190 0.000000 2.981980 
# 
# 
# High freq. dielectric constant tensor:
#      x y z
#    x 1.703610 0.000000 -0.029770 
#    y 0.000000 1.709130 0.000000 
#    z -0.029770 0.000000 1.644440 
# 
# From -- ./inp_files/42922.got.cif
#   From: 2010.06.25/outbox.cif.g09.slc.cpg/sg11_22_cif.got.tgz:42922.got - 2010.06.27 23:14:04.
