data_PCOD8069373
_publ_section_title
;
Structure prediction by ZEFSAII (Michael W. Deem and Ramdas Pophale) SiO2 
 PCOD8069373
Probable space group: P 21/M
;
_chemical_formula_sum "Si O2"
_cell_formula_units_Z 32
_cell_length_a 10.022496
_cell_length_b 8.941097
_cell_length_c 23.374145
_cell_angle_alpha 90.000000
_cell_angle_beta 58.538957
_cell_angle_gamma 90.000000
_cell_volume 1786.689289
_symmetry_space_group_name_H-M "P 21/M"
_symmetry_group_IT_number 11
_symmetry_cell_setting 'monoclinic'
loop_
_space_group_symop_operation_xyz
x,y,z
-x,1/2+y,-z
-x,-y,-z
x,1/2-y,z
loop_
_atom_site_type_symbol
_atom_site_label
_atom_site_fract_x
_atom_site_fract_y
_atom_site_fract_z
Si Si1 0.532301 0.925623 0.053074
Si Si2 0.838626 0.572661 0.055357
Si Si3 0.068105 0.075829 0.539651
Si Si4 0.328386 0.918901 0.807470
Si Si5 0.199759 0.923158 0.318731
Si Si6 0.638241 0.916687 0.812537
Si Si7 0.498678 0.574114 0.327821
Si Si8 0.575485 0.927352 0.537815
O O1 0.518242 0.750000 0.049284
O O2 0.702382 0.970693 0.040426
O O3 0.394155 0.980880 0.125458
O O4 0.500000 0.000000 0.000000
O O5 0.856800 0.750000 0.056066
O O6 0.799747 0.507852 0.126785
O O7 0.000000 0.500000 0.000000
O O8 0.052465 0.250000 0.532371
O O9 0.244707 0.024657 0.507923
O O10 0.967641 0.030260 0.617923
O O11 0.000000 0.000000 0.500000
O O12 0.268984 0.750000 0.808590
O O13 0.488056 0.914869 0.806286
O O14 0.358963 0.005724 0.741283
O O15 0.209482 0.750000 0.299929
O O16 0.332831 0.961816 0.335475
O O17 0.219176 0.015962 0.255999
O O18 0.682379 0.750000 0.823147
O O19 0.526851 0.750000 0.328640
O O20 0.502645 0.495903 0.388330
O O21 0.552249 0.750000 0.543681
O O22 0.500000 0.000000 0.500000
#
# Coordination Sequence:
#
# PCOD8069373 Si02
#       8
#     4   4   4   4   4   4   4   4
#     4  10  20  34  54  79 108 142 178 216 258 312
#     4  10  20  34  54  81 110 141 177 219 265 311
#     4  10  20  34  54  80 106 135 173 218 264 313
#     4   9  17  30  50  77 107 137 174 218 260 308
#     4   9  17  30  50  77 106 133 166 215 267 310
#     4   9  17  29  48  76 106 137 173 213 258 308
#     4  10  18  31  53  78 105 136 173 217 264 314
#     4  11  23  37  54  76 106 142 179 218 263 318
#
# _framework density 17.910219000000001
#
# number of rings (size 3 to 8) (size 9 to 14) (size 15 to 20)
#    0.000    2.250    1.250    2.250    0.000    6.000 
#    0.000    0.000    2.750    0.000    0.000    0.000 
#    0.000    0.000    0.000    0.000    0.000    0.000 
#
# Total GULP energy -396796.355446 kJ/mol
# GULP energy per Si atom -12399.886108 kJ/mol
# Density = 1.786945 g / cm^3
# Si number density = 17.910219 Si / 1000 Ang^3
#
#
#
# Elastic Constant Matrix: (Units=GPa)
#
#
# Indices 1 2 3 4 5 6 
#
# 1 70.4187 48.7915 67.9790 0.0000 3.0719 0.0000
# 2 48.7915 103.1845 73.9556 0.0000 4.3012 0.0000
# 3 67.9790 73.9556 178.9605 0.0000 1.0984 0.0000
# 4 0.0000 0.0000 0.0000 40.8117 0.0000 3.6194
# 5 3.0719 4.3012 1.0984 0.0000 26.2675 0.0000
# 6 0.0000 0.0000 0.0000 3.6194 0.0000 22.6845
#
#
#
# Elastic Compliance Matrix: (Units=1/GPa)
#
#
# Indices 1 2 3 4 5 6 
#
# 1 0.025904 -0.007301 -0.006813 0.000000 -0.001549 0.000000
# 2 -0.007301 0.015936 -0.003802 0.000000 -0.001597 0.000000
# 3 -0.006813 -0.003802 0.009741 0.000000 0.001012 0.000000
# 4 0.000000 0.000000 0.000000 0.024855 0.000000 -0.003966
# 5 -0.001549 -0.001597 0.001012 0.000000 0.038470 0.000000
# 6 0.000000 0.000000 0.000000 -0.003966 0.000000 0.044716
#
#
# Mechanical properties :
#
#
# Convention : Reuss Voigt Hill
#
# Bulk Modulus (GPa) = 63.50179 81.55733 72.52956
# Shear Modulus (GPa) = 24.91243 28.74191 26.82717
#
# Velocity S-wave (km/s) = 3.73361 4.01031 3.87443
# Velocity P-wave (km/s) = 7.35656 8.19018 7.78454
#
# Compressibility (1/GPa) = 0.01574759
#
# Stress axis : x y z
#
# Youngs Moduli (GPa) = 38.60368 62.75293 102.66056
#
# Poissons Ratio (x) = 0.45818 0.69944
# Poissons Ratio (y) = 0.28186 0.39033
# Poissons Ratio (z) = 0.26301 0.23860
#
# Static dielectric constant tensor:
#      x y z
#    x 3.078120 0.000000 -0.114970 
#    y 0.000000 3.410770 0.000000 
#    z -0.114970 0.000000 3.609640 
# 
# 
# High freq. dielectric constant tensor:
#      x y z
#    x 1.647100 0.000000 -0.001960 
#    y 0.000000 1.707520 0.000000 
#    z -0.001960 0.000000 1.711410 
# 
# From -- ./inp_files/67078.got.cif
#   From: 2010.06.25/outbox.cif.g09.slc.cpg/sg11_34_cif.got.tgz:67078.got - 2010.06.27 23:14:04.
