data_PCOD8069572
_publ_section_title
;
Structure prediction by ZEFSAII (Michael W. Deem and Ramdas Pophale) SiO2 
 PCOD8069572
Probable space group: P 21/M
;
_chemical_formula_sum "Si O2"
_cell_formula_units_Z 32
_cell_length_a 16.468550
_cell_length_b 18.152961
_cell_length_c 10.406355
_cell_angle_alpha 90.000000
_cell_angle_beta 144.206628
_cell_angle_gamma 90.000000
_cell_volume 1819.517559
_symmetry_space_group_name_H-M "P 21/M"
_symmetry_group_IT_number 11
_symmetry_cell_setting 'monoclinic'
loop_
_space_group_symop_operation_xyz
x,y,z
-x,1/2+y,-z
-x,-y,-z
x,1/2-y,z
loop_
_atom_site_type_symbol
_atom_site_label
_atom_site_fract_x
_atom_site_fract_y
_atom_site_fract_z
Si Si1 0.924961 0.663934 0.562016
Si Si2 0.341794 0.164198 0.486965
Si Si3 0.647285 0.413413 0.240276
Si Si4 0.245317 0.837737 0.368008
Si Si5 0.784159 0.336367 0.174996
Si Si6 0.618109 0.163691 0.715572
Si Si7 0.345255 0.415940 0.757665
Si Si8 0.037374 0.335875 0.102582
O O1 0.888606 0.750000 0.522117
O O2 0.785718 0.621684 0.338334
O O3 0.966908 0.633525 0.757254
O O4 0.050909 0.648706 0.626011
O O5 0.352357 0.250000 0.538788
O O6 0.455626 0.143754 0.525664
O O7 0.372896 0.118658 0.654210
O O8 0.188124 0.146216 0.233861
O O9 0.693790 0.373922 0.428478
O O10 0.729315 0.379225 0.226884
O O11 0.687286 0.498431 0.300171
O O12 0.482070 0.402303 0.017765
O O13 0.254611 0.750000 0.395327
O O14 0.332244 0.868017 0.357046
O O15 0.086989 0.867376 0.144573
O O16 0.753168 0.250000 0.153557
O O17 0.707124 0.367756 0.949216
O O18 0.645616 0.250000 0.747926
O O19 0.008371 0.250000 0.075453
#
# Coordination Sequence:
#
# PCOD8069572 Si02
#       8
#     4   4   4   4   4   4   4   4
#     4   9  17  32  57  81  99 128 178 228 258 300
#     4   9  16  30  56  79  96 129 179 224 254 300
#     4  11  23  35  50  74 113 146 173 212 261 314
#     4  10  19  33  52  77 107 134 163 212 272 313
#     4  10  18  32  56  82 100 130 180 220 254 310
#     4   9  16  29  53  80 100 125 172 220 255 300
#     4  10  21  36  51  73 109 144 180 213 258 306
#     4   8  14  27  49  76 100 122 157 211 264 301
#
# _framework density 17.587078999999999
#
# number of rings (size 3 to 8) (size 9 to 14) (size 15 to 20)
#    0.000    2.500    2.500    1.500    0.000    2.000 
#    0.000    4.375    0.000    3.000    0.000    0.000 
#    0.000    0.000    0.000    0.000    0.000    0.000 
#
# Total GULP energy -396651.463952 kJ/mol
# GULP energy per Si atom -12395.358249 kJ/mol
# Density = 1.754705 g / cm^3
# Si number density = 17.587079 Si / 1000 Ang^3
#
#
#
# Elastic Constant Matrix: (Units=GPa)
#
#
# Indices 1 2 3 4 5 6 
#
# 1 127.8774 45.2508 75.0318 0.0000 10.5754 0.0000
# 2 45.2508 61.6914 50.8472 0.0000 5.6138 0.0000
# 3 75.0318 50.8472 120.8926 0.0000 6.5424 0.0000
# 4 0.0000 0.0000 0.0000 30.1238 0.0000 3.8073
# 5 10.5754 5.6138 6.5424 0.0000 31.0148 0.0000
# 6 0.0000 0.0000 0.0000 3.8073 0.0000 11.9521
#
#
#
# Elastic Compliance Matrix: (Units=1/GPa)
#
#
# Indices 1 2 3 4 5 6 
#
# 1 0.013219 -0.004320 -0.006257 0.000000 -0.002406 0.000000
# 2 -0.004320 0.026388 -0.008334 0.000000 -0.001545 0.000000
# 3 -0.006257 -0.008334 0.015642 0.000000 0.000342 0.000000
# 4 0.000000 0.000000 0.000000 0.034589 0.000000 -0.011018
# 5 -0.002406 -0.001545 0.000342 0.000000 0.033270 0.000000
# 6 0.000000 0.000000 0.000000 -0.011018 0.000000 0.087177
#
#
# Mechanical properties :
#
#
# Convention : Reuss Voigt Hill
#
# Bulk Modulus (GPa) = 57.38279 72.52458 64.95368
# Shear Modulus (GPa) = 19.69154 23.90693 21.79924
#
# Velocity S-wave (km/s) = 3.34976 3.69093 3.52448
# Velocity P-wave (km/s) = 6.90361 7.71303 7.31952
#
# Compressibility (1/GPa) = 0.01742683
#
# Stress axis : x y z
#
# Youngs Moduli (GPa) = 75.64874 37.89600 63.93031
#
# Poissons Ratio (x) = 0.16371 0.40002
# Poissons Ratio (y) = 0.32680 0.53279
# Poissons Ratio (z) = 0.47335 0.31582
#
# Static dielectric constant tensor:
#      x y z
#    x 3.422560 0.000000 0.282970 
#    y 0.000000 2.993560 0.000000 
#    z 0.282970 0.000000 3.362520 
# 
# 
# High freq. dielectric constant tensor:
#      x y z
#    x 1.681530 0.000000 0.023110 
#    y 0.000000 1.646560 0.000000 
#    z 0.023110 0.000000 1.677370 
# 
# From -- ./inp_files/23122.got.cif
#   From: 2010.06.25/outbox.cif.g09.slc.cpg/sg11_12_cif.got.tgz:23122.got - 2010.06.27 23:14:04.
