data_PCOD8069131
_publ_section_title
;
Structure prediction by ZEFSAII (Michael W. Deem and Ramdas Pophale) SiO2 
 PCOD8069131
Probable space group: P 21/M
;
_chemical_formula_sum "Si O2"
_cell_formula_units_Z 24
_cell_length_a 23.940649
_cell_length_b 8.934241
_cell_length_c 11.394790
_cell_angle_alpha 90.000000
_cell_angle_beta 145.224953
_cell_angle_gamma 90.000000
_cell_volume 1390.099355
_symmetry_space_group_name_H-M "P 21/M"
_symmetry_group_IT_number 11
_symmetry_cell_setting 'monoclinic'
loop_
_space_group_symop_operation_xyz
x,y,z
-x,1/2+y,-z
-x,-y,-z
x,1/2-y,z
loop_
_atom_site_type_symbol
_atom_site_label
_atom_site_fract_x
_atom_site_fract_y
_atom_site_fract_z
Si Si1 0.273190 0.926467 0.015269
Si Si2 0.515904 0.421143 0.647596
Si Si3 0.942982 0.922970 0.739959
Si Si4 0.305673 0.425582 0.322703
Si Si5 0.148937 0.923584 0.206075
Si Si6 0.087595 0.426228 0.581174
O O1 0.249521 0.750000 0.978560
O O2 0.190177 0.011956 0.802220
O O3 0.374723 0.962772 0.117895
O O4 0.279018 0.985461 0.158438
O O5 0.500000 0.500000 0.500000
O O6 0.517986 0.250000 0.617290
O O7 0.419629 0.455809 0.560565
O O8 0.918584 0.750000 0.722416
O O9 0.923257 0.969771 0.573108
O O10 0.873120 0.023477 0.700093
O O11 0.056313 0.956748 0.963064
O O12 0.286865 0.250000 0.268503
O O13 0.240302 0.483117 0.316307
O O14 0.176738 0.750000 0.255830
O O15 0.082965 0.250000 0.592791
O O16 0.000000 0.500000 0.500000
#
# Coordination Sequence:
#
# PCOD8069131 Si02
#       6
#     4   4   4   4   4   4
#     4  10  19  32  49  72 103 133 164 204 246 287
#     4   8  16  29  46  69  97 129 162 200 244 288
#     4   9  20  36  50  68  97 130 162 197 239 289
#     4  10  18  30  50  75 101 130 165 201 244 295
#     4  10  19  32  52  75  97 124 160 203 248 290
#     4  11  22  35  52  74 101 133 166 198 239 292
#
# _framework density 17.264953999999999
#
# number of rings (size 3 to 8) (size 9 to 14) (size 15 to 20)
#    0.000    2.333    0.000    3.000    0.000    4.667 
#    0.000    0.000    0.000    1.000    0.000    0.000 
#    0.000    0.000    0.000    0.000    0.000    0.000 
#
# Total GULP energy -297429.429835 kJ/mol
# GULP energy per Si atom -12392.892910 kJ/mol
# Density = 1.722566 g / cm^3
# Si number density = 17.264954 Si / 1000 Ang^3
#
#
#
# Elastic Constant Matrix: (Units=GPa)
#
#
# Indices 1 2 3 4 5 6 
#
# 1 109.8458 51.4823 73.1436 0.0000 15.9265 0.0000
# 2 51.4823 68.6869 51.1702 0.0000 5.9446 0.0000
# 3 73.1436 51.1702 118.1927 0.0000 14.7344 0.0000
# 4 0.0000 0.0000 0.0000 26.4455 0.0000 1.7227
# 5 15.9265 5.9446 14.7344 0.0000 28.8244 0.0000
# 6 0.0000 0.0000 0.0000 1.7227 0.0000 30.8604
#
#
#
# Elastic Compliance Matrix: (Units=1/GPa)
#
#
# Indices 1 2 3 4 5 6 
#
# 1 0.018406 -0.007882 -0.007383 0.000000 -0.004770 0.000000
# 2 -0.007882 0.024869 -0.006186 0.000000 0.002389 0.000000
# 3 -0.007383 -0.006186 0.016064 0.000000 -0.002856 0.000000
# 4 0.000000 0.000000 0.000000 0.037952 0.000000 -0.002119
# 5 -0.004770 0.002389 -0.002856 0.000000 0.038296 0.000000
# 6 0.000000 0.000000 0.000000 -0.002119 0.000000 0.032522
#
#
# Mechanical properties :
#
#
# Convention : Reuss Voigt Hill
#
# Bulk Modulus (GPa) = 60.84630 72.03532 66.44081
# Shear Modulus (GPa) = 23.09557 25.28801 24.19179
#
# Velocity S-wave (km/s) = 3.66145 3.83129 3.74733
# Velocity P-wave (km/s) = 7.29343 7.83491 7.56901
#
# Compressibility (1/GPa) = 0.01643485
#
# Stress axis : x y z
#
# Youngs Moduli (GPa) = 54.33024 40.21082 62.24976
#
# Poissons Ratio (x) = 0.31696 0.45960
# Poissons Ratio (y) = 0.42826 0.38511
# Poissons Ratio (z) = 0.40113 0.24876
#
# Static dielectric constant tensor:
#      x y z
#    x 3.366880 0.000000 0.524970 
#    y 0.000000 3.343800 0.000000 
#    z 0.524970 0.000000 3.589790 
# 
# 
# High freq. dielectric constant tensor:
#      x y z
#    x 1.655890 0.000000 0.028350 
#    y 0.000000 1.682340 0.000000 
#    z 0.028350 0.000000 1.657350 
# 
# From -- ./inp_files/40815.got.cif
#   From: 2010.06.25/outbox.cif.g09.slc.cpg/sg11_21_cif.got.tgz:40815.got - 2010.06.27 23:14:04.
