data_PCOD8069747
_publ_section_title
;
Structure prediction by ZEFSAII (Michael W. Deem and Ramdas Pophale) SiO2 
 PCOD8069747
Probable space group: P 21/M
;
_chemical_formula_sum "Si O2"
_cell_formula_units_Z 28
_cell_length_a 8.705028
_cell_length_b 18.093040
_cell_length_c 10.731640
_cell_angle_alpha 90.000000
_cell_angle_beta 86.586469
_cell_angle_gamma 90.000000
_cell_volume 1687.238976
_symmetry_space_group_name_H-M "P 21/M"
_symmetry_group_IT_number 11
_symmetry_cell_setting 'monoclinic'
loop_
_space_group_symop_operation_xyz
x,y,z
-x,1/2+y,-z
-x,-y,-z
x,1/2-y,z
loop_
_atom_site_type_symbol
_atom_site_label
_atom_site_fract_x
_atom_site_fract_y
_atom_site_fract_z
Si Si1 0.646111 0.443959 0.256038
Si Si2 0.287673 0.666046 0.539720
Si Si3 0.340813 0.977157 0.214931
Si Si4 0.211418 0.410902 0.731893
Si Si5 0.179048 0.003081 0.964982
Si Si6 0.490913 0.832497 0.293607
Si Si7 0.924886 0.439073 0.589722
O O1 0.657620 0.369387 0.333450
O O2 0.467554 0.460761 0.237365
O O3 0.713232 0.514116 0.331387
O O4 0.750940 0.436597 0.124872
O O5 0.242742 0.750000 0.569759
O O6 0.425751 0.658728 0.435387
O O7 0.136980 0.626191 0.494013
O O8 0.272883 0.001960 0.087003
O O9 0.416346 0.894659 0.206539
O O10 0.208180 0.979075 0.324823
O O11 0.324740 0.342181 0.702818
O O12 0.045517 0.399493 0.677454
O O13 0.201349 0.421548 0.883241
O O14 0.000000 0.000000 0.000000
O O15 0.455072 0.750000 0.243147
O O16 0.000000 0.500000 0.500000
#
# Coordination Sequence:
#
# PCOD8069747 Si02
#       7
#     4   4   4   4   4   4   4
#     4   9  19  32  53  78  98 139 174 214 257 306
#     4  10  21  36  52  75 110 139 172 214 266 320
#     4  10  19  32  57  78 106 134 181 217 260 311
#     4   9  19  31  55  78 102 136 174 217 258 309
#     4  10  18  34  53  82 103 132 173 229 261 302
#     4   9  20  34  51  76 109 139 171 217 265 314
#     4  11  19  31  53  85 103 137 172 216 263 314
#
# _framework density 16.595158999999999
#
# number of rings (size 3 to 8) (size 9 to 14) (size 15 to 20)
#    0.857    1.429    2.857    0.429    2.000    2.286 
#    0.000    0.714    0.000    0.857    0.000    0.000 
#    0.000    0.000    0.000    0.000    0.000    0.000 
#
# Total GULP energy -346927.532935 kJ/mol
# GULP energy per Si atom -12390.269033 kJ/mol
# Density = 1.655739 g / cm^3
# Si number density = 16.595159 Si / 1000 Ang^3
#
#
#
# Elastic Constant Matrix: (Units=GPa)
#
#
# Indices 1 2 3 4 5 6 
#
# 1 137.6851 49.7649 60.7343 0.0000 4.3134 0.0000
# 2 49.7649 92.7576 55.7590 0.0000 5.6996 0.0000
# 3 60.7343 55.7590 96.6787 0.0000 12.5779 0.0000
# 4 0.0000 0.0000 0.0000 19.3541 0.0000 1.0731
# 5 4.3134 5.6996 12.5779 0.0000 31.3617 0.0000
# 6 0.0000 0.0000 0.0000 1.0731 0.0000 19.0747
#
#
#
# Elastic Compliance Matrix: (Units=1/GPa)
#
#
# Indices 1 2 3 4 5 6 
#
# 1 0.010460 -0.002515 -0.005268 0.000000 0.001131 0.000000
# 2 -0.002515 0.017129 -0.008376 0.000000 0.000592 0.000000
# 3 -0.005268 -0.008376 0.019193 0.000000 -0.005451 0.000000
# 4 0.000000 0.000000 0.000000 0.051830 0.000000 -0.002916
# 5 0.001131 0.000592 -0.005451 0.000000 0.033809 0.000000
# 6 0.000000 0.000000 0.000000 -0.002916 0.000000 0.052589
#
#
# Mechanical properties :
#
#
# Convention : Reuss Voigt Hill
#
# Bulk Modulus (GPa) = 69.13669 73.29308 71.21488
# Shear Modulus (GPa) = 22.50734 24.68232 23.59483
#
# Velocity S-wave (km/s) = 3.68674 3.86076 3.77475
# Velocity P-wave (km/s) = 7.73782 8.00845 7.87430
#
# Compressibility (1/GPa) = 0.01446410
#
# Stress axis : x y z
#
# Youngs Moduli (GPa) = 95.60049 58.38152 52.10233
#
# Poissons Ratio (x) = 0.14681 0.27447
# Poissons Ratio (y) = 0.24041 0.43642
# Poissons Ratio (z) = 0.50362 0.48902
#
# Static dielectric constant tensor:
#      x y z
#    x 3.358840 0.000000 -0.027830 
#    y 0.000000 2.960710 0.000000 
#    z -0.027830 0.000000 3.080740 
# 
# 
# High freq. dielectric constant tensor:
#      x y z
#    x 1.655460 0.000000 -0.003210 
#    y 0.000000 1.603890 0.000000 
#    z -0.003210 0.000000 1.632490 
# 
# From -- ./inp_files/32077.got.cif
#   From: 2010.06.25/outbox.cif.g09.slc.cpg/sg11_17_cif.got.tgz:32077.got - 2010.06.27 23:14:04.
