data_PCOD8069374
_publ_section_title
;
Structure prediction by ZEFSAII (Michael W. Deem and Ramdas Pophale) SiO2 
 PCOD8069374
Probable space group: P 21/M
;
_chemical_formula_sum "Si O2"
_cell_formula_units_Z 32
_cell_length_a 24.346399
_cell_length_b 8.960043
_cell_length_c 18.904894
_cell_angle_alpha 90.000000
_cell_angle_beta 155.853865
_cell_angle_gamma 90.000000
_cell_volume 1686.987127
_symmetry_space_group_name_H-M "P 21/M"
_symmetry_group_IT_number 11
_symmetry_cell_setting 'monoclinic'
loop_
_space_group_symop_operation_xyz
x,y,z
-x,1/2+y,-z
-x,-y,-z
x,1/2-y,z
loop_
_atom_site_type_symbol
_atom_site_label
_atom_site_fract_x
_atom_site_fract_y
_atom_site_fract_z
Si Si1 0.128431 0.080245 0.470310
Si Si2 0.169084 0.577713 0.863376
Si Si3 0.152513 0.574323 0.006332
Si Si4 0.113471 0.924190 0.310484
Si Si5 0.631389 0.427178 0.627862
Si Si6 0.426088 0.427105 0.112472
Si Si7 0.631843 0.426509 0.470260
Si Si8 0.430347 0.076393 0.852398
O O1 0.122275 0.250000 0.432304
O O2 0.269038 0.057412 0.676701
O O3 0.986928 0.054128 0.346614
O O4 0.130234 0.956977 0.412335
O O5 0.210495 0.750000 0.905228
O O6 0.183838 0.522829 0.962527
O O7 0.271961 0.484716 0.934923
O O8 0.140843 0.750000 0.994477
O O9 0.257239 0.514009 0.186803
O O10 0.014668 0.505699 0.872151
O O11 0.097741 0.750000 0.279266
O O12 0.242666 0.993098 0.424274
O O13 0.500000 0.500000 0.500000
O O14 0.622657 0.250000 0.618167
O O15 0.646323 0.490794 0.566108
O O16 0.425583 0.250000 0.099167
O O17 0.495556 0.472575 0.268908
O O18 0.513878 0.500450 0.153269
O O19 0.640768 0.250000 0.482512
O O20 0.468526 0.250000 0.894195
O O21 0.500000 0.000000 0.000000
#
# Coordination Sequence:
#
# PCOD8069374 Si02
#       8
#     4   4   4   4   4   4   4   4
#     4   9  19  37  59  83 114 148 184 226 275 329
#     4   9  18  34  55  81 111 146 188 232 275 324
#     4   9  19  34  51  74 109 147 186 235 284 330
#     4  10  18  31  53  78 105 141 183 228 277 330
#     4  10  20  35  51  70 103 144 185 232 287 335
#     4  11  21  36  57  85 116 146 186 232 277 332
#     4   9  19  33  51  76 108 142 179 231 282 324
#     4  11  23  40  63  89 116 148 181 223 277 332
#
# _framework density 18.968727999999999
#
# number of rings (size 3 to 8) (size 9 to 14) (size 15 to 20)
#    0.000    2.250    1.250    2.625    0.000    3.500 
#    0.000    2.500    0.000    0.000    0.000    0.000 
#    0.000    0.000    0.000    0.000    0.000    0.000 
#
# Total GULP energy -396519.850908 kJ/mol
# GULP energy per Si atom -12391.245341 kJ/mol
# Density = 1.892555 g / cm^3
# Si number density = 18.968728 Si / 1000 Ang^3
#
#
#
# Elastic Constant Matrix: (Units=GPa)
#
#
# Indices 1 2 3 4 5 6 
#
# 1 63.4304 26.9346 50.1591 0.0000 10.4640 0.0000
# 2 26.9346 41.8771 38.6960 0.0000 4.4507 0.0000
# 3 50.1591 38.6960 152.9762 0.0000 11.1276 0.0000
# 4 0.0000 0.0000 0.0000 29.6721 0.0000 5.1303
# 5 10.4640 4.4507 11.1276 0.0000 36.7272 0.0000
# 6 0.0000 0.0000 0.0000 5.1303 0.0000 27.5962
#
#
#
# Elastic Compliance Matrix: (Units=1/GPa)
#
#
# Indices 1 2 3 4 5 6 
#
# 1 0.025237 -0.010986 -0.005184 0.000000 -0.004288 0.000000
# 2 -0.010986 0.036018 -0.005541 0.000000 0.000444 0.000000
# 3 -0.005184 -0.005541 0.009696 0.000000 -0.000789 0.000000
# 4 0.000000 0.000000 0.000000 0.034821 0.000000 -0.006473
# 5 -0.004288 0.000444 -0.000789 0.000000 0.028635 0.000000
# 6 0.000000 0.000000 0.000000 -0.006473 0.000000 0.037440
#
#
# Mechanical properties :
#
#
# Convention : Reuss Voigt Hill
#
# Bulk Modulus (GPa) = 36.32540 54.42922 45.37731
# Shear Modulus (GPa) = 22.27705 28.29871 25.28788
#
# Velocity S-wave (km/s) = 3.43068 3.86665 3.65517
# Velocity P-wave (km/s) = 5.90631 6.97790 6.46435
#
# Compressibility (1/GPa) = 0.02752895
#
# Stress axis : x y z
#
# Youngs Moduli (GPa) = 39.62405 27.76360 103.13728
#
# Poissons Ratio (x) = 0.30501 0.53467
# Poissons Ratio (y) = 0.43531 0.57149
# Poissons Ratio (z) = 0.20541 0.15384
#
# Static dielectric constant tensor:
#      x y z
#    x 3.301420 0.000000 0.254280 
#    y 0.000000 3.272860 0.000000 
#    z 0.254280 0.000000 3.673070 
# 
# 
# High freq. dielectric constant tensor:
#      x y z
#    x 1.719180 0.000000 0.014620 
#    y 0.000000 1.726740 0.000000 
#    z 0.014620 0.000000 1.751040 
# 
# From -- ./inp_files/67262.got.cif
#   From: 2010.06.25/outbox.cif.g09.slc.cpg/sg11_34_cif.got.tgz:67262.got - 2010.06.27 23:14:04.
