data_PCOD8069053
_publ_section_title
;
Structure prediction by ZEFSAII (Michael W. Deem and Ramdas Pophale) SiO2 
 PCOD8069053
Probable space group: P 21/M
;
_chemical_formula_sum "Si O2"
_cell_formula_units_Z 24
_cell_length_a 24.119191
_cell_length_b 8.483687
_cell_length_c 18.478952
_cell_angle_alpha 90.000000
_cell_angle_beta 159.976976
_cell_angle_gamma 90.000000
_cell_volume 1294.659561
_symmetry_space_group_name_H-M "P 21/M"
_symmetry_group_IT_number 11
_symmetry_cell_setting 'monoclinic'
loop_
_space_group_symop_operation_xyz
x,y,z
-x,1/2+y,-z
-x,-y,-z
x,1/2-y,z
loop_
_atom_site_type_symbol
_atom_site_label
_atom_site_fract_x
_atom_site_fract_y
_atom_site_fract_z
Si Si1 0.336521 0.067389 0.072729
Si Si2 0.159102 0.067565 0.487311
Si Si3 0.679981 0.063784 0.445340
Si Si4 0.011268 0.064731 0.093758
Si Si5 0.864019 0.567264 0.043009
Si Si6 0.018023 0.063429 0.601990
O O1 0.347504 0.250000 0.067213
O O2 0.507942 0.991691 0.260918
O O3 0.304217 0.041441 0.119640
O O4 0.186615 0.997188 0.842457
O O5 0.203967 0.250000 0.548305
O O6 0.300873 0.978514 0.616370
O O7 0.134487 0.997155 0.537469
O O8 0.995112 0.043559 0.241646
O O9 0.692371 0.250000 0.472712
O O10 0.817047 0.980597 0.661172
O O11 0.988053 0.250000 0.064672
O O12 0.861907 0.986879 0.956677
O O13 0.000000 0.000000 0.000000
O O14 0.918355 0.750000 0.116011
O O15 0.015535 0.250000 0.599723
O O16 0.000000 0.000000 0.500000
#
# Coordination Sequence:
#
# PCOD8069053 Si02
#       6
#     4   4   4   4   4   4
#     4   8  17  32  53  76 101 129 163 202 248 297
#     4  10  18  30  48  73 100 132 168 203 240 293
#     4  10  18  33  54  76 100 131 164 203 248 294
#     4  11  21  34  51  75 101 131 167 206 246 294
#     4   9  16  31  52  74  98 130 166 204 244 293
#     4  10  19  34  53  76 101 131 167 208 250 295
#
# _framework density 18.537692
#
# number of rings (size 3 to 8) (size 9 to 14) (size 15 to 20)
#    0.000    2.333    0.000    7.500    0.000    0.000 
#    0.000   11.667    0.000    0.000    0.000    0.000 
#    0.000    0.000    0.000    0.000    0.000    0.000 
#
# Total GULP energy -297417.507564 kJ/mol
# GULP energy per Si atom -12392.396148 kJ/mol
# Density = 1.849550 g / cm^3
# Si number density = 18.537692 Si / 1000 Ang^3
#
#
#
# Elastic Constant Matrix: (Units=GPa)
#
#
# Indices 1 2 3 4 5 6 
#
# 1 203.7492 37.2953 63.6744 0.0000 11.0008 0.0000
# 2 37.2953 78.5231 19.8890 0.0000 3.0630 0.0000
# 3 63.6744 19.8890 59.0617 0.0000 14.6134 0.0000
# 4 0.0000 0.0000 0.0000 15.1004 0.0000 -5.9093
# 5 11.0008 3.0630 14.6134 0.0000 35.1775 0.0000
# 6 0.0000 0.0000 0.0000 -5.9093 0.0000 32.6855
#
#
#
# Elastic Compliance Matrix: (Units=1/GPa)
#
#
# Indices 1 2 3 4 5 6 
#
# 1 0.007633 -0.001658 -0.007932 0.000000 0.001052 0.000000
# 2 -0.001658 0.014304 -0.003176 0.000000 0.000592 0.000000
# 3 -0.007932 -0.003176 0.028834 0.000000 -0.009221 0.000000
# 4 0.000000 0.000000 0.000000 0.071266 0.000000 0.012884
# 5 0.001052 0.000592 -0.009221 0.000000 0.031877 0.000000
# 6 0.000000 0.000000 0.000000 0.012884 0.000000 0.032924
#
#
# Mechanical properties :
#
#
# Convention : Reuss Voigt Hill
#
# Bulk Modulus (GPa) = 39.62010 64.78349 52.20180
# Shear Modulus (GPa) = 22.64676 31.29103 26.96890
#
# Velocity S-wave (km/s) = 3.49902 4.11295 3.81834
# Velocity P-wave (km/s) = 6.14356 7.58801 6.90366
#
# Compressibility (1/GPa) = 0.02523972
#
# Stress axis : x y z
#
# Youngs Moduli (GPa) = 131.00425 69.91146 34.68165
#
# Poissons Ratio (x) = 0.11588 0.27508
# Poissons Ratio (y) = 0.21715 0.11016
# Poissons Ratio (z) = 1.03908 0.22206
#
# Static dielectric constant tensor:
#      x y z
#    x 4.395420 0.000000 0.272260 
#    y 0.000000 3.341300 0.000000 
#    z 0.272260 0.000000 3.115660 
# 
# 
# High freq. dielectric constant tensor:
#      x y z
#    x 1.746560 0.000000 0.014390 
#    y 0.000000 1.718620 0.000000 
#    z 0.014390 0.000000 1.666060 
# 
# From -- ./inp_files/57410.got.cif
#   From: 2010.06.25/outbox.cif.g09.slc.cpg/sg11_29_cif.got.tgz:57410.got - 2010.06.27 23:14:04.
