data_PCOD8069718
_publ_section_title
;
Structure prediction by ZEFSAII (Michael W. Deem and Ramdas Pophale) SiO2 
 PCOD8069718
Probable space group: P 21/M
;
_chemical_formula_sum "Si O2"
_cell_formula_units_Z 32
_cell_length_a 23.889582
_cell_length_b 8.884925
_cell_length_c 14.308882
_cell_angle_alpha 90.000000
_cell_angle_beta 147.612452
_cell_angle_gamma 90.000000
_cell_volume 1626.835665
_symmetry_space_group_name_H-M "P 21/M"
_symmetry_group_IT_number 11
_symmetry_cell_setting 'monoclinic'
loop_
_space_group_symop_operation_xyz
x,y,z
-x,1/2+y,-z
-x,-y,-z
x,1/2-y,z
loop_
_atom_site_type_symbol
_atom_site_label
_atom_site_fract_x
_atom_site_fract_y
_atom_site_fract_z
Si Si1 0.531235 0.072437 0.324396
Si Si2 0.048132 0.571416 0.976282
Si Si3 0.649204 0.575452 0.798532
Si Si4 0.851863 0.575715 0.206884
Si Si5 0.779479 0.076634 0.287066
Si Si6 0.442774 0.428613 0.006363
Si Si7 0.283096 0.926914 0.291563
Si Si8 0.029938 0.923201 0.316925
O O1 0.514614 0.250000 0.298316
O O2 0.449449 0.007603 0.284706
O O3 0.649210 0.028736 0.520948
O O4 0.504782 0.009261 0.184569
O O5 0.045436 0.750000 0.981691
O O6 0.982928 0.522397 0.793743
O O7 0.000000 0.500000 0.000000
O O8 0.166445 0.507813 0.135518
O O9 0.635647 0.750000 0.756219
O O10 0.656743 0.489358 0.712463
O O11 0.750225 0.544623 0.002779
O O12 0.861516 0.750000 0.249457
O O13 0.846041 0.476214 0.291617
O O14 0.951070 0.521476 0.286560
O O15 0.746949 0.250000 0.228040
O O16 0.851896 0.057358 0.480524
O O17 0.677510 0.976309 0.157729
O O18 0.447775 0.250000 0.005585
O O19 0.500000 0.500000 0.000000
O O20 0.277436 0.750000 0.271863
O O21 0.005026 0.750000 0.256597
#
# Coordination Sequence:
#
# PCOD8069718 Si02
#       8
#     4   4   4   4   4   4   4   4
#     4   9  19  37  59  83 116 153 185 225 287 350
#     4  11  24  40  60  85 114 153 198 247 298 349
#     4  10  18  33  59  87 116 153 186 224 286 349
#     4  10  19  35  60  88 120 157 192 236 296 356
#     4  11  23  38  60  90 120 155 197 244 297 351
#     4  11  23  42  63  85 116 156 200 246 294 351
#     4  10  21  37  58  86 115 147 188 235 286 343
#     4  10  22  40  61  86 120 158 196 241 297 356
#
# _framework density 19.670088
#
# number of rings (size 3 to 8) (size 9 to 14) (size 15 to 20)
#    0.000    1.750    2.500    1.875    0.000    3.500 
#    0.000    3.750    0.000    0.000    0.000    0.000 
#    0.000    0.000    0.000    0.000    0.000    0.000 
#
# Total GULP energy -396871.922205 kJ/mol
# GULP energy per Si atom -12402.247569 kJ/mol
# Density = 1.962532 g / cm^3
# Si number density = 19.670088 Si / 1000 Ang^3
#
#
#
# Elastic Constant Matrix: (Units=GPa)
#
#
# Indices 1 2 3 4 5 6 
#
# 1 140.7183 39.7671 56.0968 0.0000 -18.0367 0.0000
# 2 39.7671 56.3988 36.4548 0.0000 -8.0901 0.0000
# 3 56.0968 36.4548 107.8983 0.0000 -17.7625 0.0000
# 4 0.0000 0.0000 0.0000 26.4373 0.0000 -1.3763
# 5 -18.0367 -8.0901 -17.7625 0.0000 17.4907 0.0000
# 6 0.0000 0.0000 0.0000 -1.3763 0.0000 37.0811
#
#
#
# Elastic Compliance Matrix: (Units=1/GPa)
#
#
# Indices 1 2 3 4 5 6 
#
# 1 0.010256 -0.004580 -0.002873 0.000000 0.005540 0.000000
# 2 -0.004580 0.024885 -0.005895 0.000000 0.000801 0.000000
# 3 -0.002873 -0.005895 0.014189 0.000000 0.008720 0.000000
# 4 0.000000 0.000000 0.000000 0.037899 0.000000 0.001407
# 5 0.005540 0.000801 0.008720 0.000000 0.072113 0.000000
# 6 0.000000 0.000000 0.000000 0.001407 0.000000 0.027020
#
#
# Mechanical properties :
#
#
# Convention : Reuss Voigt Hill
#
# Bulk Modulus (GPa) = 44.17899 63.29473 53.73686
# Shear Modulus (GPa) = 22.66525 27.71492 25.19008
#
# Velocity S-wave (km/s) = 3.39819 3.75772 3.58247
# Velocity P-wave (km/s) = 6.15676 7.14670 6.67012
#
# Compressibility (1/GPa) = 0.02263520
#
# Stress axis : x y z
#
# Youngs Moduli (GPa) = 97.50357 40.18413 70.47871
#
# Poissons Ratio (x) = 0.18404 0.20246
# Poissons Ratio (y) = 0.44657 0.41546
# Poissons Ratio (z) = 0.28009 0.23688
#
# Static dielectric constant tensor:
#      x y z
#    x 3.717620 0.000000 -0.094850 
#    y 0.000000 3.417720 0.000000 
#    z -0.094850 0.000000 3.789820 
# 
# 
# High freq. dielectric constant tensor:
#      x y z
#    x 1.766240 0.000000 -0.001530 
#    y 0.000000 1.750690 0.000000 
#    z -0.001530 0.000000 1.782190 
# 
# From -- ./inp_files/51658.got.cif
#   From: 2010.06.25/outbox.cif.g09.slc.cpg/sg11_26_cif.got.tgz:51658.got - 2010.06.27 23:14:04.
