data_PCOD8069075
_publ_section_title
;
Structure prediction by ZEFSAII (Michael W. Deem and Ramdas Pophale) SiO2 
 PCOD8069075
Probable space group: P 21/M
;
_chemical_formula_sum "Si O2"
_cell_formula_units_Z 32
_cell_length_a 24.428645
_cell_length_b 9.111177
_cell_length_c 19.884978
_cell_angle_alpha 90.000000
_cell_angle_beta 156.635439
_cell_angle_gamma 90.000000
_cell_volume 1755.213533
_symmetry_space_group_name_H-M "P 21/M"
_symmetry_group_IT_number 11
_symmetry_cell_setting 'monoclinic'
loop_
_space_group_symop_operation_xyz
x,y,z
-x,1/2+y,-z
-x,-y,-z
x,1/2-y,z
loop_
_atom_site_type_symbol
_atom_site_label
_atom_site_fract_x
_atom_site_fract_y
_atom_site_fract_z
Si Si1 0.551948 0.419861 0.848793
Si Si2 0.693057 0.083917 0.260588
Si Si3 0.829653 0.420145 0.913656
Si Si4 0.238243 0.078942 0.533024
Si Si5 0.318573 0.578347 0.389777
Si Si6 0.416426 0.919620 0.266021
Si Si7 0.374666 0.415455 0.941696
Si Si8 0.103851 0.923396 0.261588
O O1 0.587582 0.250000 0.900331
O O2 0.390024 0.449309 0.675112
O O3 0.594453 0.476284 0.822908
O O4 0.641121 0.511366 0.002955
O O5 0.749032 0.250000 0.319779
O O6 0.778418 0.994614 0.412706
O O7 0.715332 0.006080 0.213757
O O8 0.533015 0.082398 0.098602
O O9 0.875057 0.250000 0.960215
O O10 0.754294 0.471740 0.760923
O O11 0.729953 0.447001 0.864381
O O12 0.960951 0.523150 0.069425
O O13 0.203724 0.250000 0.500624
O O14 0.128493 0.003865 0.359982
O O15 0.346012 0.750000 0.419962
O O16 0.466216 0.502226 0.560302
O O17 0.224606 0.531152 0.346566
O O18 0.458766 0.750000 0.313854
O O19 0.317769 0.250000 0.880629
O O20 0.098981 0.750000 0.267733
#
# Coordination Sequence:
#
# PCOD8069075 Si02
#       8
#     4   4   4   4   4   4   4   4
#     4   9  17  29  46  70  98 131 168 208 254 303
#     4   9  16  26  41  65  99 133 166 207 252 299
#     4  10  22  38  54  75 104 136 173 216 263 313
#     4  10  18  30  49  71  99 134 171 211 256 305
#     4  10  21  36  55  78 103 133 171 217 265 314
#     4  10  20  35  55  78 103 135 174 215 261 313
#     4   9  16  25  40  65  97 133 168 204 249 299
#     4  11  22  35  52  76 104 136 175 216 261 311
#
# _framework density 18.231401000000002
#
# number of rings (size 3 to 8) (size 9 to 14) (size 15 to 20)
#    0.000    2.250    1.250    2.250    0.000    5.500 
#    0.000    0.000    0.000    0.000    0.000    0.875 
#    0.000    0.000    0.000    0.000    0.000    0.000 
#
# Total GULP energy -396893.507260 kJ/mol
# GULP energy per Si atom -12402.922102 kJ/mol
# Density = 1.818991 g / cm^3
# Si number density = 18.231401 Si / 1000 Ang^3
#
#
#
# Elastic Constant Matrix: (Units=GPa)
#
#
# Indices 1 2 3 4 5 6 
#
# 1 58.8538 38.7941 31.7010 0.0000 -33.2196 0.0000
# 2 38.7941 92.0683 30.3925 0.0000 -16.8323 0.0000
# 3 31.7010 30.3925 34.6192 0.0000 -19.2604 0.0000
# 4 0.0000 0.0000 0.0000 33.6352 0.0000 -10.3560
# 5 -33.2196 -16.8323 -19.2604 0.0000 33.8181 0.0000
# 6 0.0000 0.0000 0.0000 -10.3560 0.0000 22.5259
#
#
#
# Elastic Compliance Matrix: (Units=1/GPa)
#
#
# Indices 1 2 3 4 5 6 
#
# 1 0.057278 -0.009649 -0.022466 0.000000 0.038666 0.000000
# 2 -0.009649 0.016919 -0.009670 0.000000 -0.006564 0.000000
# 3 -0.022466 -0.009670 0.062932 0.000000 0.008960 0.000000
# 4 0.000000 0.000000 0.000000 0.034633 0.000000 0.015922
# 5 0.038666 -0.006564 0.008960 0.000000 0.069387 0.000000
# 6 0.000000 0.000000 0.000000 0.015922 0.000000 0.051713
#
#
# Mechanical properties :
#
#
# Convention : Reuss Voigt Hill
#
# Bulk Modulus (GPa) = 18.67125 43.03518 30.85322
# Shear Modulus (GPa) = 12.68112 23.63941 18.16026
#
# Velocity S-wave (km/s) = 2.64022 3.60478 3.15953
# Velocity P-wave (km/s) = 4.42242 6.40173 5.50182
#
# Compressibility (1/GPa) = 0.05355827
#
# Stress axis : x y z
#
# Youngs Moduli (GPa) = 17.45882 59.10415 15.89004
#
# Poissons Ratio (x) = 0.57031 0.35699
# Poissons Ratio (y) = 0.16846 0.15366
# Poissons Ratio (z) = 0.39224 0.57153
#
# Static dielectric constant tensor:
#      x y z
#    x 3.410000 0.000000 -0.328960 
#    y 0.000000 3.396550 0.000000 
#    z -0.328960 0.000000 3.091000 
# 
# 
# High freq. dielectric constant tensor:
#      x y z
#    x 1.698480 0.000000 -0.034550 
#    y 0.000000 1.712450 0.000000 
#    z -0.034550 0.000000 1.681640 
# 
# From -- ./inp_files/67265.got.cif
#   From: 2010.06.25/outbox.cif.g09.slc.cpg/sg11_34_cif.got.tgz:67265.got - 2010.06.27 23:14:04.
