data_PCOD8069299
_publ_section_title
;
Structure prediction by ZEFSAII (Michael W. Deem and Ramdas Pophale) SiO2 
 PCOD8069299
Probable space group: P 21/M
;
_chemical_formula_sum "Si O2"
_cell_formula_units_Z 28
_cell_length_a 25.903277
_cell_length_b 8.610144
_cell_length_c 9.880509
_cell_angle_alpha 90.000000
_cell_angle_beta 139.651385
_cell_angle_gamma 90.000000
_cell_volume 1426.729801
_symmetry_space_group_name_H-M "P 21/M"
_symmetry_group_IT_number 11
_symmetry_cell_setting 'monoclinic'
loop_
_space_group_symop_operation_xyz
x,y,z
-x,1/2+y,-z
-x,-y,-z
x,1/2-y,z
loop_
_atom_site_type_symbol
_atom_site_label
_atom_site_fract_x
_atom_site_fract_y
_atom_site_fract_z
Si Si1 0.813080 0.565586 0.379781
Si Si2 0.910304 0.565139 0.318730
Si Si3 0.086268 0.066236 0.174552
Si Si4 0.358693 0.434525 0.563982
Si Si5 0.187916 0.065355 0.131457
Si Si6 0.639355 0.934994 0.119083
Si Si7 0.501667 0.065868 0.656622
O O1 0.811301 0.750000 0.376568
O O2 0.855833 0.502263 0.331657
O O3 0.868342 0.498032 0.606924
O O4 0.723544 0.506520 0.226619
O O5 0.917944 0.750000 0.333104
O O6 0.000000 0.500000 0.500000
O O7 0.857443 0.500545 0.089880
O O8 0.083437 0.250000 0.170688
O O9 0.133626 0.002306 0.142258
O O10 0.000000 0.000000 0.000000
O O11 0.355725 0.250000 0.564498
O O12 0.276950 0.500269 0.334657
O O13 0.371062 0.493121 0.744887
O O14 0.427078 0.493319 0.598225
O O15 0.192629 0.250000 0.135181
O O16 0.630743 0.750000 0.095743
O O17 0.577497 0.011495 0.892976
O O18 0.500937 0.250000 0.642338
O O19 0.500000 0.000000 0.500000
#
# Coordination Sequence:
#
# PCOD8069299 Si02
#       7
#     4   4   4   4   4   4   4
#     4   9  18  32  54  80 104 140 185 224 266 329
#     4  10  20  33  51  75 106 143 185 228 273 323
#     4  10  18  31  51  76 105 136 177 223 267 317
#     4   9  18  35  60  86 111 144 189 231 274 332
#     4   9  17  31  53  78 102 137 185 225 260 320
#     4  10  19  37  63  87 112 145 187 234 281 333
#     4  11  24  39  59  88 118 149 184 227 278 335
#
# _framework density 19.625298999999998
#
# number of rings (size 3 to 8) (size 9 to 14) (size 15 to 20)
#    0.000    2.286    1.429    1.714    2.000    0.000 
#    0.000    2.143    0.000    2.571    0.000    0.000 
#    0.000    0.000    0.000    0.000    0.000    0.000 
#
# Total GULP energy -346946.601665 kJ/mol
# GULP energy per Si atom -12390.950059 kJ/mol
# Density = 1.958063 g / cm^3
# Si number density = 19.625299 Si / 1000 Ang^3
#
#
#
# Elastic Constant Matrix: (Units=GPa)
#
#
# Indices 1 2 3 4 5 6 
#
# 1 216.9215 27.0166 120.7874 0.0000 -1.7667 0.0000
# 2 27.0166 23.5276 23.1989 0.0000 -0.8032 0.0000
# 3 120.7874 23.1989 215.4460 0.0000 -2.1304 0.0000
# 4 0.0000 0.0000 0.0000 9.4872 0.0000 23.1654
# 5 -1.7667 -0.8032 -2.1304 0.0000 47.4427 0.0000
# 6 0.0000 0.0000 0.0000 23.1654 0.0000 4.1640
#
#
#
# Elastic Compliance Matrix: (Units=1/GPa)
#
#
# Indices 1 2 3 4 5 6 
#
# 1 0.007150 -0.004762 -0.003495 0.000000 0.000029 0.000000
# 2 -0.004762 0.050740 -0.002788 0.000000 0.000556 0.000000
# 3 -0.003495 -0.002788 0.006903 0.000000 0.000133 0.000000
# 4 0.000000 0.000000 0.000000 -0.008376 0.000000 0.046598
# 5 0.000029 0.000556 0.000133 0.000000 0.021095 0.000000
# 6 0.000000 0.000000 0.000000 0.046598 0.000000 -0.019084
#
#
# Mechanical properties :
#
#
# Convention : Reuss Voigt Hill
#
# Bulk Modulus (GPa) = 23.41880 88.65567 56.03723
# Shear Modulus (GPa) = 52.76924 31.21157 41.99041
#
# Velocity S-wave (km/s) = 5.19103 3.99228 4.63061
# Velocity P-wave (km/s) = 6.92011 8.15618 7.56344
#
# Compressibility (1/GPa) = 0.04270074
#
# Stress axis : x y z
#
# Youngs Moduli (GPa) = 139.86858 19.70828 144.87227
#
# Poissons Ratio (x) = 0.09386 0.50636
# Poissons Ratio (y) = 0.66611 0.40392
# Poissons Ratio (z) = 0.48887 0.05495
#
# Static dielectric constant tensor:
#      x y z
#    x 3.955700 0.000000 -0.081360 
#    y 0.000000 3.037800 0.000000 
#    z -0.081360 0.000000 3.854350 
# 
# 
# High freq. dielectric constant tensor:
#      x y z
#    x 1.785160 0.000000 -0.000100 
#    y 0.000000 1.712260 0.000000 
#    z -0.000100 0.000000 1.785980 
# 
# From -- ./inp_files/21424.got.cif
#   From: 2010.06.25/outbox.cif.g09.slc.cpg/sg11_11_cif.got.tgz:21424.got - 2010.06.27 23:14:04.
