data_PCOD8069009
_publ_section_title
;
Structure prediction by ZEFSAII (Michael W. Deem and Ramdas Pophale) SiO2 
 PCOD8069009
Probable space group: P 21/M
;
_chemical_formula_sum "Si O2"
_cell_formula_units_Z 28
_cell_length_a 22.069773
_cell_length_b 9.047896
_cell_length_c 17.904795
_cell_angle_alpha 90.000000
_cell_angle_beta 152.967465
_cell_angle_gamma 90.000000
_cell_volume 1624.969620
_symmetry_space_group_name_H-M "P 21/M"
_symmetry_group_IT_number 11
_symmetry_cell_setting 'monoclinic'
loop_
_space_group_symop_operation_xyz
x,y,z
-x,1/2+y,-z
-x,-y,-z
x,1/2-y,z
loop_
_atom_site_type_symbol
_atom_site_label
_atom_site_fract_x
_atom_site_fract_y
_atom_site_fract_z
Si Si1 0.627197 0.581095 0.978731
Si Si2 0.375947 0.076102 0.323971
Si Si3 0.135200 0.077793 0.169781
Si Si4 0.589264 0.074610 0.789862
Si Si5 0.283629 0.423113 0.476687
Si Si6 0.639139 0.424518 0.136070
Si Si7 0.688906 0.414330 0.350429
O O1 0.676709 0.750000 0.027209
O O2 0.664629 0.492604 0.944616
O O3 0.469882 0.571355 0.818734
O O4 0.701043 0.500871 0.129967
O O5 0.405235 0.250000 0.347865
O O6 0.244874 0.045171 0.227885
O O7 0.500000 0.000000 0.500000
O O8 0.347781 0.001858 0.213340
O O9 0.106551 0.250000 0.145501
O O10 0.187209 0.013912 0.306370
O O11 0.000000 0.000000 0.000000
O O12 0.610755 0.250000 0.810634
O O13 0.433892 0.030300 0.621500
O O14 0.271771 0.250000 0.467175
O O15 0.240383 0.482292 0.510775
O O16 0.618349 0.250000 0.099638
O O17 0.731153 0.452483 0.311039
O O18 0.500000 0.500000 0.000000
O O19 0.734950 0.250000 0.421112
#
# Coordination Sequence:
#
# PCOD8069009 Si02
#       7
#     4   4   4   4   4   4   4
#     4   9  16  25  37  58  87 120 157 194 237 288
#     4  11  21  35  53  74 100 127 165 208 248 297
#     4  10  22  38  52  72  99 129 165 207 251 298
#     4  10  18  30  47  69  95 124 160 201 246 290
#     4   9  17  30  45  64  92 121 156 200 242 287
#     4   9  15  23  34  52  82 119 156 194 235 284
#     4   8  15  24  36  57  83 115 157 194 231 283
#
# _framework density 17.231090999999999
#
# number of rings (size 3 to 8) (size 9 to 14) (size 15 to 20)
#    0.000    2.571    1.429    2.571    0.000    6.286 
#    0.000    0.000    0.000    0.000    0.000    0.000 
#    0.000    1.143    0.000    3.714    0.000    6.429 
#
# Total GULP energy -347032.428092 kJ/mol
# GULP energy per Si atom -12394.015289 kJ/mol
# Density = 1.719187 g / cm^3
# Si number density = 17.231091 Si / 1000 Ang^3
#
#
#
# Elastic Constant Matrix: (Units=GPa)
#
#
# Indices 1 2 3 4 5 6 
#
# 1 115.3019 57.3627 55.3358 0.0000 -44.2747 0.0000
# 2 57.3627 86.4505 39.7765 0.0000 -16.6041 0.0000
# 3 55.3358 39.7765 62.4353 0.0000 -21.5827 0.0000
# 4 0.0000 0.0000 0.0000 23.0240 0.0000 -10.4122
# 5 -44.2747 -16.6041 -21.5827 0.0000 33.1785 0.0000
# 6 0.0000 0.0000 0.0000 -10.4122 0.0000 33.5573
#
#
#
# Elastic Compliance Matrix: (Units=1/GPa)
#
#
# Indices 1 2 3 4 5 6 
#
# 1 0.028144 -0.008943 -0.010076 0.000000 0.026526 0.000000
# 2 -0.008943 0.019291 -0.006647 0.000000 -0.006604 0.000000
# 3 -0.010076 -0.006647 0.030167 0.000000 0.002851 0.000000
# 4 0.000000 0.000000 0.000000 0.050522 0.000000 0.015676
# 5 0.026526 -0.006604 0.002851 0.000000 0.064087 0.000000
# 6 0.000000 0.000000 0.000000 0.015676 0.000000 0.034664
#
#
# Mechanical properties :
#
#
# Convention : Reuss Voigt Hill
#
# Bulk Modulus (GPa) = 38.06675 63.23753 50.65214
# Shear Modulus (GPa) = 17.42381 25.39948 21.41164
#
# Velocity S-wave (km/s) = 3.18336 3.84350 3.52890
# Velocity P-wave (km/s) = 5.97089 7.51505 6.78703
#
# Compressibility (1/GPa) = 0.02626964
#
# Stress axis : x y z
#
# Youngs Moduli (GPa) = 35.53210 51.83686 33.14856
#
# Poissons Ratio (x) = 0.46359 0.33402
# Poissons Ratio (y) = 0.31778 0.22032
# Poissons Ratio (z) = 0.35803 0.34453
#
# Static dielectric constant tensor:
#      x y z
#    x 3.448510 0.000000 -0.709650 
#    y 0.000000 3.108740 0.000000 
#    z -0.709650 0.000000 3.041870 
# 
# 
# High freq. dielectric constant tensor:
#      x y z
#    x 1.663950 0.000000 -0.050830 
#    y 0.000000 1.675220 0.000000 
#    z -0.050830 0.000000 1.612560 
# 
# From -- ./inp_files/29028.got.cif
#   From: 2010.06.25/outbox.cif.g09.slc.cpg/sg11_15_cif.got.tgz:29028.got - 2010.06.27 23:14:04.
