data_PCOD8069437
_publ_section_title
;
Structure prediction by ZEFSAII (Michael W. Deem and Ramdas Pophale) SiO2 
 PCOD8069437
Probable space group: P 21/M
;
_chemical_formula_sum "Si O2"
_cell_formula_units_Z 24
_cell_length_a 19.354321
_cell_length_b 10.177671
_cell_length_c 8.907268
_cell_angle_alpha 90.000000
_cell_angle_beta 46.343534
_cell_angle_gamma 90.000000
_cell_volume 1269.417634
_symmetry_space_group_name_H-M "P 21/M"
_symmetry_group_IT_number 11
_symmetry_cell_setting 'monoclinic'
loop_
_space_group_symop_operation_xyz
x,y,z
-x,1/2+y,-z
-x,-y,-z
x,1/2-y,z
loop_
_atom_site_type_symbol
_atom_site_label
_atom_site_fract_x
_atom_site_fract_y
_atom_site_fract_z
Si Si1 0.284802 0.979663 0.894620
Si Si2 0.577921 0.250000 0.955216
Si Si3 0.628138 0.750000 0.235994
Si Si4 0.078345 0.898193 0.203527
Si Si5 0.921655 0.398193 0.438562
Si Si6 0.284801 0.520336 0.250976
Si Si7 0.422080 0.750000 0.688978
Si Si8 0.628138 0.750000 0.879593
O O1 0.364330 0.877374 0.719249
O O2 0.313729 0.123612 0.793094
O O3 0.181448 0.940700 0.983888
O O4 0.279268 0.975527 0.081097
O O5 0.564397 0.250000 0.153404
O O6 0.635671 0.377374 0.812237
O O7 0.476462 0.250000 0.030408
O O8 0.523538 0.750000 0.459793
O O9 0.618577 0.750000 0.072134
O O10 0.054053 0.750000 0.185989
O O11 0.079585 0.903372 0.380623
O O12 0.000000 0.000000 0.256970
O O13 0.945947 0.250000 0.348147
O O14 0.818552 0.440701 0.528232
O O15 0.313729 0.376388 0.265719
#
# Coordination Sequence:
#
# PCOD8069437 Si02
#       8
#     4   2   2   4   4   4   2   2
#     4   9  17  29  43  62  91 122 149 184 230 270
#     4  10  18  32  49  63  89 127 156 182 225 272
#     4  10  20  30  45  69  93 119 154 192 223 260
#     4   9  16  25  39  60  87 119 150 179 219 273
#     4   9  16  25  39  60  87 119 150 179 219 273
#     4   9  17  29  43  62  91 122 149 184 230 270
#     4  10  18  32  49  63  89 127 156 182 225 272
#     4  10  20  30  45  69  93 119 154 192 223 260
#
# _framework density 18.906307999999999
#
# number of rings (size 3 to 8) (size 9 to 14) (size 15 to 20)
#    0.000    2.667    1.667    1.000    2.333    0.000 
#    0.000    0.000    0.000    0.000    0.000    0.000 
#    0.000    8.000    0.000    0.000    0.000    0.000 
#
# Total GULP energy -297548.717038 kJ/mol
# GULP energy per Si atom -12397.863210 kJ/mol
# Density = 1.886328 g / cm^3
# Si number density = 18.906308 Si / 1000 Ang^3
#
#
#
# Elastic Constant Matrix: (Units=GPa)
#
#
# Indices 1 2 3 4 5 6 
#
# 1 45.5302 43.2344 25.1687 0.0000 -32.1583 0.0000
# 2 43.2344 211.0329 68.5102 0.0000 -41.9493 0.0000
# 3 25.1687 68.5102 89.6850 0.0000 -41.1238 0.0000
# 4 0.0000 0.0000 0.0000 30.5149 0.0000 -18.0189
# 5 -32.1583 -41.9493 -41.1238 0.0000 34.7491 0.0000
# 6 0.0000 0.0000 0.0000 -18.0189 0.0000 19.6587
#
#
#
# Elastic Compliance Matrix: (Units=1/GPa)
#
#
# Indices 1 2 3 4 5 6 
#
# 1 0.090789 -0.006188 0.031375 0.000000 0.113681 0.000000
# 2 -0.006188 0.007013 -0.005170 0.000000 -0.003379 0.000000
# 3 0.031375 -0.005170 0.036617 0.000000 0.066129 0.000000
# 4 0.000000 0.000000 0.000000 0.071433 0.000000 0.065475
# 5 0.113681 -0.003379 0.066129 0.000000 0.208164 0.000000
# 6 0.000000 0.000000 0.000000 0.065475 0.000000 0.110881
#
#
# Mechanical properties :
#
#
# Convention : Reuss Voigt Hill
#
# Bulk Modulus (GPa) = 5.73219 68.89718 37.31469
# Shear Modulus (GPa) = 9.20785 30.94018 20.07402
#
# Velocity S-wave (km/s) = 2.20926 4.04976 3.26201
# Velocity P-wave (km/s) = 3.08970 7.64119 5.82813
#
# Compressibility (1/GPa) = 0.17445329
#
# Stress axis : x y z
#
# Youngs Moduli (GPa) = 11.01453 142.59023 27.30962
#
# Poissons Ratio (x) = 0.88237 -0.85684
# Poissons Ratio (y) = 0.06816 0.14119
# Poissons Ratio (z) = -0.34558 0.73721
#
# Static dielectric constant tensor:
#      x y z
#    x 3.031320 0.000000 -0.460290 
#    y 0.000000 3.942630 0.000000 
#    z -0.460290 0.000000 3.308650 
# 
# 
# High freq. dielectric constant tensor:
#      x y z
#    x 1.684410 0.000000 -0.047860 
#    y 0.000000 1.757660 0.000000 
#    z -0.047860 0.000000 1.713250 
# 
# From -- ./inp_files/25985.got.cif
#   From: 2010.06.25/outbox.cif.g09.slc.cpg/sg11_13_cif.got.tgz:25985.got - 2010.06.27 23:14:04.
