data_PCOD8069806
_publ_section_title
;
Structure prediction by ZEFSAII (Michael W. Deem and Ramdas Pophale) SiO2 
 PCOD8069806
Probable space group: P 21/M
;
_chemical_formula_sum "Si O2"
_cell_formula_units_Z 32
_cell_length_a 8.863347
_cell_length_b 24.129148
_cell_length_c 15.389986
_cell_angle_alpha 90.000000
_cell_angle_beta 29.751873
_cell_angle_gamma 90.000000
_cell_volume 1633.330258
_symmetry_space_group_name_H-M "P 21/M"
_symmetry_group_IT_number 11
_symmetry_cell_setting 'monoclinic'
loop_
_space_group_symop_operation_xyz
x,y,z
-x,1/2+y,-z
-x,-y,-z
x,1/2-y,z
loop_
_atom_site_type_symbol
_atom_site_label
_atom_site_fract_x
_atom_site_fract_y
_atom_site_fract_z
Si Si1 0.645692 0.118860 0.324979
Si Si2 0.645695 0.618860 0.029328
Si Si3 0.360960 0.812333 0.322292
Si Si4 0.639040 0.687667 0.683252
Si Si5 0.653841 0.005968 0.775587
Si Si6 0.357883 0.887558 0.478362
Si Si7 0.357884 0.387558 0.163754
Si Si8 0.346157 0.005969 0.429428
O O1 0.458759 0.159664 0.357466
O O2 0.562783 0.134986 0.465674
O O3 0.561540 0.055229 0.352019
O O4 0.999999 0.126907 0.129103
O O5 0.458759 0.659664 0.183774
O O6 0.561544 0.555228 0.086441
O O7 0.562783 0.634986 0.971544
O O8 0.490733 0.750000 0.261450
O O9 0.497333 0.846196 0.336280
O O10 1.000000 0.811943 0.506264
O O11 0.509267 0.750000 0.752182
O O12 0.502666 0.653804 0.833613
O O13 0.999999 0.017854 0.632845
O O14 0.516522 0.949921 0.886464
O O15 0.641661 0.999999 0.679170
O O16 1.000000 0.891106 0.641921
O O17 0.483476 0.949921 0.402986
#
# Coordination Sequence:
#
# PCOD8069806 Si02
#       8
#     4   4   4   4   4   4   4   4
#     4  11  22  35  56  87 119 142 174 228 287 332
#     4  11  22  35  56  87 119 142 174 228 287 332
#     4  10  21  40  62  79 103 147 197 231 264 324
#     4  10  21  40  62  79 103 147 197 231 264 324
#     4  10  18  34  60  82 110 149 189 223 262 328
#     4   9  19  36  57  83 111 147 185 222 273 331
#     4   9  19  36  57  83 111 147 185 222 273 331
#     4  10  18  34  60  82 110 149 189 223 262 328
#
# _framework density 19.591875000000002
#
# number of rings (size 3 to 8) (size 9 to 14) (size 15 to 20)
#    0.000    2.000    2.500    1.500    0.000    2.000 
#    0.000    6.250    0.000    0.000    0.000    0.000 
#    0.000    0.000    0.000    0.000    0.000    0.000 
#
# Total GULP energy -396822.584518 kJ/mol
# GULP energy per Si atom -12400.705766 kJ/mol
# Density = 1.954728 g / cm^3
# Si number density = 19.591875 Si / 1000 Ang^3
#
#
#
# Elastic Constant Matrix: (Units=GPa)
#
#
# Indices 1 2 3 4 5 6 
#
# 1 88.0710 46.3409 13.1607 0.0000 23.5762 0.0000
# 2 46.3409 149.1303 25.0964 0.0000 21.6207 0.0000
# 3 13.1607 25.0964 42.1679 0.0000 23.1403 0.0000
# 4 0.0000 0.0000 0.0000 6.5700 0.0000 4.0530
# 5 23.5762 21.6207 23.1403 0.0000 26.3153 0.0000
# 6 0.0000 0.0000 0.0000 4.0530 0.0000 10.5542
#
#
#
# Elastic Compliance Matrix: (Units=1/GPa)
#
#
# Indices 1 2 3 4 5 6 
#
# 1 0.017301 -0.003880 0.007085 0.000000 -0.018543 0.000000
# 2 -0.003880 0.008582 -0.003739 0.000000 -0.000286 0.000000
# 3 0.007085 -0.003739 0.049332 0.000000 -0.046655 0.000000
# 4 0.000000 0.000000 0.000000 0.199459 0.000000 -0.076597
# 5 -0.018543 -0.000286 -0.046655 0.000000 0.095875 0.000000
# 6 0.000000 0.000000 0.000000 -0.076597 0.000000 0.124164
#
#
# Mechanical properties :
#
#
# Convention : Reuss Voigt Hill
#
# Bulk Modulus (GPa) = 13.48691 49.84059 31.66375
# Shear Modulus (GPa) = 9.60621 21.67264 15.63943
#
# Velocity S-wave (km/s) = 2.21671 3.32957 2.82842
# Velocity P-wave (km/s) = 3.66751 6.34634 5.18299
#
# Compressibility (1/GPa) = 0.07414596
#
# Stress axis : x y z
#
# Youngs Moduli (GPa) = 57.79943 116.52133 20.27099
#
# Poissons Ratio (x) = 0.45213 -0.14362
# Poissons Ratio (y) = 0.22428 0.07580
# Poissons Ratio (z) = -0.40952 0.43572
#
# Static dielectric constant tensor:
#      x y z
#    x 3.638190 0.000000 0.243780 
#    y 0.000000 3.814080 0.000000 
#    z 0.243780 0.000000 3.398650 
# 
# 
# High freq. dielectric constant tensor:
#      x y z
#    x 1.764130 0.000000 0.022150 
#    y 0.000000 1.765580 0.000000 
#    z 0.022150 0.000000 1.742370 
# 
# From -- ./inp_files/14927.got.cif
#   From: 2010.06.25/outbox.cif.g09.slc.cpg/sg11_8_cif.got.tgz:14927.got - 2010.06.27 23:14:04.
