data_PCOD8069731
_publ_section_title
;
Structure prediction by ZEFSAII (Michael W. Deem and Ramdas Pophale) SiO2 
 PCOD8069731
Probable space group: P 21/M
;
_chemical_formula_sum "Si O2"
_cell_formula_units_Z 24
_cell_length_a 11.552757
_cell_length_b 13.822208
_cell_length_c 19.407740
_cell_angle_alpha 90.000000
_cell_angle_beta 24.317760
_cell_angle_gamma 90.000000
_cell_volume 1276.206772
_symmetry_space_group_name_H-M "P 21/M"
_symmetry_group_IT_number 11
_symmetry_cell_setting 'monoclinic'
loop_
_space_group_symop_operation_xyz
x,y,z
-x,1/2+y,-z
-x,-y,-z
x,1/2-y,z
loop_
_atom_site_type_symbol
_atom_site_label
_atom_site_fract_x
_atom_site_fract_y
_atom_site_fract_z
Si Si1 0.383759 0.250000 0.139312
Si Si2 0.633445 0.250000 0.850712
Si Si3 0.957366 0.750000 0.893548
Si Si4 0.207321 0.750000 0.603752
Si Si5 0.887677 0.440529 0.745644
Si Si6 0.552083 0.458194 0.546270
Si Si7 0.973262 0.038114 0.091155
Si Si8 0.629053 0.440882 0.024670
O O1 0.506236 0.338836 0.117011
O O2 0.047291 0.250000 0.313286
O O3 0.501920 0.250000 0.997769
O O4 0.837211 0.341951 0.730587
O O5 0.380847 0.250000 0.932215
O O6 0.103619 0.750000 0.739277
O O7 0.052921 0.654626 0.884864
O O8 0.397944 0.843454 0.486058
O O9 0.636338 0.511863 0.866927
O O10 0.180252 0.488143 0.564936
O O11 0.880131 0.425161 0.832747
O O12 0.500000 0.500000 0.500000
O O13 0.291041 0.480544 0.736094
O O14 0.000000 0.000000 0.000000
O O15 0.257770 0.005486 0.974877
#
# Coordination Sequence:
#
# PCOD8069731 Si02
#       8
#     2   2   2   2   4   4   4   4
#     4   9  18  30  61  94 123 160 205 270 324 361
#     4   9  18  30  62  94 120 158 212 265 318 377
#     4  11  20  41  67  90 125 178 211 256 332 383
#     4  11  20  37  68  98 126 162 210 277 338 355
#     4  10  18  33  61  93 119 150 215 272 307 358
#     4  12  23  39  63  98 130 160 215 277 315 370
#     4  12  27  43  63  93 138 177 208 258 324 397
#     4  10  18  35  59  90 121 161 210 257 310 376
#
# _framework density 18.805730000000001
#
# number of rings (size 3 to 8) (size 9 to 14) (size 15 to 20)
#    0.000    1.333    6.667    0.000    0.000    3.333 
#    0.000    0.833    0.000    0.000    0.000    0.000 
#    0.000    0.000    0.000    0.000    0.000    0.000 
#
# Total GULP energy -297490.426466 kJ/mol
# GULP energy per Si atom -12395.434436 kJ/mol
# Density = 1.876293 g / cm^3
# Si number density = 18.805730 Si / 1000 Ang^3
#
#
#
# Elastic Constant Matrix: (Units=GPa)
#
#
# Indices 1 2 3 4 5 6 
#
# 1 62.6156 28.9565 41.0769 0.0000 3.4031 0.0000
# 2 28.9565 178.0972 50.0429 0.0000 -4.6806 0.0000
# 3 41.0769 50.0429 90.9845 0.0000 -4.3350 0.0000
# 4 0.0000 0.0000 0.0000 12.7654 0.0000 -1.1859
# 5 3.4031 -4.6806 -4.3350 0.0000 23.5456 0.0000
# 6 0.0000 0.0000 0.0000 -1.1859 0.0000 22.0774
#
#
#
# Elastic Compliance Matrix: (Units=1/GPa)
#
#
# Indices 1 2 3 4 5 6 
#
# 1 0.023516 -0.001078 -0.010287 0.000000 -0.005507 0.000000
# 2 -0.001078 0.006701 -0.003156 0.000000 0.000907 0.000000
# 3 -0.010287 -0.003156 0.017566 0.000000 0.004093 0.000000
# 4 0.000000 0.000000 0.000000 0.078730 0.000000 0.004229
# 5 -0.005507 0.000907 0.004093 0.000000 0.044201 0.000000
# 6 0.000000 0.000000 0.000000 0.004229 0.000000 0.045522
#
#
# Mechanical properties :
#
#
# Convention : Reuss Voigt Hill
#
# Bulk Modulus (GPa) = 53.35428 63.53889 58.44659
# Shear Modulus (GPa) = 19.87892 25.78575 22.83234
#
# Velocity S-wave (km/s) = 3.25478 3.70694 3.48820
# Velocity P-wave (km/s) = 6.52363 7.22373 6.88258
#
# Compressibility (1/GPa) = 0.01874264
#
# Stress axis : x y z
#
# Youngs Moduli (GPa) = 42.52363 149.23845 56.92930
#
# Poissons Ratio (x) = 0.16086 0.58560
# Poissons Ratio (y) = 0.04583 0.17965
# Poissons Ratio (z) = 0.43742 0.47095
#
# Static dielectric constant tensor:
#      x y z
#    x 3.087580 0.000000 -0.428970 
#    y 0.000000 5.522380 0.000000 
#    z -0.428970 0.000000 3.364790 
# 
# 
# High freq. dielectric constant tensor:
#      x y z
#    x 1.694500 0.000000 -0.034740 
#    y 0.000000 1.753310 0.000000 
#    z -0.034740 0.000000 1.714630 
# 
# From -- ./inp_files/64817.got.cif
#   From: 2010.06.25/outbox.cif.g09.slc.cpg/sg11_33_cif.got.tgz:64817.got - 2010.06.27 23:14:04.
