data_PCOD8069004
_publ_section_title
;
Structure prediction by ZEFSAII (Michael W. Deem and Ramdas Pophale) SiO2 
 PCOD8069004
Probable space group: P 21/M
;
_chemical_formula_sum "Si O2"
_cell_formula_units_Z 32
_cell_length_a 26.588097
_cell_length_b 8.970534
_cell_length_c 21.872894
_cell_angle_alpha 90.000000
_cell_angle_beta 19.511680
_cell_angle_gamma 90.000000
_cell_volume 1742.436597
_symmetry_space_group_name_H-M "P 21/M"
_symmetry_group_IT_number 11
_symmetry_cell_setting 'monoclinic'
loop_
_space_group_symop_operation_xyz
x,y,z
-x,1/2+y,-z
-x,-y,-z
x,1/2-y,z
loop_
_atom_site_type_symbol
_atom_site_label
_atom_site_fract_x
_atom_site_fract_y
_atom_site_fract_z
Si Si1 0.139647 0.424179 0.971309
Si Si2 0.838058 0.574663 0.186602
Si Si3 0.785383 0.579519 0.985894
Si Si4 0.677434 0.420689 0.994941
Si Si5 0.891114 0.418337 0.441495
Si Si6 0.800211 0.073334 0.347990
Si Si7 0.333842 0.420622 0.383722
Si Si8 0.053826 0.074629 0.376738
O O1 0.118564 0.250000 0.006601
O O2 0.228799 0.455809 0.805410
O O3 0.232024 0.484030 0.924544
O O4 0.969568 0.488830 0.164315
O O5 0.852522 0.750000 0.182318
O O6 0.739913 0.498035 0.352830
O O7 0.000000 0.500000 0.000000
O O8 0.729201 0.750000 0.043328
O O9 0.687127 0.478204 0.053630
O O10 0.961679 0.568012 0.768810
O O11 0.730817 0.250000 0.932274
O O12 0.507651 0.438680 0.166002
O O13 0.782368 0.514897 0.829637
O O14 0.828714 0.250000 0.510524
O O15 0.762897 0.527526 0.563621
O O16 0.932380 0.464386 0.463433
O O17 0.790728 0.250000 0.353127
O O18 0.696767 0.020654 0.521908
O O19 0.294508 0.250000 0.444168
O O20 0.068528 0.250000 0.369065
O O21 0.000000 0.000000 0.500000
#
# Coordination Sequence:
#
# PCOD8069004 Si02
#       8
#     4   4   4   4   4   4   4   4
#     4   8  14  26  45  69  98 129 166 217 267 311
#     4   9  16  26  41  66  99 134 171 215 268 320
#     4   9  16  31  52  75 101 135 176 218 265 315
#     4  10  22  37  52  78 112 141 173 216 258 305
#     4   9  18  33  55  81 108 136 172 214 256 304
#     4  10  18  30  47  68 100 137 173 219 270 316
#     4  11  22  34  51  77 109 141 176 218 263 309
#     4  10  21  39  63  87 110 140 173 209 251 302
#
# _framework density 18.365086999999999
#
# number of rings (size 3 to 8) (size 9 to 14) (size 15 to 20)
#    0.000    2.500    1.250    3.375    0.000    4.500 
#    0.000    1.875    0.000    0.750    0.000    0.000 
#    0.000    0.000    0.000    0.000    0.000    0.000 
#
# Total GULP energy -396643.233082 kJ/mol
# GULP energy per Si atom -12395.101034 kJ/mol
# Density = 1.832329 g / cm^3
# Si number density = 18.365087 Si / 1000 Ang^3
#
#
#
# Elastic Constant Matrix: (Units=GPa)
#
#
# Indices 1 2 3 4 5 6 
#
# 1 119.1318 53.8005 46.3080 0.0000 22.4836 0.0000
# 2 53.8005 101.1716 39.8765 0.0000 6.9930 0.0000
# 3 46.3080 39.8765 54.9788 0.0000 8.2433 0.0000
# 4 0.0000 0.0000 0.0000 25.1569 0.0000 3.4504
# 5 22.4836 6.9930 8.2433 0.0000 31.1019 0.0000
# 6 0.0000 0.0000 0.0000 3.4504 0.0000 31.6096
#
#
#
# Elastic Compliance Matrix: (Units=1/GPa)
#
#
# Indices 1 2 3 4 5 6 
#
# 1 0.014998 -0.004088 -0.008518 0.000000 -0.007665 0.000000
# 2 -0.004088 0.014962 -0.007651 0.000000 0.001619 0.000000
# 3 -0.008518 -0.007651 0.030962 0.000000 -0.000328 0.000000
# 4 0.000000 0.000000 0.000000 0.040355 0.000000 -0.004405
# 5 -0.007665 0.001619 -0.000328 0.000000 0.037417 0.000000
# 6 0.000000 0.000000 0.000000 -0.004405 0.000000 0.032117
#
#
# Mechanical properties :
#
#
# Convention : Reuss Voigt Hill
#
# Bulk Modulus (GPa) = 49.00299 61.69469 55.34884
# Shear Modulus (GPa) = 22.92225 26.59348 24.75786
#
# Velocity S-wave (km/s) = 3.53674 3.80945 3.67562
# Velocity P-wave (km/s) = 6.58928 7.28118 6.94385
#
# Compressibility (1/GPa) = 0.02040692
#
# Stress axis : x y z
#
# Youngs Moduli (GPa) = 66.67469 66.83545 32.29731
#
# Poissons Ratio (x) = 0.27325 0.27511
# Poissons Ratio (y) = 0.27259 0.24712
# Poissons Ratio (z) = 0.56795 0.51138
#
# Static dielectric constant tensor:
#      x y z
#    x 3.712160 0.000000 0.241340 
#    y 0.000000 3.403420 0.000000 
#    z 0.241340 0.000000 3.064060 
# 
# 
# High freq. dielectric constant tensor:
#      x y z
#    x 1.717580 0.000000 0.017790 
#    y 0.000000 1.711170 0.000000 
#    z 0.017790 0.000000 1.673380 
# 
# From -- ./inp_files/66978.got.cif
#   From: 2010.06.25/outbox.cif.g09.slc.cpg/sg11_34_cif.got.tgz:66978.got - 2010.06.27 23:14:04.
