data_PCOD8069637
_publ_section_title
;
Structure prediction by ZEFSAII (Michael W. Deem and Ramdas Pophale) SiO2 
 PCOD8069637
Probable space group: P 21/M
;
_chemical_formula_sum "Si O2"
_cell_formula_units_Z 32
_cell_length_a 26.222951
_cell_length_b 8.711465
_cell_length_c 20.252510
_cell_angle_alpha 90.000000
_cell_angle_beta 21.451238
_cell_angle_gamma 90.000000
_cell_volume 1691.950162
_symmetry_space_group_name_H-M "P 21/M"
_symmetry_group_IT_number 11
_symmetry_cell_setting 'monoclinic'
loop_
_space_group_symop_operation_xyz
x,y,z
-x,1/2+y,-z
-x,-y,-z
x,1/2-y,z
loop_
_atom_site_type_symbol
_atom_site_label
_atom_site_fract_x
_atom_site_fract_y
_atom_site_fract_z
Si Si1 0.347898 0.432172 0.693651
Si Si2 0.587616 0.072139 0.991835
Si Si3 0.411288 0.431662 0.873976
Si Si4 0.280033 0.567590 0.524907
Si Si5 0.315002 0.928341 0.265722
Si Si6 0.912357 0.069403 0.359592
Si Si7 0.777599 0.567585 0.015974
Si Si8 0.846304 0.067542 0.184421
O O1 0.500000 0.500000 0.500000
O O2 0.352924 0.250000 0.680337
O O3 0.297246 0.484129 0.826819
O O4 0.238853 0.499914 0.773602
O O5 0.592751 0.250000 0.002471
O O6 0.643674 0.981820 0.987928
O O7 0.429743 0.026553 0.165619
O O8 0.686871 0.031049 0.809804
O O9 0.413124 0.250000 0.867891
O O10 0.565815 0.498733 0.674519
O O11 0.308740 0.499406 0.941778
O O12 0.283640 0.750000 0.515669
O O13 0.174932 0.499762 0.596498
O O14 0.230490 0.513866 0.656409
O O15 0.353890 0.750000 0.229829
O O16 0.165019 0.967832 0.477957
O O17 0.925573 0.250000 0.332911
O O18 0.066558 0.996474 0.174863
O O19 0.784240 0.750000 0.003766
O O20 0.853050 0.250000 0.170681
O O21 0.000000 0.000000 0.000000
#
# Coordination Sequence:
#
# PCOD8069637 Si02
#       8
#     4   4   4   4   4   4   4   4
#     4  11  22  39  60  82 109 145 188 234 281 334
#     4  10  19  30  48  78 109 134 166 215 266 311
#     4  10  18  33  54  76  99 133 178 220 255 303
#     4   9  17  30  53  76  99 134 179 220 256 309
#     4   9  17  31  53  76 102 137 175 210 254 314
#     4   9  15  29  53  78  99 130 178 221 252 296
#     4   9  19  33  54  79 103 135 181 224 258 311
#     4  11  22  37  57  84 114 145 182 230 282 335
#
# _framework density 18.913086
#
# number of rings (size 3 to 8) (size 9 to 14) (size 15 to 20)
#    0.000    2.250    1.250    2.625    0.000    4.500 
#    0.000    4.375    0.000    1.500    0.000    0.000 
#    0.000    0.000    0.000    0.000    0.000    0.000 
#
# Total GULP energy -396782.931274 kJ/mol
# GULP energy per Si atom -12399.466602 kJ/mol
# Density = 1.887004 g / cm^3
# Si number density = 18.913086 Si / 1000 Ang^3
#
#
#
# Elastic Constant Matrix: (Units=GPa)
#
#
# Indices 1 2 3 4 5 6 
#
# 1 184.6098 28.9490 92.0593 0.0000 0.0031 0.0000
# 2 28.9490 34.2947 25.6676 0.0000 1.5488 0.0000
# 3 92.0593 25.6676 137.5371 0.0000 -3.4283 0.0000
# 4 0.0000 0.0000 0.0000 20.8917 0.0000 3.6124
# 5 0.0031 1.5488 -3.4283 0.0000 38.1470 0.0000
# 6 0.0000 0.0000 0.0000 3.6124 0.0000 26.2670
#
#
#
# Elastic Compliance Matrix: (Units=1/GPa)
#
#
# Indices 1 2 3 4 5 6 
#
# 1 0.008457 -0.003350 -0.005044 0.000000 -0.000318 0.000000
# 2 -0.003350 0.035365 -0.004403 0.000000 -0.001831 0.000000
# 3 -0.005044 -0.004403 0.011499 0.000000 0.001213 0.000000
# 4 0.000000 0.000000 0.000000 0.049032 0.000000 -0.006743
# 5 -0.000318 -0.001831 0.001213 0.000000 0.026398 0.000000
# 6 0.000000 0.000000 0.000000 -0.006743 0.000000 0.038998
#
#
# Mechanical properties :
#
#
# Convention : Reuss Voigt Hill
#
# Bulk Modulus (GPa) = 33.63898 72.19924 52.91911
# Shear Modulus (GPa) = 24.36041 31.04551 27.70296
#
# Velocity S-wave (km/s) = 3.59279 4.05592 3.83136
# Velocity P-wave (km/s) = 5.91908 7.75829 6.90024
#
# Compressibility (1/GPa) = 0.02972742
#
# Stress axis : x y z
#
# Youngs Moduli (GPa) = 118.24296 28.27647 86.96706
#
# Poissons Ratio (x) = 0.09472 0.43862
# Poissons Ratio (y) = 0.39609 0.38296
# Poissons Ratio (z) = 0.59636 0.12451
#
# Static dielectric constant tensor:
#      x y z
#    x 3.664350 0.000000 0.093620 
#    y 0.000000 3.128890 0.000000 
#    z 0.093620 0.000000 3.659570 
# 
# 
# High freq. dielectric constant tensor:
#      x y z
#    x 1.745310 0.000000 0.011370 
#    y 0.000000 1.697720 0.000000 
#    z 0.011370 0.000000 1.739260 
# 
# From -- ./inp_files/66940.got.cif
#   From: 2010.06.25/outbox.cif.g09.slc.cpg/sg11_34_cif.got.tgz:66940.got - 2010.06.27 23:14:04.
