data_PCOD8069025
_publ_section_title
;
Structure prediction by ZEFSAII (Michael W. Deem and Ramdas Pophale) SiO2 
 PCOD8069025
Probable space group: P 21/M
;
_chemical_formula_sum "Si O2"
_cell_formula_units_Z 28
_cell_length_a 15.756769
_cell_length_b 13.632042
_cell_length_c 15.227509
_cell_angle_alpha 90.000000
_cell_angle_beta 25.840603
_cell_angle_gamma 90.000000
_cell_volume 1425.650061
_symmetry_space_group_name_H-M "P 21/M"
_symmetry_group_IT_number 11
_symmetry_cell_setting 'monoclinic'
loop_
_space_group_symop_operation_xyz
x,y,z
-x,1/2+y,-z
-x,-y,-z
x,1/2-y,z
loop_
_atom_site_type_symbol
_atom_site_label
_atom_site_fract_x
_atom_site_fract_y
_atom_site_fract_z
Si Si1 0.669238 0.551793 0.453412
Si Si2 0.707701 0.022719 0.847150
Si Si3 0.055337 0.135284 0.449230
Si Si4 0.209331 0.142159 0.489626
Si Si5 0.066147 0.862471 0.029197
Si Si6 0.633548 0.360376 0.392088
Si Si7 0.234819 0.857952 0.044067
O O1 0.661920 0.573304 0.565668
O O2 0.611013 0.437828 0.492553
O O3 0.528950 0.623676 0.530760
O O4 0.883333 0.567136 0.213169
O O5 0.664476 0.063041 0.985607
O O6 0.831369 0.103313 0.675929
O O7 0.844968 0.925038 0.723398
O O8 0.500000 0.000000 0.000000
O O9 0.056737 0.250000 0.426272
O O10 0.195008 0.106728 0.402094
O O11 0.305228 0.250000 0.403627
O O12 0.993203 0.146844 0.725889
O O13 0.000409 0.750000 0.106969
O O14 0.154684 0.875205 0.849812
O O15 0.242352 0.888939 0.934447
O O16 0.612089 0.250000 0.449747
O O17 0.327270 0.750000 0.975323
#
# Coordination Sequence:
#
# PCOD8069025 Si02
#       7
#     4   4   4   4   4   4   4
#     4  10  18  30  48  68  95 126 152 192 237 273
#     4  10  19  30  48  75 101 125 154 195 246 295
#     4   9  19  34  50  71  98 127 162 202 241 286
#     4   8  14  28  50  70  89 118 156 195 235 277
#     4   9  17  31  51  72  93 118 152 194 237 278
#     4  10  20  30  44  71  98 122 157 193 230 281
#     4   8  15  29  49  72  96 120 151 195 238 278
#
# _framework density 19.640163000000001
#
# number of rings (size 3 to 8) (size 9 to 14) (size 15 to 20)
#    0.000    2.857    0.000    3.857    0.000    2.286 
#    0.000    2.857    0.000   14.571    0.000    4.000 
#    0.000    0.000    0.000    0.000    0.000    0.000 
#
# Total GULP energy -346906.330924 kJ/mol
# GULP energy per Si atom -12389.511819 kJ/mol
# Density = 1.959546 g / cm^3
# Si number density = 19.640163 Si / 1000 Ang^3
#
#
#
# Elastic Constant Matrix: (Units=GPa)
#
#
# Indices 1 2 3 4 5 6 
#
# 1 73.0787 40.6522 8.5717 0.0000 -8.7440 0.0000
# 2 40.6522 120.6886 7.1996 0.0000 -0.9622 0.0000
# 3 8.5717 7.1996 27.8435 0.0000 -15.3231 0.0000
# 4 0.0000 0.0000 0.0000 -2.0981 0.0000 -0.4827
# 5 -8.7440 -0.9622 -15.3231 0.0000 27.1039 0.0000
# 6 0.0000 0.0000 0.0000 -0.4827 0.0000 32.4200
#
#
#
# Elastic Compliance Matrix: (Units=1/GPa)
#
#
# Indices 1 2 3 4 5 6 
#
# 1 0.017648 -0.005828 -0.001316 0.000000 0.004742 0.000000
# 2 -0.005828 0.010375 -0.002497 0.000000 -0.002924 0.000000
# 3 -0.001316 -0.002497 0.053251 0.000000 0.029592 0.000000
# 4 0.000000 0.000000 0.000000 -0.475005 0.000000 -0.007072
# 5 0.004742 -0.002924 0.029592 0.000000 0.055051 0.000000
# 6 0.000000 0.000000 0.000000 -0.007072 0.000000 0.030740
#
#
# Mechanical properties :
#
#
# Convention : Reuss Voigt Hill
#
# Bulk Modulus (GPa) = 16.13148 37.16198 26.64673
# Shear Modulus (GPa) = -18.65714 22.49766 1.92026
#
# Velocity S-wave (km/s) = -3.08547 3.38818 0.98987
# Velocity P-wave (km/s) = 2.11237 5.85396 3.86049
#
# Compressibility (1/GPa) = 0.06199058
#
# Stress axis : x y z
#
# Youngs Moduli (GPa) = 56.66448 96.38957 18.77884
#
# Poissons Ratio (x) = 0.56177 0.02471
# Poissons Ratio (y) = 0.33024 0.04690
# Poissons Ratio (z) = 0.07457 0.24073
#
# Static dielectric constant tensor:
#      x y z
#    x 3.794150 0.000000 0.150600 
#    y 0.000000 3.607230 0.000000 
#    z 0.150600 0.000000 3.505030 
# 
# 
# High freq. dielectric constant tensor:
#      x y z
#    x 1.743270 0.000000 -0.011530 
#    y 0.000000 1.749730 0.000000 
#    z -0.011530 0.000000 1.765270 
# 
# From -- ./inp_files/52452.got.cif
#   From: 2010.06.25/outbox.cif.g09.slc.cpg/sg11_27_cif.got.tgz:52452.got - 2010.06.27 23:14:04.
