data_PCOD8069183
_publ_section_title
;
Structure prediction by ZEFSAII (Michael W. Deem and Ramdas Pophale) SiO2 
 PCOD8069183
Probable space group: P 21/M
;
_chemical_formula_sum "Si O2"
_cell_formula_units_Z 28
_cell_length_a 14.951491
_cell_length_b 8.449225
_cell_length_c 19.139793
_cell_angle_alpha 90.000000
_cell_angle_beta 37.686198
_cell_angle_gamma 90.000000
_cell_volume 1478.151295
_symmetry_space_group_name_H-M "P 21/M"
_symmetry_group_IT_number 11
_symmetry_cell_setting 'monoclinic'
loop_
_space_group_symop_operation_xyz
x,y,z
-x,1/2+y,-z
-x,-y,-z
x,1/2-y,z
loop_
_atom_site_type_symbol
_atom_site_label
_atom_site_fract_x
_atom_site_fract_y
_atom_site_fract_z
Si Si1 0.008560 0.566615 0.207981
Si Si2 0.319393 0.435050 0.349658
Si Si3 0.612178 0.937360 0.130714
Si Si4 0.216983 0.061483 0.263710
Si Si5 0.097826 0.565000 0.594841
Si Si6 0.309863 0.067387 0.063498
Si Si7 0.941677 0.935721 0.963810
O O1 0.052457 0.750000 0.184760
O O2 0.140802 0.451709 0.147407
O O3 0.964834 0.520334 0.155791
O O4 0.882979 0.526506 0.342736
O O5 0.287633 0.250000 0.375158
O O6 0.491505 0.472082 0.251154
O O7 0.267119 0.506478 0.307162
O O8 0.236323 0.524570 0.462053
O O9 0.585751 0.750000 0.150112
O O10 0.597538 0.003893 0.058829
O O11 0.770577 0.981230 0.063284
O O12 0.226070 0.250000 0.258348
O O13 0.324356 0.995597 0.133709
O O14 0.050183 0.006724 0.352906
O O15 0.094298 0.750000 0.611790
O O16 0.347999 0.250000 0.043559
O O17 0.966795 0.750000 0.943197
O O18 0.000000 0.000000 0.000000
#
# Coordination Sequence:
#
# PCOD8069183 Si02
#       7
#     4   4   4   4   4   4   4
#     4  10  18  30  51  79 105 128 162 206 251 297
#     4  11  21  31  46  71 102 135 175 219 256 294
#     4   9  19  34  50  71 102 137 167 198 248 309
#     4   8  16  30  48  70  96 130 174 222 261 292
#     4  10  19  34  52  68  96 138 179 215 254 297
#     4   8  15  31  50  67  95 134 172 210 253 300
#     4  10  20  36  59  84 107 130 160 199 245 300
#
# _framework density 18.94258
#
# number of rings (size 3 to 8) (size 9 to 14) (size 15 to 20)
#    0.000    2.571    0.000    4.714    0.000    3.429 
#    0.000    6.429    0.000    0.857    0.000    0.000 
#    0.000    0.000    0.000    0.000    0.000    0.000 
#
# Total GULP energy -346945.598153 kJ/mol
# GULP energy per Si atom -12390.914220 kJ/mol
# Density = 1.889947 g / cm^3
# Si number density = 18.942580 Si / 1000 Ang^3
#
#
#
# Elastic Constant Matrix: (Units=GPa)
#
#
# Indices 1 2 3 4 5 6 
#
# 1 83.8499 23.3202 36.6115 0.0000 23.6072 0.0000
# 2 23.3202 48.0669 17.2966 0.0000 3.2797 0.0000
# 3 36.6115 17.2966 87.9230 0.0000 14.9346 0.0000
# 4 0.0000 0.0000 0.0000 23.1260 0.0000 4.7078
# 5 23.6072 3.2797 14.9346 0.0000 26.8223 0.0000
# 6 0.0000 0.0000 0.0000 4.7078 0.0000 21.5206
#
#
#
# Elastic Compliance Matrix: (Units=1/GPa)
#
#
# Indices 1 2 3 4 5 6 
#
# 1 0.019797 -0.007036 -0.004468 0.000000 -0.014076 0.000000
# 2 -0.007036 0.024893 -0.002763 0.000000 0.004688 0.000000
# 3 -0.004468 -0.002763 0.014416 0.000000 -0.003756 0.000000
# 4 0.000000 0.000000 0.000000 0.045257 0.000000 -0.009900
# 5 -0.014076 0.004688 -0.003756 0.000000 0.051189 0.000000
# 6 0.000000 0.000000 0.000000 -0.009900 0.000000 0.048633
#
#
# Mechanical properties :
#
#
# Convention : Reuss Voigt Hill
#
# Bulk Modulus (GPa) = 32.71261 41.58849 37.15055
# Shear Modulus (GPa) = 20.58377 23.80121 22.19249
#
# Velocity S-wave (km/s) = 3.30000 3.54855 3.42653
# Velocity P-wave (km/s) = 5.64153 6.22835 5.94219
#
# Compressibility (1/GPa) = 0.03056925
#
# Stress axis : x y z
#
# Youngs Moduli (GPa) = 50.51293 40.17254 69.36800
#
# Poissons Ratio (x) = 0.28267 0.30997
# Poissons Ratio (y) = 0.35543 0.19168
# Poissons Ratio (z) = 0.22571 0.11101
#
# Static dielectric constant tensor:
#      x y z
#    x 3.399000 0.000000 0.339060 
#    y 0.000000 3.214060 0.000000 
#    z 0.339060 0.000000 3.757010 
# 
# 
# High freq. dielectric constant tensor:
#      x y z
#    x 1.698670 0.000000 0.024260 
#    y 0.000000 1.725130 0.000000 
#    z 0.024260 0.000000 1.743350 
# 
# From -- ./inp_files/53240.got.cif
#   From: 2010.06.25/outbox.cif.g09.slc.cpg/sg11_27_cif.got.tgz:53240.got - 2010.06.27 23:14:04.
