data_PCOD8069323
_publ_section_title
;
Structure prediction by ZEFSAII (Michael W. Deem and Ramdas Pophale) SiO2 
 PCOD8069323
Probable space group: P 21/M
;
_chemical_formula_sum "Si O2"
_cell_formula_units_Z 32
_cell_length_a 11.394892
_cell_length_b 19.039231
_cell_length_c 9.965490
_cell_angle_alpha 90.000000
_cell_angle_beta 119.158066
_cell_angle_gamma 90.000000
_cell_volume 1888.040220
_symmetry_space_group_name_H-M "P 21/M"
_symmetry_group_IT_number 11
_symmetry_cell_setting 'monoclinic'
loop_
_space_group_symop_operation_xyz
x,y,z
-x,1/2+y,-z
-x,-y,-z
x,1/2-y,z
loop_
_atom_site_type_symbol
_atom_site_label
_atom_site_fract_x
_atom_site_fract_y
_atom_site_fract_z
Si Si1 0.492560 0.669713 0.802465
Si Si2 0.438900 0.174499 0.454545
Si Si3 0.875803 0.552098 0.291792
Si Si4 0.800383 0.830863 0.042940
Si Si5 0.412366 0.464084 0.562421
Si Si6 0.129067 0.172827 0.209574
Si Si7 0.106879 0.447918 0.391127
Si Si8 0.395856 0.527808 0.835204
O O1 0.449715 0.750000 0.814286
O O2 0.477842 0.656694 0.634310
O O3 0.397300 0.612955 0.824237
O O4 0.643267 0.654718 0.935085
O O5 0.486200 0.250000 0.538274
O O6 0.456006 0.117967 0.582237
O O7 0.285275 0.178891 0.326653
O O8 0.853832 0.621201 0.192537
O O9 0.895960 0.577637 0.455986
O O10 0.753454 0.497021 0.211841
O O11 0.008153 0.513077 0.312320
O O12 0.824690 0.750000 0.096605
O O13 0.883684 0.849319 0.954013
O O14 0.500000 0.500000 0.500000
O O15 0.256099 0.473883 0.436812
O O16 0.447747 0.494239 0.725947
O O17 0.062761 0.250000 0.195763
O O18 0.059888 0.115918 0.268585
O O19 0.500000 0.500000 0.000000
#
# Coordination Sequence:
#
# PCOD8069323 Si02
#       8
#     4   4   4   4   4   4   4   4
#     4   9  16  29  48  72 100 127 162 205 249 298
#     4   8  14  27  48  72  96 122 161 210 251 288
#     4  10  20  34  48  71 107 136 165 200 244 306
#     4   9  17  30  51  75  97 126 165 209 250 292
#     4  10  18  31  52  74  97 129 168 215 250 291
#     4   8  15  29  49  72  95 123 165 208 245 289
#     4   9  20  33  48  72 103 133 164 203 247 293
#     4  11  20  31  49  75 103 132 165 204 250 299
#
# _framework density 16.948792000000001
#
# number of rings (size 3 to 8) (size 9 to 14) (size 15 to 20)
#    0.000    2.750    2.500    1.500    0.000    1.000 
#    0.000    3.125    0.000    5.250    0.000    0.000 
#    0.000    0.000    0.000    0.000    0.000    0.000 
#
# Total GULP energy -396605.816912 kJ/mol
# GULP energy per Si atom -12393.931778 kJ/mol
# Density = 1.691022 g / cm^3
# Si number density = 16.948792 Si / 1000 Ang^3
#
#
#
# Elastic Constant Matrix: (Units=GPa)
#
#
# Indices 1 2 3 4 5 6 
#
# 1 74.3630 52.7308 32.2196 0.0000 -9.2968 0.0000
# 2 52.7308 136.7260 58.4763 0.0000 -12.2692 0.0000
# 3 32.2196 58.4763 77.4079 0.0000 -9.2018 0.0000
# 4 0.0000 0.0000 0.0000 31.5666 0.0000 -4.2941
# 5 -9.2968 -12.2692 -9.2018 0.0000 14.5563 0.0000
# 6 0.0000 0.0000 0.0000 -4.2941 0.0000 25.6383
#
#
#
# Elastic Compliance Matrix: (Units=1/GPa)
#
#
# Indices 1 2 3 4 5 6 
#
# 1 0.019560 -0.005673 -0.003178 0.000000 0.005702 0.000000
# 2 -0.005673 0.012701 -0.006911 0.000000 0.002714 0.000000
# 3 -0.003178 -0.006911 0.020034 0.000000 0.004809 0.000000
# 4 0.000000 0.000000 0.000000 0.032418 0.000000 0.005430
# 5 0.005702 0.002714 0.004809 0.000000 0.077668 0.000000
# 6 0.000000 0.000000 0.000000 0.005430 0.000000 0.039914
#
#
# Mechanical properties :
#
#
# Convention : Reuss Voigt Hill
#
# Bulk Modulus (GPa) = 48.14425 63.92783 56.03604
# Shear Modulus (GPa) = 20.76914 24.02357 22.39636
#
# Velocity S-wave (km/s) = 3.50438 3.76895 3.63907
# Velocity P-wave (km/s) = 6.69639 7.53260 7.12677
#
# Compressibility (1/GPa) = 0.02077091
#
# Stress axis : x y z
#
# Youngs Moduli (GPa) = 51.12484 78.73475 49.91522
#
# Poissons Ratio (x) = 0.44663 0.15865
# Poissons Ratio (y) = 0.29001 0.34496
# Poissons Ratio (z) = 0.16250 0.54413
#
# Static dielectric constant tensor:
#      x y z
#    x 3.134350 0.000000 -0.381370 
#    y 0.000000 4.096530 0.000000 
#    z -0.381370 0.000000 3.693830 
# 
# 
# High freq. dielectric constant tensor:
#      x y z
#    x 1.627420 0.000000 -0.017930 
#    y 0.000000 1.663260 0.000000 
#    z -0.017930 0.000000 1.635520 
# 
# From -- ./inp_files/19192.got.cif
#   From: 2010.06.25/outbox.cif.g09.slc.cpg/sg11_10_cif.got.tgz:19192.got - 2010.06.27 23:14:04.
