data_PCOD8069560
_publ_section_title
;
Structure prediction by ZEFSAII (Michael W. Deem and Ramdas Pophale) SiO2 
 PCOD8069560
Probable space group: P 21/M
;
_chemical_formula_sum "Si O2"
_cell_formula_units_Z 32
_cell_length_a 20.518679
_cell_length_b 8.584985
_cell_length_c 25.967575
_cell_angle_alpha 90.000000
_cell_angle_beta 158.243824
_cell_angle_gamma 90.000000
_cell_volume 1695.482014
_symmetry_space_group_name_H-M "P 21/M"
_symmetry_group_IT_number 11
_symmetry_cell_setting 'monoclinic'
loop_
_space_group_symop_operation_xyz
x,y,z
-x,1/2+y,-z
-x,-y,-z
x,1/2-y,z
loop_
_atom_site_type_symbol
_atom_site_label
_atom_site_fract_x
_atom_site_fract_y
_atom_site_fract_z
Si Si1 0.395793 0.065497 0.818144
Si Si2 0.777196 0.935230 0.113945
Si Si3 0.865481 0.065459 0.288776
Si Si4 0.277489 0.932006 0.215358
Si Si5 0.571453 0.434014 0.499288
Si Si6 0.065438 0.066625 0.972645
Si Si7 0.032610 0.565410 0.211109
Si Si8 0.130986 0.935095 0.553640
O O1 0.385334 0.250000 0.812672
O O2 0.288550 0.999177 0.787905
O O3 0.321197 0.002234 0.708682
O O4 0.592136 0.006948 0.963753
O O5 0.763795 0.750000 0.107927
O O6 0.915164 0.992074 0.172336
O O7 0.838730 0.006382 0.212224
O O8 0.860938 0.250000 0.288310
O O9 0.058612 0.001391 0.446621
O O10 0.313107 0.750000 0.242657
O O11 0.118289 0.981071 0.135858
O O12 0.454006 0.015328 0.364461
O O13 0.228796 0.984757 0.121582
O O14 0.500000 0.500000 0.500000
O O15 0.571815 0.250000 0.503792
O O16 0.769415 0.498612 0.636359
O O17 0.096627 0.250000 0.998880
O O18 0.055100 0.004835 0.906461
O O19 0.038780 0.750000 0.213050
O O20 0.134091 0.750000 0.555170
O O21 0.000000 0.000000 0.500000
#
# Coordination Sequence:
#
# PCOD8069560 Si02
#       8
#     4   4   4   4   4   4   4   4
#     4  11  21  36  57  84 114 146 186 232 280 332
#     4  11  22  38  57  79 108 149 193 232 278 333
#     4  11  21  36  57  84 115 147 185 233 282 329
#     4  10  19  32  53  84 113 138 177 223 270 322
#     4  11  20  35  57  84 110 142 180 223 272 326
#     4   9  17  34  55  78 108 141 178 220 268 323
#     4   9  20  38  58  78 108 146 187 228 274 335
#     4  10  18  32  55  84 112 142 181 226 275 327
#
# _framework density 18.873688000000001
#
# number of rings (size 3 to 8) (size 9 to 14) (size 15 to 20)
#    0.000    1.750    1.250    6.375    0.000    0.500 
#    0.000    5.000    0.000    3.000    0.000    0.000 
#    0.000    0.000    0.000    0.000    0.000    0.000 
#
# Total GULP energy -396782.083874 kJ/mol
# GULP energy per Si atom -12399.440121 kJ/mol
# Density = 1.883073 g / cm^3
# Si number density = 18.873688 Si / 1000 Ang^3
#
#
#
# Elastic Constant Matrix: (Units=GPa)
#
#
# Indices 1 2 3 4 5 6 
#
# 1 221.9024 40.7528 33.2575 0.0000 -95.5018 0.0000
# 2 40.7528 120.3922 61.7579 0.0000 -0.0180 0.0000
# 3 33.2575 61.7579 213.1986 0.0000 22.2844 0.0000
# 4 0.0000 0.0000 0.0000 34.6001 0.0000 -7.3797
# 5 -95.5018 -0.0180 22.2844 0.0000 97.3254 0.0000
# 6 0.0000 0.0000 0.0000 -7.3797 0.0000 25.1268
#
#
#
# Elastic Compliance Matrix: (Units=1/GPa)
#
#
# Indices 1 2 3 4 5 6 
#
# 1 0.009279 -0.002216 -0.001800 0.000000 0.009517 0.000000
# 2 -0.002216 0.010327 -0.002478 0.000000 -0.001605 0.000000
# 3 -0.001800 -0.002478 0.006018 0.000000 -0.003145 0.000000
# 4 0.000000 0.000000 0.000000 0.030833 0.000000 0.009056
# 5 0.009517 -0.001605 -0.003145 0.000000 0.020334 0.000000
# 6 0.000000 0.000000 0.000000 0.009056 0.000000 0.042458
#
#
# Mechanical properties :
#
#
# Convention : Reuss Voigt Hill
#
# Bulk Modulus (GPa) = 79.14243 91.89218 85.51731
# Shear Modulus (GPa) = 36.64355 59.39212 48.01784
#
# Velocity S-wave (km/s) = 4.41104 5.61574 5.04945
# Velocity P-wave (km/s) = 8.24420 9.53113 8.91092
#
# Compressibility (1/GPa) = 0.01263545
#
# Stress axis : x y z
#
# Youngs Moduli (GPa) = 107.76655 96.83098 166.17229
#
# Poissons Ratio (x) = 0.21459 0.29917
# Poissons Ratio (y) = 0.23882 0.41178
# Poissons Ratio (z) = 0.19402 0.23995
#
# Static dielectric constant tensor:
#      x y z
#    x 3.439300 0.000000 -0.283960 
#    y 0.000000 2.864800 0.000000 
#    z -0.283960 0.000000 3.992030 
# 
# 
# High freq. dielectric constant tensor:
#      x y z
#    x 1.708260 0.000000 -0.024500 
#    y 0.000000 1.737300 0.000000 
#    z -0.024500 0.000000 1.748670 
# 
# From -- ./inp_files/72220.got.cif
#   From: 2010.06.25/outbox.cif.g09.slc.cpg/sg11_37_cif.got.tgz:72220.got - 2010.06.27 23:14:04.
