data_PCOD8069151
_publ_section_title
;
Structure prediction by ZEFSAII (Michael W. Deem and Ramdas Pophale) SiO2 
 PCOD8069151
Probable space group: P 21/M
;
_chemical_formula_sum "Si O2"
_cell_formula_units_Z 32
_cell_length_a 8.941129
_cell_length_b 18.798749
_cell_length_c 20.521116
_cell_angle_alpha 90.000000
_cell_angle_beta 148.838432
_cell_angle_gamma 90.000000
_cell_volume 1784.815446
_symmetry_space_group_name_H-M "P 21/M"
_symmetry_group_IT_number 11
_symmetry_cell_setting 'monoclinic'
loop_
_space_group_symop_operation_xyz
x,y,z
-x,1/2+y,-z
-x,-y,-z
x,1/2-y,z
loop_
_atom_site_type_symbol
_atom_site_label
_atom_site_fract_x
_atom_site_fract_y
_atom_site_fract_z
Si Si1 0.671173 0.971446 0.625550
Si Si2 0.388769 0.168974 0.992939
Si Si3 0.881033 0.614256 0.980438
Si Si4 0.318501 0.528509 0.622709
Si Si5 0.284755 0.458215 0.870610
Si Si6 0.595491 0.467618 0.854417
Si Si7 0.942085 0.669425 0.751524
Si Si8 0.591240 0.670932 0.747197
O O1 0.473087 0.988661 0.613096
O O2 0.741406 0.887588 0.638651
O O3 0.500000 0.000000 0.500000
O O4 0.968860 0.009125 0.754322
O O5 0.369709 0.250000 0.963205
O O6 0.272764 0.122839 0.889953
O O7 0.177058 0.155927 0.974786
O O8 0.722353 0.149360 0.134295
O O9 0.775995 0.533565 0.949740
O O10 0.720804 0.659820 0.866420
O O11 0.218189 0.604544 0.087417
O O12 0.462059 0.487283 0.735602
O O13 0.335503 0.613970 0.639935
O O14 0.000000 0.500000 0.500000
O O15 0.364943 0.453607 0.824658
O O16 0.500000 0.500000 0.000000
O O17 0.878936 0.750000 0.702913
O O18 0.857372 0.661735 0.796065
O O19 0.455623 0.750000 0.691628
#
# Coordination Sequence:
#
# PCOD8069151 Si02
#       8
#     4   4   4   4   4   4   4   4
#     4  11  22  37  59  85 113 152 196 242 289 345
#     4  11  21  33  53  84 120 150 185 238 295 343
#     4  10  18  30  50  80 112 142 176 227 281 337
#     4  10  21  36  56  80 114 149 192 238 282 342
#     4  12  21  36  60  85 113 148 194 238 284 337
#     4  10  20  32  55  81 109 143 188 229 282 328
#     4   9  18  34  55  82 111 145 186 234 288 344
#     4   9  18  32  53  78 107 141 182 230 283 341
#
# _framework density 17.929026
#
# number of rings (size 3 to 8) (size 9 to 14) (size 15 to 20)
#    0.000    1.750    2.500    2.625    3.500    1.000 
#    0.000    1.250    0.000    6.000    0.000    0.000 
#    0.000    0.000    0.000    0.000    0.000    0.000 
#
# Total GULP energy -396642.186840 kJ/mol
# GULP energy per Si atom -12395.068339 kJ/mol
# Density = 1.788822 g / cm^3
# Si number density = 17.929026 Si / 1000 Ang^3
#
#
#
# Elastic Constant Matrix: (Units=GPa)
#
#
# Indices 1 2 3 4 5 6 
#
# 1 116.7629 53.0145 43.6685 0.0000 0.2224 0.0000
# 2 53.0145 112.4789 58.2708 0.0000 0.2484 0.0000
# 3 43.6685 58.2708 94.7219 0.0000 3.0922 0.0000
# 4 0.0000 0.0000 0.0000 22.9643 0.0000 1.3314
# 5 0.2224 0.2484 3.0922 0.0000 34.8416 0.0000
# 6 0.0000 0.0000 0.0000 1.3314 0.0000 27.9375
#
#
#
# Elastic Compliance Matrix: (Units=1/GPa)
#
#
# Indices 1 2 3 4 5 6 
#
# 1 0.011403 -0.003887 -0.002873 0.000000 0.000210 0.000000
# 2 -0.003887 0.014388 -0.007077 0.000000 0.000550 0.000000
# 3 -0.002873 -0.007077 0.016280 0.000000 -0.001376 0.000000
# 4 0.000000 0.000000 0.000000 0.043666 0.000000 -0.002081
# 5 0.000210 0.000550 -0.001376 0.000000 0.028818 0.000000
# 6 0.000000 0.000000 0.000000 -0.002081 0.000000 0.035893
#
#
# Mechanical properties :
#
#
# Convention : Reuss Voigt Hill
#
# Bulk Modulus (GPa) = 69.45579 70.43015 69.94297
# Shear Modulus (GPa) = 27.33415 28.41602 27.87508
#
# Velocity S-wave (km/s) = 3.90882 3.98542 3.94730
# Velocity P-wave (km/s) = 7.69384 7.78114 7.73761
#
# Compressibility (1/GPa) = 0.01439765
#
# Stress axis : x y z
#
# Youngs Moduli (GPa) = 87.69532 69.50418 61.42426
#
# Poissons Ratio (x) = 0.27015 0.17646
# Poissons Ratio (y) = 0.34085 0.43470
# Poissons Ratio (z) = 0.25193 0.49188
#
# Static dielectric constant tensor:
#      x y z
#    x 3.506290 0.000000 0.057210 
#    y 0.000000 3.518070 0.000000 
#    z 0.057210 0.000000 3.121000 
# 
# 
# High freq. dielectric constant tensor:
#      x y z
#    x 1.712930 0.000000 0.002650 
#    y 0.000000 1.695970 0.000000 
#    z 0.002650 0.000000 1.659790 
# 
# From -- ./inp_files/64007.got.cif
#   From: 2010.06.25/outbox.cif.g09.slc.cpg/sg11_33_cif.got.tgz:64007.got - 2010.06.27 23:14:04.
