data_PCOD8069697
_publ_section_title
;
Structure prediction by ZEFSAII (Michael W. Deem and Ramdas Pophale) SiO2 
 PCOD8069697
Probable space group: P 21/M
;
_chemical_formula_sum "Si O2"
_cell_formula_units_Z 28
_cell_length_a 27.354375
_cell_length_b 8.783331
_cell_length_c 9.725751
_cell_angle_alpha 90.000000
_cell_angle_beta 38.350254
_cell_angle_gamma 90.000000
_cell_volume 1449.866328
_symmetry_space_group_name_H-M "P 21/M"
_symmetry_group_IT_number 11
_symmetry_cell_setting 'monoclinic'
loop_
_space_group_symop_operation_xyz
x,y,z
-x,1/2+y,-z
-x,-y,-z
x,1/2-y,z
loop_
_atom_site_type_symbol
_atom_site_label
_atom_site_fract_x
_atom_site_fract_y
_atom_site_fract_z
Si Si1 0.807562 0.925514 0.624995
Si Si2 0.514257 0.431784 0.117997
Si Si3 0.063329 0.074560 0.263782
Si Si4 0.028977 0.574995 0.798771
Si Si5 0.232892 0.427978 0.978679
Si Si6 0.670219 0.569565 0.724614
Si Si7 0.357731 0.930319 0.509754
O O1 0.830646 0.750000 0.563797
O O2 0.764351 0.959280 0.864444
O O3 0.750812 0.972246 0.624697
O O4 0.888362 0.015732 0.439244
O O5 0.513110 0.250000 0.122031
O O6 0.442605 0.498496 0.366858
O O7 0.500000 0.500000 0.000000
O O8 0.600092 0.494934 0.971512
O O9 0.063312 0.250000 0.303627
O O10 0.150413 0.010284 0.099114
O O11 0.040199 0.044241 0.157760
O O12 0.000000 0.000000 0.500000
O O13 0.040838 0.750000 0.802905
O O14 0.000000 0.500000 0.000000
O O15 0.246180 0.250000 0.915128
O O16 0.300032 0.528530 0.760864
O O17 0.656975 0.750000 0.744179
O O18 0.674043 0.501011 0.563044
O O19 0.365205 0.750000 0.475642
#
# Coordination Sequence:
#
# PCOD8069697 Si02
#       7
#     4   4   4   4   4   4   4
#     4  10  22  40  61  83 113 152 188 231 289 339
#     4  10  18  33  57  84 114 149 186 229 281 332
#     4  10  21  38  61  83 110 148 191 233 281 335
#     4  11  24  39  58  86 116 150 190 236 284 335
#     4  10  21  39  59  82 113 150 189 234 283 335
#     4  10  20  36  59  86 115 148 187 232 283 338
#     4  11  22  36  57  87 116 148 190 233 278 331
#
# _framework density 19.312125999999999
#
# number of rings (size 3 to 8) (size 9 to 14) (size 15 to 20)
#    0.000    1.714    1.429    5.143    2.000    2.857 
#    0.000    0.714    0.000    0.000    0.000    0.000 
#    0.000    0.000    0.000    0.000    0.000    0.000 
#
# Total GULP energy -347186.286091 kJ/mol
# GULP energy per Si atom -12399.510218 kJ/mol
# Density = 1.926817 g / cm^3
# Si number density = 19.312126 Si / 1000 Ang^3
#
#
#
# Elastic Constant Matrix: (Units=GPa)
#
#
# Indices 1 2 3 4 5 6 
#
# 1 48.4005 29.9852 11.6602 0.0000 1.4151 0.0000
# 2 29.9852 104.8373 37.9728 0.0000 1.1577 0.0000
# 3 11.6602 37.9728 101.3509 0.0000 -3.7414 0.0000
# 4 0.0000 0.0000 0.0000 39.2482 0.0000 -4.3074
# 5 1.4151 1.1577 -3.7414 0.0000 23.2559 0.0000
# 6 0.0000 0.0000 0.0000 -4.3074 0.0000 23.4768
#
#
#
# Elastic Compliance Matrix: (Units=1/GPa)
#
#
# Indices 1 2 3 4 5 6 
#
# 1 0.025149 -0.007075 -0.000288 0.000000 -0.001224 0.000000
# 2 -0.007075 0.013062 -0.004112 0.000000 -0.000881 0.000000
# 3 -0.000288 -0.004112 0.011517 0.000000 0.002075 0.000000
# 4 0.000000 0.000000 0.000000 0.026002 0.000000 0.004771
# 5 -0.001224 -0.000881 0.002075 0.000000 0.043452 0.000000
# 6 0.000000 0.000000 0.000000 0.004771 0.000000 0.043471
#
#
# Mechanical properties :
#
#
# Convention : Reuss Voigt Hill
#
# Bulk Modulus (GPa) = 37.34490 45.98057 41.66273
# Shear Modulus (GPa) = 25.70303 28.86087 27.28195
#
# Velocity S-wave (km/s) = 3.65215 3.87000 3.76265
# Velocity P-wave (km/s) = 6.09621 6.62042 6.36372
#
# Compressibility (1/GPa) = 0.02677742
#
# Stress axis : x y z
#
# Youngs Moduli (GPa) = 39.76230 76.56088 86.82727
#
# Poissons Ratio (x) = 0.54170 0.02497
# Poissons Ratio (y) = 0.28134 0.35705
# Poissons Ratio (z) = 0.01144 0.31484
#
# Static dielectric constant tensor:
#      x y z
#    x 3.894790 0.000000 -0.413630 
#    y 0.000000 3.373870 0.000000 
#    z -0.413630 0.000000 3.726340 
# 
# 
# High freq. dielectric constant tensor:
#      x y z
#    x 1.748020 0.000000 -0.014260 
#    y 0.000000 1.756530 0.000000 
#    z -0.014260 0.000000 1.754830 
# 
# From -- ./inp_files/29016.got.cif
#   From: 2010.06.25/outbox.cif.g09.slc.cpg/sg11_15_cif.got.tgz:29016.got - 2010.06.27 23:14:04.
