data_PCOD8069689
_publ_section_title
;
Structure prediction by ZEFSAII (Michael W. Deem and Ramdas Pophale) SiO2 
 PCOD8069689
Probable space group: P 21/M
;
_chemical_formula_sum "Si O2"
_cell_formula_units_Z 32
_cell_length_a 22.750732
_cell_length_b 9.324469
_cell_length_c 15.191300
_cell_angle_alpha 90.000000
_cell_angle_beta 31.435580
_cell_angle_gamma 90.000000
_cell_volume 1680.744482
_symmetry_space_group_name_H-M "P 21/M"
_symmetry_group_IT_number 11
_symmetry_cell_setting 'monoclinic'
loop_
_space_group_symop_operation_xyz
x,y,z
-x,1/2+y,-z
-x,-y,-z
x,1/2-y,z
loop_
_atom_site_type_symbol
_atom_site_label
_atom_site_fract_x
_atom_site_fract_y
_atom_site_fract_z
Si Si1 0.801665 0.918984 0.065482
Si Si2 0.263472 0.418783 0.495825
Si Si3 0.274593 0.084008 0.127329
Si Si4 0.512333 0.418019 0.756910
Si Si5 0.849913 0.584464 0.540415
Si Si6 0.073400 0.420229 0.262569
Si Si7 0.554736 0.916424 0.351475
Si Si8 0.117503 0.420219 0.850975
O O1 0.801733 0.750000 0.069489
O O2 0.682653 0.972509 0.179436
O O3 0.821718 0.977194 0.138196
O O4 0.897930 0.968241 0.874217
O O5 0.287368 0.250000 0.466196
O O6 0.382392 0.498320 0.337635
O O7 0.192413 0.465224 0.501079
O O8 0.193699 0.467287 0.670918
O O9 0.282064 0.250000 0.091668
O O10 0.250322 0.058744 0.261399
O O11 0.172243 0.019794 0.199923
O O12 0.397143 0.018558 0.947191
O O13 0.526803 0.250000 0.759135
O O14 0.510347 0.448154 0.655320
O O15 0.886508 0.750000 0.492599
O O16 0.956270 0.493582 0.437135
O O17 0.059335 0.250000 0.290844
O O18 0.551712 0.750000 0.379619
O O19 0.500000 0.000000 0.500000
O O20 0.096842 0.250000 0.877157
O O21 0.000000 0.500000 0.000000
#
# Coordination Sequence:
#
# PCOD8069689 Si02
#       8
#     4   4   4   4   4   4   4   4
#     4   9  17  31  52  74  98 133 170 207 258 313
#     4  10  22  38  53  76 112 148 178 219 277 324
#     4   9  18  35  57  80 107 140 178 223 273 319
#     4  10  20  36  58  80 105 141 186 227 259 313
#     4  10  21  36  54  77 109 145 177 219 277 327
#     4  10  18  33  57  81 105 134 177 226 269 321
#     4  10  19  33  53  77 104 135 173 214 261 314
#     4  10  20  34  52  74 104 140 176 214 258 313
#
# _framework density 19.039183000000001
#
# number of rings (size 3 to 8) (size 9 to 14) (size 15 to 20)
#    0.000    2.250    1.250    1.875    0.000    3.000 
#    0.000    2.500    0.000    0.000    0.000    0.000 
#    0.000    0.000    0.000    0.000    0.000    0.000 
#
# Total GULP energy -396768.946595 kJ/mol
# GULP energy per Si atom -12399.029581 kJ/mol
# Density = 1.899585 g / cm^3
# Si number density = 19.039183 Si / 1000 Ang^3
#
#
#
# Elastic Constant Matrix: (Units=GPa)
#
#
# Indices 1 2 3 4 5 6 
#
# 1 99.7339 26.0465 42.4518 0.0000 -3.3495 0.0000
# 2 26.0465 33.6799 33.4734 0.0000 -7.7063 0.0000
# 3 42.4518 33.4734 117.5700 0.0000 -7.5666 0.0000
# 4 0.0000 0.0000 0.0000 27.3410 0.0000 -7.7369
# 5 -3.3495 -7.7063 -7.5666 0.0000 39.2667 0.0000
# 6 0.0000 0.0000 0.0000 -7.7369 0.0000 22.3775
#
#
#
# Elastic Compliance Matrix: (Units=1/GPa)
#
#
# Indices 1 2 3 4 5 6 
#
# 1 0.013131 -0.007799 -0.002579 0.000000 -0.000908 0.000000
# 2 -0.007799 0.047450 -0.010264 0.000000 0.006669 0.000000
# 3 -0.002579 -0.010264 0.012369 0.000000 0.000149 0.000000
# 4 0.000000 0.000000 0.000000 0.040542 0.000000 0.014017
# 5 -0.000908 0.006669 0.000149 0.000000 0.026727 0.000000
# 6 0.000000 0.000000 0.000000 0.014017 0.000000 0.049534
#
#
# Mechanical properties :
#
#
# Convention : Reuss Voigt Hill
#
# Bulk Modulus (GPa) = 31.58095 50.54749 41.06422
# Shear Modulus (GPa) = 20.69602 27.73117 24.21360
#
# Velocity S-wave (km/s) = 3.30058 3.82059 3.57007
# Velocity P-wave (km/s) = 5.58108 6.78744 6.21361
#
# Compressibility (1/GPa) = 0.03166466
#
# Stress axis : x y z
#
# Youngs Moduli (GPa) = 76.15660 21.07480 80.84878
#
# Poissons Ratio (x) = 0.16436 0.20852
# Poissons Ratio (y) = 0.59395 0.82985
# Poissons Ratio (z) = 0.19642 0.21632
#
# Static dielectric constant tensor:
#      x y z
#    x 3.701990 0.000000 0.505580 
#    y 0.000000 3.127680 0.000000 
#    z 0.505580 0.000000 2.998700 
# 
# 
# High freq. dielectric constant tensor:
#      x y z
#    x 1.749370 0.000000 0.004830 
#    y 0.000000 1.701400 0.000000 
#    z 0.004830 0.000000 1.753020 
# 
# From -- ./inp_files/44243.got.cif
#   From: 2010.06.25/outbox.cif.g09.slc.cpg/sg11_23_cif.got.tgz:44243.got - 2010.06.27 23:14:04.
