data_PCOD8069951
_publ_section_title
;
Structure prediction by ZEFSAII (Michael W. Deem and Ramdas Pophale) SiO2 
 PCOD8069951
Probable space group: P 21/M
;
_chemical_formula_sum "Si O2"
_cell_formula_units_Z 32
_cell_length_a 21.919708
_cell_length_b 9.228119
_cell_length_c 34.528689
_cell_angle_alpha 90.000000
_cell_angle_beta 17.535832
_cell_angle_gamma 90.000000
_cell_volume 2104.409807
_symmetry_space_group_name_H-M "P 21/M"
_symmetry_group_IT_number 11
_symmetry_cell_setting 'monoclinic'
loop_
_space_group_symop_operation_xyz
x,y,z
-x,1/2+y,-z
-x,-y,-z
x,1/2-y,z
loop_
_atom_site_type_symbol
_atom_site_label
_atom_site_fract_x
_atom_site_fract_y
_atom_site_fract_z
Si Si1 0.529744 0.590015 0.039660
Si Si2 0.887528 0.580784 0.346911
Si Si3 0.299462 0.086585 0.804560
Si Si4 0.547230 0.083881 0.356924
Si Si5 0.861653 0.086351 0.030891
Si Si6 0.212080 0.088429 0.194308
Si Si7 0.931291 0.920523 0.833992
Si Si8 0.032931 0.918705 0.859112
O O1 0.445860 0.750000 0.100304
O O2 0.339315 0.481363 0.152826
O O3 0.646290 0.594482 0.928622
O O4 0.693258 0.539511 0.972868
O O5 0.942758 0.750000 0.311813
O O6 0.652663 0.553225 0.497514
O O7 0.016215 0.508338 0.303561
O O8 0.931554 0.509118 0.278926
O O9 0.371996 0.250000 0.768851
O O10 0.077517 0.084445 0.920817
O O11 0.454355 0.012606 0.680846
O O12 0.299566 0.998537 0.844803
O O13 0.561311 0.250000 0.334806
O O14 0.735836 0.043872 0.270249
O O15 0.784535 0.250000 0.071368
O O16 0.877692 0.007538 0.979827
O O17 0.143934 0.250000 0.247755
O O18 0.964578 0.750000 0.805714
O O19 0.998615 0.967043 0.835865
O O20 0.984875 0.750000 0.894222
#
# Coordination Sequence:
#
# PCOD8069951 Si02
#       8
#     4   4   4   4   4   4   4   4
#     4   8  14  25  40  58  78 100 129 166 209 250
#     4  10  19  29  41  58  82 112 143 174 207 242
#     4   9  16  26  42  61  79 103 134 169 210 250
#     4   9  18  30  42  58  82 112 143 174 206 239
#     4   9  16  26  41  61  82 103 131 169 211 250
#     4   9  16  26  41  59  77 100 131 168 210 250
#     4   9  18  30  43  59  81 111 143 174 206 240
#     4   9  17  30  44  58  81 112 144 174 203 239
#
# _framework density 15.206163999999999
#
# number of rings (size 3 to 8) (size 9 to 14) (size 15 to 20)
#    0.000    3.000    0.000    2.250    0.000    8.000 
#    0.000    0.000    0.000    0.000    0.000    0.000 
#    0.000    1.000    0.000    3.000    0.000    4.250 
#
# Total GULP energy -396722.192301 kJ/mol
# GULP energy per Si atom -12397.568509 kJ/mol
# Density = 1.517155 g / cm^3
# Si number density = 15.206164 Si / 1000 Ang^3
#
#
#
# Elastic Constant Matrix: (Units=GPa)
#
#
# Indices 1 2 3 4 5 6 
#
# 1 81.5934 56.7408 58.7183 0.0000 1.7530 0.0000
# 2 56.7408 106.4014 47.5251 0.0000 9.4215 0.0000
# 3 58.7183 47.5251 50.6231 0.0000 9.9492 0.0000
# 4 0.0000 0.0000 0.0000 23.1592 0.0000 3.0641
# 5 1.7530 9.4215 9.9492 0.0000 14.4163 0.0000
# 6 0.0000 0.0000 0.0000 3.0641 0.0000 21.7435
#
#
#
# Elastic Compliance Matrix: (Units=1/GPa)
#
#
# Indices 1 2 3 4 5 6 
#
# 1 0.173827 -0.004726 -0.224026 0.000000 0.136559 0.000000
# 2 -0.004726 0.016314 -0.009083 0.000000 -0.003818 0.000000
# 3 -0.224026 -0.009083 0.325800 0.000000 -0.191668 0.000000
# 4 0.000000 0.000000 0.000000 0.044000 0.000000 -0.006201
# 5 0.136559 -0.003818 -0.191668 0.000000 0.187533 0.000000
# 6 0.000000 0.000000 0.000000 -0.006201 0.000000 0.046864
#
#
# Mechanical properties :
#
#
# Convention : Reuss Voigt Hill
#
# Bulk Modulus (GPa) = 24.83160 62.73181 43.78170
# Shear Modulus (GPa) = 3.89580 16.90605 10.40093
#
# Velocity S-wave (km/s) = 1.60236 3.33797 2.61817
# Velocity P-wave (km/s) = 4.44846 7.49665 6.16395
#
# Compressibility (1/GPa) = 0.04027127
#
# Stress axis : x y z
#
# Youngs Moduli (GPa) = 5.75284 61.29760 3.06937
#
# Poissons Ratio (x) = 0.28970 0.68762
# Poissons Ratio (y) = 0.02719 0.02788
# Poissons Ratio (z) = 1.28878 0.55678
#
# Static dielectric constant tensor:
#      x y z
#    x 2.878070 0.000000 -0.038130 
#    y 0.000000 3.130630 0.000000 
#    z -0.038130 0.000000 2.672210 
# 
# 
# High freq. dielectric constant tensor:
#      x y z
#    x 1.558120 0.000000 0.000580 
#    y 0.000000 1.596110 0.000000 
#    z 0.000580 0.000000 1.546780 
# 
# From -- ./inp_files/51412.got.cif
#   From: 2010.06.25/outbox.cif.g09.slc.cpg/sg11_26_cif.got.tgz:51412.got - 2010.06.27 23:14:04.
