data_PCOD8069035
_publ_section_title
;
Structure prediction by ZEFSAII (Michael W. Deem and Ramdas Pophale) SiO2 
 PCOD8069035
Probable space group: P 21/M
;
_chemical_formula_sum "Si O2"
_cell_formula_units_Z 28
_cell_length_a 10.840791
_cell_length_b 13.513381
_cell_length_c 11.519547
_cell_angle_alpha 90.000000
_cell_angle_beta 110.077400
_cell_angle_gamma 90.000000
_cell_volume 1585.010805
_symmetry_space_group_name_H-M "P 21/M"
_symmetry_group_IT_number 11
_symmetry_cell_setting 'monoclinic'
loop_
_space_group_symop_operation_xyz
x,y,z
-x,1/2+y,-z
-x,-y,-z
x,1/2-y,z
loop_
_atom_site_type_symbol
_atom_site_label
_atom_site_fract_x
_atom_site_fract_y
_atom_site_fract_z
Si Si1 0.801812 0.497185 0.992564
Si Si2 0.742162 0.862291 0.639509
Si Si3 0.495451 0.359338 0.265615
Si Si4 0.603178 0.638207 0.022716
Si Si5 0.585093 0.363660 0.824789
Si Si6 0.580127 0.966224 0.415742
Si Si7 0.034250 0.366985 0.121669
O O1 0.719845 0.557885 0.062731
O O2 0.710096 0.436688 0.872185
O O3 0.888928 0.579405 0.957063
O O4 0.891123 0.416308 0.088041
O O5 0.727971 0.750000 0.596123
O O6 0.641042 0.883860 0.712625
O O7 0.715509 0.923442 0.512245
O O8 0.888119 0.885089 0.732830
O O9 0.546807 0.250000 0.313005
O O10 0.474165 0.371832 0.122837
O O11 0.605598 0.438170 0.342165
O O12 0.658933 0.750000 0.054595
O O13 0.503471 0.612537 0.092358
O O14 0.632512 0.250000 0.838548
O O15 0.501875 0.383951 0.681640
O O16 0.500000 0.000000 0.500000
O O17 0.023623 0.250000 0.090434
#
# Coordination Sequence:
#
# PCOD8069035 Si02
#       7
#     4   4   4   4   4   4   4
#     4  11  19  32  52  76 106 133 172 213 261 308
#     4   9  16  29  47  68  96 131 171 204 243 301
#     4   9  16  28  48  72  98 131 168 204 249 311
#     4  10  19  33  53  77 108 140 168 206 262 323
#     4  11  22  33  50  82 111 132 165 216 269 308
#     4  10  18  30  48  71 101 134 170 210 256 303
#     4  10  20  33  51  73 101 139 178 213 251 303
#
# _framework density 17.665493999999999
#
# number of rings (size 3 to 8) (size 9 to 14) (size 15 to 20)
#    0.000    2.000    2.857    2.571    0.000    0.571 
#    0.000    0.000    0.000    2.571    0.000    0.000 
#    0.000    0.000    0.000    0.000    0.000    0.000 
#
# Total GULP energy -347031.679232 kJ/mol
# GULP energy per Si atom -12393.988544 kJ/mol
# Density = 1.762529 g / cm^3
# Si number density = 17.665494 Si / 1000 Ang^3
#
#
#
# Elastic Constant Matrix: (Units=GPa)
#
#
# Indices 1 2 3 4 5 6 
#
# 1 43.6122 40.6943 36.0025 0.0000 9.9256 0.0000
# 2 40.6943 125.8009 46.3208 0.0000 14.9174 0.0000
# 3 36.0025 46.3208 100.7568 0.0000 15.2674 0.0000
# 4 0.0000 0.0000 0.0000 33.0274 0.0000 6.0922
# 5 9.9256 14.9174 15.2674 0.0000 25.1813 0.0000
# 6 0.0000 0.0000 0.0000 6.0922 0.0000 29.3787
#
#
#
# Elastic Compliance Matrix: (Units=1/GPa)
#
#
# Indices 1 2 3 4 5 6 
#
# 1 0.040232 -0.008933 -0.009545 0.000000 -0.004779 0.000000
# 2 -0.008933 0.011809 -0.001883 0.000000 -0.002332 0.000000
# 3 -0.009545 -0.001883 0.014824 0.000000 -0.004110 0.000000
# 4 0.000000 0.000000 0.000000 0.031482 0.000000 -0.006528
# 5 -0.004779 -0.002332 -0.004110 0.000000 0.045469 0.000000
# 6 0.000000 0.000000 0.000000 -0.006528 0.000000 0.035392
#
#
# Mechanical properties :
#
#
# Convention : Reuss Voigt Hill
#
# Bulk Modulus (GPa) = 38.25237 57.35612 47.80425
# Shear Modulus (GPa) = 21.86798 27.32763 24.59780
#
# Velocity S-wave (km/s) = 3.52219 3.93739 3.73556
# Velocity P-wave (km/s) = 6.18399 7.29446 6.76206
#
# Compressibility (1/GPa) = 0.02614217
#
# Stress axis : x y z
#
# Youngs Moduli (GPa) = 24.85597 84.68230 67.45801
#
# Poissons Ratio (x) = 0.75648 0.64387
# Poissons Ratio (y) = 0.22204 0.12705
# Poissons Ratio (z) = 0.23724 0.15949
#
# Static dielectric constant tensor:
#      x y z
#    x 3.018170 0.000000 0.177710 
#    y 0.000000 3.833620 0.000000 
#    z 0.177710 0.000000 3.477630 
# 
# 
# High freq. dielectric constant tensor:
#      x y z
#    x 1.633250 0.000000 0.006800 
#    y 0.000000 1.711840 0.000000 
#    z 0.006800 0.000000 1.675440 
# 
# From -- ./inp_files/35289.got.cif
#   From: 2010.06.25/outbox.cif.g09.slc.cpg/sg11_18_cif.got.tgz:35289.got - 2010.06.27 23:14:04.
