data_PCOD8069178
_publ_section_title
;
Structure prediction by ZEFSAII (Michael W. Deem and Ramdas Pophale) SiO2 
 PCOD8069178
Probable space group: P 21/M
;
_chemical_formula_sum "Si O2"
_cell_formula_units_Z 24
_cell_length_a 9.098991
_cell_length_b 8.668788
_cell_length_c 31.503373
_cell_angle_alpha 90.000000
_cell_angle_beta 150.157814
_cell_angle_gamma 90.000000
_cell_volume 1236.517227
_symmetry_space_group_name_H-M "P 21/M"
_symmetry_group_IT_number 11
_symmetry_cell_setting 'monoclinic'
loop_
_space_group_symop_operation_xyz
x,y,z
-x,1/2+y,-z
-x,-y,-z
x,1/2-y,z
loop_
_atom_site_type_symbol
_atom_site_label
_atom_site_fract_x
_atom_site_fract_y
_atom_site_fract_z
Si Si1 0.318546 0.566893 0.826892
Si Si2 0.650561 0.567826 0.662180
Si Si3 0.163662 0.566751 0.000183
Si Si4 0.646615 0.431685 0.828860
Si Si5 0.335785 0.430654 0.663786
Si Si6 0.664212 0.432718 0.500992
O O1 0.342296 0.750000 0.835472
O O2 0.442879 0.511964 0.812941
O O3 0.985116 0.505550 0.747691
O O4 0.499548 0.493199 0.911998
O O5 0.652667 0.750000 0.660667
O O6 0.473992 0.516816 0.658914
O O7 0.490461 0.501643 0.580191
O O8 0.155048 0.750000 0.996823
O O9 0.983384 0.497540 0.914959
O O10 0.000000 0.500000 0.000000
O O11 0.646208 0.250000 0.837339
O O12 0.520372 0.475332 0.751543
O O13 0.345544 0.250000 0.657052
O O14 0.002067 0.489194 0.586244
O O15 0.500000 0.500000 0.500000
O O16 0.645145 0.250000 0.498381
#
# Coordination Sequence:
#
# PCOD8069178 Si02
#       6
#     4   4   4   4   4   4
#     4  10  19  33  53  79 107 139 178 222 265 313
#     4  10  22  37  55  79 110 143 178 217 263 315
#     4  10  18  30  51  78 105 138 176 220 268 314
#     4  10  19  33  53  79 107 139 178 222 265 313
#     4  10  22  37  55  79 110 143 178 217 263 315
#     4  10  21  38  58  84 110 138 177 220 262 312
#
# _framework density 19.409355000000001
#
# number of rings (size 3 to 8) (size 9 to 14) (size 15 to 20)
#    0.000    2.000    0.000    6.000    0.000    4.000 
#    0.000    0.833    0.000    0.000    0.000    0.000 
#    0.000    0.000    0.000    0.000    0.000    0.000 
#
# Total GULP energy -297597.629986 kJ/mol
# GULP energy per Si atom -12399.901249 kJ/mol
# Density = 1.936518 g / cm^3
# Si number density = 19.409355 Si / 1000 Ang^3
#
#
#
# Elastic Constant Matrix: (Units=GPa)
#
#
# Indices 1 2 3 4 5 6 
#
# 1 88.4695 11.8793 62.0798 0.0000 -3.5544 0.0000
# 2 11.8793 56.6402 40.6031 0.0000 -0.5284 0.0000
# 3 62.0798 40.6031 199.5185 0.0000 -4.5819 0.0000
# 4 0.0000 0.0000 0.0000 22.5505 0.0000 -0.0858
# 5 -3.5544 -0.5284 -4.5819 0.0000 14.8644 0.0000
# 6 0.0000 0.0000 0.0000 -0.0858 0.0000 31.3570
#
#
#
# Elastic Compliance Matrix: (Units=1/GPa)
#
#
# Indices 1 2 3 4 5 6 
#
# 1 0.014527 0.000209 -0.004515 0.000000 0.002090 0.000000
# 2 0.000209 0.020679 -0.004286 0.000000 -0.000536 0.000000
# 3 -0.004515 -0.004286 0.007312 0.000000 0.001022 0.000000
# 4 0.000000 0.000000 0.000000 0.044345 0.000000 0.000121
# 5 0.002090 -0.000536 0.001022 0.000000 0.068071 0.000000
# 6 0.000000 0.000000 0.000000 0.000121 0.000000 0.031891
#
#
# Mechanical properties :
#
#
# Convention : Reuss Voigt Hill
#
# Bulk Modulus (GPa) = 39.46976 63.75029 51.61002
# Shear Modulus (GPa) = 23.53463 29.09211 26.31337
#
# Velocity S-wave (km/s) = 3.48593 3.87573 3.68599
# Velocity P-wave (km/s) = 6.04830 7.27632 6.69054
#
# Compressibility (1/GPa) = 0.02533585
#
# Stress axis : x y z
#
# Youngs Moduli (GPa) = 68.83640 48.35916 136.75393
#
# Poissons Ratio (x) = -0.01011 0.61740
# Poissons Ratio (y) = -0.01439 0.58607
# Poissons Ratio (z) = 0.31077 0.20725
#
# Static dielectric constant tensor:
#      x y z
#    x 3.287410 0.000000 0.005520 
#    y 0.000000 3.463850 0.000000 
#    z 0.005520 0.000000 4.685120 
# 
# 
# High freq. dielectric constant tensor:
#      x y z
#    x 1.730560 0.000000 0.001620 
#    y 0.000000 1.754980 0.000000 
#    z 0.001620 0.000000 1.786220 
# 
# From -- ./inp_files/72786.got.cif
#   From: 2010.06.25/outbox.cif.g09.slc.cpg/sg11_37_cif.got.tgz:72786.got - 2010.06.27 23:14:04.
