data_PCOD8069752
_publ_section_title
;
Structure prediction by ZEFSAII (Michael W. Deem and Ramdas Pophale) SiO2 
 PCOD8069752
Probable space group: P 21/M
;
_chemical_formula_sum "Si O2"
_cell_formula_units_Z 20
_cell_length_a 7.610024
_cell_length_b 20.404018
_cell_length_c 8.029460
_cell_angle_alpha 90.000000
_cell_angle_beta 53.753445
_cell_angle_gamma 90.000000
_cell_volume 1005.499246
_symmetry_space_group_name_H-M "P 21/M"
_symmetry_group_IT_number 11
_symmetry_cell_setting 'monoclinic'
loop_
_space_group_symop_operation_xyz
x,y,z
-x,1/2+y,-z
-x,-y,-z
x,1/2-y,z
loop_
_atom_site_type_symbol
_atom_site_label
_atom_site_fract_x
_atom_site_fract_y
_atom_site_fract_z
Si Si1 0.485895 0.956951 0.251999
Si Si2 0.948147 0.397662 0.574851
Si Si3 0.918647 0.941942 0.162053
Si Si4 0.812462 0.175682 0.947025
Si Si5 0.600566 0.904861 0.830587
O O1 0.249487 0.926168 0.425261
O O2 0.469652 0.035018 0.247199
O O3 0.586526 0.926264 0.028821
O O4 0.655255 0.938786 0.304061
O O5 0.153583 0.381655 0.344361
O O6 0.006363 0.452460 0.686763
O O7 0.870729 0.332181 0.716674
O O8 0.025360 0.872738 0.040658
O O9 0.000000 0.000000 0.000000
O O10 0.847454 0.250000 0.986237
O O11 0.561617 0.155129 0.117633
#
# Coordination Sequence:
#
# PCOD8069752 Si02
#       5
#     4   4   4   4   4
#     4  10  18  34  54  85 113 134 177 228 277 319
#     4   9  21  34  55  82 109 142 181 221 271 330
#     4  10  18  36  56  79 112 146 179 226 277 324
#     4   9  20  37  55  76 110 148 183 224 273 327
#     4  10  18  35  56  81 111 143 175 225 275 326
#
# _framework density 19.890619000000001
#
# number of rings (size 3 to 8) (size 9 to 14) (size 15 to 20)
#    1.200    1.200    2.000    1.800    0.000    1.600 
#    3.600    4.000    0.000    0.000    0.000    0.000 
#    0.000    0.000    0.000    0.000    0.000    0.000 
#
# Total GULP energy -247805.959252 kJ/mol
# GULP energy per Si atom -12390.297963 kJ/mol
# Density = 1.984535 g / cm^3
# Si number density = 19.890619 Si / 1000 Ang^3
#
#
#
# Elastic Constant Matrix: (Units=GPa)
#
#
# Indices 1 2 3 4 5 6 
#
# 1 121.5034 24.6674 20.5178 0.0000 -40.4250 0.0000
# 2 24.6674 117.6219 18.6824 0.0000 -21.3340 0.0000
# 3 20.5178 18.6824 86.7636 0.0000 -44.4997 0.0000
# 4 0.0000 0.0000 0.0000 11.0340 0.0000 -3.0798
# 5 -40.4250 -21.3340 -44.4997 0.0000 37.5944 0.0000
# 6 0.0000 0.0000 0.0000 -3.0798 0.0000 24.4619
#
#
#
# Elastic Compliance Matrix: (Units=1/GPa)
#
#
# Indices 1 2 3 4 5 6 
#
# 1 0.017857 0.000606 0.014434 0.000000 0.036631 0.000000
# 2 0.000606 0.009613 0.002339 0.000000 0.008876 0.000000
# 3 0.014434 0.002339 0.041357 0.000000 0.065802 0.000000
# 4 0.000000 0.000000 0.000000 0.093930 0.000000 0.011826
# 5 0.036631 0.008876 0.065802 0.000000 0.148914 0.000000
# 6 0.000000 0.000000 0.000000 0.011826 0.000000 0.042369
#
#
# Mechanical properties :
#
#
# Convention : Reuss Voigt Hill
#
# Bulk Modulus (GPa) = 9.65378 50.40267 30.02822
# Shear Modulus (GPa) = 14.13189 32.08614 23.10902
#
# Velocity S-wave (km/s) = 2.66837 4.02074 3.41222
# Velocity P-wave (km/s) = 3.78914 6.85201 5.53659
#
# Compressibility (1/GPa) = 0.10358639
#
# Stress axis : x y z
#
# Youngs Moduli (GPa) = 56.00022 104.02566 24.17952
#
# Poissons Ratio (x) = -0.06309 -0.34901
# Poissons Ratio (y) = -0.03396 -0.05656
# Poissons Ratio (z) = -0.80831 -0.24331
#
# Static dielectric constant tensor:
#      x y z
#    x 3.741160 0.000000 -0.337160 
#    y 0.000000 3.165470 0.000000 
#    z -0.337160 0.000000 3.494230 
# 
# 
# High freq. dielectric constant tensor:
#      x y z
#    x 1.773180 0.000000 -0.028680 
#    y 0.000000 1.732330 0.000000 
#    z -0.028680 0.000000 1.767730 
# 
# From -- ./inp_files/13072.got.cif
#   From: 2010.06.25/outbox.cif.g09.slc.cpg/sg11_7_cif.got.tgz:13072.got - 2010.06.27 23:14:04.
