data_PCOD8069324
_publ_section_title
;
Structure prediction by ZEFSAII (Michael W. Deem and Ramdas Pophale) SiO2 
 PCOD8069324
Probable space group: P 21/M
;
_chemical_formula_sum "Si O2"
_cell_formula_units_Z 32
_cell_length_a 27.836896
_cell_length_b 8.833595
_cell_length_c 19.926520
_cell_angle_alpha 90.000000
_cell_angle_beta 158.774061
_cell_angle_gamma 90.000000
_cell_volume 1774.002560
_symmetry_space_group_name_H-M "P 21/M"
_symmetry_group_IT_number 11
_symmetry_cell_setting 'monoclinic'
loop_
_space_group_symop_operation_xyz
x,y,z
-x,1/2+y,-z
-x,-y,-z
x,1/2-y,z
loop_
_atom_site_type_symbol
_atom_site_label
_atom_site_fract_x
_atom_site_fract_y
_atom_site_fract_z
Si Si1 0.079685 0.928527 0.042636
Si Si2 0.909088 0.070290 0.179305
Si Si3 0.107230 0.572118 0.687394
Si Si4 0.622627 0.072425 0.803791
Si Si5 0.345248 0.923933 0.579356
Si Si6 0.601301 0.072991 0.929175
Si Si7 0.662795 0.929630 0.575084
Si Si8 0.938240 0.424075 0.735257
O O1 0.077557 0.750000 0.048595
O O2 0.231069 0.986242 0.240353
O O3 0.000000 0.000000 0.000000
O O4 0.015154 0.973507 0.888705
O O5 0.928452 0.250000 0.195994
O O6 0.917107 0.021371 0.267591
O O7 0.764721 0.013842 0.960999
O O8 0.022801 0.980948 0.287989
O O9 0.092913 0.750000 0.664646
O O10 0.255293 0.526154 0.853523
O O11 0.000000 0.500000 0.500000
O O12 0.634609 0.250000 0.818116
O O13 0.484566 0.022552 0.588127
O O14 0.608473 0.021912 0.861698
O O15 0.363278 0.750000 0.581358
O O16 0.219156 0.945231 0.463316
O O17 0.320452 0.022801 0.480549
O O18 0.473319 0.980627 0.789678
O O19 0.573884 0.250000 0.903639
O O20 0.684281 0.750000 0.607069
O O21 0.979307 0.250000 0.799393
#
# Coordination Sequence:
#
# PCOD8069324 Si02
#       8
#     4   4   4   4   4   4   4   4
#     4  12  23  35  51  73 101 135 176 220 265 310
#     4   9  18  35  55  76 104 137 174 209 251 311
#     4   9  18  33  56  85 112 137 166 208 255 306
#     4   7  13  28  50  72  95 127 166 211 255 300
#     4  10  19  30  47  72 102 133 171 217 260 303
#     4   8  15  29  49  74 103 132 167 208 253 302
#     4  10  18  31  52  74  99 131 170 218 268 309
#     4  11  23  36  50  73 105 138 174 217 263 309
#
# _framework density 18.038305999999999
#
# number of rings (size 3 to 8) (size 9 to 14) (size 15 to 20)
#    0.000    2.500    1.250    4.500    0.000    2.500 
#    0.000    6.250    0.000    0.750    0.000    0.000 
#    0.000    0.000    0.000    0.000    0.000    0.000 
#
# Total GULP energy -396471.025775 kJ/mol
# GULP energy per Si atom -12389.719555 kJ/mol
# Density = 1.799725 g / cm^3
# Si number density = 18.038306 Si / 1000 Ang^3
#
#
#
# Elastic Constant Matrix: (Units=GPa)
#
#
# Indices 1 2 3 4 5 6 
#
# 1 66.4835 30.5703 45.4007 0.0000 13.0859 0.0000
# 2 30.5703 86.5336 53.0511 0.0000 7.4337 0.0000
# 3 45.4007 53.0511 149.8229 0.0000 13.6500 0.0000
# 4 0.0000 0.0000 0.0000 32.8095 0.0000 1.2175
# 5 13.0859 7.4337 13.6500 0.0000 22.3475 0.0000
# 6 0.0000 0.0000 0.0000 1.2175 0.0000 22.0466
#
#
#
# Elastic Compliance Matrix: (Units=1/GPa)
#
#
# Indices 1 2 3 4 5 6 
#
# 1 0.021612 -0.004292 -0.004242 0.000000 -0.008636 0.000000
# 2 -0.004292 0.015683 -0.004242 0.000000 -0.000112 0.000000
# 3 -0.004242 -0.004242 0.009644 0.000000 -0.001995 0.000000
# 4 0.000000 0.000000 0.000000 0.030542 0.000000 -0.001687
# 5 -0.008636 -0.000112 -0.001995 0.000000 0.051061 0.000000
# 6 0.000000 0.000000 0.000000 -0.001687 0.000000 0.045452
#
#
# Mechanical properties :
#
#
# Convention : Reuss Voigt Hill
#
# Bulk Modulus (GPa) = 46.76149 62.32046 54.54097
# Shear Modulus (GPa) = 24.19253 27.02856 25.61055
#
# Velocity S-wave (km/s) = 3.66618 3.87511 3.77209
# Velocity P-wave (km/s) = 6.62577 7.39229 7.01950
#
# Compressibility (1/GPa) = 0.02138512
#
# Stress axis : x y z
#
# Youngs Moduli (GPa) = 46.27089 63.76320 103.69051
#
# Poissons Ratio (x) = 0.27368 0.43989
# Poissons Ratio (y) = 0.19860 0.43989
# Poissons Ratio (z) = 0.19630 0.27051
#
# Static dielectric constant tensor:
#      x y z
#    x 3.062450 0.000000 0.552750 
#    y 0.000000 3.275470 0.000000 
#    z 0.552750 0.000000 3.103240 
# 
# 
# High freq. dielectric constant tensor:
#      x y z
#    x 1.656480 0.000000 0.029850 
#    y 0.000000 1.692940 0.000000 
#    z 0.029850 0.000000 1.709850 
# 
# From -- ./inp_files/67450.got.cif
#   From: 2010.06.25/outbox.cif.g09.slc.cpg/sg11_34_cif.got.tgz:67450.got - 2010.06.27 23:14:04.
