data_PCOD8069709
_publ_section_title
;
Structure prediction by ZEFSAII (Michael W. Deem and Ramdas Pophale) SiO2 
 PCOD8069709
Probable space group: P 21/M
;
_chemical_formula_sum "Si O2"
_cell_formula_units_Z 32
_cell_length_a 14.175347
_cell_length_b 18.180333
_cell_length_c 11.897226
_cell_angle_alpha 90.000000
_cell_angle_beta 146.980332
_cell_angle_gamma 90.000000
_cell_volume 1670.780842
_symmetry_space_group_name_H-M "P 21/M"
_symmetry_group_IT_number 11
_symmetry_cell_setting 'monoclinic'
loop_
_space_group_symop_operation_xyz
x,y,z
-x,1/2+y,-z
-x,-y,-z
x,1/2-y,z
loop_
_atom_site_type_symbol
_atom_site_label
_atom_site_fract_x
_atom_site_fract_y
_atom_site_fract_z
Si Si1 0.046280 0.837208 0.895866
Si Si2 0.444024 0.084652 0.823879
Si Si3 0.417899 0.917182 0.796304
Si Si4 0.074537 0.834460 0.453318
Si Si5 0.569130 0.337358 0.728422
Si Si6 0.906937 0.665115 0.518655
Si Si7 0.263958 0.162502 0.264212
Si Si8 0.727613 0.662814 0.981955
O O1 0.040687 0.750000 0.892242
O O2 0.994306 0.864636 0.719791
O O3 0.909979 0.868881 0.850422
O O4 0.239963 0.864499 0.118864
O O5 0.527968 0.131652 0.809351
O O6 0.259890 0.117050 0.676058
O O7 0.422166 0.001223 0.760563
O O8 0.569219 0.088904 0.056254
O O9 0.236372 0.882786 0.575871
O O10 0.571616 0.873750 0.891492
O O11 0.116076 0.750000 0.465706
O O12 0.043290 0.844700 0.554754
O O13 0.907709 0.861644 0.217612
O O14 0.561316 0.250000 0.731045
O O15 0.431467 0.366400 0.499553
O O16 0.848590 0.750000 0.472009
O O17 0.260049 0.250000 0.261502
O O18 0.272956 0.133426 0.146384
O O19 0.703145 0.750000 0.965105
#
# Coordination Sequence:
#
# PCOD8069709 Si02
#       8
#     4   4   4   4   4   4   4   4
#     4   9  17  30  52  83 111 133 173 229 279 326
#     4  11  22  37  56  83 116 154 183 227 282 336
#     4  11  24  39  54  83 117 151 190 224 278 339
#     4  10  21  37  60  85 108 143 188 232 278 330
#     4  10  19  34  59  87 111 143 185 232 283 330
#     4  10  18  33  58  85 110 141 182 230 281 328
#     4   9  18  33  56  84 111 139 180 234 285 327
#     4  10  21  39  60  82 111 147 188 234 276 326
#
# _framework density 19.152719999999999
#
# number of rings (size 3 to 8) (size 9 to 14) (size 15 to 20)
#    0.000    2.000    2.500    1.500    0.000    4.000 
#    2.250    4.375    0.000    1.500    0.000    0.000 
#    0.000    0.000    0.000    0.000    0.000    0.000 
#
# Total GULP energy -396853.799613 kJ/mol
# GULP energy per Si atom -12401.681238 kJ/mol
# Density = 1.910913 g / cm^3
# Si number density = 19.152720 Si / 1000 Ang^3
#
#
#
# Elastic Constant Matrix: (Units=GPa)
#
#
# Indices 1 2 3 4 5 6 
#
# 1 83.1428 29.2090 67.1798 0.0000 -1.8154 0.0000
# 2 29.2090 40.0675 35.4621 0.0000 8.6947 0.0000
# 3 67.1798 35.4621 119.6422 0.0000 19.5459 0.0000
# 4 0.0000 0.0000 0.0000 14.2928 0.0000 -2.7363
# 5 -1.8154 8.6947 19.5459 0.0000 37.8407 0.0000
# 6 0.0000 0.0000 0.0000 -2.7363 0.0000 6.7312
#
#
#
# Elastic Compliance Matrix: (Units=1/GPa)
#
#
# Indices 1 2 3 4 5 6 
#
# 1 0.027004 -0.009551 -0.014091 0.000000 0.010768 0.000000
# 2 -0.009551 0.037492 -0.004661 0.000000 -0.006665 0.000000
# 3 -0.014091 -0.004661 0.019208 0.000000 -0.009527 0.000000
# 4 0.000000 0.000000 0.000000 0.075870 0.000000 0.030841
# 5 0.010768 -0.006665 -0.009527 0.000000 0.033396 0.000000
# 6 0.000000 0.000000 0.000000 0.030841 0.000000 0.161099
#
#
# Mechanical properties :
#
#
# Convention : Reuss Voigt Hill
#
# Bulk Modulus (GPa) = 36.90269 56.28380 46.59324
# Shear Modulus (GPa) = 11.91309 19.17305 15.54307
#
# Velocity S-wave (km/s) = 2.49671 3.16739 2.85183
# Velocity P-wave (km/s) = 5.25555 6.54424 5.93498
#
# Compressibility (1/GPa) = 0.02709830
#
# Stress axis : x y z
#
# Youngs Moduli (GPa) = 37.03210 26.67241 52.06072
#
# Poissons Ratio (x) = 0.25474 0.73359
# Poissons Ratio (y) = 0.35369 0.24265
# Poissons Ratio (z) = 0.52182 0.12432
#
# Static dielectric constant tensor:
#      x y z
#    x 3.586920 0.000000 0.025360 
#    y 0.000000 3.197700 0.000000 
#    z 0.025360 0.000000 3.710320 
# 
# 
# High freq. dielectric constant tensor:
#      x y z
#    x 1.748740 0.000000 0.005270 
#    y 0.000000 1.707350 0.000000 
#    z 0.005270 0.000000 1.755190 
# 
# From -- ./inp_files/40011.got.cif
#   From: 2010.06.25/outbox.cif.g09.slc.cpg/sg11_21_cif.got.tgz:40011.got - 2010.06.27 23:14:04.
