data_PCOD8069187
_publ_section_title
;
Structure prediction by ZEFSAII (Michael W. Deem and Ramdas Pophale) SiO2 
 PCOD8069187
Probable space group: P 21/M
;
_chemical_formula_sum "Si O2"
_cell_formula_units_Z 32
_cell_length_a 10.207160
_cell_length_b 19.949550
_cell_length_c 8.516011
_cell_angle_alpha 90.000000
_cell_angle_beta 89.871104
_cell_angle_gamma 90.000000
_cell_volume 1734.096018
_symmetry_space_group_name_H-M "P 21/M"
_symmetry_group_IT_number 11
_symmetry_cell_setting 'monoclinic'
loop_
_space_group_symop_operation_xyz
x,y,z
-x,1/2+y,-z
-x,-y,-z
x,1/2-y,z
loop_
_atom_site_type_symbol
_atom_site_label
_atom_site_fract_x
_atom_site_fract_y
_atom_site_fract_z
Si Si1 0.558137 0.949627 0.220614
Si Si2 0.825340 0.177097 0.790982
Si Si3 0.555138 0.171036 0.616564
Si Si4 0.075601 0.061495 0.279888
Si Si5 0.683749 0.425058 0.381424
Si Si6 0.301722 0.014958 0.089139
Si Si7 0.160325 0.901342 0.918044
Si Si8 0.055323 0.923521 0.424403
O O1 0.555658 0.874901 0.296720
O O2 0.411742 0.973888 0.181034
O O3 0.614694 0.003597 0.344846
O O4 0.640508 0.943892 0.058476
O O5 0.878153 0.250000 0.758140
O O6 0.679548 0.168055 0.728373
O O7 0.933562 0.133957 0.702354
O O8 0.827256 0.164600 0.976953
O O9 0.512853 0.250000 0.589187
O O10 0.587277 0.131737 0.453813
O O11 0.986561 0.093538 0.145339
O O12 0.054409 0.100335 0.446642
O O13 0.225352 0.061914 0.216329
O O14 0.013638 0.989116 0.326951
O O15 0.732392 0.394014 0.217972
O O16 0.804179 0.439141 0.496301
O O17 0.190289 0.964547 0.029596
#
# Coordination Sequence:
#
# PCOD8069187 Si02
#       8
#     4   4   4   4   4   4   4   4
#     4  10  19  32  53  77 107 135 172 220 257 299
#     4  10  19  32  51  74 107 134 162 209 259 314
#     4  10  19  33  51  73 104 139 172 212 260 313
#     4  10  18  30  52  77 105 128 160 216 244 306
#     4   9  19  32  52  78 106 132 167 219 263 305
#     4  10  18  30  51  81 105 128 165 214 263 294
#     4  10  18  31  51  81 103 125 167 204 262 309
#     4   9  18  32  50  81 104 128 167 203 263 308
#
# _framework density 18.453419
#
# number of rings (size 3 to 8) (size 9 to 14) (size 15 to 20)
#    0.000    2.250    2.500    1.500    0.000    0.500 
#    0.000    1.875    0.000    1.500    0.000    2.625 
#    0.000    0.000    0.000    0.000    0.000    0.000 
#
# Total GULP energy -396495.271357 kJ/mol
# GULP energy per Si atom -12390.477230 kJ/mol
# Density = 1.841142 g / cm^3
# Si number density = 18.453419 Si / 1000 Ang^3
#
#
#
# Elastic Constant Matrix: (Units=GPa)
#
#
# Indices 1 2 3 4 5 6 
#
# 1 49.6407 17.0873 26.9401 0.0000 -25.0599 0.0000
# 2 17.0873 91.3376 37.5374 0.0000 -10.2837 0.0000
# 3 26.9401 37.5374 90.5861 0.0000 -16.3341 0.0000
# 4 0.0000 0.0000 0.0000 20.4706 0.0000 2.0270
# 5 -25.0599 -10.2837 -16.3341 0.0000 29.4346 0.0000
# 6 0.0000 0.0000 0.0000 2.0270 0.0000 16.9830
#
#
#
# Elastic Compliance Matrix: (Units=1/GPa)
#
#
# Indices 1 2 3 4 5 6 
#
# 1 0.038341 -0.001651 -0.005485 0.000000 0.029022 0.000000
# 2 -0.001651 0.013348 -0.004948 0.000000 0.000512 0.000000
# 3 -0.005485 -0.004948 0.015076 0.000000 0.001967 0.000000
# 4 0.000000 0.000000 0.000000 0.049435 0.000000 -0.005900
# 5 0.029022 0.000512 0.001967 0.000000 0.059953 0.000000
# 6 0.000000 0.000000 0.000000 -0.005900 0.000000 0.059587
#
#
# Mechanical properties :
#
#
# Convention : Reuss Voigt Hill
#
# Bulk Modulus (GPa) = 23.47606 43.85490 33.66548
# Shear Modulus (GPa) = 18.24108 23.37760 20.80934
#
# Velocity S-wave (km/s) = 3.14744 3.56314 3.36172
# Velocity P-wave (km/s) = 5.09489 6.38316 5.77506
#
# Compressibility (1/GPa) = 0.04259659
#
# Stress axis : x y z
#
# Youngs Moduli (GPa) = 26.08179 74.91515 66.33223
#
# Poissons Ratio (x) = 0.12367 0.36385
# Poissons Ratio (y) = 0.04306 0.32821
# Poissons Ratio (z) = 0.14307 0.37068
#
# Static dielectric constant tensor:
#      x y z
#    x 3.224050 0.000000 -0.166300 
#    y 0.000000 3.298240 0.000000 
#    z -0.166300 0.000000 3.810100 
# 
# 
# High freq. dielectric constant tensor:
#      x y z
#    x 1.693330 0.000000 -0.014040 
#    y 0.000000 1.678470 0.000000 
#    z -0.014040 0.000000 1.737880 
# 
# From -- ./inp_files/14818.got.cif
#   From: 2010.06.25/outbox.cif.g09.slc.cpg/sg11_8_cif.got.tgz:14818.got - 2010.06.27 23:14:04.
