data_PCOD8069522
_publ_section_title
;
Structure prediction by ZEFSAII (Michael W. Deem and Ramdas Pophale) SiO2 
 PCOD8069522
Probable space group: P 21/M
;
_chemical_formula_sum "Si O2"
_cell_formula_units_Z 32
_cell_length_a 24.488520
_cell_length_b 8.871252
_cell_length_c 19.174786
_cell_angle_alpha 90.000000
_cell_angle_beta 156.212912
_cell_angle_gamma 90.000000
_cell_volume 1680.150937
_symmetry_space_group_name_H-M "P 21/M"
_symmetry_group_IT_number 11
_symmetry_cell_setting 'monoclinic'
loop_
_space_group_symop_operation_xyz
x,y,z
-x,1/2+y,-z
-x,-y,-z
x,1/2-y,z
loop_
_atom_site_type_symbol
_atom_site_label
_atom_site_fract_x
_atom_site_fract_y
_atom_site_fract_z
Si Si1 0.135445 0.073776 0.488194
Si Si2 0.171998 0.574453 0.868812
Si Si3 0.151061 0.573877 0.004641
Si Si4 0.114075 0.920783 0.321933
Si Si5 0.633508 0.428431 0.629861
Si Si6 0.436859 0.429265 0.128620
Si Si7 0.631771 0.421626 0.474231
Si Si8 0.412587 0.928700 0.837307
O O1 0.156052 0.250000 0.525928
O O2 0.982317 0.023941 0.332539
O O3 0.149877 0.039096 0.423651
O O4 0.257563 0.984399 0.667949
O O5 0.188587 0.750000 0.873185
O O6 0.201224 0.538165 0.984465
O O7 0.282355 0.489402 0.949785
O O8 0.113577 0.750000 0.966769
O O9 0.254597 0.519694 0.184262
O O10 0.025095 0.468907 0.876021
O O11 0.108471 0.750000 0.345541
O O12 0.223050 0.934661 0.389831
O O13 0.500000 0.500000 0.500000
O O14 0.626417 0.250000 0.620277
O O15 0.650599 0.497384 0.572027
O O16 0.432686 0.250000 0.124636
O O17 0.517311 0.495544 0.290214
O O18 0.519927 0.481758 0.157018
O O19 0.586895 0.250000 0.432321
O O20 0.412994 0.750000 0.843808
O O21 0.500000 0.000000 0.000000
#
# Coordination Sequence:
#
# PCOD8069522 Si02
#       8
#     4   4   4   4   4   4   4   4
#     4  10  20  37  59  85 117 150 185 229 278 329
#     4   9  19  34  54  81 113 147 187 231 275 325
#     4   9  19  34  49  74 111 145 183 234 283 327
#     4  10  18  32  54  78 105 142 187 231 277 332
#     4  10  20  34  51  70 103 144 183 231 286 334
#     4  10  20  36  57  83 113 142 184 233 276 329
#     4   9  18  33  52  76 106 141 180 231 282 326
#     4  11  23  40  62  89 118 148 184 226 275 335
#
# _framework density 19.045907
#
# number of rings (size 3 to 8) (size 9 to 14) (size 15 to 20)
#    0.000    2.250    1.250    2.625    0.000    4.500 
#    0.000    1.875    0.000    0.000    0.000    0.000 
#    0.000    0.000    0.000    0.000    0.000    0.000 
#
# Total GULP energy -396562.291751 kJ/mol
# GULP energy per Si atom -12392.571617 kJ/mol
# Density = 1.900256 g / cm^3
# Si number density = 19.045907 Si / 1000 Ang^3
#
#
#
# Elastic Constant Matrix: (Units=GPa)
#
#
# Indices 1 2 3 4 5 6 
#
# 1 63.8106 23.8293 54.7225 0.0000 5.4621 0.0000
# 2 23.8293 36.7444 37.6361 0.0000 7.6485 0.0000
# 3 54.7225 37.6361 148.3845 0.0000 5.0898 0.0000
# 4 0.0000 0.0000 0.0000 33.5050 0.0000 5.7129
# 5 5.4621 7.6485 5.0898 0.0000 25.0142 0.0000
# 6 0.0000 0.0000 0.0000 5.7129 0.0000 23.9059
#
#
#
# Elastic Compliance Matrix: (Units=1/GPa)
#
#
# Indices 1 2 3 4 5 6 
#
# 1 0.025049 -0.008847 -0.006947 0.000000 -0.001351 0.000000
# 2 -0.008847 0.042231 -0.007122 0.000000 -0.009532 0.000000
# 3 -0.006947 -0.007122 0.011058 0.000000 0.001445 0.000000
# 4 0.000000 0.000000 0.000000 0.031114 0.000000 -0.007436
# 5 -0.001351 -0.009532 0.001445 0.000000 0.042893 0.000000
# 6 0.000000 0.000000 0.000000 -0.007436 0.000000 0.043608
#
#
# Mechanical properties :
#
#
# Convention : Reuss Voigt Hill
#
# Bulk Modulus (GPa) = 30.76414 53.47948 42.12181
# Shear Modulus (GPa) = 19.79247 25.33511 22.56379
#
# Velocity S-wave (km/s) = 3.22716 3.65117 3.44569
# Velocity P-wave (km/s) = 5.48395 6.77605 6.16395
#
# Compressibility (1/GPa) = 0.03250538
#
# Stress axis : x y z
#
# Youngs Moduli (GPa) = 39.92199 23.67905 90.43113
#
# Poissons Ratio (x) = 0.20950 0.62826
# Poissons Ratio (y) = 0.35321 0.64403
# Poissons Ratio (z) = 0.27735 0.16864
#
# Static dielectric constant tensor:
#      x y z
#    x 3.452780 0.000000 0.042350 
#    y 0.000000 3.308890 0.000000 
#    z 0.042350 0.000000 3.807020 
# 
# 
# High freq. dielectric constant tensor:
#      x y z
#    x 1.727600 0.000000 0.006820 
#    y 0.000000 1.724470 0.000000 
#    z 0.006820 0.000000 1.753890 
# 
# From -- ./inp_files/67263.got.cif
#   From: 2010.06.25/outbox.cif.g09.slc.cpg/sg11_34_cif.got.tgz:67263.got - 2010.06.27 23:14:04.
