data_PCOD8069998
_publ_section_title
;
Structure prediction by ZEFSAII (Michael W. Deem and Ramdas Pophale) SiO2 
 PCOD8069998
Probable space group: P 21/M
;
_chemical_formula_sum "Si O2"
_cell_formula_units_Z 32
_cell_length_a 18.422024
_cell_length_b 8.951212
_cell_length_c 13.595203
_cell_angle_alpha 90.000000
_cell_angle_beta 112.758262
_cell_angle_gamma 90.000000
_cell_volume 2067.303276
_symmetry_space_group_name_H-M "P 21/M"
_symmetry_group_IT_number 11
_symmetry_cell_setting 'monoclinic'
loop_
_space_group_symop_operation_xyz
x,y,z
-x,1/2+y,-z
-x,-y,-z
x,1/2-y,z
loop_
_atom_site_type_symbol
_atom_site_label
_atom_site_fract_x
_atom_site_fract_y
_atom_site_fract_z
Si Si1 0.958096 0.921344 0.113197
Si Si2 0.119332 0.076964 0.517222
Si Si3 0.740190 0.427293 0.506234
Si Si4 0.740582 0.573353 0.715606
Si Si5 0.566967 0.085014 0.411856
Si Si6 0.582363 0.415527 0.652545
Si Si7 0.121890 0.577302 0.100645
Si Si8 0.021887 0.078034 0.654721
O O1 0.936632 0.750000 0.077820
O O2 0.944564 0.959481 0.220341
O O3 0.049015 0.952291 0.135196
O O4 0.901295 0.028818 0.021765
O O5 0.136900 0.250000 0.507638
O O6 0.091203 0.045096 0.613531
O O7 0.198746 0.983478 0.543225
O O8 0.052956 0.025284 0.405685
O O9 0.745020 0.250000 0.522778
O O10 0.760563 0.500358 0.621379
O O11 0.652845 0.474894 0.423254
O O12 0.739705 0.750000 0.703096
O O13 0.656564 0.520564 0.714212
O O14 0.806203 0.524221 0.827365
O O15 0.551792 0.250000 0.360652
O O16 0.567559 0.092338 0.529415
O O17 0.496569 0.979504 0.336760
O O18 0.598492 0.250000 0.703234
O O19 0.147254 0.750000 0.113722
O O20 0.993846 0.250000 0.633044
#
# Coordination Sequence:
#
# PCOD8069998 Si02
#       8
#     4   4   4   4   4   4   4   4
#     4   9  18  32  47  61  82 113 144 176 216 256
#     4  10  19  29  44  66  87 111 147 183 214 253
#     4  10  19  30  43  60  86 117 146 179 217 253
#     4  11  20  29  43  62  86 115 147 179 210 251
#     4   8  15  26  39  56  79 110 144 173 206 250
#     4   9  16  26  40  58  82 111 141 173 210 249
#     4  10  19  30  45  65  87 110 141 179 216 255
#     4   9  18  32  47  62  85 116 146 179 217 255
#
# _framework density 15.479103
#
# number of rings (size 3 to 8) (size 9 to 14) (size 15 to 20)
#    0.000    2.500    0.000    4.125    0.000    6.000 
#    0.000    0.000    0.000    0.000    0.000    0.000 
#    0.000    1.000    0.000    3.000    0.000    4.875 
#
# Total GULP energy -396792.503418 kJ/mol
# GULP energy per Si atom -12399.765732 kJ/mol
# Density = 1.544387 g / cm^3
# Si number density = 15.479103 Si / 1000 Ang^3
#
#
#
# Elastic Constant Matrix: (Units=GPa)
#
#
# Indices 1 2 3 4 5 6 
#
# 1 107.7328 50.6882 38.5737 0.0000 8.4588 0.0000
# 2 50.6882 93.9333 32.0666 0.0000 6.5837 0.0000
# 3 38.5737 32.0666 60.7121 0.0000 -0.5424 0.0000
# 4 0.0000 0.0000 0.0000 21.8189 0.0000 4.7509
# 5 8.4588 6.5837 -0.5424 0.0000 16.5917 0.0000
# 6 0.0000 0.0000 0.0000 4.7509 0.0000 27.9734
#
#
#
# Elastic Compliance Matrix: (Units=1/GPa)
#
#
# Indices 1 2 3 4 5 6 
#
# 1 0.014501 -0.005215 -0.006508 0.000000 -0.005536 0.000000
# 2 -0.005215 0.015362 -0.004832 0.000000 -0.003595 0.000000
# 3 -0.006508 -0.004832 0.023212 0.000000 0.005994 0.000000
# 4 0.000000 0.000000 0.000000 0.047592 0.000000 -0.008083
# 5 -0.005536 -0.003595 0.005994 0.000000 0.064716 0.000000
# 6 0.000000 0.000000 0.000000 -0.008083 0.000000 0.037121
#
#
# Mechanical properties :
#
#
# Convention : Reuss Voigt Hill
#
# Bulk Modulus (GPa) = 50.09179 56.11501 53.10340
# Shear Modulus (GPa) = 20.63824 22.68013 21.65918
#
# Velocity S-wave (km/s) = 3.65540 3.83196 3.74472
# Velocity P-wave (km/s) = 7.08852 7.47726 7.28548
#
# Compressibility (1/GPa) = 0.01996335
#
# Stress axis : x y z
#
# Youngs Moduli (GPa) = 68.96138 65.09725 43.08121
#
# Poissons Ratio (x) = 0.33949 0.28038
# Poissons Ratio (y) = 0.35965 0.20818
# Poissons Ratio (z) = 0.44881 0.31457
#
# Static dielectric constant tensor:
#      x y z
#    x 3.077770 0.000000 0.086340 
#    y 0.000000 3.121410 0.000000 
#    z 0.086340 0.000000 2.630370 
# 
# 
# High freq. dielectric constant tensor:
#      x y z
#    x 1.588880 0.000000 0.014400 
#    y 0.000000 1.608170 0.000000 
#    z 0.014400 0.000000 1.548240 
# 
# From -- ./inp_files/52964.got.cif
#   From: 2010.06.25/outbox.cif.g09.slc.cpg/sg11_27_cif.got.tgz:52964.got - 2010.06.27 23:14:04.
