data_PCOD8069597
_publ_section_title
;
Structure prediction by ZEFSAII (Michael W. Deem and Ramdas Pophale) SiO2 
 PCOD8069597
Probable space group: P 21/M
;
_chemical_formula_sum "Si O2"
_cell_formula_units_Z 24
_cell_length_a 7.901667
_cell_length_b 18.772413
_cell_length_c 9.967910
_cell_angle_alpha 90.000000
_cell_angle_beta 118.045854
_cell_angle_gamma 90.000000
_cell_volume 1304.947006
_symmetry_space_group_name_H-M "P 21/M"
_symmetry_group_IT_number 11
_symmetry_cell_setting 'monoclinic'
loop_
_space_group_symop_operation_xyz
x,y,z
-x,1/2+y,-z
-x,-y,-z
x,1/2-y,z
loop_
_atom_site_type_symbol
_atom_site_label
_atom_site_fract_x
_atom_site_fract_y
_atom_site_fract_z
Si Si1 0.862723 0.954584 0.538714
Si Si2 0.160718 0.531879 0.208553
Si Si3 0.106879 0.114272 0.048164
Si Si4 0.078959 0.829295 0.771608
Si Si5 0.489265 0.606897 0.909856
Si Si6 0.548549 0.952798 0.213191
O O1 0.691233 0.926553 0.381993
O O2 0.964025 0.885482 0.638630
O O3 0.787182 0.012723 0.618963
O O4 0.000000 0.000000 0.500000
O O5 0.082820 0.458436 0.121021
O O6 0.339085 0.560161 0.191947
O O7 0.001436 0.595379 0.133427
O O8 0.327967 0.138086 0.105323
O O9 0.995334 0.170372 0.100888
O O10 0.039547 0.750000 0.701164
O O11 0.308619 0.840724 0.847465
O O12 0.414726 0.534884 0.811962
O O13 0.571471 0.594275 0.089137
#
# Coordination Sequence:
#
# PCOD8069597 Si02
#       6
#     4   4   4   4   4   4
#     4  11  20  33  55  87 116 148 190 241 286 335
#     4   9  17  30  54  86 115 137 179 237 289 326
#     4   9  18  33  55  84 110 142 184 232 276 335
#     4  11  23  39  56  80 116 154 188 233 292 347
#     4  10  19  34  59  86 110 145 189 235 280 337
#     4  10  18  32  57  89 115 139 188 241 284 328
#
# _framework density 18.391551
#
# number of rings (size 3 to 8) (size 9 to 14) (size 15 to 20)
#    0.000    2.000    3.333    1.500    4.667    0.667 
#    0.000    0.833    0.000    3.000    0.000    0.000 
#    0.000    0.000    0.000    0.000    0.000    0.000 
#
# Total GULP energy -297379.812692 kJ/mol
# GULP energy per Si atom -12390.825529 kJ/mol
# Density = 1.834969 g / cm^3
# Si number density = 18.391551 Si / 1000 Ang^3
#
#
#
# Elastic Constant Matrix: (Units=GPa)
#
#
# Indices 1 2 3 4 5 6 
#
# 1 89.0428 39.5475 20.6388 0.0000 -5.6901 0.0000
# 2 39.5475 68.7684 30.0136 0.0000 2.3458 0.0000
# 3 20.6388 30.0136 104.3180 0.0000 4.2161 0.0000
# 4 0.0000 0.0000 0.0000 15.5052 0.0000 1.7080
# 5 -5.6901 2.3458 4.2161 0.0000 30.6406 0.0000
# 6 0.0000 0.0000 0.0000 1.7080 0.0000 13.8689
#
#
#
# Elastic Compliance Matrix: (Units=1/GPa)
#
#
# Indices 1 2 3 4 5 6 
#
# 1 0.015506 -0.008735 -0.000702 0.000000 0.003645 0.000000
# 2 -0.008735 0.021562 -0.004368 0.000000 -0.002672 0.000000
# 3 -0.000702 -0.004368 0.011035 0.000000 -0.001314 0.000000
# 4 0.000000 0.000000 0.000000 0.065382 0.000000 -0.008052
# 5 0.003645 -0.002672 -0.001314 0.000000 0.033699 0.000000
# 6 0.000000 0.000000 0.000000 -0.008052 0.000000 0.073095
#
#
# Mechanical properties :
#
#
# Convention : Reuss Voigt Hill
#
# Bulk Modulus (GPa) = 48.79550 49.16990 48.98270
# Shear Modulus (GPa) = 19.62953 23.46490 21.54721
#
# Velocity S-wave (km/s) = 3.27052 3.57578 3.42655
# Velocity P-wave (km/s) = 6.39146 6.62128 6.50739
#
# Compressibility (1/GPa) = 0.02049369
#
# Stress axis : x y z
#
# Youngs Moduli (GPa) = 64.49218 46.37726 90.62368
#
# Poissons Ratio (x) = 0.40511 0.06360
# Poissons Ratio (y) = 0.56335 0.39580
# Poissons Ratio (z) = 0.04526 0.20256
#
# Static dielectric constant tensor:
#      x y z
#    x 3.467150 0.000000 -0.278180 
#    y 0.000000 3.024910 0.000000 
#    z -0.278180 0.000000 3.010770 
# 
# 
# High freq. dielectric constant tensor:
#      x y z
#    x 1.732800 0.000000 -0.002140 
#    y 0.000000 1.660120 0.000000 
#    z -0.002140 0.000000 1.710190 
# 
# From -- ./inp_files/14107.got.cif
#   From: 2010.06.25/outbox.cif.g09.slc.cpg/sg11_8_cif.got.tgz:14107.got - 2010.06.27 23:14:04.
