data_PCOD8069997
_publ_section_title
;
Structure prediction by ZEFSAII (Michael W. Deem and Ramdas Pophale) SiO2 
 PCOD8069997
Probable space group: P 21/M
;
_chemical_formula_sum "Si O2"
_cell_formula_units_Z 32
_cell_length_a 15.030759
_cell_length_b 14.148424
_cell_length_c 12.983075
_cell_angle_alpha 90.000000
_cell_angle_beta 44.962957
_cell_angle_gamma 90.000000
_cell_volume 1951.059811
_symmetry_space_group_name_H-M "P 21/M"
_symmetry_group_IT_number 11
_symmetry_cell_setting 'monoclinic'
loop_
_space_group_symop_operation_xyz
x,y,z
-x,1/2+y,-z
-x,-y,-z
x,1/2-y,z
loop_
_atom_site_type_symbol
_atom_site_label
_atom_site_fract_x
_atom_site_fract_y
_atom_site_fract_z
Si Si1 0.715372 0.643704 0.545099
Si Si2 0.166419 0.362080 0.850884
Si Si3 0.188005 0.983353 0.413668
Si Si4 0.071322 0.356734 0.151612
Si Si5 0.635073 0.976260 0.432644
Si Si6 0.984346 0.853462 0.215074
Si Si7 0.090759 0.513127 0.281944
Si Si8 0.780058 0.359442 0.423918
O O1 0.671404 0.750000 0.611183
O O2 0.723330 0.575256 0.638473
O O3 0.620746 0.596579 0.540041
O O4 0.851947 0.645042 0.382042
O O5 0.197889 0.250000 0.812961
O O6 0.285696 0.425665 0.722447
O O7 0.046556 0.387641 0.875858
O O8 0.130816 0.389924 0.995648
O O9 0.231806 0.894560 0.447390
O O10 0.046636 0.011750 0.556727
O O11 0.191242 0.958376 0.288734
O O12 0.106856 0.250000 0.146248
O O13 0.921861 0.372449 0.268212
O O14 0.129715 0.413119 0.200268
O O15 0.500000 0.000000 0.500000
O O16 0.696515 0.075163 0.418647
O O17 0.044113 0.750000 0.164598
O O18 0.089488 0.915574 0.186072
O O19 0.736454 0.250000 0.453784
#
# Coordination Sequence:
#
# PCOD8069997 Si02
#       8
#     4   4   4   4   4   4   4   4
#     4   8  14  26  41  56  77 105 138 175 212 250
#     4   9  17  30  46  63  88 120 148 175 212 260
#     4   8  15  25  37  57  85 115 141 171 218 262
#     4   9  17  28  43  64  90 120 148 174 213 263
#     4  10  19  29  44  66  87 110 145 184 219 255
#     4   8  14  23  36  55  78 109 146 174 201 244
#     4   9  15  23  37  59  86 112 142 179 212 250
#     4   9  18  30  42  61  90 119 147 180 219 263
#
# _framework density 16.401342
#
# number of rings (size 3 to 8) (size 9 to 14) (size 15 to 20)
#    0.000    3.250    0.000    3.375    0.000    4.000 
#    0.000    5.000    0.000    0.000    0.000    3.500 
#    0.000    2.000    0.000    0.000    0.000    0.000 
#
# Total GULP energy -396469.271877 kJ/mol
# GULP energy per Si atom -12389.664746 kJ/mol
# Density = 1.636401 g / cm^3
# Si number density = 16.401342 Si / 1000 Ang^3
#
#
#
# Elastic Constant Matrix: (Units=GPa)
#
#
# Indices 1 2 3 4 5 6 
#
# 1 86.2283 53.5630 47.2067 0.0000 21.1452 0.0000
# 2 53.5630 107.6342 35.5496 0.0000 8.8995 0.0000
# 3 47.2067 35.5496 52.8159 0.0000 19.0397 0.0000
# 4 0.0000 0.0000 0.0000 17.4058 0.0000 6.2398
# 5 21.1452 8.8995 19.0397 0.0000 15.3686 0.0000
# 6 0.0000 0.0000 0.0000 6.2398 0.0000 15.8325
#
#
#
# Elastic Compliance Matrix: (Units=1/GPa)
#
#
# Indices 1 2 3 4 5 6 
#
# 1 0.028425 -0.008222 -0.013535 0.000000 -0.017580 0.000000
# 2 -0.008222 0.014587 -0.006330 0.000000 0.010706 0.000000
# 3 -0.013535 -0.006330 0.049254 0.000000 -0.038732 0.000000
# 4 0.000000 0.000000 0.000000 0.066904 0.000000 -0.026368
# 5 -0.017580 0.010706 -0.038732 0.000000 0.131041 0.000000
# 6 0.000000 0.000000 0.000000 -0.026368 0.000000 0.073553
#
#
# Mechanical properties :
#
#
# Convention : Reuss Voigt Hill
#
# Bulk Modulus (GPa) = 27.70511 57.70187 42.70349
# Shear Modulus (GPa) = 11.57490 17.07865 14.32678
#
# Velocity S-wave (km/s) = 2.65944 3.23041 2.95873
# Velocity P-wave (km/s) = 5.13408 7.01225 6.14534
#
# Compressibility (1/GPa) = 0.03609442
#
# Stress axis : x y z
#
# Youngs Moduli (GPa) = 35.18023 68.55207 20.30284
#
# Poissons Ratio (x) = 0.56360 0.27480
# Poissons Ratio (y) = 0.28923 0.12851
# Poissons Ratio (z) = 0.47616 0.43392
#
# Static dielectric constant tensor:
#      x y z
#    x 2.996950 0.000000 0.450620 
#    y 0.000000 3.397260 0.000000 
#    z 0.450620 0.000000 2.834860 
# 
# 
# High freq. dielectric constant tensor:
#      x y z
#    x 1.603850 0.000000 0.041270 
#    y 0.000000 1.644610 0.000000 
#    z 0.041270 0.000000 1.583860 
# 
# From -- ./inp_files/39347.got.cif
#   From: 2010.06.25/outbox.cif.g09.slc.cpg/sg11_20_cif.got.tgz:39347.got - 2010.06.27 23:14:04.
