data_PCOD8069364
_publ_section_title
;
Structure prediction by ZEFSAII (Michael W. Deem and Ramdas Pophale) SiO2 
 PCOD8069364
Probable space group: P 21/M
;
_chemical_formula_sum "Si O2"
_cell_formula_units_Z 28
_cell_length_a 11.451294
_cell_length_b 15.339901
_cell_length_c 9.128631
_cell_angle_alpha 90.000000
_cell_angle_beta 80.550967
_cell_angle_gamma 90.000000
_cell_volume 1581.794054
_symmetry_space_group_name_H-M "P 21/M"
_symmetry_group_IT_number 11
_symmetry_cell_setting 'monoclinic'
loop_
_space_group_symop_operation_xyz
x,y,z
-x,1/2+y,-z
-x,-y,-z
x,1/2-y,z
loop_
_atom_site_type_symbol
_atom_site_label
_atom_site_fract_x
_atom_site_fract_y
_atom_site_fract_z
Si Si1 0.977102 0.082279 0.903616
Si Si2 0.361452 0.993868 0.010706
Si Si3 0.198469 0.152650 0.975172
Si Si4 0.839921 0.347647 0.429954
Si Si5 0.886835 0.845182 0.683253
Si Si6 0.763928 0.349012 0.123863
Si Si7 0.192319 0.526099 0.306660
O O1 0.929090 0.052224 0.754380
O O2 0.103834 0.131763 0.864408
O O3 0.879402 0.143987 0.997945
O O4 0.000000 0.000000 0.000000
O O5 0.338353 0.914627 0.904884
O O6 0.305900 0.083608 0.958074
O O7 0.305028 0.968703 0.177856
O O8 0.500000 0.000000 0.000000
O O9 0.250934 0.250000 0.941263
O O10 0.121023 0.146530 0.139251
O O11 0.798156 0.250000 0.476884
O O12 0.792360 0.376885 0.282956
O O13 0.784938 0.410530 0.562968
O O14 0.980435 0.352549 0.399127
O O15 0.834455 0.750000 0.646407
O O16 0.816563 0.926920 0.628964
O O17 0.717283 0.250000 0.124365
#
# Coordination Sequence:
#
# PCOD8069364 Si02
#       7
#     4   4   4   4   4   4   4
#     4  11  16  30  51  81 108 135 166 209 266 325
#     4  10  22  38  54  75 101 137 188 227 259 300
#     4  10  18  31  53  76 104 136 169 213 265 316
#     4  10  19  31  49  79 109 136 166 205 264 325
#     4   9  16  28  47  73 104 136 166 198 251 322
#     4  10  19  33  56  78 105 140 173 212 263 322
#     4  10  20  31  52  77 108 136 170 218 262 300
#
# _framework density 17.701419999999999
#
# number of rings (size 3 to 8) (size 9 to 14) (size 15 to 20)
#    0.000    2.000    5.714    0.857    0.000    3.429 
#    0.000    0.714    0.000    0.000    0.000    0.000 
#    0.000    0.000    0.000    0.000    0.000    0.000 
#
# Total GULP energy -347058.969376 kJ/mol
# GULP energy per Si atom -12394.963192 kJ/mol
# Density = 1.766113 g / cm^3
# Si number density = 17.701420 Si / 1000 Ang^3
#
#
#
# Elastic Constant Matrix: (Units=GPa)
#
#
# Indices 1 2 3 4 5 6 
#
# 1 94.2817 37.6465 19.0588 0.0000 -3.4931 0.0000
# 2 37.6465 127.2995 43.8706 0.0000 7.0201 0.0000
# 3 19.0588 43.8706 56.2695 0.0000 4.9689 0.0000
# 4 0.0000 0.0000 0.0000 27.6124 0.0000 3.9717
# 5 -3.4931 7.0201 4.9689 0.0000 14.0060 0.0000
# 6 0.0000 0.0000 0.0000 3.9717 0.0000 16.6000
#
#
#
# Elastic Compliance Matrix: (Units=1/GPa)
#
#
# Indices 1 2 3 4 5 6 
#
# 1 0.012559 -0.003262 -0.002201 0.000000 0.005548 0.000000
# 2 -0.003262 0.011674 -0.007648 0.000000 -0.003951 0.000000
# 3 -0.002201 -0.007648 0.024972 0.000000 -0.005575 0.000000
# 4 0.000000 0.000000 0.000000 0.037506 0.000000 -0.008974
# 5 0.005548 -0.003951 -0.005575 0.000000 0.076740 0.000000
# 6 0.000000 0.000000 0.000000 -0.008974 0.000000 0.062388
#
#
# Mechanical properties :
#
#
# Convention : Reuss Voigt Hill
#
# Bulk Modulus (GPa) = 43.50776 53.22252 48.36514
# Shear Modulus (GPa) = 19.25147 23.46202 21.35674
#
# Velocity S-wave (km/s) = 3.30140 3.64460 3.47724
# Velocity P-wave (km/s) = 6.25815 6.91685 6.59573
#
# Compressibility (1/GPa) = 0.02298441
#
# Stress axis : x y z
#
# Youngs Moduli (GPa) = 79.62206 85.66384 40.04510
#
# Poissons Ratio (x) = 0.27941 0.08813
# Poissons Ratio (y) = 0.25970 0.30625
# Poissons Ratio (z) = 0.17524 0.65512
#
# Static dielectric constant tensor:
#      x y z
#    x 2.940770 0.000000 0.109310 
#    y 0.000000 3.776260 0.000000 
#    z 0.109310 0.000000 3.035590 
# 
# 
# High freq. dielectric constant tensor:
#      x y z
#    x 1.639340 0.000000 0.007650 
#    y 0.000000 1.709440 0.000000 
#    z 0.007650 0.000000 1.656110 
# 
# From -- ./inp_files/17665.got.cif
#   From: 2010.06.25/outbox.cif.g09.slc.cpg/sg11_9_cif.got.tgz:17665.got - 2010.06.27 23:14:04.
