data_PCOD8069880
_publ_section_title
;
Structure prediction by ZEFSAII (Michael W. Deem and Ramdas Pophale) SiO2 
 PCOD8069880
Probable space group: P 21/M
;
_chemical_formula_sum "Si O2"
_cell_formula_units_Z 28
_cell_length_a 11.851859
_cell_length_b 14.110468
_cell_length_c 9.776905
_cell_angle_alpha 90.000000
_cell_angle_beta 60.670942
_cell_angle_gamma 90.000000
_cell_volume 1425.465132
_symmetry_space_group_name_H-M "P 21/M"
_symmetry_group_IT_number 11
_symmetry_cell_setting 'monoclinic'
loop_
_space_group_symop_operation_xyz
x,y,z
-x,1/2+y,-z
-x,-y,-z
x,1/2-y,z
loop_
_atom_site_type_symbol
_atom_site_label
_atom_site_fract_x
_atom_site_fract_y
_atom_site_fract_z
Si Si1 0.201505 0.150005 0.072118
Si Si2 0.340806 0.858692 0.752991
Si Si3 0.053664 0.580347 0.873314
Si Si4 0.398605 0.860299 0.412572
Si Si5 0.432856 0.485140 0.891553
Si Si6 0.138201 0.954169 0.528349
Si Si7 0.105532 0.143154 0.432565
O O1 0.271595 0.250000 0.993662
O O2 0.170677 0.151071 0.248952
O O3 0.066376 0.152322 0.068995
O O4 0.291754 0.061112 0.988429
O O5 0.371887 0.750000 0.762360
O O6 0.185115 0.871721 0.849567
O O7 0.404537 0.890041 0.569838
O O8 0.411096 0.913606 0.834136
O O9 0.078463 0.533895 0.712523
O O10 0.000000 0.500000 0.000000
O O11 0.431231 0.750000 0.375223
O O12 0.490753 0.919921 0.259928
O O13 0.253943 0.880018 0.450236
O O14 0.500000 0.500000 0.000000
O O15 0.036963 0.904292 0.485505
O O16 0.186314 0.061875 0.464978
O O17 0.103101 0.250000 0.501019
#
# Coordination Sequence:
#
# PCOD8069880 Si02
#       7
#     4   4   4   4   4   4   4
#     4  10  20  35  58  83 112 150 189 235 295 350
#     4  10  22  41  64  87 115 155 202 247 297 352
#     4  10  18  36  62  84 112 145 186 247 295 347
#     4  10  21  39  61  83 111 156 205 243 285 349
#     4  12  24  38  59  87 125 158 197 242 294 348
#     4   9  18  32  56  80 110 149 193 235 292 342
#     4   9  17  32  53  80 113 147 187 234 292 354
#
# _framework density 19.642712
#
# number of rings (size 3 to 8) (size 9 to 14) (size 15 to 20)
#    0.000    2.000    1.429    2.571    0.000    4.571 
#    0.000    2.143    0.000    0.000    0.000    0.000 
#    0.000    0.000    0.000    0.000    0.000    0.000 
#
# Total GULP energy -346877.954659 kJ/mol
# GULP energy per Si atom -12388.498381 kJ/mol
# Density = 1.959800 g / cm^3
# Si number density = 19.642712 Si / 1000 Ang^3
#
#
#
# Elastic Constant Matrix: (Units=GPa)
#
#
# Indices 1 2 3 4 5 6 
#
# 1 84.1039 35.5512 48.1243 0.0000 8.9373 0.0000
# 2 35.5512 129.4049 51.1335 0.0000 7.5386 0.0000
# 3 48.1243 51.1335 67.2878 0.0000 -3.8829 0.0000
# 4 0.0000 0.0000 0.0000 28.1098 0.0000 -1.7115
# 5 8.9373 7.5386 -3.8829 0.0000 26.1876 0.0000
# 6 0.0000 0.0000 0.0000 -1.7115 0.0000 25.1935
#
#
#
# Elastic Compliance Matrix: (Units=1/GPa)
#
#
# Indices 1 2 3 4 5 6 
#
# 1 0.022719 0.001514 -0.018026 0.000000 -0.010862 0.000000
# 2 0.001514 0.011687 -0.010276 0.000000 -0.005405 0.000000
# 3 -0.018026 -0.010276 0.036400 0.000000 0.014507 0.000000
# 4 0.000000 0.000000 0.000000 0.035723 0.000000 0.002427
# 5 -0.010862 -0.005405 0.014507 0.000000 0.045600 0.000000
# 6 0.000000 0.000000 0.000000 0.002427 0.000000 0.039858
#
#
# Mechanical properties :
#
#
# Convention : Reuss Voigt Hill
#
# Bulk Modulus (GPa) = 58.03834 61.15716 59.59775
# Shear Modulus (GPa) = 19.89620 25.63069 22.76345
#
# Velocity S-wave (km/s) = 3.18607 3.61618 3.40792
# Velocity P-wave (km/s) = 6.56855 6.97410 6.77436
#
# Compressibility (1/GPa) = 0.01722999
#
# Stress axis : x y z
#
# Youngs Moduli (GPa) = 44.01673 85.56452 27.47273
#
# Poissons Ratio (x) = -0.12955 0.49522
# Poissons Ratio (y) = -0.06665 0.28231
# Poissons Ratio (z) = 0.79344 0.87927
#
# Static dielectric constant tensor:
#      x y z
#    x 3.574550 0.000000 -0.024360 
#    y 0.000000 4.012830 0.000000 
#    z -0.024360 0.000000 3.678850 
# 
# 
# High freq. dielectric constant tensor:
#      x y z
#    x 1.753350 0.000000 -0.007590 
#    y 0.000000 1.776860 0.000000 
#    z -0.007590 0.000000 1.760730 
# 
# From -- ./inp_files/17947.got.cif
#   From: 2010.06.25/outbox.cif.g09.slc.cpg/sg11_9_cif.got.tgz:17947.got - 2010.06.27 23:14:04.
