data_PCOD8069782
_publ_section_title
;
Structure prediction by ZEFSAII (Michael W. Deem and Ramdas Pophale) SiO2 
 PCOD8069782
Probable space group: P 21/M
;
_chemical_formula_sum "Si O2"
_cell_formula_units_Z 32
_cell_length_a 21.856699
_cell_length_b 9.028625
_cell_length_c 28.182854
_cell_angle_alpha 90.000000
_cell_angle_beta 161.232845
_cell_angle_gamma 90.000000
_cell_volume 1789.259080
_symmetry_space_group_name_H-M "P 21/M"
_symmetry_group_IT_number 11
_symmetry_cell_setting 'monoclinic'
loop_
_space_group_symop_operation_xyz
x,y,z
-x,1/2+y,-z
-x,-y,-z
x,1/2-y,z
loop_
_atom_site_type_symbol
_atom_site_label
_atom_site_fract_x
_atom_site_fract_y
_atom_site_fract_z
Si Si1 0.919087 0.074078 0.834545
Si Si2 0.303831 0.425196 0.598560
Si Si3 0.810888 0.925547 0.658059
Si Si4 0.702864 0.075471 0.151518
Si Si5 0.699559 0.074448 0.852390
Si Si6 0.002521 0.424527 0.451175
Si Si7 0.605501 0.074894 0.677750
Si Si8 0.017259 0.425197 0.311984
O O1 0.922718 0.250000 0.836367
O O2 0.761898 0.013057 0.755948
O O3 0.871798 0.014196 0.748434
O O4 0.121650 0.014158 0.998284
O O5 0.291129 0.250000 0.585444
O O6 0.524025 0.473054 0.757694
O O7 0.190799 0.492312 0.470399
O O8 0.199044 0.476186 0.569926
O O9 0.816459 0.750000 0.671950
O O10 0.601507 0.981308 0.489787
O O11 0.958699 0.973049 0.725033
O O12 0.671873 0.250000 0.128911
O O13 0.822205 0.027945 0.286103
O O14 0.817428 0.023824 0.188309
O O15 0.500000 0.000000 0.000000
O O16 0.738374 0.250000 0.882890
O O17 0.654623 0.018681 0.766344
O O18 0.999968 0.250000 0.457010
O O19 0.000000 0.500000 0.500000
O O20 0.605255 0.250000 0.677633
O O21 0.031617 0.250000 0.325927
#
# Coordination Sequence:
#
# PCOD8069782 Si02
#       8
#     4   4   4   4   4   4   4   4
#     4  11  23  35  45  73 116 141 156 200 265 313
#     4   8  14  29  55  79  96 122 170 222 250 277
#     4  10  18  34  58  78  95 128 178 218 248 292
#     4   9  18  33  53  78 105 132 165 206 251 298
#     4  10  18  34  58  78  95 128 178 218 248 292
#     4   9  18  33  53  78 105 132 165 206 251 298
#     4   9  18  33  57  79  96 127 174 218 253 295
#     4   8  14  29  55  79  96 122 170 222 250 277
#
# _framework density 17.884495999999999
#
# number of rings (size 3 to 8) (size 9 to 14) (size 15 to 20)
#    0.000    2.750    1.250    2.625    0.000    0.500 
#    2.250    3.125    0.000    1.500    0.000    0.000 
#    0.000    0.000    0.000    0.000    0.000    0.000 
#
# Total GULP energy -396603.613160 kJ/mol
# GULP energy per Si atom -12393.862911 kJ/mol
# Density = 1.784379 g / cm^3
# Si number density = 17.884496 Si / 1000 Ang^3
#
#
#
# Elastic Constant Matrix: (Units=GPa)
#
#
# Indices 1 2 3 4 5 6 
#
# 1 175.2522 40.4946 95.8901 0.0000 7.3633 0.0000
# 2 40.4946 35.9101 39.8261 0.0000 0.4678 0.0000
# 3 95.8901 39.8261 151.1209 0.0000 9.4590 0.0000
# 4 0.0000 0.0000 0.0000 -6.3949 0.0000 16.6264
# 5 7.3633 0.4678 9.4590 0.0000 32.9385 0.0000
# 6 0.0000 0.0000 0.0000 16.6264 0.0000 17.4738
#
#
#
# Elastic Compliance Matrix: (Units=1/GPa)
#
#
# Indices 1 2 3 4 5 6 
#
# 1 0.009516 -0.005761 -0.004472 0.000000 -0.000761 0.000000
# 2 -0.005761 0.043033 -0.007869 0.000000 0.002936 0.000000
# 3 -0.004472 -0.007869 0.011669 0.000000 -0.002239 0.000000
# 4 0.000000 0.000000 0.000000 -0.045015 0.000000 0.042832
# 5 -0.000761 0.002936 -0.002239 0.000000 0.031131 0.000000
# 6 0.000000 0.000000 0.000000 0.042832 0.000000 0.016474
#
#
# Mechanical properties :
#
#
# Convention : Reuss Voigt Hill
#
# Bulk Modulus (GPa) = 35.69765 79.41165 57.55465
# Shear Modulus (GPa) = 44.50311 21.20831 32.85571
#
# Velocity S-wave (km/s) = 4.99376 3.44735 4.29080
# Velocity P-wave (km/s) = 7.29751 7.76818 7.53652
#
# Compressibility (1/GPa) = 0.02801305
#
# Stress axis : x y z
#
# Youngs Moduli (GPa) = 105.08207 23.23804 85.69687
#
# Poissons Ratio (x) = 0.13388 0.38327
# Poissons Ratio (y) = 0.60540 0.67435
# Poissons Ratio (z) = 0.46997 0.18286
#
# Static dielectric constant tensor:
#      x y z
#    x 3.621760 0.000000 0.462010 
#    y 0.000000 2.882450 0.000000 
#    z 0.462010 0.000000 2.959410 
# 
# 
# High freq. dielectric constant tensor:
#      x y z
#    x 1.706640 0.000000 0.009420 
#    y 0.000000 1.649260 0.000000 
#    z 0.009420 0.000000 1.693130 
# 
# From -- ./inp_files/67151.got.cif
#   From: 2010.06.25/outbox.cif.g09.slc.cpg/sg11_34_cif.got.tgz:67151.got - 2010.06.27 23:14:04.
