data_PCOD8069275
_publ_section_title
;
Structure prediction by ZEFSAII (Michael W. Deem and Ramdas Pophale) SiO2 
 PCOD8069275
Probable space group: P 21/M
;
_chemical_formula_sum "Si O2"
_cell_formula_units_Z 20
_cell_length_a 10.294886
_cell_length_b 8.848215
_cell_length_c 21.575061
_cell_angle_alpha 90.000000
_cell_angle_beta 144.855517
_cell_angle_gamma 90.000000
_cell_volume 1131.306829
_symmetry_space_group_name_H-M "P 21/M"
_symmetry_group_IT_number 11
_symmetry_cell_setting 'monoclinic'
loop_
_space_group_symop_operation_xyz
x,y,z
-x,1/2+y,-z
-x,-y,-z
x,1/2-y,z
loop_
_atom_site_type_symbol
_atom_site_label
_atom_site_fract_x
_atom_site_fract_y
_atom_site_fract_z
Si Si1 0.037933 0.570563 0.715143
Si Si2 0.647024 0.427575 0.503748
Si Si3 0.231119 0.426682 0.269677
Si Si4 0.958488 0.073067 0.049369
Si Si5 0.513081 0.927872 0.072565
O O1 0.053775 0.750000 0.717036
O O2 0.285277 0.499401 0.808750
O O3 0.891720 0.508409 0.599244
O O4 0.916735 0.510383 0.730531
O O5 0.500000 0.500000 0.500000
O O6 0.676773 0.250000 0.526814
O O7 0.500072 0.458480 0.383662
O O8 0.180727 0.250000 0.249409
O O9 0.141488 0.494833 0.169925
O O10 0.991457 0.250000 0.054304
O O11 0.711294 0.032275 0.977359
O O12 0.000000 0.000000 0.000000
O O13 0.547370 0.750000 0.078311
O O14 0.500000 0.000000 0.000000
#
# Coordination Sequence:
#
# PCOD8069275 Si02
#       5
#     4   4   4   4   4
#     4  10  18  31  50  75 107 136 169 216 264 311
#     4   9  16  27  46  73 103 136 170 210 263 314
#     4   8  15  30  49  70 103 137 166 209 260 305
#     4  10  21  37  53  75 106 141 175 214 259 312
#     4  11  21  34  54  78 107 138 174 218 265 314
#
# _framework density 17.678671000000001
#
# number of rings (size 3 to 8) (size 9 to 14) (size 15 to 20)
#    0.000    2.400    2.000    3.000    0.000    1.600 
#    0.000    2.000    0.000    1.200    0.000    0.000 
#    0.000    0.000    0.000    0.000    0.000    0.000 
#
# Total GULP energy -247853.591035 kJ/mol
# GULP energy per Si atom -12392.679552 kJ/mol
# Density = 1.763843 g / cm^3
# Si number density = 17.678671 Si / 1000 Ang^3
#
#
#
# Elastic Constant Matrix: (Units=GPa)
#
#
# Indices 1 2 3 4 5 6 
#
# 1 77.2517 42.3758 60.0909 0.0000 -4.2348 0.0000
# 2 42.3758 76.3442 65.5821 0.0000 7.1988 0.0000
# 3 60.0909 65.5821 200.8962 0.0000 5.1456 0.0000
# 4 0.0000 0.0000 0.0000 33.0874 0.0000 1.6235
# 5 -4.2348 7.1988 5.1456 0.0000 19.3940 0.0000
# 6 0.0000 0.0000 0.0000 1.6235 0.0000 22.4714
#
#
#
# Elastic Compliance Matrix: (Units=1/GPa)
#
#
# Indices 1 2 3 4 5 6 
#
# 1 0.021563 -0.009867 -0.003467 0.000000 0.009291 0.000000
# 2 -0.009867 0.023258 -0.004395 0.000000 -0.009621 0.000000
# 3 -0.003467 -0.004395 0.007478 0.000000 -0.001110 0.000000
# 4 0.000000 0.000000 0.000000 0.030331 0.000000 -0.002191
# 5 0.009291 -0.009621 -0.001110 0.000000 0.057457 0.000000
# 6 0.000000 0.000000 0.000000 -0.002191 0.000000 0.044659
#
#
# Mechanical properties :
#
#
# Convention : Reuss Voigt Hill
#
# Bulk Modulus (GPa) = 59.37576 76.73220 68.05398
# Shear Modulus (GPa) = 22.14197 27.42012 24.78104
#
# Velocity S-wave (km/s) = 3.54286 3.94258 3.74805
# Velocity P-wave (km/s) = 7.09893 8.01395 7.57028
#
# Compressibility (1/GPa) = 0.01684189
#
# Stress axis : x y z
#
# Youngs Moduli (GPa) = 46.37566 42.99650 133.73078
#
# Poissons Ratio (x) = 0.42424 0.46361
# Poissons Ratio (y) = 0.45758 0.58770
# Poissons Ratio (z) = 0.16077 0.18896
#
# Static dielectric constant tensor:
#      x y z
#    x 2.972590 0.000000 -0.045330 
#    y 0.000000 3.249760 0.000000 
#    z -0.045330 0.000000 4.773280 
# 
# 
# High freq. dielectric constant tensor:
#      x y z
#    x 1.624680 0.000000 0.005730 
#    y 0.000000 1.678560 0.000000 
#    z 0.005730 0.000000 1.714740 
# 
# From -- ./inp_files/23896.got.cif
#   From: 2010.06.25/outbox.cif.g09.slc.cpg/sg11_12_cif.got.tgz:23896.got - 2010.06.27 23:14:04.
