data_PCOD8069647
_publ_section_title
;
Structure prediction by ZEFSAII (Michael W. Deem and Ramdas Pophale) SiO2 
 PCOD8069647
Probable space group: P 21/M
;
_chemical_formula_sum "Si O2"
_cell_formula_units_Z 28
_cell_length_a 12.391410
_cell_length_b 9.270681
_cell_length_c 15.008033
_cell_angle_alpha 90.000000
_cell_angle_beta 105.907262
_cell_angle_gamma 90.000000
_cell_volume 1658.054216
_symmetry_space_group_name_H-M "P 21/M"
_symmetry_group_IT_number 11
_symmetry_cell_setting 'monoclinic'
loop_
_space_group_symop_operation_xyz
x,y,z
-x,1/2+y,-z
-x,-y,-z
x,1/2-y,z
loop_
_atom_site_type_symbol
_atom_site_label
_atom_site_fract_x
_atom_site_fract_y
_atom_site_fract_z
Si Si1 0.385061 0.079214 0.787326
Si Si2 0.802718 0.419356 0.785155
Si Si3 0.629537 0.421112 0.894560
Si Si4 0.347503 0.916514 0.413242
Si Si5 0.745924 0.416789 0.099573
Si Si6 0.004199 0.581431 0.907635
Si Si7 0.592967 0.581609 0.408694
O O1 0.378628 0.250000 0.797828
O O2 0.504844 0.018918 0.849124
O O3 0.368581 0.034402 0.680868
O O4 0.285817 0.006370 0.820264
O O5 0.828392 0.250000 0.805593
O O6 0.713747 0.477283 0.837567
O O7 0.754906 0.449618 0.676039
O O8 0.915181 0.511959 0.819970
O O9 0.628759 0.250000 0.888887
O O10 0.672856 0.475691 0.999942
O O11 0.352032 0.750000 0.439765
O O12 0.463041 0.963357 0.391354
O O13 0.329474 0.003069 0.500789
O O14 0.719075 0.250000 0.110717
O O15 0.875833 0.441944 0.109846
O O16 0.979131 0.750000 0.917676
O O17 0.000000 0.500000 0.000000
O O18 0.609212 0.750000 0.426319
#
# Coordination Sequence:
#
# PCOD8069647 Si02
#       7
#     4   4   4   4   4   4   4
#     4  10  19  32  52  75 102 138 173 204 246 305
#     4  10  18  33  55  76 104 137 168 207 256 305
#     4   9  16  31  51  72 103 138 165 198 252 304
#     4   9  17  30  51  76 102 135 167 202 255 307
#     4  10  21  35  50  70 102 139 170 208 254 295
#     4  11  22  36  54  75 101 135 174 215 256 296
#     4   9  17  30  49  74 105 135 165 205 252 302
#
# _framework density 16.887263999999998
#
# number of rings (size 3 to 8) (size 9 to 14) (size 15 to 20)
#    0.000    2.286    2.857    0.857    0.000    2.286 
#    0.000    0.714    0.000    0.857    0.000    0.000 
#    0.000    0.000    0.000    0.000    0.000    0.000 
#
# Total GULP energy -347229.863159 kJ/mol
# GULP energy per Si atom -12401.066541 kJ/mol
# Density = 1.684883 g / cm^3
# Si number density = 16.887264 Si / 1000 Ang^3
#
#
#
# Elastic Constant Matrix: (Units=GPa)
#
#
# Indices 1 2 3 4 5 6 
#
# 1 84.4663 46.5564 62.0557 0.0000 -4.4417 0.0000
# 2 46.5564 59.6597 60.6399 0.0000 -1.7890 0.0000
# 3 62.0557 60.6399 140.9811 0.0000 -6.5391 0.0000
# 4 0.0000 0.0000 0.0000 31.9781 0.0000 -0.4232
# 5 -4.4417 -1.7890 -6.5391 0.0000 25.7910 0.0000
# 6 0.0000 0.0000 0.0000 -0.4232 0.0000 27.5380
#
#
#
# Elastic Compliance Matrix: (Units=1/GPa)
#
#
# Indices 1 2 3 4 5 6 
#
# 1 0.022117 -0.013142 -0.003995 0.000000 0.001884 0.000000
# 2 -0.013142 0.037628 -0.010508 0.000000 -0.002317 0.000000
# 3 -0.003995 -0.010508 0.013464 0.000000 0.001997 0.000000
# 4 0.000000 0.000000 0.000000 0.031278 0.000000 0.000481
# 5 0.001884 -0.002317 0.001997 0.000000 0.039443 0.000000
# 6 0.000000 0.000000 0.000000 0.000481 0.000000 0.036321
#
#
# Mechanical properties :
#
#
# Convention : Reuss Voigt Hill
#
# Bulk Modulus (GPa) = 55.80534 69.29012 62.54773
# Shear Modulus (GPa) = 20.70277 24.78510 22.74394
#
# Velocity S-wave (km/s) = 3.50514 3.83519 3.67387
# Velocity P-wave (km/s) = 7.03555 7.79305 7.42397
#
# Compressibility (1/GPa) = 0.01791943
#
# Stress axis : x y z
#
# Youngs Moduli (GPa) = 45.21432 26.57577 74.27281
#
# Poissons Ratio (x) = 0.34926 0.29672
# Poissons Ratio (y) = 0.59421 0.78043
# Poissons Ratio (z) = 0.18063 0.27925
#
# Static dielectric constant tensor:
#      x y z
#    x 3.046920 0.000000 0.067430 
#    y 0.000000 3.015700 0.000000 
#    z 0.067430 0.000000 3.277690 
# 
# 
# High freq. dielectric constant tensor:
#      x y z
#    x 1.632340 0.000000 0.001330 
#    y 0.000000 1.636370 0.000000 
#    z 0.001330 0.000000 1.656100 
# 
# From -- ./inp_files/37494.got.cif
#   From: 2010.06.25/outbox.cif.g09.slc.cpg/sg11_19_cif.got.tgz:37494.got - 2010.06.27 23:14:04.
