data_PCOD8069206
_publ_section_title
;
Structure prediction by ZEFSAII (Michael W. Deem and Ramdas Pophale) SiO2 
 PCOD8069206
Probable space group: P 21/M
;
_chemical_formula_sum "Si O2"
_cell_formula_units_Z 32
_cell_length_a 14.476312
_cell_length_b 12.730653
_cell_length_c 14.558787
_cell_angle_alpha 90.000000
_cell_angle_beta 143.039698
_cell_angle_gamma 90.000000
_cell_volume 1613.233490
_symmetry_space_group_name_H-M "P 21/M"
_symmetry_group_IT_number 11
_symmetry_cell_setting 'monoclinic'
loop_
_space_group_symop_operation_xyz
x,y,z
-x,1/2+y,-z
-x,-y,-z
x,1/2-y,z
loop_
_atom_site_type_symbol
_atom_site_label
_atom_site_fract_x
_atom_site_fract_y
_atom_site_fract_z
Si Si1 0.015470 0.632896 0.179325
Si Si2 0.087104 0.869732 0.659882
Si Si3 0.543145 0.486205 0.639543
Si Si4 0.307859 0.631262 0.528688
Si Si5 0.501756 0.371979 0.778133
Si Si6 0.850528 0.369434 0.900003
Si Si7 0.777930 0.986238 0.375576
Si Si8 0.839695 0.064494 0.083493
O O1 0.957084 0.750000 0.156317
O O2 0.192973 0.619313 0.351054
O O3 0.016457 0.612450 0.069807
O O4 0.898486 0.555383 0.137202
O O5 0.110099 0.750000 0.645161
O O6 0.108261 0.873044 0.785788
O O7 0.918396 0.906510 0.497412
O O8 0.210487 0.946525 0.709046
O O9 0.500000 0.500000 0.500000
O O10 0.479636 0.591993 0.638391
O O11 0.461121 0.394548 0.637417
O O12 0.723521 0.461617 0.787783
O O13 0.326024 0.750000 0.576070
O O14 0.226817 0.567748 0.545151
O O15 0.526864 0.250000 0.814838
O O16 0.373397 0.414348 0.745747
O O17 0.656496 0.434191 0.926752
O O18 0.782910 0.250000 0.834580
O O19 0.919053 0.380733 0.057304
#
# Coordination Sequence:
#
# PCOD8069206 Si02
#       8
#     4   4   4   4   4   4   4   4
#     4  10  20  35  56  81 113 155 196 232 281 342
#     4  11  22  38  63  90 116 144 190 244 289 342
#     4  10  18  30  54  83 111 148 193 233 275 338
#     4  10  19  34  55  79 112 151 188 232 287 338
#     4  10  22  40  60  82 119 159 191 234 292 349
#     4  10  20  36  57  80 116 158 193 234 292 348
#     4  10  22  40  59  87 115 148 191 239 289 345
#     4  11  21  38  59  86 116 153 195 238 286 341
#
# _framework density 19.835937000000001
#
# number of rings (size 3 to 8) (size 9 to 14) (size 15 to 20)
#    0.000    1.750    2.500    3.375    0.000    1.000 
#    0.000    6.875    0.000    2.250    0.000    0.000 
#    0.000    0.000    0.000    0.000    0.000    0.000 
#
# Total GULP energy -396542.204187 kJ/mol
# GULP energy per Si atom -12391.943881 kJ/mol
# Density = 1.979079 g / cm^3
# Si number density = 19.835937 Si / 1000 Ang^3
#
#
#
# Elastic Constant Matrix: (Units=GPa)
#
#
# Indices 1 2 3 4 5 6 
#
# 1 79.6510 47.1905 23.0162 0.0000 1.8660 0.0000
# 2 47.1905 119.9113 38.7298 0.0000 13.9597 0.0000
# 3 23.0162 38.7298 60.1241 0.0000 -5.1948 0.0000
# 4 0.0000 0.0000 0.0000 22.7371 0.0000 2.6782
# 5 1.8660 13.9597 -5.1948 0.0000 33.7112 0.0000
# 6 0.0000 0.0000 0.0000 2.6782 0.0000 31.7615
#
#
#
# Elastic Compliance Matrix: (Units=1/GPa)
#
#
# Indices 1 2 3 4 5 6 
#
# 1 0.016758 -0.005919 -0.002504 0.000000 0.001137 0.000000
# 2 -0.005919 0.013724 -0.007132 0.000000 -0.006454 0.000000
# 3 -0.002504 -0.007132 0.022756 0.000000 0.006599 0.000000
# 4 0.000000 0.000000 0.000000 0.044422 0.000000 -0.003746
# 5 0.001137 -0.006454 0.006599 0.000000 0.033290 0.000000
# 6 0.000000 0.000000 0.000000 -0.003746 0.000000 0.031801
#
#
# Mechanical properties :
#
#
# Convention : Reuss Voigt Hill
#
# Bulk Modulus (GPa) = 45.19397 53.06216 49.12806
# Shear Modulus (GPa) = 24.84628 27.69195 26.26912
#
# Velocity S-wave (km/s) = 3.54303 3.74043 3.64307
# Velocity P-wave (km/s) = 6.29053 6.74263 6.52050
#
# Compressibility (1/GPa) = 0.02212685
#
# Stress axis : x y z
#
# Youngs Moduli (GPa) = 59.67139 72.86592 43.94541
#
# Poissons Ratio (x) = 0.43127 0.11006
# Poissons Ratio (y) = 0.35318 0.31343
# Poissons Ratio (z) = 0.14944 0.51970
#
# Static dielectric constant tensor:
#      x y z
#    x 3.773040 0.000000 -0.186750 
#    y 0.000000 3.692190 0.000000 
#    z -0.186750 0.000000 3.435860 
# 
# 
# High freq. dielectric constant tensor:
#      x y z
#    x 1.780070 0.000000 -0.010800 
#    y 0.000000 1.778590 0.000000 
#    z -0.010800 0.000000 1.745080 
# 
# From -- ./inp_files/52309.got.cif
#   From: 2010.06.25/outbox.cif.g09.slc.cpg/sg11_27_cif.got.tgz:52309.got - 2010.06.27 23:14:04.
