data_PCOD8069548
_publ_section_title
;
Structure prediction by ZEFSAII (Michael W. Deem and Ramdas Pophale) SiO2 
 PCOD8069548
Probable space group: P 21/M
;
_chemical_formula_sum "Si O2"
_cell_formula_units_Z 32
_cell_length_a 20.444872
_cell_length_b 9.050962
_cell_length_c 25.087732
_cell_angle_alpha 90.000000
_cell_angle_beta 22.656712
_cell_angle_gamma 90.000000
_cell_volume 1788.285662
_symmetry_space_group_name_H-M "P 21/M"
_symmetry_group_IT_number 11
_symmetry_cell_setting 'monoclinic'
loop_
_space_group_symop_operation_xyz
x,y,z
-x,1/2+y,-z
-x,-y,-z
x,1/2-y,z
loop_
_atom_site_type_symbol
_atom_site_label
_atom_site_fract_x
_atom_site_fract_y
_atom_site_fract_z
Si Si1 0.998731 0.425493 0.331204
Si Si2 0.843589 0.422108 0.336412
Si Si3 0.662091 0.424811 0.630721
Si Si4 0.102549 0.923841 0.075393
Si Si5 0.847095 0.075791 0.084777
Si Si6 0.597389 0.576481 0.088548
Si Si7 0.625124 0.576536 0.946371
Si Si8 0.493243 0.077229 0.649554
O O1 0.007373 0.250000 0.324485
O O2 0.943010 0.477011 0.314366
O O3 0.857020 0.483697 0.480250
O O4 0.184534 0.487405 0.206277
O O5 0.876924 0.250000 0.301184
O O6 0.642365 0.452791 0.494404
O O7 0.917106 0.513474 0.231142
O O8 0.669767 0.250000 0.620732
O O9 0.572304 0.476898 0.752646
O O10 0.554195 0.481539 0.661463
O O11 0.103166 0.750000 0.082325
O O12 0.142810 0.969580 0.984744
O O13 0.240512 0.993060 0.010940
O O14 0.857253 0.250000 0.085498
O O15 0.672547 0.015422 0.241600
O O16 0.000000 0.000000 0.000000
O O17 0.630797 0.750000 0.071520
O O18 0.567618 0.537200 0.049467
O O19 0.618155 0.750000 0.941255
O O20 0.500000 0.500000 0.000000
O O21 0.446722 0.250000 0.686315
#
# Coordination Sequence:
#
# PCOD8069548 Si02
#       8
#     4   4   4   4   4   4   4   4
#     4   8  14  28  49  75 102 130 169 213 256 306
#     4   9  17  32  56  83 107 135 177 219 261 321
#     4   8  14  26  51  80 100 125 167 217 261 305
#     4  11  22  34  52  82 113 138 172 222 269 310
#     4  11  24  39  55  78 111 147 181 217 263 321
#     4  10  18  32  55  78 100 134 179 220 259 315
#     4  10  20  33  50  72 104 141 177 215 258 314
#     4   9  17  32  57  84 107 135 173 220 271 318
#
# _framework density 17.894231999999999
#
# number of rings (size 3 to 8) (size 9 to 14) (size 15 to 20)
#    0.000    2.500    2.500    2.250    0.000    2.500 
#    0.000    1.250    0.000    0.750    0.000    0.000 
#    0.000    0.000    0.000    0.000    0.000    0.000 
#
# Total GULP energy -396676.082821 kJ/mol
# GULP energy per Si atom -12396.127588 kJ/mol
# Density = 1.785350 g / cm^3
# Si number density = 17.894232 Si / 1000 Ang^3
#
#
#
# Elastic Constant Matrix: (Units=GPa)
#
#
# Indices 1 2 3 4 5 6 
#
# 1 51.6384 31.4568 38.1417 0.0000 -3.5493 0.0000
# 2 31.4568 47.5044 38.0581 0.0000 2.1239 0.0000
# 3 38.1417 38.0581 148.3973 0.0000 1.3132 0.0000
# 4 0.0000 0.0000 0.0000 25.3591 0.0000 -3.8018
# 5 -3.5493 2.1239 1.3132 0.0000 29.4917 0.0000
# 6 0.0000 0.0000 0.0000 -3.8018 0.0000 24.2027
#
#
#
# Elastic Compliance Matrix: (Units=1/GPa)
#
#
# Indices 1 2 3 4 5 6 
#
# 1 0.035006 -0.020379 -0.003823 0.000000 0.005851 0.000000
# 2 -0.020379 0.038435 -0.004575 0.000000 -0.005017 0.000000
# 3 -0.003823 -0.004575 0.008899 0.000000 -0.000527 0.000000
# 4 0.000000 0.000000 0.000000 0.040385 0.000000 0.006344
# 5 0.005851 -0.005017 -0.000527 0.000000 0.034997 0.000000
# 6 0.000000 0.000000 0.000000 0.006344 0.000000 0.042314
#
#
# Mechanical properties :
#
#
# Convention : Reuss Voigt Hill
#
# Bulk Modulus (GPa) = 40.34476 51.42816 45.88646
# Shear Modulus (GPa) = 18.80754 25.13626 21.97190
#
# Velocity S-wave (km/s) = 3.24549 3.75202 3.50791
# Velocity P-wave (km/s) = 6.05305 6.89729 6.48892
#
# Compressibility (1/GPa) = 0.02478637
#
# Stress axis : x y z
#
# Youngs Moduli (GPa) = 28.56678 26.01793 112.37165
#
# Poissons Ratio (x) = 0.53023 0.42955
# Poissons Ratio (y) = 0.58218 0.51406
# Poissons Ratio (z) = 0.10920 0.11902
#
# Static dielectric constant tensor:
#      x y z
#    x 3.152790 0.000000 0.235060 
#    y 0.000000 2.997330 0.000000 
#    z 0.235060 0.000000 3.999810 
# 
# 
# High freq. dielectric constant tensor:
#      x y z
#    x 1.663340 0.000000 0.009740 
#    y 0.000000 1.663300 0.000000 
#    z 0.009740 0.000000 1.714760 
# 
# From -- ./inp_files/72041.got.cif
#   From: 2010.06.25/outbox.cif.g09.slc.cpg/sg11_37_cif.got.tgz:72041.got - 2010.06.27 23:14:04.
