data_PCOD8069613
_publ_section_title
;
Structure prediction by ZEFSAII (Michael W. Deem and Ramdas Pophale) SiO2 
 PCOD8069613
Probable space group: P 21/M
;
_chemical_formula_sum "Si O2"
_cell_formula_units_Z 32
_cell_length_a 15.954040
_cell_length_b 17.607222
_cell_length_c 20.880808
_cell_angle_alpha 90.000000
_cell_angle_beta 162.409650
_cell_angle_gamma 90.000000
_cell_volume 1772.624337
_symmetry_space_group_name_H-M "P 21/M"
_symmetry_group_IT_number 11
_symmetry_cell_setting 'monoclinic'
loop_
_space_group_symop_operation_xyz
x,y,z
-x,1/2+y,-z
-x,-y,-z
x,1/2-y,z
loop_
_atom_site_type_symbol
_atom_site_label
_atom_site_fract_x
_atom_site_fract_y
_atom_site_fract_z
Si Si1 0.367660 0.668763 0.713315
Si Si2 0.142325 0.514967 0.438945
Si Si3 0.078887 0.543952 0.176136
Si Si4 0.845934 0.664237 0.260503
Si Si5 0.480240 0.011995 0.165070
Si Si6 0.395315 0.561753 0.972992
Si Si7 0.740114 0.834526 0.861839
Si Si8 0.491851 0.437291 0.405233
O O1 0.462206 0.750000 0.812467
O O2 0.485562 0.598136 0.839926
O O3 0.489710 0.659095 0.730168
O O4 0.035607 0.667322 0.462935
O O5 0.270278 0.500404 0.602534
O O6 0.385069 0.512492 0.563311
O O7 0.974697 0.595820 0.310667
O O8 0.939074 0.443664 0.274393
O O9 0.236529 0.481338 0.250136
O O10 0.273712 0.580840 0.372076
O O11 0.817121 0.502737 0.018108
O O12 0.991624 0.611568 0.065689
O O13 0.845223 0.750000 0.228572
O O14 0.529566 0.642685 0.050596
O O15 0.505745 0.954132 0.125332
O O16 0.500000 0.500000 0.000000
O O17 0.858574 0.750000 0.942720
O O18 0.622500 0.858636 0.706887
#
# Coordination Sequence:
#
# PCOD8069613 Si02
#       8
#     4   4   4   4   4   4   4   4
#     4   8  15  28  48  76 105 135 164 205 263 320
#     4  10  19  32  54  80 106 133 177 217 267 314
#     4  10  21  32  54  83 111 139 186 215 266 317
#     4   9  17  32  51  73 102 134 166 214 270 317
#     4  10  18  33  52  75 106 139 172 219 260 309
#     4  10  21  33  51  75 102 135 179 216 262 317
#     4  10  19  33  52  77 115 145 169 214 270 321
#     4  11  19  33  55  84 109 142 177 222 262 320
#
# _framework density 18.052330000000001
#
# number of rings (size 3 to 8) (size 9 to 14) (size 15 to 20)
#    0.000    2.250    5.000    0.375    0.000    5.000 
#    0.000    2.500    0.000    5.250    0.000    0.000 
#    0.000    0.000    0.000    0.000    0.000    0.000 
#
# Total GULP energy -396472.399211 kJ/mol
# GULP energy per Si atom -12389.762475 kJ/mol
# Density = 1.801124 g / cm^3
# Si number density = 18.052330 Si / 1000 Ang^3
#
#
#
# Elastic Constant Matrix: (Units=GPa)
#
#
# Indices 1 2 3 4 5 6 
#
# 1 53.6355 11.6429 20.9531 0.0000 -6.2270 0.0000
# 2 11.6429 51.6078 32.6128 0.0000 1.1839 0.0000
# 3 20.9531 32.6128 83.4345 0.0000 -2.8309 0.0000
# 4 0.0000 0.0000 0.0000 13.5665 0.0000 2.3637
# 5 -6.2270 1.1839 -2.8309 0.0000 28.6706 0.0000
# 6 0.0000 0.0000 0.0000 2.3637 0.0000 19.5521
#
#
#
# Elastic Compliance Matrix: (Units=1/GPa)
#
#
# Indices 1 2 3 4 5 6 
#
# 1 0.021314 -0.002146 -0.004368 0.000000 0.004287 0.000000
# 2 -0.002146 0.026072 -0.009737 0.000000 -0.002504 0.000000
# 3 -0.004368 -0.009737 0.016927 0.000000 0.001125 0.000000
# 4 0.000000 0.000000 0.000000 0.075297 0.000000 -0.009103
# 5 0.004287 -0.002504 0.001125 0.000000 0.036024 0.000000
# 6 0.000000 0.000000 0.000000 -0.009103 0.000000 0.052246
#
#
# Mechanical properties :
#
#
# Convention : Reuss Voigt Hill
#
# Bulk Modulus (GPa) = 31.43712 35.45506 33.44609
# Shear Modulus (GPa) = 18.45111 20.58910 19.52010
#
# Velocity S-wave (km/s) = 3.20048 3.38083 3.29189
# Velocity P-wave (km/s) = 5.57761 5.90955 5.74598
#
# Compressibility (1/GPa) = 0.03180953
#
# Stress axis : x y z
#
# Youngs Moduli (GPa) = 46.91644 38.35586 59.07887
#
# Poissons Ratio (x) = 0.08233 0.25807
# Poissons Ratio (y) = 0.10071 0.57524
# Poissons Ratio (z) = 0.20495 0.37346
#
# Static dielectric constant tensor:
#      x y z
#    x 3.175360 0.000000 -0.008260 
#    y 0.000000 3.408830 0.000000 
#    z -0.008260 0.000000 3.693260 
# 
# 
# High freq. dielectric constant tensor:
#      x y z
#    x 1.675800 0.000000 -0.006860 
#    y 0.000000 1.667900 0.000000 
#    z -0.006860 0.000000 1.709220 
# 
# From -- ./inp_files/65859.got.cif
#   From: 2010.06.25/outbox.cif.g09.slc.cpg/sg11_33_cif.got.tgz:65859.got - 2010.06.27 23:14:04.
