data_PCOD8069564
_publ_section_title
;
Structure prediction by ZEFSAII (Michael W. Deem and Ramdas Pophale) SiO2 
 PCOD8069564
Probable space group: P 21/M
;
_chemical_formula_sum "Si O2"
_cell_formula_units_Z 16
_cell_length_a 9.006071
_cell_length_b 8.331216
_cell_length_c 19.926745
_cell_angle_alpha 90.000000
_cell_angle_beta 30.810555
_cell_angle_gamma 90.000000
_cell_volume 765.809281
_symmetry_space_group_name_H-M "P 21/M"
_symmetry_group_IT_number 11
_symmetry_cell_setting 'monoclinic'
loop_
_space_group_symop_operation_xyz
x,y,z
-x,1/2+y,-z
-x,-y,-z
x,1/2-y,z
loop_
_atom_site_type_symbol
_atom_site_label
_atom_site_fract_x
_atom_site_fract_y
_atom_site_fract_z
Si Si1 0.805384 0.935844 0.515990
Si Si2 0.618602 0.939920 0.024507
Si Si3 0.945070 0.935916 0.714570
Si Si4 0.187590 0.435664 0.757221
O O1 0.870544 0.750000 0.477985
O O2 0.470489 0.961050 0.664515
O O3 0.000000 0.000000 0.500000
O O4 0.873158 0.035288 0.422782
O O5 0.632146 0.750000 0.023284
O O6 0.389512 0.007738 0.168133
O O7 0.500000 0.000000 0.000000
O O8 0.941544 0.011746 0.906738
O O9 0.955063 0.750000 0.730550
O O10 0.086148 0.035558 0.720336
O O11 0.260191 0.250000 0.739015
#
# Coordination Sequence:
#
# PCOD8069564 Si02
#       4
#     4   4   4   4
#     4  12  25  42  59  82 114 152 192 236 285 340
#     4  10  18  32  55  86 117 148 185 234 284 334
#     4  11  21  37  60  88 117 151 190 235 283 336
#     4  11  21  37  60  88 117 151 190 235 283 336
#
# _framework density 20.892931000000001
#
# number of rings (size 3 to 8) (size 9 to 14) (size 15 to 20)
#    0.000    1.000    0.000   12.750    0.000    0.000 
#    0.000    1.250    0.000    0.000    0.000    0.000 
#    0.000    0.000    0.000    0.000    0.000    0.000 
#
# Total GULP energy -198439.899187 kJ/mol
# GULP energy per Si atom -12402.493699 kJ/mol
# Density = 2.084538 g / cm^3
# Si number density = 20.892931 Si / 1000 Ang^3
#
#
#
# Elastic Constant Matrix: (Units=GPa)
#
#
# Indices 1 2 3 4 5 6 
#
# 1 51.4365 4.9300 26.0198 0.0000 -19.6696 0.0000
# 2 4.9300 119.4237 17.1880 0.0000 3.7789 0.0000
# 3 26.0198 17.1880 127.7827 0.0000 -34.4424 0.0000
# 4 0.0000 0.0000 0.0000 41.5928 0.0000 -3.7633
# 5 -19.6696 3.7789 -34.4424 0.0000 18.6767 0.0000
# 6 0.0000 0.0000 0.0000 -3.7633 0.0000 26.2367
#
#
#
# Elastic Compliance Matrix: (Units=1/GPa)
#
#
# Indices 1 2 3 4 5 6 
#
# 1 0.036234 -0.004221 0.007368 0.000000 0.052601 0.000000
# 2 -0.004221 0.009617 -0.004289 0.000000 -0.014300 0.000000
# 3 0.007368 -0.004289 0.018348 0.000000 0.042463 0.000000
# 4 0.000000 0.000000 0.000000 0.024359 0.000000 0.003494
# 5 0.052601 -0.014300 0.042463 0.000000 0.190141 0.000000
# 6 0.000000 0.000000 0.000000 0.003494 0.000000 0.038616
#
#
# Mechanical properties :
#
#
# Convention : Reuss Voigt Hill
#
# Bulk Modulus (GPa) = 16.15086 43.87986 30.01536
# Shear Modulus (GPa) = 14.69564 34.00157 24.34860
#
# Velocity S-wave (km/s) = 2.65501 4.03851 3.41750
# Velocity P-wave (km/s) = 4.14075 6.54170 5.47447
#
# Compressibility (1/GPa) = 0.06191619
#
# Stress axis : x y z
#
# Youngs Moduli (GPa) = 27.59838 103.97723 54.50250
#
# Poissons Ratio (x) = 0.43885 -0.40155
# Poissons Ratio (y) = 0.11648 0.23373
# Poissons Ratio (z) = -0.20333 0.44591
#
# Static dielectric constant tensor:
#      x y z
#    x 2.962950 0.000000 -0.157760 
#    y 0.000000 3.843180 0.000000 
#    z -0.157760 0.000000 4.835730 
# 
# 
# High freq. dielectric constant tensor:
#      x y z
#    x 1.766950 0.000000 -0.014260 
#    y 0.000000 1.838760 0.000000 
#    z -0.014260 0.000000 1.845920 
# 
# From -- ./inp_files/11151.got.cif
#   From: 2010.06.25/outbox.cif.g09.slc.cpg/sg11_6_cif.got.tgz:11151.got - 2010.06.27 23:14:04.
