data_PCOD8069029
_publ_section_title
;
Structure prediction by ZEFSAII (Michael W. Deem and Ramdas Pophale) SiO2 
 PCOD8069029
Probable space group: P 21/M
;
_chemical_formula_sum "Si O2"
_cell_formula_units_Z 24
_cell_length_a 20.970607
_cell_length_b 8.877638
_cell_length_c 11.706178
_cell_angle_alpha 90.000000
_cell_angle_beta 135.503623
_cell_angle_gamma 90.000000
_cell_volume 1527.416262
_symmetry_space_group_name_H-M "P 21/M"
_symmetry_group_IT_number 11
_symmetry_cell_setting 'monoclinic'
loop_
_space_group_symop_operation_xyz
x,y,z
-x,1/2+y,-z
-x,-y,-z
x,1/2-y,z
loop_
_atom_site_type_symbol
_atom_site_label
_atom_site_fract_x
_atom_site_fract_y
_atom_site_fract_z
Si Si1 0.735023 0.571250 0.748599
Si Si2 0.450407 0.925010 0.098010
Si Si3 0.422982 0.928465 0.323577
Si Si4 0.743598 0.420482 0.534278
Si Si5 0.904263 0.420629 0.888276
Si Si6 0.637634 0.574654 0.216512
O O1 0.731461 0.750000 0.753032
O O2 0.674899 0.497198 0.770707
O O3 0.695164 0.517178 0.574149
O O4 0.839158 0.510503 0.894739
O O5 0.430493 0.750000 0.055225
O O6 0.442510 0.974587 0.218488
O O7 0.550497 0.967844 0.181932
O O8 0.375249 0.014221 0.928172
O O9 0.422635 0.750000 0.340316
O O10 0.500000 0.000000 0.500000
O O11 0.705846 0.250000 0.489429
O O12 0.852715 0.422050 0.698874
O O13 0.723813 0.494350 0.386313
O O14 0.918132 0.250000 0.949598
O O15 0.000000 0.500000 0.000000
O O16 0.657530 0.750000 0.236693
#
# Coordination Sequence:
#
# PCOD8069029 Si02
#       6
#     4   4   4   4   4   4
#     4  10  19  31  47  69  98 128 160 199 241 288
#     4   9  20  33  45  63  92 128 164 201 241 283
#     4  11  21  33  48  68  96 132 169 202 241 290
#     4   9  18  30  47  69  96 125 155 193 241 289
#     4   9  18  31  49  74 100 128 158 197 246 295
#     4  10  18  30  48  69  91 122 164 205 243 283
#
# _framework density 15.712809
#
# number of rings (size 3 to 8) (size 9 to 14) (size 15 to 20)
#    1.000    1.333    0.000    4.000    0.000    3.333 
#    0.000    0.000    0.000    0.000    0.000    1.167 
#    0.000    0.000    0.000    0.000    0.000    0.000 
#
# Total GULP energy -297462.052111 kJ/mol
# GULP energy per Si atom -12394.252171 kJ/mol
# Density = 1.567705 g / cm^3
# Si number density = 15.712809 Si / 1000 Ang^3
#
#
#
# Elastic Constant Matrix: (Units=GPa)
#
#
# Indices 1 2 3 4 5 6 
#
# 1 85.8195 47.0351 47.4568 0.0000 -0.3245 0.0000
# 2 47.0351 115.1306 51.5290 0.0000 -5.5955 0.0000
# 3 47.4568 51.5290 84.1275 0.0000 -7.2680 0.0000
# 4 0.0000 0.0000 0.0000 30.4023 0.0000 1.1485
# 5 -0.3245 -5.5955 -7.2680 0.0000 24.3935 0.0000
# 6 0.0000 0.0000 0.0000 1.1485 0.0000 25.7011
#
#
#
# Elastic Compliance Matrix: (Units=1/GPa)
#
#
# Indices 1 2 3 4 5 6 
#
# 1 0.018347 -0.003987 -0.008176 0.000000 -0.003106 0.000000
# 2 -0.003987 0.012841 -0.005508 0.000000 0.001251 0.000000
# 3 -0.008176 -0.005508 0.020276 0.000000 0.004669 0.000000
# 4 0.000000 0.000000 0.000000 0.032948 0.000000 -0.001472
# 5 -0.003106 0.001251 0.004669 0.000000 0.042631 0.000000
# 6 0.000000 0.000000 0.000000 -0.001472 0.000000 0.038975
#
#
# Mechanical properties :
#
#
# Convention : Reuss Voigt Hill
#
# Bulk Modulus (GPa) = 62.02776 64.12439 63.07608
# Shear Modulus (GPa) = 24.18585 25.36982 24.77784
#
# Velocity S-wave (km/s) = 3.92758 4.02256 3.97535
# Velocity P-wave (km/s) = 7.75432 7.90402 7.82953
#
# Compressibility (1/GPa) = 0.01612181
#
# Stress axis : x y z
#
# Youngs Moduli (GPa) = 54.50495 77.87803 49.32016
#
# Poissons Ratio (x) = 0.31051 0.40323
# Poissons Ratio (y) = 0.21732 0.27164
# Poissons Ratio (z) = 0.44562 0.42893
#
# Static dielectric constant tensor:
#      x y z
#    x 2.799380 0.000000 -0.051300 
#    y 0.000000 3.077000 0.000000 
#    z -0.051300 0.000000 2.890630 
# 
# 
# High freq. dielectric constant tensor:
#      x y z
#    x 1.567810 0.000000 -0.001980 
#    y 0.000000 1.623760 0.000000 
#    z -0.001980 0.000000 1.589390 
# 
# From -- ./inp_files/40802.got.cif
#   From: 2010.06.25/outbox.cif.g09.slc.cpg/sg11_21_cif.got.tgz:40802.got - 2010.06.27 23:14:04.
