data_PCOD8069493
_publ_section_title
;
Structure prediction by ZEFSAII (Michael W. Deem and Ramdas Pophale) SiO2 
 PCOD8069493
Probable space group: P 21/M
;
_chemical_formula_sum "Si O2"
_cell_formula_units_Z 32
_cell_length_a 28.924989
_cell_length_b 8.670718
_cell_length_c 14.364386
_cell_angle_alpha 90.000000
_cell_angle_beta 27.759213
_cell_angle_gamma 90.000000
_cell_volume 1677.932755
_symmetry_space_group_name_H-M "P 21/M"
_symmetry_group_IT_number 11
_symmetry_cell_setting 'monoclinic'
loop_
_space_group_symop_operation_xyz
x,y,z
-x,1/2+y,-z
-x,-y,-z
x,1/2-y,z
loop_
_atom_site_type_symbol
_atom_site_label
_atom_site_fract_x
_atom_site_fract_y
_atom_site_fract_z
Si Si1 0.718980 0.068284 0.668018
Si Si2 0.212952 0.430115 0.117730
Si Si3 0.862531 0.568027 0.550157
Si Si4 0.607467 0.932966 0.328200
Si Si5 0.476498 0.433446 0.941208
Si Si6 0.326986 0.432465 0.449421
Si Si7 0.082549 0.930360 0.199267
Si Si8 0.261485 0.931820 0.749491
O O1 0.705686 0.250000 0.684068
O O2 0.822124 0.022698 0.532405
O O3 0.716074 0.998576 0.569898
O O4 0.632751 0.996696 0.888618
O O5 0.202313 0.250000 0.122988
O O6 0.204973 0.475491 0.240150
O O7 0.119558 0.501496 0.230545
O O8 0.318269 0.486065 0.887498
O O9 0.860284 0.750000 0.533798
O O10 0.973937 0.506146 0.367573
O O11 0.601310 0.750000 0.347388
O O12 0.500000 0.000000 0.500000
O O13 0.646695 0.001978 0.355056
O O14 0.476970 0.250000 0.938148
O O15 0.563406 0.499515 0.720621
O O16 0.500000 0.500000 0.000000
O O17 0.332348 0.250000 0.431899
O O18 0.255983 0.486007 0.659225
O O19 0.076863 0.750000 0.224054
O O20 0.158087 0.975625 0.982537
O O21 0.275423 0.750000 0.712529
#
# Coordination Sequence:
#
# PCOD8069493 Si02
#       8
#     4   4   4   4   4   4   4   4
#     4  11  22  36  53  79 111 143 180 225 268 316
#     4   9  19  34  55  79 107 139 176 217 266 323
#     4  10  20  36  55  79 108 141 177 223 276 322
#     4  10  20  35  53  79 112 147 181 221 267 317
#     4  10  18  32  53  76 104 138 172 213 259 310
#     4  11  21  36  57  80 106 142 182 222 266 321
#     4   9  19  35  57  80 106 137 176 222 271 324
#     4  10  20  36  56  80 107 141 181 223 269 325
#
# _framework density 19.071086000000001
#
# number of rings (size 3 to 8) (size 9 to 14) (size 15 to 20)
#    0.000    2.000    0.000    6.000    0.000    3.000 
#    0.000    4.375    0.000    0.000    0.000    0.000 
#    0.000    0.000    0.000    0.000    0.000    0.000 
#
# Total GULP energy -396793.292116 kJ/mol
# GULP energy per Si atom -12399.790379 kJ/mol
# Density = 1.902768 g / cm^3
# Si number density = 19.071086 Si / 1000 Ang^3
#
#
#
# Elastic Constant Matrix: (Units=GPa)
#
#
# Indices 1 2 3 4 5 6 
#
# 1 105.4885 42.8851 56.1316 0.0000 -5.7564 0.0000
# 2 42.8851 111.5426 36.2555 0.0000 0.0646 0.0000
# 3 56.1316 36.2555 93.1136 0.0000 -10.6535 0.0000
# 4 0.0000 0.0000 0.0000 26.7100 0.0000 -2.2426
# 5 -5.7564 0.0646 -10.6535 0.0000 32.1476 0.0000
# 6 0.0000 0.0000 0.0000 -2.2426 0.0000 33.4921
#
#
#
# Elastic Compliance Matrix: (Units=1/GPa)
#
#
# Indices 1 2 3 4 5 6 
#
# 1 0.014901 -0.003221 -0.007715 0.000000 0.000118 0.000000
# 2 -0.003221 0.011021 -0.002513 0.000000 -0.001432 0.000000
# 3 -0.007715 -0.002513 0.016850 0.000000 0.004208 0.000000
# 4 0.000000 0.000000 0.000000 0.037651 0.000000 0.002521
# 5 0.000118 -0.001432 0.004208 0.000000 0.032525 0.000000
# 6 0.000000 0.000000 0.000000 0.002521 0.000000 0.030027
#
#
# Mechanical properties :
#
#
# Convention : Reuss Voigt Hill
#
# Bulk Modulus (GPa) = 62.99785 64.52101 63.75943
# Shear Modulus (GPa) = 28.54442 30.12811 29.33627
#
# Velocity S-wave (km/s) = 3.87297 3.97896 3.92632
# Velocity P-wave (km/s) = 7.28730 7.41719 7.35253
#
# Compressibility (1/GPa) = 0.01587356
#
# Stress axis : x y z
#
# Youngs Moduli (GPa) = 67.10968 90.73202 59.34595
#
# Poissons Ratio (x) = 0.29229 0.45785
# Poissons Ratio (y) = 0.21619 0.14915
# Poissons Ratio (z) = 0.51775 0.22803
#
# Static dielectric constant tensor:
#      x y z
#    x 3.420770 0.000000 -0.069460 
#    y 0.000000 2.541810 0.000000 
#    z -0.069460 0.000000 3.975100 
# 
# 
# High freq. dielectric constant tensor:
#      x y z
#    x 1.729790 0.000000 0.000070 
#    y 0.000000 1.748440 0.000000 
#    z 0.000070 0.000000 1.744120 
# 
# From -- ./inp_files/56145.got.cif
#   From: 2010.06.25/outbox.cif.g09.slc.cpg/sg11_29_cif.got.tgz:56145.got - 2010.06.27 23:14:04.
