data_PCOD8069935
_publ_section_title
;
Structure prediction by ZEFSAII (Michael W. Deem and Ramdas Pophale) SiO2 
 PCOD8069935
Probable space group: P 21/M
;
_chemical_formula_sum "Si O2"
_cell_formula_units_Z 28
_cell_length_a 13.538545
_cell_length_b 9.362769
_cell_length_c 16.126472
_cell_angle_alpha 90.000000
_cell_angle_beta 62.965429
_cell_angle_gamma 90.000000
_cell_volume 1820.802893
_symmetry_space_group_name_H-M "P 21/M"
_symmetry_group_IT_number 11
_symmetry_cell_setting 'monoclinic'
loop_
_space_group_symop_operation_xyz
x,y,z
-x,1/2+y,-z
-x,-y,-z
x,1/2-y,z
loop_
_atom_site_type_symbol
_atom_site_label
_atom_site_fract_x
_atom_site_fract_y
_atom_site_fract_z
Si Si1 0.522735 0.083272 0.680814
Si Si2 0.404363 0.415192 0.490821
Si Si3 0.336066 0.415374 0.053600
Si Si4 0.715932 0.911753 0.303389
Si Si5 0.131891 0.414772 0.023352
Si Si6 0.458015 0.916404 0.137212
Si Si7 0.878267 0.083770 0.136511
O O1 0.548665 0.250000 0.658124
O O2 0.397786 0.047675 0.700237
O O3 0.537708 0.033997 0.769480
O O4 0.611006 0.991299 0.592656
O O5 0.500000 0.500000 0.500000
O O6 0.438153 0.250000 0.465719
O O7 0.296959 0.426726 0.591674
O O8 0.344400 0.250000 0.073462
O O9 0.214745 0.456148 0.065914
O O10 0.358033 0.502910 0.129098
O O11 0.425020 0.456943 0.949127
O O12 0.749408 0.750000 0.267407
O O13 0.812856 0.017809 0.238815
O O14 0.148235 0.250000 0.990888
O O15 0.008129 0.444891 0.102554
O O16 0.161666 0.509615 0.932652
O O17 0.433321 0.750000 0.139698
O O18 0.850921 0.250000 0.140198
#
# Coordination Sequence:
#
# PCOD8069935 Si02
#       7
#     4   4   4   4   4   4   4
#     4   9  17  29  44  62  87 117 142 169 210 254
#     4   9  17  28  42  61  85 113 143 173 208 251
#     4   9  17  30  45  59  82 115 143 169 204 247
#     4   9  17  29  43  60  87 118 140 165 209 255
#     4   9  18  32  45  59  85 116 142 172 212 251
#     4   9  17  28  43  64  86 109 140 173 206 245
#     4  10  19  28  43  66  85 108 145 179 206 244
#
# _framework density 15.377833000000001
#
# number of rings (size 3 to 8) (size 9 to 14) (size 15 to 20)
#    0.000    2.857    0.000    2.571    0.000    6.857 
#    0.000    2.857    0.000    0.000    0.000    1.000 
#    0.000    0.000    0.000    0.000    0.000    0.000 
#
# Total GULP energy -347141.393906 kJ/mol
# GULP energy per Si atom -12397.906925 kJ/mol
# Density = 1.534283 g / cm^3
# Si number density = 15.377833 Si / 1000 Ang^3
#
#
#
# Elastic Constant Matrix: (Units=GPa)
#
#
# Indices 1 2 3 4 5 6 
#
# 1 75.6415 36.2265 44.3808 0.0000 10.8063 0.0000
# 2 36.2265 73.6403 57.2334 0.0000 2.1064 0.0000
# 3 44.3808 57.2334 114.2106 0.0000 12.1283 0.0000
# 4 0.0000 0.0000 0.0000 32.3443 0.0000 1.5501
# 5 10.8063 2.1064 12.1283 0.0000 21.8221 0.0000
# 6 0.0000 0.0000 0.0000 1.5501 0.0000 23.1081
#
#
#
# Elastic Compliance Matrix: (Units=1/GPa)
#
#
# Indices 1 2 3 4 5 6 
#
# 1 0.019462 -0.006678 -0.003465 0.000000 -0.007067 0.000000
# 2 -0.006678 0.024921 -0.010615 0.000000 0.006802 0.000000
# 3 -0.003465 -0.010615 0.016080 0.000000 -0.006196 0.000000
# 4 0.000000 0.000000 0.000000 0.031017 0.000000 -0.002081
# 5 -0.007067 0.006802 -0.006196 0.000000 0.052112 0.000000
# 6 0.000000 0.000000 0.000000 -0.002081 0.000000 0.043414
#
#
# Mechanical properties :
#
#
# Convention : Reuss Voigt Hill
#
# Bulk Modulus (GPa) = 52.78795 59.90820 56.34808
# Shear Modulus (GPa) = 21.29123 23.83167 22.56145
#
# Velocity S-wave (km/s) = 3.72498 3.94095 3.83448
# Velocity P-wave (km/s) = 7.27341 7.72982 7.50508
#
# Compressibility (1/GPa) = 0.01894372
#
# Stress axis : x y z
#
# Youngs Moduli (GPa) = 51.38348 40.12735 62.18933
#
# Poissons Ratio (x) = 0.26799 0.21551
# Poissons Ratio (y) = 0.34316 0.66016
# Poissons Ratio (z) = 0.17806 0.42597
#
# Static dielectric constant tensor:
#      x y z
#    x 2.759860 0.000000 0.067130 
#    y 0.000000 3.044340 0.000000 
#    z 0.067130 0.000000 3.199870 
# 
# 
# High freq. dielectric constant tensor:
#      x y z
#    x 1.554830 0.000000 0.004470 
#    y 0.000000 1.597400 0.000000 
#    z 0.004470 0.000000 1.586030 
# 
# From -- ./inp_files/51109.got.cif
#   From: 2010.06.25/outbox.cif.g09.slc.cpg/sg11_26_cif.got.tgz:51109.got - 2010.06.27 23:14:04.
