data_PCOD8069574
_publ_section_title
;
Structure prediction by ZEFSAII (Michael W. Deem and Ramdas Pophale) SiO2 
 PCOD8069574
Probable space group: P 21/M
;
_chemical_formula_sum "Si O2"
_cell_formula_units_Z 32
_cell_length_a 16.544970
_cell_length_b 8.462787
_cell_length_c 12.253085
_cell_angle_alpha 90.000000
_cell_angle_beta 87.202466
_cell_angle_gamma 90.000000
_cell_volume 1713.590148
_symmetry_space_group_name_H-M "P 21/M"
_symmetry_group_IT_number 11
_symmetry_cell_setting 'monoclinic'
loop_
_space_group_symop_operation_xyz
x,y,z
-x,1/2+y,-z
-x,-y,-z
x,1/2-y,z
loop_
_atom_site_type_symbol
_atom_site_label
_atom_site_fract_x
_atom_site_fract_y
_atom_site_fract_z
Si Si1 0.958411 0.065878 0.705745
Si Si2 0.830806 0.436456 0.884908
Si Si3 0.608905 0.934746 0.084076
Si Si4 0.826256 0.566168 0.557406
Si Si5 0.701875 0.437626 0.719293
Si Si6 0.132406 0.565581 0.672037
Si Si7 0.443840 0.063791 0.152065
Si Si8 0.220154 0.563996 0.881080
O O1 0.982287 0.250000 0.701271
O O2 0.916431 0.018096 0.823867
O O3 0.896439 0.034153 0.611449
O O4 0.036576 0.958820 0.686219
O O5 0.822086 0.250000 0.890556
O O6 0.757989 0.500654 0.814616
O O7 0.821781 0.509539 0.006832
O O8 0.624293 0.750000 0.090545
O O9 0.530978 0.982353 0.160545
O O10 0.685579 0.022731 0.129676
O O11 0.595642 0.990544 0.960132
O O12 0.840171 0.750000 0.579871
O O13 0.738174 0.511071 0.605943
O O14 0.829434 0.532588 0.429050
O O15 0.700549 0.250000 0.709607
O O16 0.611945 0.503443 0.745224
O O17 0.150587 0.750000 0.653798
O O18 0.174382 0.496493 0.778376
O O19 0.455404 0.250000 0.156111
O O20 0.209425 0.750000 0.883739
#
# Coordination Sequence:
#
# PCOD8069574 Si02
#       8
#     4   4   4   4   4   4   4   4
#     4  10  20  36  57  80 106 136 176 226 276 320
#     4   8  16  31  52  77 105 138 172 211 265 317
#     4  10  20  32  50  79 112 145 180 219 260 310
#     4  11  22  37  57  79 106 137 179 228 272 318
#     4  10  18  32  56  82 111 139 173 221 270 318
#     4  11  23  37  54  77 105 142 185 223 268 321
#     4  10  19  31  51  81 113 144 179 216 261 314
#     4  10  20  36  55  75 107 147 182 218 263 322
#
# _framework density 18.674244999999999
#
# number of rings (size 3 to 8) (size 9 to 14) (size 15 to 20)
#    0.000    2.000    1.250    4.125    0.000    2.500 
#    0.000    0.625    0.000    0.750    0.000    0.000 
#    0.000    0.000    0.000    0.000    0.000    0.000 
#
# Total GULP energy -396855.024370 kJ/mol
# GULP energy per Si atom -12401.719512 kJ/mol
# Density = 1.863174 g / cm^3
# Si number density = 18.674245 Si / 1000 Ang^3
#
#
#
# Elastic Constant Matrix: (Units=GPa)
#
#
# Indices 1 2 3 4 5 6 
#
# 1 70.4376 4.8017 52.5325 0.0000 -28.3693 0.0000
# 2 4.8017 33.8496 12.7335 0.0000 0.4683 0.0000
# 3 52.5325 12.7335 115.4579 0.0000 -16.1470 0.0000
# 4 0.0000 0.0000 0.0000 20.5033 0.0000 -5.4678
# 5 -28.3693 0.4683 -16.1470 0.0000 25.8791 0.0000
# 6 0.0000 0.0000 0.0000 -5.4678 0.0000 30.3169
#
#
#
# Elastic Compliance Matrix: (Units=1/GPa)
#
#
# Indices 1 2 3 4 5 6 
#
# 1 0.035979 -0.001127 -0.011753 0.000000 0.032128 0.000000
# 2 -0.001127 0.031061 -0.003467 0.000000 -0.003961 0.000000
# 3 -0.011753 -0.003467 0.013802 0.000000 -0.004209 0.000000
# 4 0.000000 0.000000 0.000000 0.051237 0.000000 0.009241
# 5 0.032128 -0.003961 -0.004209 0.000000 0.071307 0.000000
# 6 0.000000 0.000000 0.000000 0.009241 0.000000 0.034652
#
#
# Mechanical properties :
#
#
# Convention : Reuss Voigt Hill
#
# Bulk Modulus (GPa) = 20.76865 39.98671 30.37768
# Shear Modulus (GPa) = 17.43496 25.31835 21.37666
#
# Velocity S-wave (km/s) = 3.05886 3.68610 3.38703
# Velocity P-wave (km/s) = 4.86017 6.29092 5.62125
#
# Compressibility (1/GPa) = 0.04814950
#
# Stress axis : x y z
#
# Youngs Moduli (GPa) = 27.79410 32.19443 72.45220
#
# Poissons Ratio (x) = 0.03629 0.85150
# Poissons Ratio (y) = 0.03133 0.25117
# Poissons Ratio (z) = 0.32665 0.11161
#
# Static dielectric constant tensor:
#      x y z
#    x 3.385000 0.000000 -0.205290 
#    y 0.000000 3.261110 0.000000 
#    z -0.205290 0.000000 3.567290 
# 
# 
# High freq. dielectric constant tensor:
#      x y z
#    x 1.718740 0.000000 -0.025590 
#    y 0.000000 1.721970 0.000000 
#    z -0.025590 0.000000 1.707700 
# 
# From -- ./inp_files/38269.got.cif
#   From: 2010.06.25/outbox.cif.g09.slc.cpg/sg11_20_cif.got.tgz:38269.got - 2010.06.27 23:14:04.
