data_PCOD8069900
_publ_section_title
;
Structure prediction by ZEFSAII (Michael W. Deem and Ramdas Pophale) SiO2 
 PCOD8069900
Probable space group: P 21/M
;
_chemical_formula_sum "Si O2"
_cell_formula_units_Z 24
_cell_length_a 9.606088
_cell_length_b 14.245170
_cell_length_c 8.828255
_cell_angle_alpha 90.000000
_cell_angle_beta 102.142209
_cell_angle_gamma 90.000000
_cell_volume 1181.035472
_symmetry_space_group_name_H-M "P 21/M"
_symmetry_group_IT_number 11
_symmetry_cell_setting 'monoclinic'
loop_
_space_group_symop_operation_xyz
x,y,z
-x,1/2+y,-z
-x,-y,-z
x,1/2-y,z
loop_
_atom_site_type_symbol
_atom_site_label
_atom_site_fract_x
_atom_site_fract_y
_atom_site_fract_z
Si Si1 0.794620 0.854492 0.620905
Si Si2 0.924358 0.022441 0.824941
Si Si3 0.424926 0.031894 0.833045
Si Si4 0.842115 0.860649 0.279708
Si Si5 0.523233 0.093961 0.416121
Si Si6 0.340688 0.646416 0.268230
O O1 0.852735 0.750000 0.665304
O O2 0.809654 0.879327 0.447915
O O3 0.629933 0.856341 0.636931
O O4 0.896156 0.924008 0.736208
O O5 0.774009 0.072531 0.818120
O O6 0.008763 0.094437 0.736171
O O7 0.000000 0.000000 0.000000
O O8 0.274618 0.079596 0.840330
O O9 0.510120 0.114518 0.768209
O O10 0.409778 0.935933 0.730040
O O11 0.500000 0.000000 0.000000
O O12 0.840003 0.750000 0.238667
O O13 0.637469 0.152171 0.542902
O O14 0.500000 0.000000 0.500000
O O15 0.299932 0.750000 0.200863
#
# Coordination Sequence:
#
# PCOD8069900 Si02
#       6
#     4   4   4   4   4   4
#     4  11  22  41  67  93 122 165 216 261 309 370
#     4  12  25  42  60  93 130 170 204 255 317 373
#     4  11  21  38  62  93 130 164 200 257 322 366
#     4  11  23  40  64  93 126 166 214 258 308 373
#     4  10  18  37  65  93 118 157 209 258 310 360
#     4  11  21  40  66  88 121 165 213 255 305 371
#
# _framework density 20.321149999999999
#
# number of rings (size 3 to 8) (size 9 to 14) (size 15 to 20)
#    0.000    1.000    6.667    3.000    0.000    1.333 
#    0.000    2.500    0.000    1.000    0.000    0.000 
#    0.000    0.000    0.000    0.000    0.000    0.000 
#
# Total GULP energy -297526.142880 kJ/mol
# GULP energy per Si atom -12396.922620 kJ/mol
# Density = 2.027490 g / cm^3
# Si number density = 20.321150 Si / 1000 Ang^3
#
#
#
# Elastic Constant Matrix: (Units=GPa)
#
#
# Indices 1 2 3 4 5 6 
#
# 1 66.3064 22.5155 11.5921 0.0000 10.7128 0.0000
# 2 22.5155 120.4517 45.4342 0.0000 8.2512 0.0000
# 3 11.5921 45.4342 97.4327 0.0000 24.8552 0.0000
# 4 0.0000 0.0000 0.0000 17.2487 0.0000 -0.4983
# 5 10.7128 8.2512 24.8552 0.0000 27.2132 0.0000
# 6 0.0000 0.0000 0.0000 -0.4983 0.0000 26.4873
#
#
#
# Elastic Compliance Matrix: (Units=1/GPa)
#
#
# Indices 1 2 3 4 5 6 
#
# 1 0.017055 -0.003170 0.001195 0.000000 -0.006844 0.000000
# 2 -0.003170 0.010718 -0.005359 0.000000 0.002892 0.000000
# 3 0.001195 -0.005359 0.016070 0.000000 -0.013523 0.000000
# 4 0.000000 0.000000 0.000000 0.058007 0.000000 0.001091
# 5 -0.006844 0.002892 -0.013523 0.000000 0.050915 0.000000
# 6 0.000000 0.000000 0.000000 0.001091 0.000000 0.037774
#
#
# Mechanical properties :
#
#
# Convention : Reuss Voigt Hill
#
# Bulk Modulus (GPa) = 34.27537 49.25269 41.76403
# Shear Modulus (GPa) = 23.26327 27.83311 25.54819
#
# Velocity S-wave (km/s) = 3.38713 3.70491 3.54958
# Velocity P-wave (km/s) = 5.67454 6.52622 6.11522
#
# Compressibility (1/GPa) = 0.02917547
#
# Stress axis : x y z
#
# Youngs Moduli (GPa) = 58.63478 93.30354 62.22840
#
# Poissons Ratio (x) = 0.29576 -0.07436
# Poissons Ratio (y) = 0.18587 0.33345
# Poissons Ratio (z) = -0.07007 0.49997
#
# Static dielectric constant tensor:
#      x y z
#    x 3.350590 0.000000 -0.026400 
#    y 0.000000 4.518910 0.000000 
#    z -0.026400 0.000000 4.782880 
# 
# 
# High freq. dielectric constant tensor:
#      x y z
#    x 1.786130 0.000000 0.008200 
#    y 0.000000 1.800890 0.000000 
#    z 0.008200 0.000000 1.785360 
# 
# From -- ./inp_files/12623.got.cif
#   From: 2010.06.25/outbox.cif.g09.slc.cpg/sg11_7_cif.got.tgz:12623.got - 2010.06.27 23:14:04.
