data_PCOD8069719
_publ_section_title
;
Structure prediction by ZEFSAII (Michael W. Deem and Ramdas Pophale) SiO2 
 PCOD8069719
Probable space group: P 21/M
;
_chemical_formula_sum "Si O2"
_cell_formula_units_Z 32
_cell_length_a 27.996441
_cell_length_b 8.892031
_cell_length_c 11.914485
_cell_angle_alpha 90.000000
_cell_angle_beta 33.071719
_cell_angle_gamma 90.000000
_cell_volume 1618.541317
_symmetry_space_group_name_H-M "P 21/M"
_symmetry_group_IT_number 11
_symmetry_cell_setting 'monoclinic'
loop_
_space_group_symop_operation_xyz
x,y,z
-x,1/2+y,-z
-x,-y,-z
x,1/2-y,z
loop_
_atom_site_type_symbol
_atom_site_label
_atom_site_fract_x
_atom_site_fract_y
_atom_site_fract_z
Si Si1 0.765689 0.927995 0.850781
Si Si2 0.108236 0.422648 0.008664
Si Si3 0.393246 0.427152 0.986077
Si Si4 0.252853 0.572136 0.872103
Si Si5 0.910827 0.077463 0.423118
Si Si6 0.349124 0.576532 0.301954
Si Si7 0.586700 0.072481 0.587774
Si Si8 0.856580 0.076827 0.284699
O O1 0.762272 0.750000 0.864818
O O2 0.683719 0.993434 0.940638
O O3 0.856429 0.976521 0.616066
O O4 0.761459 0.992516 0.982664
O O5 0.139706 0.250000 0.953488
O O6 0.012800 0.440114 0.252693
O O7 0.174964 0.530202 0.941461
O O8 0.100863 0.472361 0.893845
O O9 0.383742 0.250000 0.011569
O O10 0.388419 0.487337 0.120882
O O11 0.487830 0.473139 0.747893
O O12 0.252795 0.750000 0.889604
O O13 0.344741 0.512043 0.639622
O O14 0.879592 0.250000 0.496264
O O15 0.894268 0.021353 0.329188
O O16 0.373553 0.750000 0.236826
O O17 0.391296 0.507790 0.332112
O O18 0.246408 0.552017 0.512169
O O19 0.599059 0.250000 0.571151
O O20 0.881284 0.250000 0.212423
#
# Coordination Sequence:
#
# PCOD8069719 Si02
#       8
#     4   4   4   4   4   4   4   4
#     4  11  24  40  59  86 116 149 193 248 294 335
#     4  11  23  38  60  90 120 149 190 242 291 338
#     4  10  21  37  58  86 120 151 187 237 290 337
#     4  11  23  42  64  82 110 156 198 238 289 347
#     4  10  22  40  61  86 118 157 194 232 283 348
#     4  10  18  33  59  87 118 153 192 230 275 344
#     4   9  19  37  59  85 116 153 191 231 283 344
#     4  10  19  35  60  88 120 156 193 229 279 348
#
# _framework density 19.770890000000001
#
# number of rings (size 3 to 8) (size 9 to 14) (size 15 to 20)
#    0.000    1.750    2.500    1.875    0.000    3.500 
#    0.000    1.250    0.000    0.000    0.000    0.000 
#    0.000    0.000    0.000    0.000    0.000    0.000 
#
# Total GULP energy -396884.523264 kJ/mol
# GULP energy per Si atom -12402.641352 kJ/mol
# Density = 1.972589 g / cm^3
# Si number density = 19.770890 Si / 1000 Ang^3
#
#
#
# Elastic Constant Matrix: (Units=GPa)
#
#
# Indices 1 2 3 4 5 6 
#
# 1 57.3626 20.0218 57.2099 0.0000 14.3445 0.0000
# 2 20.0218 49.6427 43.3607 0.0000 1.8344 0.0000
# 3 57.2099 43.3607 137.3650 0.0000 2.9175 0.0000
# 4 0.0000 0.0000 0.0000 23.9984 0.0000 5.0068
# 5 14.3445 1.8344 2.9175 0.0000 37.3844 0.0000
# 6 0.0000 0.0000 0.0000 5.0068 0.0000 30.2689
#
#
#
# Elastic Compliance Matrix: (Units=1/GPa)
#
#
# Indices 1 2 3 4 5 6 
#
# 1 0.034672 -0.001584 -0.013682 0.000000 -0.012158 0.000000
# 2 -0.001584 0.027902 -0.008145 0.000000 -0.000126 0.000000
# 3 -0.013682 -0.008145 0.015455 0.000000 0.004443 0.000000
# 4 0.000000 0.000000 0.000000 0.043159 0.000000 -0.007139
# 5 -0.012158 -0.000126 0.004443 0.000000 0.031074 0.000000
# 6 0.000000 0.000000 0.000000 -0.007139 0.000000 0.034218
#
#
# Mechanical properties :
#
#
# Convention : Reuss Voigt Hill
#
# Bulk Modulus (GPa) = 32.04464 53.95056 42.99760
# Shear Modulus (GPa) = 20.51677 26.58219 23.54948
#
# Velocity S-wave (km/s) = 3.22487 3.67074 3.45500
# Velocity P-wave (km/s) = 5.48722 6.73148 6.14095
#
# Compressibility (1/GPa) = 0.03120647
#
# Stress axis : x y z
#
# Youngs Moduli (GPa) = 28.84203 35.83987 64.70452
#
# Poissons Ratio (x) = 0.05677 0.88528
# Poissons Ratio (y) = 0.04568 0.52703
# Poissons Ratio (z) = 0.39461 0.29192
#
# Static dielectric constant tensor:
#      x y z
#    x 3.687340 0.000000 -0.123770 
#    y 0.000000 3.410580 0.000000 
#    z -0.123770 0.000000 3.757640 
# 
# 
# High freq. dielectric constant tensor:
#      x y z
#    x 1.773150 0.000000 -0.007130 
#    y 0.000000 1.754430 0.000000 
#    z -0.007130 0.000000 1.781400 
# 
# From -- ./inp_files/45108.got.cif
#   From: 2010.06.25/outbox.cif.g09.slc.cpg/sg11_23_cif.got.tgz:45108.got - 2010.06.27 23:14:04.
