data_PCOD8069971
_publ_section_title
;
Structure prediction by ZEFSAII (Michael W. Deem and Ramdas Pophale) SiO2 
 PCOD8069971
Probable space group: P 21/M
;
_chemical_formula_sum "Si O2"
_cell_formula_units_Z 32
_cell_length_a 16.516473
_cell_length_b 9.171459
_cell_length_c 22.976218
_cell_angle_alpha 90.000000
_cell_angle_beta 30.614522
_cell_angle_gamma 90.000000
_cell_volume 1772.447885
_symmetry_space_group_name_H-M "P 21/M"
_symmetry_group_IT_number 11
_symmetry_cell_setting 'monoclinic'
loop_
_space_group_symop_operation_xyz
x,y,z
-x,1/2+y,-z
-x,-y,-z
x,1/2-y,z
loop_
_atom_site_type_symbol
_atom_site_label
_atom_site_fract_x
_atom_site_fract_y
_atom_site_fract_z
Si Si1 0.482803 0.081956 0.658296
Si Si2 0.514415 0.078802 0.772013
Si Si3 0.874865 0.079560 0.537491
Si Si4 0.148424 0.917834 0.579883
Si Si5 0.947862 0.577876 0.250726
Si Si6 0.054788 0.090126 0.019702
Si Si7 0.748343 0.410943 0.284697
Si Si8 0.246447 0.921625 0.989058
O O1 0.436281 0.250000 0.677810
O O2 0.455100 0.037880 0.743007
O O3 0.664705 0.054391 0.528935
O O4 0.378427 0.987131 0.678718
O O5 0.493614 0.250000 0.795241
O O6 0.697557 0.031223 0.664874
O O7 0.422199 0.994072 0.881893
O O8 0.894485 0.250000 0.534801
O O9 0.908002 0.039304 0.449807
O O10 0.000000 0.000000 0.500000
O O11 0.107831 0.750000 0.618771
O O12 0.051586 0.020330 0.683884
O O13 0.923462 0.750000 0.263294
O O14 0.796162 0.507187 0.311281
O O15 0.122359 0.535879 0.116793
O O16 0.123771 0.250000 0.959412
O O17 0.910387 0.113752 0.151461
O O18 0.189160 0.991436 0.964445
O O19 0.000000 0.000000 0.000000
O O20 0.683853 0.250000 0.343711
O O21 0.263013 0.750000 0.973120
#
# Coordination Sequence:
#
# PCOD8069971 Si02
#       8
#     4   4   4   4   4   4   4   4
#     4   9  18  32  49  70  98 131 168 214 260 298
#     4   9  18  33  53  77 105 135 166 203 252 304
#     4   9  19  36  59  87 112 132 157 195 247 304
#     4   9  19  36  55  75 101 132 166 204 249 301
#     4  10  21  35  50  70  98 135 177 215 251 292
#     4  10  19  29  42  62  90 127 171 216 259 300
#     4  10  20  31  44  65  94 131 175 216 253 297
#     4  10  20  32  47  70  99 131 169 211 252 296
#
# _framework density 18.054127999999999
#
# number of rings (size 3 to 8) (size 9 to 14) (size 15 to 20)
#    0.000    2.500    0.000    3.750    0.000    7.500 
#    0.000    2.500    0.000    0.750    0.000    0.000 
#    0.000    0.000    0.000    0.000    0.000    0.000 
#
# Total GULP energy -396545.239810 kJ/mol
# GULP energy per Si atom -12392.038744 kJ/mol
# Density = 1.801304 g / cm^3
# Si number density = 18.054128 Si / 1000 Ang^3
#
#
#
# Elastic Constant Matrix: (Units=GPa)
#
#
# Indices 1 2 3 4 5 6 
#
# 1 103.0559 51.7372 51.5560 0.0000 -7.0805 0.0000
# 2 51.7372 87.7205 57.9242 0.0000 2.6113 0.0000
# 3 51.5560 57.9242 101.6792 0.0000 4.0797 0.0000
# 4 0.0000 0.0000 0.0000 30.8445 0.0000 -0.0065
# 5 -7.0805 2.6113 4.0797 0.0000 16.7937 0.0000
# 6 0.0000 0.0000 0.0000 -0.0065 0.0000 31.8699
#
#
#
# Elastic Compliance Matrix: (Units=1/GPa)
#
#
# Indices 1 2 3 4 5 6 
#
# 1 0.015972 -0.006575 -0.004710 0.000000 0.008901 0.000000
# 2 -0.006575 0.020982 -0.008460 0.000000 -0.003980 0.000000
# 3 -0.004710 -0.008460 0.017237 0.000000 -0.004858 0.000000
# 4 0.000000 0.000000 0.000000 0.032421 0.000000 0.000007
# 5 0.008901 -0.003980 -0.004858 0.000000 0.065098 0.000000
# 6 0.000000 0.000000 0.000000 0.000007 0.000000 0.031378
#
#
# Mechanical properties :
#
#
# Convention : Reuss Voigt Hill
#
# Bulk Modulus (GPa) = 68.01689 68.32117 68.16903
# Shear Modulus (GPa) = 21.98014 24.65085 23.31550
#
# Velocity S-wave (km/s) = 3.49299 3.69912 3.59753
# Velocity P-wave (km/s) = 7.35008 7.49461 7.42270
#
# Compressibility (1/GPa) = 0.01470223
#
# Stress axis : x y z
#
# Youngs Moduli (GPa) = 62.60867 47.65905 58.01395
#
# Poissons Ratio (x) = 0.31336 0.27325
# Poissons Ratio (y) = 0.41166 0.49078
# Poissons Ratio (z) = 0.29489 0.40318
#
# Static dielectric constant tensor:
#      x y z
#    x 3.074950 0.000000 -0.017070 
#    y 0.000000 3.397270 0.000000 
#    z -0.017070 0.000000 3.423290 
# 
# 
# High freq. dielectric constant tensor:
#      x y z
#    x 1.665730 0.000000 0.000870 
#    y 0.000000 1.704700 0.000000 
#    z 0.000870 0.000000 1.704310 
# 
# From -- ./inp_files/69416.got.cif
#   From: 2010.06.25/outbox.cif.g09.slc.cpg/sg11_35_cif.got.tgz:69416.got - 2010.06.27 23:14:04.
