data_PCOD8069459
_publ_section_title
;
Structure prediction by ZEFSAII (Michael W. Deem and Ramdas Pophale) SiO2 
 PCOD8069459
Probable space group: P 21/M
;
_chemical_formula_sum "Si O2"
_cell_formula_units_Z 32
_cell_length_a 15.169667
_cell_length_b 13.919351
_cell_length_c 12.007433
_cell_angle_alpha 90.000000
_cell_angle_beta 139.067886
_cell_angle_gamma 90.000000
_cell_volume 1661.098830
_symmetry_space_group_name_H-M "P 21/M"
_symmetry_group_IT_number 11
_symmetry_cell_setting 'monoclinic'
loop_
_space_group_symop_operation_xyz
x,y,z
-x,1/2+y,-z
-x,-y,-z
x,1/2-y,z
loop_
_atom_site_type_symbol
_atom_site_label
_atom_site_fract_x
_atom_site_fract_y
_atom_site_fract_z
Si Si1 0.640831 0.141161 0.024785
Si Si2 0.020343 0.074499 0.117621
Si Si3 0.355078 0.139479 0.692049
Si Si4 0.107861 0.860428 0.600365
Si Si5 0.912103 0.533519 0.570771
Si Si6 0.754914 0.644449 0.810713
Si Si7 0.520708 0.859870 0.422806
Si Si8 0.736742 0.447190 0.896857
O O1 0.654453 0.250000 0.990346
O O2 0.731966 0.129627 0.221605
O O3 0.482063 0.121810 0.897278
O O4 0.691761 0.067702 0.979989
O O5 0.078936 0.028855 0.287411
O O6 0.129352 0.149864 0.174839
O O7 0.871055 0.116474 0.000050
O O8 0.000000 0.000000 0.000000
O O9 0.307358 0.250000 0.649118
O O10 0.230557 0.073818 0.609153
O O11 0.399713 0.107707 0.611280
O O12 0.069747 0.750000 0.537872
O O13 0.027566 0.897051 0.632373
O O14 0.070805 0.925066 0.458440
O O15 0.753343 0.750000 0.866819
O O16 0.611226 0.623226 0.616999
O O17 0.776476 0.560301 0.921416
O O18 0.477936 0.750000 0.368575
O O19 0.381740 0.919292 0.302193
#
# Coordination Sequence:
#
# PCOD8069459 Si02
#       8
#     4   4   4   4   4   4   4   4
#     4   9  18  34  56  83 106 136 179 225 270 315
#     4  10  21  35  53  79 108 139 185 223 268 323
#     4   9  17  30  53  82 107 131 174 226 269 317
#     4  10  22  37  58  83 109 143 183 224 269 320
#     4  11  20  36  59  81 109 143 182 222 274 321
#     4  10  20  32  50  77 107 142 183 224 269 316
#     4   9  17  30  50  79 104 136 181 227 269 312
#     4  10  18  32  51  76 109 141 174 222 273 319
#
# _framework density 19.264357
#
# number of rings (size 3 to 8) (size 9 to 14) (size 15 to 20)
#    0.000    2.250    2.500    1.875    0.000    2.000 
#    0.000    2.500    0.000    4.500    0.000    0.000 
#    0.000    0.000    0.000    0.000    0.000    0.000 
#
# Total GULP energy -396553.687688 kJ/mol
# GULP energy per Si atom -12392.302740 kJ/mol
# Density = 1.922051 g / cm^3
# Si number density = 19.264357 Si / 1000 Ang^3
#
#
#
# Elastic Constant Matrix: (Units=GPa)
#
#
# Indices 1 2 3 4 5 6 
#
# 1 46.3514 28.0844 27.2762 0.0000 10.7340 0.0000
# 2 28.0844 96.8746 30.1451 0.0000 1.8748 0.0000
# 3 27.2762 30.1451 80.0280 0.0000 20.6291 0.0000
# 4 0.0000 0.0000 0.0000 19.0993 0.0000 2.8946
# 5 10.7340 1.8748 20.6291 0.0000 34.3580 0.0000
# 6 0.0000 0.0000 0.0000 2.8946 0.0000 21.9318
#
#
#
# Elastic Compliance Matrix: (Units=1/GPa)
#
#
# Indices 1 2 3 4 5 6 
#
# 1 0.030772 -0.006774 -0.006571 0.000000 -0.005299 0.000000
# 2 -0.006774 0.013350 -0.003641 0.000000 0.003574 0.000000
# 3 -0.006571 -0.003641 0.018369 0.000000 -0.008778 0.000000
# 4 0.000000 0.000000 0.000000 0.053427 0.000000 -0.007051
# 5 -0.005299 0.003574 -0.008778 0.000000 0.035836 0.000000
# 6 0.000000 0.000000 0.000000 -0.007051 0.000000 0.046527
#
#
# Mechanical properties :
#
#
# Convention : Reuss Voigt Hill
#
# Bulk Modulus (GPa) = 35.06274 43.80726 39.43500
# Shear Modulus (GPa) = 20.68165 24.26105 22.47135
#
# Velocity S-wave (km/s) = 3.28009 3.55262 3.41907
# Velocity P-wave (km/s) = 5.70839 6.29425 6.00846
#
# Compressibility (1/GPa) = 0.02852031
#
# Stress axis : x y z
#
# Youngs Moduli (GPa) = 32.49664 74.90446 54.43813
#
# Poissons Ratio (x) = 0.50739 0.35770
# Poissons Ratio (y) = 0.22013 0.19823
# Poissons Ratio (z) = 0.21353 0.27276
#
# Static dielectric constant tensor:
#      x y z
#    x 3.452320 0.000000 0.478710 
#    y 0.000000 3.354610 0.000000 
#    z 0.478710 0.000000 3.715450 
# 
# 
# High freq. dielectric constant tensor:
#      x y z
#    x 1.723080 0.000000 0.028650 
#    y 0.000000 1.734280 0.000000 
#    z 0.028650 0.000000 1.759190 
# 
# From -- ./inp_files/39695.got.cif
#   From: 2010.06.25/outbox.cif.g09.slc.cpg/sg11_20_cif.got.tgz:39695.got - 2010.06.27 23:14:04.
