data_PCOD8069210
_publ_section_title
;
Structure prediction by ZEFSAII (Michael W. Deem and Ramdas Pophale) SiO2 
 PCOD8069210
Probable space group: P 21/M
;
_chemical_formula_sum "Si O2"
_cell_formula_units_Z 32
_cell_length_a 18.006306
_cell_length_b 18.472638
_cell_length_c 10.016468
_cell_angle_alpha 90.000000
_cell_angle_beta 33.667070
_cell_angle_gamma 90.000000
_cell_volume 1846.991438
_symmetry_space_group_name_H-M "P 21/M"
_symmetry_group_IT_number 11
_symmetry_cell_setting 'monoclinic'
loop_
_space_group_symop_operation_xyz
x,y,z
-x,1/2+y,-z
-x,-y,-z
x,1/2-y,z
loop_
_atom_site_type_symbol
_atom_site_label
_atom_site_fract_x
_atom_site_fract_y
_atom_site_fract_z
Si Si1 0.463887 0.946612 0.935100
Si Si2 0.331711 0.333204 0.283625
Si Si3 0.462104 0.541751 0.424379
Si Si4 0.880876 0.928487 0.775537
Si Si5 0.168108 0.982943 0.891093
Si Si6 0.347529 0.332815 0.944712
Si Si7 0.164892 0.533576 0.396217
Si Si8 0.115146 0.064526 0.710046
O O1 0.545522 0.872526 0.826525
O O2 0.504799 0.985570 0.739889
O O3 0.306237 0.926189 0.166043
O O4 0.500000 0.000000 0.000000
O O5 0.337883 0.250000 0.314914
O O6 0.189828 0.363561 0.548674
O O7 0.346652 0.345232 0.104033
O O8 0.500000 0.500000 0.500000
O O9 0.304472 0.560919 0.661235
O O10 0.539837 0.617111 0.291006
O O11 0.039559 0.912078 0.557459
O O12 0.850638 0.965759 0.679237
O O13 0.797765 0.853811 0.899132
O O14 0.826774 0.981594 0.970742
O O15 0.151320 0.047586 0.808923
O O16 0.045436 0.925826 0.064472
O O17 0.378209 0.250000 0.861463
O O18 0.161220 0.504140 0.552640
#
# Coordination Sequence:
#
# PCOD8069210 Si02
#       8
#     4   4   4   4   4   4   4   4
#     4  12  18  34  57  82 109 142 189 235 268 316
#     4  11  22  36  57  83 112 147 186 232 287 330
#     4  12  20  34  55  85 112 141 183 229 273 330
#     4  10  18  34  51  82 106 139 179 226 269 326
#     4  10  20  30  55  81 110 130 181 228 268 311
#     4  11  22  37  56  82 114 148 183 228 290 337
#     4  10  18  30  57  79 105 133 188 231 261 303
#     4  10  18  34  51  81 106 137 176 228 264 322
#
# _framework density 17.325472999999999
#
# number of rings (size 3 to 8) (size 9 to 14) (size 15 to 20)
#    0.000    1.250    7.500    0.000    0.000    0.000 
#    0.000    3.750    0.000    0.000    0.000    0.000 
#    0.000    0.000    0.000    0.000    0.000    0.000 
#
# Total GULP energy -396758.523831 kJ/mol
# GULP energy per Si atom -12398.703870 kJ/mol
# Density = 1.728604 g / cm^3
# Si number density = 17.325473 Si / 1000 Ang^3
#
#
#
# Elastic Constant Matrix: (Units=GPa)
#
#
# Indices 1 2 3 4 5 6 
#
# 1 79.8527 42.4290 51.4613 0.0000 -12.9869 0.0000
# 2 42.4290 109.0273 60.3073 0.0000 -19.1699 0.0000
# 3 51.4613 60.3073 141.0150 0.0000 -32.2671 0.0000
# 4 0.0000 0.0000 0.0000 23.8203 0.0000 -3.1871
# 5 -12.9869 -19.1699 -32.2671 0.0000 45.7615 0.0000
# 6 0.0000 0.0000 0.0000 -3.1871 0.0000 21.0873
#
#
#
# Elastic Compliance Matrix: (Units=1/GPa)
#
#
# Indices 1 2 3 4 5 6 
#
# 1 0.017837 -0.004379 -0.004648 0.000000 -0.000050 0.000000
# 2 -0.004379 0.013199 -0.003655 0.000000 0.001709 0.000000
# 3 -0.004648 -0.003655 0.011565 0.000000 0.005304 0.000000
# 4 0.000000 0.000000 0.000000 0.042847 0.000000 0.006476
# 5 -0.000050 0.001709 0.005304 0.000000 0.026294 0.000000
# 6 0.000000 0.000000 0.000000 0.006476 0.000000 0.048401
#
#
# Mechanical properties :
#
#
# Convention : Reuss Voigt Hill
#
# Bulk Modulus (GPa) = 58.02109 70.92112 64.47111
# Shear Modulus (GPa) = 26.14333 29.84697 27.99515
#
# Velocity S-wave (km/s) = 3.88874 4.15507 4.02411
# Velocity P-wave (km/s) = 7.32971 8.00268 7.67358
#
# Compressibility (1/GPa) = 0.01723511
#
# Stress axis : x y z
#
# Youngs Moduli (GPa) = 56.06240 75.76503 86.47065
#
# Poissons Ratio (x) = 0.33180 0.40191
# Poissons Ratio (y) = 0.24552 0.31609
# Poissons Ratio (z) = 0.26057 0.27696
#
# Static dielectric constant tensor:
#      x y z
#    x 3.476870 0.000000 -0.186300 
#    y 0.000000 2.872140 0.000000 
#    z -0.186300 0.000000 3.662810 
# 
# 
# High freq. dielectric constant tensor:
#      x y z
#    x 1.687000 0.000000 -0.001920 
#    y 0.000000 1.614360 0.000000 
#    z -0.001920 0.000000 1.690720 
# 
# From -- ./inp_files/23061.got.cif
#   From: 2010.06.25/outbox.cif.g09.slc.cpg/sg11_12_cif.got.tgz:23061.got - 2010.06.27 23:14:04.
