data_PCOD8069805
_publ_section_title
;
Structure prediction by ZEFSAII (Michael W. Deem and Ramdas Pophale) SiO2 
 PCOD8069805
Probable space group: P 21/M
;
_chemical_formula_sum "Si O2"
_cell_formula_units_Z 32
_cell_length_a 12.020842
_cell_length_b 8.891203
_cell_length_c 28.190828
_cell_angle_alpha 90.000000
_cell_angle_beta 32.876048
_cell_angle_gamma 90.000000
_cell_volume 1635.542422
_symmetry_space_group_name_H-M "P 21/M"
_symmetry_group_IT_number 11
_symmetry_cell_setting 'monoclinic'
loop_
_space_group_symop_operation_xyz
x,y,z
-x,1/2+y,-z
-x,-y,-z
x,1/2-y,z
loop_
_atom_site_type_symbol
_atom_site_label
_atom_site_fract_x
_atom_site_fract_y
_atom_site_fract_z
Si Si1 0.123328 0.071119 0.242354
Si Si2 0.669335 0.079313 0.155445
Si Si3 0.029015 0.428255 0.090857
Si Si4 0.450411 0.427204 0.896957
Si Si5 0.028231 0.574117 0.603062
Si Si6 0.414461 0.924914 0.407157
Si Si7 0.149340 0.928649 0.747161
Si Si8 0.292001 0.421244 0.357764
O O1 0.135322 0.250000 0.238582
O O2 0.024196 0.006213 0.326491
O O3 0.984672 0.012422 0.248840
O O4 0.350674 0.008304 0.153757
O O5 0.686217 0.250000 0.129706
O O6 0.514906 0.074101 0.254642
O O7 0.884996 0.017884 0.098861
O O8 0.591573 0.971137 0.142172
O O9 0.014009 0.250000 0.098825
O O10 0.951731 0.495577 0.168626
O O11 0.260177 0.481041 0.997675
O O12 0.482368 0.250000 0.888184
O O13 0.980664 0.750000 0.621978
O O14 0.875094 0.507023 0.618223
O O15 0.264206 0.541678 0.505453
O O16 0.466811 0.750000 0.384177
O O17 0.620385 0.015936 0.341998
O O18 0.293938 0.976215 0.403506
O O19 0.155271 0.750000 0.746560
O O20 0.235563 0.250000 0.392222
#
# Coordination Sequence:
#
# PCOD8069805 Si02
#       8
#     4   4   4   4   4   4   4   4
#     4  10  21  40  62  79 103 147 196 227 261 327
#     4  10  18  34  60  81 109 149 186 219 263 330
#     4   9  19  36  56  82 113 146 179 224 277 321
#     4  11  22  35  55  84 118 143 174 229 284 325
#     4   9  19  36  56  82 113 146 179 224 277 321
#     4  11  22  35  55  84 118 143 174 229 284 325
#     4  10  21  40  62  79 103 147 196 227 261 327
#     4  10  18  34  60  81 109 149 186 219 263 330
#
# _framework density 19.565373999999998
#
# number of rings (size 3 to 8) (size 9 to 14) (size 15 to 20)
#    0.000    2.000    2.500    1.500    0.000    2.000 
#    0.000    3.750    0.000    0.000    0.000    0.000 
#    0.000    0.000    0.000    0.000    0.000    0.000 
#
# Total GULP energy -396834.860289 kJ/mol
# GULP energy per Si atom -12401.089384 kJ/mol
# Density = 1.952084 g / cm^3
# Si number density = 19.565374 Si / 1000 Ang^3
#
#
#
# Elastic Constant Matrix: (Units=GPa)
#
#
# Indices 1 2 3 4 5 6 
#
# 1 121.0006 17.7464 40.8702 0.0000 -13.3868 0.0000
# 2 17.7464 18.7893 13.4979 0.0000 1.5476 0.0000
# 3 40.8702 13.4979 99.8691 0.0000 -7.4985 0.0000
# 4 0.0000 0.0000 0.0000 27.4987 0.0000 -6.3395
# 5 -13.3868 1.5476 -7.4985 0.0000 19.6144 0.0000
# 6 0.0000 0.0000 0.0000 -6.3395 0.0000 18.5058
#
#
#
# Elastic Compliance Matrix: (Units=1/GPa)
#
#
# Indices 1 2 3 4 5 6 
#
# 1 0.011423 -0.009354 -0.002852 0.000000 0.007444 0.000000
# 2 -0.009354 0.067825 -0.006404 0.000000 -0.014183 0.000000
# 3 -0.002852 -0.006404 0.012290 0.000000 0.003258 0.000000
# 4 0.000000 0.000000 0.000000 0.039484 0.000000 0.013526
# 5 0.007444 -0.014183 0.003258 0.000000 0.058428 0.000000
# 6 0.000000 0.000000 0.000000 0.013526 0.000000 0.058671
#
#
# Mechanical properties :
#
#
# Convention : Reuss Voigt Hill
#
# Bulk Modulus (GPa) = 18.40954 42.65421 30.53188
# Shear Modulus (GPa) = 16.47743 24.29340 20.38542
#
# Velocity S-wave (km/s) = 2.90517 3.52753 3.23137
# Velocity P-wave (km/s) = 4.54786 6.19996 5.43703
#
# Compressibility (1/GPa) = 0.05431965
#
# Stress axis : x y z
#
# Youngs Moduli (GPa) = 87.54274 14.74387 81.36543
#
# Poissons Ratio (x) = 0.13791 0.23202
# Poissons Ratio (y) = 0.81883 0.52107
# Poissons Ratio (z) = 0.24964 0.09442
#
# Static dielectric constant tensor:
#      x y z
#    x 3.673840 0.000000 0.031090 
#    y 0.000000 3.243000 0.000000 
#    z 0.031090 0.000000 3.734150 
# 
# 
# High freq. dielectric constant tensor:
#      x y z
#    x 1.762300 0.000000 -0.003940 
#    y 0.000000 1.728430 0.000000 
#    z -0.003940 0.000000 1.776150 
# 
# From -- ./inp_files/73049.got.cif
#   From: 2010.06.25/outbox.cif.g09.slc.cpg/sg11_37_cif.got.tgz:73049.got - 2010.06.27 23:14:04.
