data_PCOD8069894
_publ_section_title
;
Structure prediction by ZEFSAII (Michael W. Deem and Ramdas Pophale) SiO2 
 PCOD8069894
Probable space group: P 21/M
;
_chemical_formula_sum "Si O2"
_cell_formula_units_Z 32
_cell_length_a 7.430257
_cell_length_b 20.000594
_cell_length_c 9.838883
_cell_angle_alpha 90.000000
_cell_angle_beta 61.703578
_cell_angle_gamma 90.000000
_cell_volume 1287.435018
_symmetry_space_group_name_H-M "P 21/M"
_symmetry_group_IT_number 11
_symmetry_cell_setting 'monoclinic'
loop_
_space_group_symop_operation_xyz
x,y,z
-x,1/2+y,-z
-x,-y,-z
x,1/2-y,z
loop_
_atom_site_type_symbol
_atom_site_label
_atom_site_fract_x
_atom_site_fract_y
_atom_site_fract_z
Si Si1 0.923280 0.397528 0.256275
Si Si2 0.640310 0.481836 0.739104
Si Si3 0.650117 0.071025 0.030329
Si Si4 0.899032 0.908092 0.526603
Si Si5 0.502298 0.175218 0.393470
Si Si6 0.669818 0.824395 0.963478
Si Si7 0.562820 0.861436 0.290145
Si Si8 0.047727 0.054838 0.787560
O O1 0.706522 0.366865 0.279725
O O2 0.931922 0.475073 0.215582
O O3 0.948033 0.383474 0.409689
O O4 0.113286 0.360436 0.118281
O O5 0.685262 0.476866 0.884233
O O6 0.817110 0.518461 0.593973
O O7 0.625748 0.410163 0.674330
O O8 0.432748 0.527271 0.814018
O O9 0.892799 0.086660 0.959740
O O10 0.503070 0.134324 0.057402
O O11 0.703959 0.858051 0.590397
O O12 0.017855 0.916930 0.340523
O O13 0.522201 0.250000 0.326361
O O14 0.487194 0.183120 0.562029
O O15 0.680018 0.750000 0.896957
O O16 0.609235 0.816341 0.143206
O O17 0.735979 0.914742 0.260310
#
# Coordination Sequence:
#
# PCOD8069894 Si02
#       8
#     4   4   4   4   4   4   4   4
#     4  12  23  41  70  98 125 169 212 270 327 379
#     4  10  18  37  60  91 126 156 206 263 331 365
#     4  10  20  36  60  92 127 160 200 266 315 380
#     4  11  23  40  64  99 131 164 206 271 321 383
#     4  11  26  44  61  91 133 177 219 254 311 390
#     4  11  24  43  62  88 126 174 222 254 307 391
#     4  10  23  40  65  90 129 166 209 273 317 378
#     4  11  22  38  65 102 129 155 209 268 339 377
#
# _framework density 24.855625
#
# number of rings (size 3 to 8) (size 9 to 14) (size 15 to 20)
#    0.000    1.250    2.500    4.125    3.500    6.000 
#    0.000    3.125    0.000    0.000    0.000    0.000 
#    0.000    0.000    0.000    0.000    0.000    0.000 
#
# Total GULP energy -396609.254098 kJ/mol
# GULP energy per Si atom -12394.039191 kJ/mol
# Density = 2.479905 g / cm^3
# Si number density = 24.855625 Si / 1000 Ang^3
#
#
#
# Elastic Constant Matrix: (Units=GPa)
#
#
# Indices 1 2 3 4 5 6 
#
# 1 66.5666 26.6640 -14.1054 0.0000 -18.4541 0.0000
# 2 26.6640 137.2217 10.7586 0.0000 -21.9153 0.0000
# 3 -14.1054 10.7586 60.1355 0.0000 -40.6525 0.0000
# 4 0.0000 0.0000 0.0000 24.2263 0.0000 -4.2056
# 5 -18.4541 -21.9153 -40.6525 0.0000 38.1014 0.0000
# 6 0.0000 0.0000 0.0000 -4.2056 0.0000 19.5758
#
#
#
# Elastic Compliance Matrix: (Units=1/GPa)
#
#
# Indices 1 2 3 4 5 6 
#
# 1 -0.088656 -0.007243 -0.184209 0.000000 -0.243648 0.000000
# 2 -0.007243 0.008096 -0.008506 0.000000 -0.007927 0.000000
# 3 -0.184209 -0.008506 -0.318158 0.000000 -0.433573 0.000000
# 4 0.000000 0.000000 0.000000 0.042877 0.000000 0.009211
# 5 -0.243648 -0.007927 -0.433573 0.000000 -0.558925 0.000000
# 6 0.000000 0.000000 0.000000 0.009211 0.000000 0.053062
#
#
# Mechanical properties :
#
#
# Convention : Reuss Voigt Hill
#
# Bulk Modulus (GPa) = -1.25214 34.50648 16.62717
# Shear Modulus (GPa) = -6.86812 32.42114 12.77651
#
# Velocity S-wave (km/s) = -1.66409 3.61554 2.26968
# Velocity P-wave (km/s) = 2.04869 5.59843 3.68410
#
# Compressibility (1/GPa) = -0.79863296
#
# Stress axis : x y z
#
# Youngs Moduli (GPa) = -11.27959 123.52142 -3.14309
#
# Poissons Ratio (x) = 0.89464 -0.57898
# Poissons Ratio (y) = -0.08170 -0.02673
# Poissons Ratio (z) = -2.07780 1.05066
#
# Static dielectric constant tensor:
#      x y z
#    x 4.936740 0.000000 -0.033000 
#    y 0.000000 4.051700 0.000000 
#    z -0.033000 0.000000 5.016840 
# 
# 
# High freq. dielectric constant tensor:
#      x y z
#    x 2.007730 0.000000 -0.008390 
#    y 0.000000 1.963180 0.000000 
#    z -0.008390 0.000000 2.011060 
# 
# From -- ./inp_files/32820.got.cif
#   From: 2010.06.25/outbox.cif.g09.slc.cpg/sg11_17_cif.got.tgz:32820.got - 2010.06.27 23:14:04.
