data_PCOD8069488
_publ_section_title
;
Structure prediction by ZEFSAII (Michael W. Deem and Ramdas Pophale) SiO2 
 PCOD8069488
Probable space group: P 21/M
;
_chemical_formula_sum "Si O2"
_cell_formula_units_Z 20
_cell_length_a 9.631504
_cell_length_b 8.816444
_cell_length_c 14.023041
_cell_angle_alpha 90.000000
_cell_angle_beta 86.494119
_cell_angle_gamma 90.000000
_cell_volume 1188.546656
_symmetry_space_group_name_H-M "P 21/M"
_symmetry_group_IT_number 11
_symmetry_cell_setting 'monoclinic'
loop_
_space_group_symop_operation_xyz
x,y,z
-x,1/2+y,-z
-x,-y,-z
x,1/2-y,z
loop_
_atom_site_type_symbol
_atom_site_label
_atom_site_fract_x
_atom_site_fract_y
_atom_site_fract_z
Si Si1 0.096258 0.578522 0.720608
Si Si2 0.308021 0.072866 0.572182
Si Si3 0.385951 0.926833 0.377477
Si Si4 0.793788 0.920919 0.767356
Si Si5 0.980686 0.070172 0.897952
O O1 0.154897 0.750000 0.726437
O O2 0.181089 0.483890 0.640498
O O3 0.933545 0.580561 0.695411
O O4 0.103402 0.495498 0.823916
O O5 0.292968 0.250000 0.553332
O O6 0.451334 0.034503 0.620321
O O7 0.301993 0.989639 0.471330
O O8 0.356509 0.750000 0.371870
O O9 0.333539 0.004415 0.283111
O O10 0.752039 0.750000 0.798321
O O11 0.830436 0.016744 0.861721
O O12 0.989383 0.250000 0.902495
O O13 0.000000 0.000000 0.000000
#
# Coordination Sequence:
#
# PCOD8069488 Si02
#       5
#     4   4   4   4   4
#     4   9  19  33  50  75 100 129 166 205 246 291
#     4  10  20  33  50  72 100 136 171 203 244 293
#     4  10  20  33  50  72 100 136 171 203 244 293
#     4   9  19  33  50  75 100 129 166 205 246 291
#     4  10  18  32  53  76 101 128 160 202 248 296
#
# _framework density 16.827273000000002
#
# number of rings (size 3 to 8) (size 9 to 14) (size 15 to 20)
#    1.200    1.200    0.000    3.600    0.000    3.200 
#    0.000    0.000    0.000    1.200    0.000    0.000 
#    0.000    0.000    0.000    0.000    0.000    0.000 
#
# Total GULP energy -247868.972379 kJ/mol
# GULP energy per Si atom -12393.448619 kJ/mol
# Density = 1.678897 g / cm^3
# Si number density = 16.827273 Si / 1000 Ang^3
#
#
#
# Elastic Constant Matrix: (Units=GPa)
#
#
# Indices 1 2 3 4 5 6 
#
# 1 27.1611 17.2505 6.7878 0.0000 14.9167 0.0000
# 2 17.2505 93.9070 23.4725 0.0000 14.3672 0.0000
# 3 6.7878 23.4725 48.9271 0.0000 25.7648 0.0000
# 4 0.0000 0.0000 0.0000 34.1450 0.0000 3.2545
# 5 14.9167 14.3672 25.7648 0.0000 25.8920 0.0000
# 6 0.0000 0.0000 0.0000 3.2545 0.0000 26.9559
#
#
#
# Elastic Compliance Matrix: (Units=1/GPa)
#
#
# Indices 1 2 3 4 5 6 
#
# 1 0.071487 -0.010549 0.028884 0.000000 -0.064073 0.000000
# 2 -0.010549 0.013704 -0.009048 0.000000 0.007477 0.000000
# 3 0.028884 -0.009048 0.056495 0.000000 -0.067837 0.000000
# 4 0.000000 0.000000 0.000000 0.029628 0.000000 -0.003577
# 5 -0.064073 0.007477 -0.067837 0.000000 0.138890 0.000000
# 6 0.000000 0.000000 0.000000 -0.003577 0.000000 0.037530
#
#
# Mechanical properties :
#
#
# Convention : Reuss Voigt Hill
#
# Bulk Modulus (GPa) = 6.23990 29.44633 17.84311
# Shear Modulus (GPa) = 13.06914 25.56421 19.31667
#
# Velocity S-wave (km/s) = 2.78989 3.90194 3.39180
# Velocity P-wave (km/s) = 3.75423 6.15120 5.09566
#
# Compressibility (1/GPa) = 0.16025909
#
# Stress axis : x y z
#
# Youngs Moduli (GPa) = 13.98855 72.96926 17.70071
#
# Poissons Ratio (x) = 0.76974 -0.51126
# Poissons Ratio (y) = 0.14756 0.16016
# Poissons Ratio (z) = -0.40404 0.66025
#
# Static dielectric constant tensor:
#      x y z
#    x 2.928870 0.000000 0.083650 
#    y 0.000000 3.489520 0.000000 
#    z 0.083650 0.000000 2.960300 
# 
# 
# High freq. dielectric constant tensor:
#      x y z
#    x 1.621570 0.000000 0.010830 
#    y 0.000000 1.672590 0.000000 
#    z 0.010830 0.000000 1.631510 
# 
# From -- ./inp_files/27357.got.cif
#   From: 2010.06.25/outbox.cif.g09.slc.cpg/sg11_14_cif.got.tgz:27357.got - 2010.06.27 23:14:04.
