data_PCOD8069310
_publ_section_title
;
Structure prediction by ZEFSAII (Michael W. Deem and Ramdas Pophale) SiO2 
 PCOD8069310
Probable space group: P 21/M
;
_chemical_formula_sum "Si O2"
_cell_formula_units_Z 28
_cell_length_a 15.578538
_cell_length_b 8.910969
_cell_length_c 23.477623
_cell_angle_alpha 90.000000
_cell_angle_beta 26.752051
_cell_angle_gamma 90.000000
_cell_volume 1467.047265
_symmetry_space_group_name_H-M "P 21/M"
_symmetry_group_IT_number 11
_symmetry_cell_setting 'monoclinic'
loop_
_space_group_symop_operation_xyz
x,y,z
-x,1/2+y,-z
-x,-y,-z
x,1/2-y,z
loop_
_atom_site_type_symbol
_atom_site_label
_atom_site_fract_x
_atom_site_fract_y
_atom_site_fract_z
Si Si1 0.730650 0.922188 0.183163
Si Si2 0.965694 0.072226 0.712675
Si Si3 0.367683 0.572464 0.171395
Si Si4 0.201628 0.925672 0.386017
Si Si5 0.309565 0.576770 0.447563
Si Si6 0.116041 0.923824 0.015710
Si Si7 0.207456 0.427570 0.079632
O O1 0.737622 0.750000 0.157491
O O2 0.529529 0.954525 0.333924
O O3 0.753148 0.027221 0.114788
O O4 0.894952 0.954205 0.131674
O O5 0.959168 0.250000 0.719957
O O6 0.795623 0.006430 0.773513
O O7 0.942006 0.005391 0.789638
O O8 0.171223 0.024108 0.567429
O O9 0.355048 0.750000 0.176617
O O10 0.333057 0.515185 0.256411
O O11 0.579204 0.519360 0.028347
O O12 0.170853 0.750000 0.398925
O O13 0.296231 0.970592 0.389415
O O14 0.000000 0.000000 0.500000
O O15 0.252307 0.750000 0.490609
O O16 0.154606 0.750000 0.006339
O O17 0.165358 0.023434 0.040615
O O18 0.185434 0.250000 0.096735
#
# Coordination Sequence:
#
# PCOD8069310 Si02
#       7
#     4   4   4   4   4   4   4
#     4   9  19  37  61  85 113 145 177 220 274 330
#     4  11  22  37  55  78 111 145 185 234 273 317
#     4   9  19  35  55  78 108 145 182 223 273 324
#     4  10  18  31  51  77 108 139 173 213 261 316
#     4  10  20  35  56  81 111 149 185 217 268 334
#     4  10  20  36  59  88 114 138 178 229 276 321
#     4  11  22  38  58  78 107 148 188 225 273 330
#
# _framework density 19.085958000000002
#
# number of rings (size 3 to 8) (size 9 to 14) (size 15 to 20)
#    0.000    2.000    1.429    2.571    0.000    3.429 
#    0.000    5.714    0.000    0.000    0.000    0.000 
#    0.000    0.000    0.000    0.000    0.000    0.000 
#
# Total GULP energy -347227.711566 kJ/mol
# GULP energy per Si atom -12400.989699 kJ/mol
# Density = 1.904252 g / cm^3
# Si number density = 19.085958 Si / 1000 Ang^3
#
#
#
# Elastic Constant Matrix: (Units=GPa)
#
#
# Indices 1 2 3 4 5 6 
#
# 1 63.2243 25.5812 42.6510 0.0000 -9.1265 0.0000
# 2 25.5812 60.1315 43.6968 0.0000 -2.8062 0.0000
# 3 42.6510 43.6968 120.2399 0.0000 -6.0256 0.0000
# 4 0.0000 0.0000 0.0000 30.8616 0.0000 1.6412
# 5 -9.1265 -2.8062 -6.0256 0.0000 28.1396 0.0000
# 6 0.0000 0.0000 0.0000 1.6412 0.0000 27.7257
#
#
#
# Elastic Compliance Matrix: (Units=1/GPa)
#
#
# Indices 1 2 3 4 5 6 
#
# 1 0.022669 -0.005087 -0.005913 0.000000 0.005579 0.000000
# 2 -0.005087 0.023746 -0.006863 0.000000 -0.000751 0.000000
# 3 -0.005913 -0.006863 0.012916 0.000000 0.000164 0.000000
# 4 0.000000 0.000000 0.000000 0.032505 0.000000 -0.001924
# 5 0.005579 -0.000751 0.000164 0.000000 0.037307 0.000000
# 6 0.000000 0.000000 0.000000 -0.001924 0.000000 0.036182
#
#
# Mechanical properties :
#
#
# Convention : Reuss Voigt Hill
#
# Bulk Modulus (GPa) = 42.36120 51.93930 47.15025
# Shear Modulus (GPa) = 23.93269 26.12317 25.02793
#
# Velocity S-wave (km/s) = 3.54495 3.70362 3.62515
# Velocity P-wave (km/s) = 6.24489 6.74993 6.50232
#
# Compressibility (1/GPa) = 0.02360651
#
# Stress axis : x y z
#
# Youngs Moduli (GPa) = 44.11317 42.11149 77.42071
#
# Poissons Ratio (x) = 0.21421 0.45778
# Poissons Ratio (y) = 0.22439 0.53135
# Poissons Ratio (z) = 0.26084 0.28902
#
# Static dielectric constant tensor:
#      x y z
#    x 3.993990 0.000000 -0.061290 
#    y 0.000000 3.365560 0.000000 
#    z -0.061290 0.000000 3.578340 
# 
# 
# High freq. dielectric constant tensor:
#      x y z
#    x 1.734800 0.000000 -0.004900 
#    y 0.000000 1.730750 0.000000 
#    z -0.004900 0.000000 1.747720 
# 
# From -- ./inp_files/37513.got.cif
#   From: 2010.06.25/outbox.cif.g09.slc.cpg/sg11_19_cif.got.tgz:37513.got - 2010.06.27 23:14:04.
