data_PCOD8069812
_publ_section_title
;
Structure prediction by ZEFSAII (Michael W. Deem and Ramdas Pophale) SiO2 
 PCOD8069812
Probable space group: P 21/M
;
_chemical_formula_sum "Si O2"
_cell_formula_units_Z 32
_cell_length_a 23.698129
_cell_length_b 8.667889
_cell_length_c 13.832385
_cell_angle_alpha 90.000000
_cell_angle_beta 146.466539
_cell_angle_gamma 90.000000
_cell_volume 1569.628645
_symmetry_space_group_name_H-M "P 21/M"
_symmetry_group_IT_number 11
_symmetry_cell_setting 'monoclinic'
loop_
_space_group_symop_operation_xyz
x,y,z
-x,1/2+y,-z
-x,-y,-z
x,1/2-y,z
loop_
_atom_site_type_symbol
_atom_site_label
_atom_site_fract_x
_atom_site_fract_y
_atom_site_fract_z
Si Si1 0.513800 0.067256 0.297173
Si Si2 0.074678 0.567025 0.027452
Si Si3 0.657541 0.567356 0.803654
Si Si4 0.844464 0.567803 0.194688
Si Si5 0.785210 0.929643 0.322301
Si Si6 0.428861 0.568195 0.980421
Si Si7 0.295388 0.067342 0.342231
Si Si8 0.004882 0.070984 0.291594
O O1 0.527542 0.250000 0.312341
O O2 0.447078 0.013706 0.294684
O O3 0.455552 0.011925 0.119240
O O4 0.624144 0.986841 0.461912
O O5 0.070508 0.750000 0.024979
O O6 0.037739 0.503868 0.870209
O O7 0.187755 0.509263 0.212256
O O8 0.000000 0.500000 0.000000
O O9 0.664456 0.750000 0.815663
O O10 0.663180 0.506394 0.702107
O O11 0.753398 0.498026 0.999085
O O12 0.845079 0.750000 0.191110
O O13 0.827859 0.511730 0.280250
O O14 0.951656 0.508621 0.307004
O O15 0.753574 0.750000 0.272063
O O16 0.873445 0.958346 0.527857
O O17 0.687771 0.029827 0.213797
O O18 0.445153 0.750000 0.011399
O O19 0.500000 0.500000 0.000000
O O20 0.282371 0.250000 0.326490
O O21 0.979780 0.250000 0.263638
#
# Coordination Sequence:
#
# PCOD8069812 Si02
#       8
#     4   4   4   4   4   4   4   4
#     4  11  22  41  65  92 126 162 202 250 305 363
#     4  11  24  42  61  85 117 159 208 259 311 362
#     4   9  18  34  60  91 124 162 199 243 302 363
#     4  10  18  34  61  90 123 162 197 241 302 365
#     4  10  21  40  63  89 125 162 198 248 307 362
#     4  12  26  44  65  90 120 160 208 257 306 362
#     4  11  22  39  62  92 126 162 204 249 303 368
#     4  10  22  38  60  91 123 156 198 250 304 362
#
# _framework density 20.386987999999999
#
# number of rings (size 3 to 8) (size 9 to 14) (size 15 to 20)
#    0.000    1.500    2.500    3.000    0.000    2.500 
#    0.000    5.625    0.000    0.000    0.000    0.000 
#    0.000    0.000    0.000    0.000    0.000    0.000 
#
# Total GULP energy -396915.782666 kJ/mol
# GULP energy per Si atom -12403.618208 kJ/mol
# Density = 2.034059 g / cm^3
# Si number density = 20.386988 Si / 1000 Ang^3
#
#
#
# Elastic Constant Matrix: (Units=GPa)
#
#
# Indices 1 2 3 4 5 6 
#
# 1 106.7510 32.9435 28.2874 0.0000 29.9498 0.0000
# 2 32.9435 56.4783 21.6147 0.0000 8.4461 0.0000
# 3 28.2874 21.6147 113.6659 0.0000 21.7829 0.0000
# 4 0.0000 0.0000 0.0000 31.5688 0.0000 4.8606
# 5 29.9498 8.4461 21.7829 0.0000 26.3386 0.0000
# 6 0.0000 0.0000 0.0000 4.8606 0.0000 30.5426
#
#
#
# Elastic Compliance Matrix: (Units=1/GPa)
#
#
# Indices 1 2 3 4 5 6 
#
# 1 0.016006 -0.007082 0.000494 0.000000 -0.016338 0.000000
# 2 -0.007082 0.022539 -0.003187 0.000000 0.003461 0.000000
# 3 0.000494 -0.003187 0.010924 0.000000 -0.008575 0.000000
# 4 0.000000 0.000000 0.000000 0.032473 0.000000 -0.005168
# 5 -0.016338 0.003461 -0.008575 0.000000 0.062527 0.000000
# 6 0.000000 0.000000 0.000000 -0.005168 0.000000 0.033564
#
#
# Mechanical properties :
#
#
# Convention : Reuss Voigt Hill
#
# Bulk Modulus (GPa) = 33.42246 49.17626 41.29936
# Shear Modulus (GPa) = 24.09007 30.62664 27.35835
#
# Velocity S-wave (km/s) = 3.44123 3.88011 3.66724
# Velocity P-wave (km/s) = 5.67618 6.65187 6.18330
#
# Compressibility (1/GPa) = 0.02992000
#
# Stress axis : x y z
#
# Youngs Moduli (GPa) = 62.47670 44.36776 91.54219
#
# Poissons Ratio (x) = 0.31422 -0.04527
# Poissons Ratio (y) = 0.44247 0.29172
# Poissons Ratio (z) = -0.03089 0.14139
#
# Static dielectric constant tensor:
#      x y z
#    x 3.707360 0.000000 -0.076900 
#    y 0.000000 3.478740 0.000000 
#    z -0.076900 0.000000 3.832500 
# 
# 
# High freq. dielectric constant tensor:
#      x y z
#    x 1.794520 0.000000 0.003720 
#    y 0.000000 1.782760 0.000000 
#    z 0.003720 0.000000 1.812000 
# 
# From -- ./inp_files/55720.got.cif
#   From: 2010.06.25/outbox.cif.g09.slc.cpg/sg11_28_cif.got.tgz:55720.got - 2010.06.27 23:14:04.
