data_PCOD8069989
_publ_section_title
;
Structure prediction by ZEFSAII (Michael W. Deem and Ramdas Pophale) SiO2 
 PCOD8069989
Probable space group: P 21/M
;
_chemical_formula_sum "Si O2"
_cell_formula_units_Z 28
_cell_length_a 29.059762
_cell_length_b 8.896647
_cell_length_c 14.509314
_cell_angle_alpha 90.000000
_cell_angle_beta 27.593300
_cell_angle_gamma 90.000000
_cell_volume 1737.507622
_symmetry_space_group_name_H-M "P 21/M"
_symmetry_group_IT_number 11
_symmetry_cell_setting 'monoclinic'
loop_
_space_group_symop_operation_xyz
x,y,z
-x,1/2+y,-z
-x,-y,-z
x,1/2-y,z
loop_
_atom_site_type_symbol
_atom_site_label
_atom_site_fract_x
_atom_site_fract_y
_atom_site_fract_z
Si Si1 0.134090 0.428563 0.328232
Si Si2 0.911557 0.072645 0.771481
Si Si3 0.754822 0.582073 0.698054
Si Si4 0.239661 0.575147 0.588726
Si Si5 0.392416 0.070547 0.191378
Si Si6 0.914184 0.580027 0.262539
Si Si7 0.880660 0.073760 0.028592
O O1 0.140913 0.250000 0.311072
O O2 0.154938 0.497766 0.190782
O O3 0.217969 0.492600 0.251188
O O4 0.025637 0.478282 0.556929
O O5 0.899130 0.250000 0.785027
O O6 0.870840 0.009960 0.942091
O O7 0.717513 0.750000 0.783424
O O8 0.667150 0.505370 0.792690
O O9 0.856816 0.583231 0.460840
O O10 0.262470 0.750000 0.532136
O O11 0.334102 0.479411 0.387187
O O12 0.139829 0.530879 0.712135
O O13 0.218199 0.540778 0.735342
O O14 0.397590 0.250000 0.181746
O O15 0.500000 0.000000 0.000000
O O16 0.917487 0.750000 0.215839
O O17 0.022552 0.509405 0.090141
O O18 0.901421 0.250000 0.982783
#
# Coordination Sequence:
#
# PCOD8069989 Si02
#       7
#     4   4   4   4   4   4   4
#     4   9  15  26  42  61  86 118 155 187 215 254
#     4   9  16  26  41  60  87 123 158 187 215 250
#     4   8  14  26  46  65  85 118 151 176 216 272
#     4  10  19  29  43  66  91 117 151 187 221 265
#     4  10  20  35  53  70  89 114 144 183 230 276
#     4   9  15  27  43  60  86 124 159 184 215 258
#     4   9  16  27  43  61  88 127 160 182 215 265
#
# _framework density 16.115037000000001
#
# number of rings (size 3 to 8) (size 9 to 14) (size 15 to 20)
#    0.000    2.857    1.429    2.143    0.000    0.000 
#    0.000    6.429    0.000    0.000    0.000    1.000 
#    0.000    0.000    0.000    0.000    0.000    0.000 
#
# Total GULP energy -346923.568320 kJ/mol
# GULP energy per Si atom -12390.127440 kJ/mol
# Density = 1.607836 g / cm^3
# Si number density = 16.115037 Si / 1000 Ang^3
#
#
#
# Elastic Constant Matrix: (Units=GPa)
#
#
# Indices 1 2 3 4 5 6 
#
# 1 104.4413 27.6885 65.5638 0.0000 12.1697 0.0000
# 2 27.6885 36.9271 26.2089 0.0000 2.9001 0.0000
# 3 65.5638 26.2089 89.6487 0.0000 4.4579 0.0000
# 4 0.0000 0.0000 0.0000 19.7485 0.0000 1.2719
# 5 12.1697 2.9001 4.4579 0.0000 24.1239 0.0000
# 6 0.0000 0.0000 0.0000 1.2719 0.0000 22.1208
#
#
#
# Elastic Compliance Matrix: (Units=1/GPa)
#
#
# Indices 1 2 3 4 5 6 
#
# 1 0.019602 -0.005328 -0.012432 0.000000 -0.006950 0.000000
# 2 -0.005328 0.035744 -0.006533 0.000000 -0.000402 0.000000
# 3 -0.012432 -0.006533 0.022008 0.000000 0.002990 0.000000
# 4 0.000000 0.000000 0.000000 0.050825 0.000000 -0.002922
# 5 -0.006950 -0.000402 0.002990 0.000000 0.044455 0.000000
# 6 0.000000 0.000000 0.000000 -0.002922 0.000000 0.045374
#
#
# Mechanical properties :
#
#
# Convention : Reuss Voigt Hill
#
# Bulk Modulus (GPa) = 34.76223 52.21550 43.48887
# Shear Modulus (GPa) = 18.10393 20.63570 19.36982
#
# Velocity S-wave (km/s) = 3.35538 3.58232 3.47071
# Velocity P-wave (km/s) = 6.05224 7.04151 6.56553
#
# Compressibility (1/GPa) = 0.02876685
#
# Stress axis : x y z
#
# Youngs Moduli (GPa) = 51.01648 27.97679 45.43784
#
# Poissons Ratio (x) = 0.14906 0.56489
# Poissons Ratio (y) = 0.27181 0.29686
# Poissons Ratio (z) = 0.63424 0.18278
#
# Static dielectric constant tensor:
#      x y z
#    x 3.265530 0.000000 0.183020 
#    y 0.000000 2.828620 0.000000 
#    z 0.183020 0.000000 2.865470 
# 
# 
# High freq. dielectric constant tensor:
#      x y z
#    x 1.615100 0.000000 0.018030 
#    y 0.000000 1.597040 0.000000 
#    z 0.018030 0.000000 1.586280 
# 
# From -- ./inp_files/42604.got.cif
#   From: 2010.06.25/outbox.cif.g09.slc.cpg/sg11_22_cif.got.tgz:42604.got - 2010.06.27 23:14:04.
