data_PCOD8069074
_publ_section_title
;
Structure prediction by ZEFSAII (Michael W. Deem and Ramdas Pophale) SiO2 
 PCOD8069074
Probable space group: P 21/M
;
_chemical_formula_sum "Si O2"
_cell_formula_units_Z 24
_cell_length_a 16.354695
_cell_length_b 9.022310
_cell_length_c 15.158160
_cell_angle_alpha 90.000000
_cell_angle_beta 142.202532
_cell_angle_gamma 90.000000
_cell_volume 1370.807769
_symmetry_space_group_name_H-M "P 21/M"
_symmetry_group_IT_number 11
_symmetry_cell_setting 'monoclinic'
loop_
_space_group_symop_operation_xyz
x,y,z
-x,1/2+y,-z
-x,-y,-z
x,1/2-y,z
loop_
_atom_site_type_symbol
_atom_site_label
_atom_site_fract_x
_atom_site_fract_y
_atom_site_fract_z
Si Si1 0.638250 0.073913 0.594001
Si Si2 0.091551 0.921035 0.847748
Si Si3 0.215622 0.424051 0.438720
Si Si4 0.868797 0.077429 0.922214
Si Si5 0.824163 0.082562 0.420421
Si Si6 0.861152 0.916392 0.282350
O O1 0.623117 0.250000 0.575005
O O2 0.741664 0.025155 0.758167
O O3 0.500000 0.000000 0.500000
O O4 0.685617 0.011012 0.541064
O O5 0.109777 0.750000 0.838066
O O6 0.934987 0.960131 0.719228
O O7 0.167935 0.014841 0.838468
O O8 0.157338 0.961701 0.997570
O O9 0.246974 0.250000 0.462378
O O10 0.242867 0.484294 0.560291
O O11 0.895418 0.250000 0.933315
O O12 0.000000 0.000000 0.000000
O O13 0.768609 0.250000 0.376846
O O14 0.982145 0.081508 0.566626
O O15 0.786358 0.011054 0.293903
O O16 0.804635 0.750000 0.236381
#
# Coordination Sequence:
#
# PCOD8069074 Si02
#       6
#     4   4   4   4   4   4
#     4  11  23  37  53  74 103 137 175 215 257 304
#     4   9  17  29  46  70  99 130 163 204 254 302
#     4  10  18  30  49  71  98 131 168 209 255 303
#     4  10  20  34  53  76 101 133 172 213 257 306
#     4   9  16  26  41  63  95 131 165 202 248 299
#     4   9  16  25  39  64  96 129 164 202 246 296
#
# _framework density 17.507925
#
# number of rings (size 3 to 8) (size 9 to 14) (size 15 to 20)
#    0.000    2.333    1.667    2.000    0.000    6.000 
#    0.000    0.000    0.000    0.000    0.000    1.167 
#    0.000    0.000    0.000    0.000    0.000    0.000 
#
# Total GULP energy -297614.891261 kJ/mol
# GULP energy per Si atom -12400.620469 kJ/mol
# Density = 1.746808 g / cm^3
# Si number density = 17.507925 Si / 1000 Ang^3
#
#
#
# Elastic Constant Matrix: (Units=GPa)
#
#
# Indices 1 2 3 4 5 6 
#
# 1 122.3824 59.4177 59.6774 0.0000 -23.6819 0.0000
# 2 59.4177 99.9064 41.6543 0.0000 -7.9282 0.0000
# 3 59.6774 41.6543 71.9852 0.0000 -9.8652 0.0000
# 4 0.0000 0.0000 0.0000 18.0600 0.0000 -5.8529
# 5 -23.6819 -7.9282 -9.8652 0.0000 21.5649 0.0000
# 6 0.0000 0.0000 0.0000 -5.8529 0.0000 37.8200
#
#
#
# Elastic Compliance Matrix: (Units=1/GPa)
#
#
# Indices 1 2 3 4 5 6 
#
# 1 0.018551 -0.005692 -0.010222 0.000000 0.013604 0.000000
# 2 -0.005692 0.014981 -0.004323 0.000000 -0.002721 0.000000
# 3 -0.010222 -0.004323 0.024657 0.000000 -0.001535 0.000000
# 4 0.000000 0.000000 0.000000 0.058295 0.000000 0.009022
# 5 0.013604 -0.002721 -0.001535 0.000000 0.059609 0.000000
# 6 0.000000 0.000000 0.000000 0.009022 0.000000 0.027837
#
#
# Mechanical properties :
#
#
# Convention : Reuss Voigt Hill
#
# Bulk Modulus (GPa) = 56.44464 68.41920 62.43192
# Shear Modulus (GPa) = 19.97540 24.39063 22.18302
#
# Velocity S-wave (km/s) = 3.38144 3.73650 3.56339
# Velocity P-wave (km/s) = 6.89601 7.60125 7.25720
#
# Compressibility (1/GPa) = 0.01771648
#
# Stress axis : x y z
#
# Youngs Moduli (GPa) = 53.90439 66.75137 40.55676
#
# Poissons Ratio (x) = 0.37994 0.41455
# Poissons Ratio (y) = 0.30682 0.17532
# Poissons Ratio (z) = 0.55099 0.28856
#
# Static dielectric constant tensor:
#      x y z
#    x 2.951060 0.000000 -0.208220 
#    y 0.000000 3.378470 0.000000 
#    z -0.208220 0.000000 2.943980 
# 
# 
# High freq. dielectric constant tensor:
#      x y z
#    x 1.675560 0.000000 -0.037650 
#    y 0.000000 1.689830 0.000000 
#    z -0.037650 0.000000 1.630030 
# 
# From -- ./inp_files/25763.got.cif
#   From: 2010.06.25/outbox.cif.g09.slc.cpg/sg11_13_cif.got.tgz:25763.got - 2010.06.27 23:14:04.
