data_PCOD8069540
_publ_section_title
;
Structure prediction by ZEFSAII (Michael W. Deem and Ramdas Pophale) SiO2 
 PCOD8069540
Probable space group: P 21/M
;
_chemical_formula_sum "Si O2"
_cell_formula_units_Z 28
_cell_length_a 9.268088
_cell_length_b 13.974143
_cell_length_c 12.287102
_cell_angle_alpha 90.000000
_cell_angle_beta 68.505551
_cell_angle_gamma 90.000000
_cell_volume 1480.673382
_symmetry_space_group_name_H-M "P 21/M"
_symmetry_group_IT_number 11
_symmetry_cell_setting 'monoclinic'
loop_
_space_group_symop_operation_xyz
x,y,z
-x,1/2+y,-z
-x,-y,-z
x,1/2-y,z
loop_
_atom_site_type_symbol
_atom_site_label
_atom_site_fract_x
_atom_site_fract_y
_atom_site_fract_z
Si Si1 0.739726 0.863661 0.204010
Si Si2 0.049001 0.551397 0.226414
Si Si3 0.821567 0.017808 0.026418
Si Si4 0.925959 0.148111 0.329266
Si Si5 0.341929 0.643118 0.760631
Si Si6 0.523675 0.020112 0.619610
Si Si7 0.128348 0.577240 0.435493
O O1 0.746786 0.750000 0.182431
O O2 0.732636 0.920507 0.089684
O O3 0.587318 0.891002 0.315422
O O4 0.891187 0.900707 0.226974
O O5 0.104326 0.611756 0.316983
O O6 0.030562 0.440732 0.266220
O O7 0.187746 0.546481 0.098630
O O8 0.761264 0.109271 0.108997
O O9 0.000000 0.000000 0.000000
O O10 0.001188 0.250000 0.270854
O O11 0.758469 0.136648 0.320902
O O12 0.897237 0.158693 0.467143
O O13 0.402225 0.750000 0.767334
O O14 0.486210 0.573508 0.702090
O O15 0.699922 0.037862 0.599173
O O16 0.500000 0.000000 0.500000
O O17 0.000000 0.500000 0.500000
#
# Coordination Sequence:
#
# PCOD8069540 Si02
#       7
#     4   4   4   4   4   4   4
#     4  10  21  35  55  82 113 146 190 238 276 327
#     4  10  19  38  55  85 114 151 184 228 284 334
#     4   9  17  33  55  81 112 141 190 228 276 325
#     4  10  18  32  54  82 112 143 181 228 275 325
#     4  10  19  33  55  82 108 141 187 234 271 322
#     4  11  19  37  56  80 110 144 192 229 275 338
#     4  10  21  36  57  80 113 145 180 231 285 333
#
# _framework density 18.910316000000002
#
# number of rings (size 3 to 8) (size 9 to 14) (size 15 to 20)
#    0.000    2.000    5.714    0.857    0.000    4.571 
#    0.000    5.714    0.000    1.714    0.000    0.000 
#    0.000    0.000    0.000    0.000    0.000    0.000 
#
# Total GULP energy -346867.264345 kJ/mol
# GULP energy per Si atom -12388.116584 kJ/mol
# Density = 1.886728 g / cm^3
# Si number density = 18.910316 Si / 1000 Ang^3
#
#
#
# Elastic Constant Matrix: (Units=GPa)
#
#
# Indices 1 2 3 4 5 6 
#
# 1 75.1968 12.2799 33.1812 0.0000 -5.9567 0.0000
# 2 12.2799 115.5413 27.4780 0.0000 -6.8255 0.0000
# 3 33.1812 27.4780 124.7021 0.0000 4.5142 0.0000
# 4 0.0000 0.0000 0.0000 18.5638 0.0000 -1.9256
# 5 -5.9567 -6.8255 4.5142 0.0000 30.8174 0.0000
# 6 0.0000 0.0000 0.0000 -1.9256 0.0000 11.4502
#
#
#
# Elastic Compliance Matrix: (Units=1/GPa)
#
#
# Indices 1 2 3 4 5 6 
#
# 1 0.015479 -0.000453 -0.004146 0.000000 0.003499 0.000000
# 2 -0.000453 0.009316 -0.002015 0.000000 0.002271 0.000000
# 3 -0.004146 -0.002015 0.009663 0.000000 -0.002663 0.000000
# 4 0.000000 0.000000 0.000000 0.054825 0.000000 0.009220
# 5 0.003499 0.002271 -0.002663 0.000000 0.034019 0.000000
# 6 0.000000 0.000000 0.000000 0.009220 0.000000 0.088886
#
#
# Mechanical properties :
#
#
# Convention : Reuss Voigt Hill
#
# Bulk Modulus (GPa) = 47.09858 51.25762 49.17810
# Shear Modulus (GPa) = 21.50637 28.33302 24.91969
#
# Velocity S-wave (km/s) = 3.37602 3.87497 3.63407
# Velocity P-wave (km/s) = 6.33696 6.86913 6.60840
#
# Compressibility (1/GPa) = 0.02123206
#
# Stress axis : x y z
#
# Youngs Moduli (GPa) = 64.60461 107.33891 103.49279
#
# Poissons Ratio (x) = 0.04857 0.42904
# Poissons Ratio (y) = 0.02923 0.20850
# Poissons Ratio (z) = 0.26782 0.21625
#
# Static dielectric constant tensor:
#      x y z
#    x 3.278450 0.000000 0.104570 
#    y 0.000000 3.505310 0.000000 
#    z 0.104570 0.000000 4.162650 
# 
# 
# High freq. dielectric constant tensor:
#      x y z
#    x 1.699690 0.000000 -0.002910 
#    y 0.000000 1.726760 0.000000 
#    z -0.002910 0.000000 1.752020 
# 
# From -- ./inp_files/31671.got.cif
#   From: 2010.06.25/outbox.cif.g09.slc.cpg/sg11_16_cif.got.tgz:31671.got - 2010.06.27 23:14:04.
