data_PCOD8069059
_publ_section_title
;
Structure prediction by ZEFSAII (Michael W. Deem and Ramdas Pophale) SiO2 
 PCOD8069059
Probable space group: P 21/M
;
_chemical_formula_sum "Si O2"
_cell_formula_units_Z 28
_cell_length_a 18.979299
_cell_length_b 8.842548
_cell_length_c 10.538181
_cell_angle_alpha 90.000000
_cell_angle_beta 130.903353
_cell_angle_gamma 90.000000
_cell_volume 1336.715061
_symmetry_space_group_name_H-M "P 21/M"
_symmetry_group_IT_number 11
_symmetry_cell_setting 'monoclinic'
loop_
_space_group_symop_operation_xyz
x,y,z
-x,1/2+y,-z
-x,-y,-z
x,1/2-y,z
loop_
_atom_site_type_symbol
_atom_site_label
_atom_site_fract_x
_atom_site_fract_y
_atom_site_fract_z
Si Si1 0.729428 0.574853 0.066880
Si Si2 0.400334 0.430800 0.856158
Si Si3 0.887057 0.081710 0.615408
Si Si4 0.268278 0.426577 0.209202
Si Si5 0.698963 0.069355 0.499682
Si Si6 0.058205 0.070951 0.956300
Si Si7 0.095217 0.918698 0.643063
O O1 0.747500 0.750000 0.110843
O O2 0.665109 0.511536 0.104313
O O3 0.833084 0.503562 0.181029
O O4 0.684283 0.545828 0.873793
O O5 0.404719 0.250000 0.857765
O O6 0.368369 0.493092 0.682347
O O7 0.500000 0.500000 0.000000
O O8 0.893832 0.250000 0.679239
O O9 0.803861 0.003759 0.597443
O O10 0.852449 0.082587 0.430801
O O11 0.993408 0.016667 0.758509
O O12 0.270053 0.250000 0.246019
O O13 0.325589 0.516448 0.385705
O O14 0.162725 0.493000 0.074919
O O15 0.690305 0.250000 0.476793
O O16 0.066189 0.250000 0.977584
O O17 0.000000 0.000000 0.000000
O O18 0.076206 0.750000 0.671698
O O19 0.000000 0.000000 0.500000
#
# Coordination Sequence:
#
# PCOD8069059 Si02
#       7
#     4   4   4   4   4   4   4
#     4  10  22  41  63  89 124 162 205 256 310 370
#     4  11  24  44  71  98 122 154 200 255 318 382
#     4   9  18  32  51  76 113 157 200 250 299 345
#     4  10  21  37  58  86 124 166 204 251 306 359
#     4  11  21  38  63  90 121 157 201 250 302 366
#     4  10  18  30  48  74 113 160 205 245 289 342
#     4  11  21  35  55  82 120 165 210 256 305 360
#
# _framework density 20.946871999999999
#
# number of rings (size 3 to 8) (size 9 to 14) (size 15 to 20)
#    0.000    1.714    2.857    2.143    0.000    3.429 
#    0.000    3.571    0.000    0.000    0.000    0.000 
#    0.000    0.000    0.000    0.000    0.000    0.000 
#
# Total GULP energy -346892.891283 kJ/mol
# GULP energy per Si atom -12389.031832 kJ/mol
# Density = 2.089920 g / cm^3
# Si number density = 20.946872 Si / 1000 Ang^3
#
#
#
# Elastic Constant Matrix: (Units=GPa)
#
#
# Indices 1 2 3 4 5 6 
#
# 1 65.9138 31.5385 50.8825 0.0000 -0.0111 0.0000
# 2 31.5385 69.1609 42.5089 0.0000 0.7199 0.0000
# 3 50.8825 42.5089 148.1205 0.0000 -7.3831 0.0000
# 4 0.0000 0.0000 0.0000 33.9676 0.0000 0.3656
# 5 -0.0111 0.7199 -7.3831 0.0000 33.2815 0.0000
# 6 0.0000 0.0000 0.0000 0.3656 0.0000 23.2513
#
#
#
# Elastic Compliance Matrix: (Units=1/GPa)
#
#
# Indices 1 2 3 4 5 6 
#
# 1 0.023088 -0.006805 -0.006037 0.000000 -0.001184 0.000000
# 2 -0.006805 0.019638 -0.003356 0.000000 -0.001172 0.000000
# 3 -0.006037 -0.003356 0.009901 0.000000 0.002267 0.000000
# 4 0.000000 0.000000 0.000000 0.029445 0.000000 -0.000463
# 5 -0.001184 -0.001172 0.002267 0.000000 0.030575 0.000000
# 6 0.000000 0.000000 0.000000 -0.000463 0.000000 0.043016
#
#
# Mechanical properties :
#
#
# Convention : Reuss Voigt Hill
#
# Bulk Modulus (GPa) = 49.43411 59.22833 54.33122
# Shear Modulus (GPa) = 25.66703 28.65109 27.15906
#
# Velocity S-wave (km/s) = 3.50428 3.70239 3.60470
# Velocity P-wave (km/s) = 6.32648 6.82743 6.58172
#
# Compressibility (1/GPa) = 0.02022895
#
# Stress axis : x y z
#
# Youngs Moduli (GPa) = 43.31306 50.92279 100.99627
#
# Poissons Ratio (x) = 0.34655 0.60972
# Poissons Ratio (y) = 0.29476 0.33898
# Poissons Ratio (z) = 0.26148 0.17092
#
# Static dielectric constant tensor:
#      x y z
#    x 3.796510 0.000000 -0.339760 
#    y 0.000000 3.508950 0.000000 
#    z -0.339760 0.000000 4.200430 
# 
# 
# High freq. dielectric constant tensor:
#      x y z
#    x 1.807030 0.000000 -0.021550 
#    y 0.000000 1.800650 0.000000 
#    z -0.021550 0.000000 1.827600 
# 
# From -- ./inp_files/42614.got.cif
#   From: 2010.06.25/outbox.cif.g09.slc.cpg/sg11_22_cif.got.tgz:42614.got - 2010.06.27 23:14:04.
