data_PCOD8069761
_publ_section_title
;
Structure prediction by ZEFSAII (Michael W. Deem and Ramdas Pophale) SiO2 
 PCOD8069761
Probable space group: P 21/M
;
_chemical_formula_sum "Si O2"
_cell_formula_units_Z 28
_cell_length_a 16.630301
_cell_length_b 9.015949
_cell_length_c 14.945901
_cell_angle_alpha 90.000000
_cell_angle_beta 46.180969
_cell_angle_gamma 90.000000
_cell_volume 1616.918854
_symmetry_space_group_name_H-M "P 21/M"
_symmetry_group_IT_number 11
_symmetry_cell_setting 'monoclinic'
loop_
_space_group_symop_operation_xyz
x,y,z
-x,1/2+y,-z
-x,-y,-z
x,1/2-y,z
loop_
_atom_site_type_symbol
_atom_site_label
_atom_site_fract_x
_atom_site_fract_y
_atom_site_fract_z
Si Si1 0.920450 0.578282 0.188786
Si Si2 0.887268 0.074120 0.392598
Si Si3 0.130086 0.074246 0.260901
Si Si4 0.137096 0.419296 0.962730
Si Si5 0.306319 0.421819 0.979448
Si Si6 0.511058 0.576610 0.896272
Si Si7 0.758039 0.923459 0.644357
O O1 0.921457 0.750000 0.214370
O O2 0.862640 0.486400 0.312386
O O3 0.849398 0.548666 0.153178
O O4 0.046959 0.526575 0.076566
O O5 0.883313 0.250000 0.394153
O O6 0.007312 0.012542 0.333348
O O7 0.791813 0.014004 0.530918
O O8 0.128932 0.250000 0.257218
O O9 0.167062 0.019393 0.330316
O O10 0.218228 0.015929 0.119982
O O11 0.096278 0.250000 0.010393
O O12 0.255581 0.445242 0.919433
O O13 0.333798 0.250000 0.977375
O O14 0.419057 0.515415 0.898567
O O15 0.494570 0.750000 0.923449
O O16 0.630131 0.540048 0.762367
O O17 0.500000 0.500000 0.000000
O O18 0.777250 0.750000 0.612585
#
# Coordination Sequence:
#
# PCOD8069761 Si02
#       7
#     4   4   4   4   4   4   4
#     4  10  19  31  51  79 108 139 174 213 260 316
#     4  11  21  34  53  77 106 141 177 214 259 316
#     4   9  17  32  52  74 105 141 169 205 260 309
#     4   9  18  33  53  77 107 141 173 212 265 313
#     4  10  18  34  56  77 107 140 172 216 264 310
#     4  11  22  36  55  78 105 139 179 221 261 306
#     4  10  21  37  52  71 104 142 176 215 259 305
#
# _framework density 17.316887000000001
#
# number of rings (size 3 to 8) (size 9 to 14) (size 15 to 20)
#    0.000    2.000    2.857    1.714    0.000    2.286 
#    0.000    0.714    0.000    0.857    0.000    0.000 
#    0.000    0.000    0.000    0.000    0.000    0.000 
#
# Total GULP energy -347260.058017 kJ/mol
# GULP energy per Si atom -12402.144929 kJ/mol
# Density = 1.727747 g / cm^3
# Si number density = 17.316887 Si / 1000 Ang^3
#
#
#
# Elastic Constant Matrix: (Units=GPa)
#
#
# Indices 1 2 3 4 5 6 
#
# 1 116.0335 47.5290 64.4599 0.0000 9.3838 0.0000
# 2 47.5290 72.2967 59.5367 0.0000 1.7803 0.0000
# 3 64.4599 59.5367 113.2271 0.0000 11.3008 0.0000
# 4 0.0000 0.0000 0.0000 29.0977 0.0000 -0.1748
# 5 9.3838 1.7803 11.3008 0.0000 27.2095 0.0000
# 6 0.0000 0.0000 0.0000 -0.1748 0.0000 27.1481
#
#
#
# Elastic Compliance Matrix: (Units=1/GPa)
#
#
# Indices 1 2 3 4 5 6 
#
# 1 0.013501 -0.004722 -0.004975 0.000000 -0.002281 0.000000
# 2 -0.004722 0.026449 -0.011693 0.000000 0.004755 0.000000
# 3 -0.004975 -0.011693 0.018325 0.000000 -0.005130 0.000000
# 4 0.000000 0.000000 0.000000 0.034368 0.000000 0.000221
# 5 -0.002281 0.004755 -0.005130 0.000000 0.039358 0.000000
# 6 0.000000 0.000000 0.000000 0.000221 0.000000 0.036836
#
#
# Mechanical properties :
#
#
# Convention : Reuss Voigt Hill
#
# Bulk Modulus (GPa) = 64.54731 71.62318 68.08525
# Shear Modulus (GPa) = 23.06447 25.35984 24.21215
#
# Velocity S-wave (km/s) = 3.65349 3.83097 3.74328
# Velocity P-wave (km/s) = 7.42647 7.81144 7.62138
#
# Compressibility (1/GPa) = 0.01549251
#
# Stress axis : x y z
#
# Youngs Moduli (GPa) = 74.06899 37.80863 54.57076
#
# Poissons Ratio (x) = 0.17855 0.27151
# Poissons Ratio (y) = 0.34978 0.63812
# Poissons Ratio (z) = 0.36852 0.44211
#
# Static dielectric constant tensor:
#      x y z
#    x 3.420010 0.000000 0.085370 
#    y 0.000000 3.161820 0.000000 
#    z 0.085370 0.000000 3.094080 
# 
# 
# High freq. dielectric constant tensor:
#      x y z
#    x 1.669850 0.000000 0.011630 
#    y 0.000000 1.662770 0.000000 
#    z 0.011630 0.000000 1.651090 
# 
# From -- ./inp_files/37036.got.cif
#   From: 2010.06.25/outbox.cif.g09.slc.cpg/sg11_19_cif.got.tgz:37036.got - 2010.06.27 23:14:04.
