data_PCOD8069953
_publ_section_title
;
Structure prediction by ZEFSAII (Michael W. Deem and Ramdas Pophale) SiO2 
 PCOD8069953
Probable space group: P 21/M
;
_chemical_formula_sum "Si O2"
_cell_formula_units_Z 32
_cell_length_a 15.205474
_cell_length_b 8.997837
_cell_length_c 15.205375
_cell_angle_alpha 90.000000
_cell_angle_beta 95.901902
_cell_angle_gamma 90.000000
_cell_volume 2069.317248
_symmetry_space_group_name_H-M "P 21/M"
_symmetry_group_IT_number 11
_symmetry_cell_setting 'monoclinic'
loop_
_space_group_symop_operation_xyz
x,y,z
-x,1/2+y,-z
-x,-y,-z
x,1/2-y,z
loop_
_atom_site_type_symbol
_atom_site_label
_atom_site_fract_x
_atom_site_fract_y
_atom_site_fract_z
Si Si1 0.612362 0.082795 0.435189
Si Si2 0.402712 0.417481 0.395516
Si Si3 0.376002 0.424377 0.739335
Si Si4 0.288956 0.425592 0.082840
Si Si5 0.929182 0.920582 0.088211
Si Si6 0.743328 0.578780 0.118403
Si Si7 0.882166 0.080203 0.909561
Si Si8 0.580489 0.076135 0.778593
O O1 0.649023 0.250000 0.444113
O O2 0.507176 0.081938 0.419066
O O3 0.643434 0.995569 0.525644
O O4 0.652514 0.003587 0.353725
O O5 0.366476 0.250000 0.383628
O O6 0.377389 0.506990 0.305210
O O7 0.360767 0.250000 0.723636
O O8 0.314872 0.494877 0.810300
O O9 0.476872 0.459276 0.774776
O O10 0.297637 0.250000 0.091517
O O11 0.200527 0.477542 0.126907
O O12 0.375127 0.501444 0.132251
O O13 0.281156 0.482831 0.981211
O O14 0.921454 0.750000 0.050586
O O15 0.848452 0.944983 0.148989
O O16 0.027804 0.943381 0.140284
O O17 0.914250 0.040371 0.010579
O O18 0.716807 0.750000 0.115663
O O19 0.849908 0.250000 0.901953
O O20 0.600013 0.250000 0.779762
#
# Coordination Sequence:
#
# PCOD8069953 Si02
#       8
#     4   4   4   4   4   4   4   4
#     4   9  16  26  41  61  82 102 129 168 209 245
#     4   9  16  27  43  60  78 103 133 165 206 251
#     4   9  17  29  43  58  80 111 143 172 202 239
#     4  10  19  30  42  56  79 112 145 175 207 243
#     4   8  14  25  41  59  79 103 130 164 208 251
#     4   8  15  28  43  58  79 110 144 172 200 239
#     4   9  15  24  40  60  79 100 130 169 210 248
#     4  10  19  29  41  59  82 108 140 176 208 238
#
# _framework density 15.464038
#
# number of rings (size 3 to 8) (size 9 to 14) (size 15 to 20)
#    0.000    3.000    0.000    2.625    0.000    4.500 
#    0.000    3.125    0.000    0.000    0.000    0.000 
#    0.000    1.000    0.000    2.750    0.000    4.250 
#
# Total GULP energy -396507.556636 kJ/mol
# GULP energy per Si atom -12390.861145 kJ/mol
# Density = 1.542884 g / cm^3
# Si number density = 15.464038 Si / 1000 Ang^3
#
#
#
# Elastic Constant Matrix: (Units=GPa)
#
#
# Indices 1 2 3 4 5 6 
#
# 1 74.2735 32.5067 44.6222 0.0000 -18.8194 0.0000
# 2 32.5067 74.9212 32.2770 0.0000 -10.4219 0.0000
# 3 44.6222 32.2770 76.0945 0.0000 -23.9716 0.0000
# 4 0.0000 0.0000 0.0000 23.1604 0.0000 2.9159
# 5 -18.8194 -10.4219 -23.9716 0.0000 10.4967 0.0000
# 6 0.0000 0.0000 0.0000 2.9159 0.0000 17.1511
#
#
#
# Elastic Compliance Matrix: (Units=1/GPa)
#
#
# Indices 1 2 3 4 5 6 
#
# 1 0.026615 -0.005726 0.000224 0.000000 0.042545 0.000000
# 2 -0.005726 0.017570 -0.006534 0.000000 -0.007745 0.000000
# 3 0.000224 -0.006534 0.049416 0.000000 0.106766 0.000000
# 4 0.000000 0.000000 0.000000 0.044122 0.000000 -0.007501
# 5 0.042545 -0.007745 0.106766 0.000000 0.407683 0.000000
# 6 0.000000 0.000000 0.000000 -0.007501 0.000000 0.059581
#
#
# Mechanical properties :
#
#
# Convention : Reuss Voigt Hill
#
# Bulk Modulus (GPa) = 14.38274 49.34454 31.86364
# Shear Modulus (GPa) = 7.66596 17.88717 12.77657
#
# Velocity S-wave (km/s) = 2.22891 3.40471 2.87751
# Velocity P-wave (km/s) = 3.99312 6.88728 5.62937
#
# Compressibility (1/GPa) = 0.06952777
#
# Stress axis : x y z
#
# Youngs Moduli (GPa) = 37.57254 56.91649 20.23652
#
# Poissons Ratio (x) = 0.32591 -0.00454
# Poissons Ratio (y) = 0.21515 0.13224
# Poissons Ratio (z) = -0.00843 0.37192
#
# Static dielectric constant tensor:
#      x y z
#    x 3.061070 0.000000 -0.160590 
#    y 0.000000 2.997320 0.000000 
#    z -0.160590 0.000000 2.829780 
# 
# 
# High freq. dielectric constant tensor:
#      x y z
#    x 1.571740 0.000000 -0.009750 
#    y 0.000000 1.598160 0.000000 
#    z -0.009750 0.000000 1.557210 
# 
# From -- ./inp_files/51365.got.cif
#   From: 2010.06.25/outbox.cif.g09.slc.cpg/sg11_26_cif.got.tgz:51365.got - 2010.06.27 23:14:04.
