data_PCOD8069539
_publ_section_title
;
Structure prediction by ZEFSAII (Michael W. Deem and Ramdas Pophale) SiO2 
 PCOD8069539
Probable space group: P 21/M
;
_chemical_formula_sum "Si O2"
_cell_formula_units_Z 32
_cell_length_a 8.299020
_cell_length_b 13.394799
_cell_length_c 25.706863
_cell_angle_alpha 90.000000
_cell_angle_beta 35.292592
_cell_angle_gamma 90.000000
_cell_volume 1651.024912
_symmetry_space_group_name_H-M "P 21/M"
_symmetry_group_IT_number 11
_symmetry_cell_setting 'monoclinic'
loop_
_space_group_symop_operation_xyz
x,y,z
-x,1/2+y,-z
-x,-y,-z
x,1/2-y,z
loop_
_atom_site_type_symbol
_atom_site_label
_atom_site_fract_x
_atom_site_fract_y
_atom_site_fract_z
Si Si1 0.423195 0.005704 0.364929
Si Si2 0.048897 0.368747 0.951337
Si Si3 0.890902 0.640188 0.681628
Si Si4 0.593204 0.002551 0.209577
Si Si5 0.906201 0.365885 0.481947
Si Si6 0.516910 0.633301 0.952124
Si Si7 0.101739 0.368899 0.057471
Si Si8 0.067977 0.860642 0.746973
O O1 0.446367 0.961062 0.300568
O O2 0.719637 0.054577 0.294481
O O3 0.185999 0.089823 0.433985
O O4 0.365667 0.917444 0.421017
O O5 0.054044 0.250000 0.949079
O O6 0.314092 0.409125 0.849833
O O7 0.771504 0.413948 0.994992
O O8 0.081169 0.406038 0.002779
O O9 0.760750 0.750000 0.704515
O O10 0.639515 0.565130 0.759630
O O11 0.087034 0.610334 0.581279
O O12 0.083587 0.643800 0.680825
O O13 0.848732 0.078307 0.154889
O O14 0.889019 0.250000 0.499661
O O15 0.457543 0.750000 0.968786
O O16 0.611569 0.600087 0.986439
O O17 0.762897 0.607245 0.847265
O O18 0.065068 0.250000 0.070650
O O19 0.142450 0.750000 0.749895
#
# Coordination Sequence:
#
# PCOD8069539 Si02
#       8
#     4   4   4   4   4   4   4   4
#     4  10  20  33  54  82 105 135 177 217 267 325
#     4  10  22  37  51  75 110 149 190 225 267 323
#     4   9  19  34  56  81 105 134 173 224 276 319
#     4  11  20  34  53  78 105 141 179 223 268 317
#     4   9  19  36  55  77 106 138 173 214 264 327
#     4   9  18  33  52  76 106 138 180 228 269 312
#     4  10  19  33  53  75 102 140 180 228 276 310
#     4  10  18  32  54  82 109 133 168 225 275 312
#
# _framework density 19.381898
#
# number of rings (size 3 to 8) (size 9 to 14) (size 15 to 20)
#    0.000    2.250    1.250    1.875    0.000    4.500 
#    2.250    0.000    0.000    0.750    0.000    0.000 
#    0.000    0.000    0.000    0.000    0.000    0.000 
#
# Total GULP energy -396587.501213 kJ/mol
# GULP energy per Si atom -12393.359413 kJ/mol
# Density = 1.933778 g / cm^3
# Si number density = 19.381898 Si / 1000 Ang^3
#
#
#
# Elastic Constant Matrix: (Units=GPa)
#
#
# Indices 1 2 3 4 5 6 
#
# 1 105.3651 31.3100 37.8444 0.0000 16.1900 0.0000
# 2 31.3100 41.7757 38.2203 0.0000 6.6101 0.0000
# 3 37.8444 38.2203 101.0211 0.0000 15.1332 0.0000
# 4 0.0000 0.0000 0.0000 36.0060 0.0000 2.5710
# 5 16.1900 6.6101 15.1332 0.0000 20.3156 0.0000
# 6 0.0000 0.0000 0.0000 2.5710 0.0000 23.3908
#
#
#
# Elastic Compliance Matrix: (Units=1/GPa)
#
#
# Indices 1 2 3 4 5 6 
#
# 1 0.013315 -0.008044 -0.000841 0.000000 -0.007368 0.000000
# 2 -0.008044 0.041528 -0.013096 0.000000 0.002654 0.000000
# 3 -0.000841 -0.013096 0.016242 0.000000 -0.007168 0.000000
# 4 0.000000 0.000000 0.000000 0.027993 0.000000 -0.003077
# 5 -0.007368 0.002654 -0.007168 0.000000 0.059571 0.000000
# 6 0.000000 0.000000 0.000000 -0.003077 0.000000 0.043090
#
#
# Mechanical properties :
#
#
# Convention : Reuss Voigt Hill
#
# Bulk Modulus (GPa) = 36.86855 51.43459 44.15157
# Shear Modulus (GPa) = 19.62769 25.32827 22.47798
#
# Velocity S-wave (km/s) = 3.18572 3.61889 3.40919
# Velocity P-wave (km/s) = 5.70922 6.63754 6.19080
#
# Compressibility (1/GPa) = 0.02712339
#
# Stress axis : x y z
#
# Youngs Moduli (GPa) = 75.10094 24.08031 61.56759
#
# Poissons Ratio (x) = 0.19371 0.05178
# Poissons Ratio (y) = 0.60415 0.80626
# Poissons Ratio (z) = 0.06316 0.31535
#
# Static dielectric constant tensor:
#      x y z
#    x 3.725810 0.000000 0.177470 
#    y 0.000000 3.401880 0.000000 
#    z 0.177470 0.000000 3.456730 
# 
# 
# High freq. dielectric constant tensor:
#      x y z
#    x 1.756920 0.000000 0.016680 
#    y 0.000000 1.747480 0.000000 
#    z 0.016680 0.000000 1.740570 
# 
# From -- ./inp_files/26805.got.cif
#   From: 2010.06.25/outbox.cif.g09.slc.cpg/sg11_14_cif.got.tgz:26805.got - 2010.06.27 23:14:04.
