data_PCOD8069072
_publ_section_title
;
Structure prediction by ZEFSAII (Michael W. Deem and Ramdas Pophale) SiO2 
 PCOD8069072
Probable space group: P 21/M
;
_chemical_formula_sum "Si O2"
_cell_formula_units_Z 32
_cell_length_a 12.223873
_cell_length_b 13.760840
_cell_length_c 11.617066
_cell_angle_alpha 90.000000
_cell_angle_beta 65.934260
_cell_angle_gamma 90.000000
_cell_volume 1784.260221
_symmetry_space_group_name_H-M "P 21/M"
_symmetry_group_IT_number 11
_symmetry_cell_setting 'monoclinic'
loop_
_space_group_symop_operation_xyz
x,y,z
-x,1/2+y,-z
-x,-y,-z
x,1/2-y,z
loop_
_atom_site_type_symbol
_atom_site_label
_atom_site_fract_x
_atom_site_fract_y
_atom_site_fract_z
Si Si1 0.449038 0.551124 0.870528
Si Si2 0.543547 0.142105 0.898709
Si Si3 0.211657 0.643052 0.329899
Si Si4 0.078707 0.464469 0.361414
Si Si5 0.650185 0.051003 0.328826
Si Si6 0.316757 0.139464 0.326462
Si Si7 0.856963 0.136594 0.379582
Si Si8 0.581584 0.860295 0.470150
O O1 0.443093 0.436676 0.906286
O O2 0.362142 0.574133 0.801273
O O3 0.587986 0.573991 0.782457
O O4 0.405231 0.616170 0.996301
O O5 0.485992 0.250000 0.925478
O O6 0.649457 0.139831 0.760546
O O7 0.157041 0.750000 0.328356
O O8 0.139562 0.563105 0.285004
O O9 0.201283 0.617729 0.469951
O O10 0.181997 0.390671 0.355906
O O11 0.000000 0.500000 0.500000
O O12 0.990736 0.408893 0.311445
O O13 0.780559 0.082453 0.314836
O O14 0.555408 0.115009 0.440747
O O15 0.628821 0.935527 0.354370
O O16 0.337819 0.250000 0.279151
O O17 0.334560 0.127122 0.454934
O O18 0.864273 0.250000 0.348020
O O19 0.587160 0.750000 0.419382
#
# Coordination Sequence:
#
# PCOD8069072 Si02
#       8
#     4   4   4   4   4   4   4   4
#     4  10  21  35  53  78 104 132 168 212 258 307
#     4  10  20  35  55  78 101 131 171 214 261 306
#     4   9  18  32  52  76 102 132 171 214 256 301
#     4  10  18  30  49  71 104 133 172 212 253 296
#     4  10  20  32  48  71 106 136 167 205 252 310
#     4  10  18  31  49  74 105 135 168 211 257 301
#     4  10  20  32  49  76 105 139 173 205 249 306
#     4   9  18  29  46  71 100 136 169 202 255 310
#
# _framework density 17.934604
#
# number of rings (size 3 to 8) (size 9 to 14) (size 15 to 20)
#    0.000    2.250    1.250    2.625    3.500    2.500 
#    0.000    0.625    0.000    0.750    0.000    0.000 
#    0.000    0.000    0.000    0.000    0.000    0.000 
#
# Total GULP energy -396697.000301 kJ/mol
# GULP energy per Si atom -12396.781259 kJ/mol
# Density = 1.789378 g / cm^3
# Si number density = 17.934604 Si / 1000 Ang^3
#
#
#
# Elastic Constant Matrix: (Units=GPa)
#
#
# Indices 1 2 3 4 5 6 
#
# 1 106.6380 27.5523 9.7442 0.0000 11.3292 0.0000
# 2 27.5523 115.5249 8.5179 0.0000 7.5823 0.0000
# 3 9.7442 8.5179 37.0773 0.0000 9.3248 0.0000
# 4 0.0000 0.0000 0.0000 19.4660 0.0000 -2.2730
# 5 11.3292 7.5823 9.3248 0.0000 13.8839 0.0000
# 6 0.0000 0.0000 0.0000 -2.2730 0.0000 26.0749
#
#
#
# Elastic Compliance Matrix: (Units=1/GPa)
#
#
# Indices 1 2 3 4 5 6 
#
# 1 0.010727 -0.002042 -0.000516 0.000000 -0.007291 0.000000
# 2 -0.002042 0.009397 -0.000903 0.000000 -0.002860 0.000000
# 3 -0.000516 -0.000903 0.032588 0.000000 -0.020973 0.000000
# 4 0.000000 0.000000 0.000000 0.051900 0.000000 0.004524
# 5 -0.007291 -0.002860 -0.020973 0.000000 0.093623 0.000000
# 6 0.000000 0.000000 0.000000 0.004524 0.000000 0.038745
#
#
# Mechanical properties :
#
#
# Convention : Reuss Voigt Hill
#
# Bulk Modulus (GPa) = 21.83867 38.98543 30.41205
# Shear Modulus (GPa) = 19.29257 26.11334 22.70296
#
# Velocity S-wave (km/s) = 3.28337 3.81994 3.56177
# Velocity P-wave (km/s) = 5.15532 6.42189 5.82314
#
# Compressibility (1/GPa) = 0.04579033
#
# Stress axis : x y z
#
# Youngs Moduli (GPa) = 93.22411 106.41297 30.68573
#
# Poissons Ratio (x) = 0.21726 0.01584
# Poissons Ratio (y) = 0.19033 0.02771
# Poissons Ratio (z) = 0.04813 0.09611
#
# Static dielectric constant tensor:
#      x y z
#    x 3.294890 0.000000 0.014910 
#    y 0.000000 3.889290 0.000000 
#    z 0.014910 0.000000 3.073260 
# 
# 
# High freq. dielectric constant tensor:
#      x y z
#    x 1.671950 0.000000 0.003740 
#    y 0.000000 1.720990 0.000000 
#    z 0.003740 0.000000 1.653760 
# 
# From -- ./inp_files/35504.got.cif
#   From: 2010.06.25/outbox.cif.g09.slc.cpg/sg11_18_cif.got.tgz:35504.got - 2010.06.27 23:14:04.
