data_PCOD8069211
_publ_section_title
;
Structure prediction by ZEFSAII (Michael W. Deem and Ramdas Pophale) SiO2 
 PCOD8069211
Probable space group: P 21/M
;
_chemical_formula_sum "Si O2"
_cell_formula_units_Z 24
_cell_length_a 10.932757
_cell_length_b 20.564046
_cell_length_c 5.027105
_cell_angle_alpha 90.000000
_cell_angle_beta 98.588543
_cell_angle_gamma 90.000000
_cell_volume 1117.528589
_symmetry_space_group_name_H-M "P 21/M"
_symmetry_group_IT_number 11
_symmetry_cell_setting 'monoclinic'
loop_
_space_group_symop_operation_xyz
x,y,z
-x,1/2+y,-z
-x,-y,-z
x,1/2-y,z
loop_
_atom_site_type_symbol
_atom_site_label
_atom_site_fract_x
_atom_site_fract_y
_atom_site_fract_z
Si Si1 0.629987 0.529004 0.960387
Si Si2 0.795823 0.095193 0.965903
Si Si3 0.184967 0.675587 0.547049
Si Si4 0.036401 0.136567 0.224713
Si Si5 0.308705 0.108346 0.507377
Si Si6 0.708186 0.750000 0.514216
Si Si7 0.129411 0.250000 0.935043
O O1 0.610935 0.570222 0.684613
O O2 0.500000 0.500000 0.000000
O O3 0.727359 0.472865 0.933629
O O4 0.684110 0.574996 0.205628
O O5 0.742840 0.143460 0.177919
O O6 0.942569 0.081564 0.076318
O O7 0.774231 0.132086 0.685488
O O8 0.225936 0.750000 0.515303
O O9 0.036363 0.672681 0.556381
O O10 0.165486 0.108001 0.368468
O O11 0.051298 0.185968 0.981074
O O12 0.364023 0.182031 0.556679
O O13 0.750685 0.750000 0.833424
O O14 0.828060 0.750000 0.358099
#
# Coordination Sequence:
#
# PCOD8069211 Si02
#       7
#     4   4   4   4   4   2   2
#     4  12  27  48  66  83 126 181 227 257 326 371
#     4  10  23  37  62  93 128 168 213 257 303 401
#     4  10  20  36  61  98 138 169 198 255 329 387
#     4   9  21  33  61 100 131 162 200 252 325 380
#     4  11  24  41  71  95 125 168 202 274 317 389
#     4  10  22  38  64 100 125 153 210 254 323 375
#     4  10  18  30  58  92 139 167 182 240 333 403
#
# _framework density 21.475960000000001
#
# number of rings (size 3 to 8) (size 9 to 14) (size 15 to 20)
#    1.000    0.667    0.833    4.000    8.167    1.333 
#    0.000    0.000   11.000    0.000    0.000    0.000 
#    0.000    0.000    0.000    0.000    0.000    0.000 
#
# Total GULP energy -297370.489840 kJ/mol
# GULP energy per Si atom -12390.437077 kJ/mol
# Density = 2.142708 g / cm^3
# Si number density = 21.475960 Si / 1000 Ang^3
#
#
#
# Elastic Constant Matrix: (Units=GPa)
#
#
# Indices 1 2 3 4 5 6 
#
# 1 35.8626 31.7888 -4.8967 0.0000 0.5268 0.0000
# 2 31.7888 146.1489 37.7112 0.0000 -15.0383 0.0000
# 3 -4.8967 37.7112 96.1053 0.0000 -17.4733 0.0000
# 4 0.0000 0.0000 0.0000 43.1159 0.0000 -11.5151
# 5 0.5268 -15.0383 -17.4733 0.0000 16.7441 0.0000
# 6 0.0000 0.0000 0.0000 -11.5151 0.0000 11.2549
#
#
#
# Elastic Compliance Matrix: (Units=1/GPa)
#
#
# Indices 1 2 3 4 5 6 
#
# 1 0.037410 -0.009911 0.004891 0.000000 -0.004974 0.000000
# 2 -0.009911 0.010536 -0.003532 0.000000 0.006088 0.000000
# 3 0.004891 -0.003532 0.014114 0.000000 0.011402 0.000000
# 4 0.000000 0.000000 0.000000 0.031914 0.000000 0.032651
# 5 -0.004974 0.006088 0.011402 0.000000 0.077246 0.000000
# 6 0.000000 0.000000 0.000000 0.032651 0.000000 0.122257
#
#
# Mechanical properties :
#
#
# Convention : Reuss Voigt Hill
#
# Bulk Modulus (GPa) = 22.24473 45.25816 33.75145
# Shear Modulus (GPa) = 15.35791 28.45721 21.90756
#
# Velocity S-wave (km/s) = 2.67708 3.64410 3.19736
# Velocity P-wave (km/s) = 4.46499 6.23102 5.42041
#
# Compressibility (1/GPa) = 0.04495447
#
# Stress axis : x y z
#
# Youngs Moduli (GPa) = 26.73080 94.91321 70.85411
#
# Poissons Ratio (x) = 0.94067 -0.34652
# Poissons Ratio (y) = 0.26492 0.25028
# Poissons Ratio (z) = -0.13073 0.33526
#
# Static dielectric constant tensor:
#      x y z
#    x 3.423940 0.000000 -0.114580 
#    y 0.000000 4.038480 0.000000 
#    z -0.114580 0.000000 3.966600 
# 
# 
# High freq. dielectric constant tensor:
#      x y z
#    x 1.796120 0.000000 -0.009210 
#    y 0.000000 1.845500 0.000000 
#    z -0.009210 0.000000 1.863090 
# 
# From -- ./inp_files/4782.got.cif
#   From: 2010.06.25/outbox.cif.g09.slc.cpg/sg11_3_cif.got.tgz:4782.got - 2010.06.27 23:14:04.
