data_PCOD8069381
_publ_section_title
;
Structure prediction by ZEFSAII (Michael W. Deem and Ramdas Pophale) SiO2 
 PCOD8069381
Probable space group: P 21/M
;
_chemical_formula_sum "Si O2"
_cell_formula_units_Z 32
_cell_length_a 17.919731
_cell_length_b 8.686264
_cell_length_c 11.844142
_cell_angle_alpha 90.000000
_cell_angle_beta 111.253696
_cell_angle_gamma 90.000000
_cell_volume 1718.212206
_symmetry_space_group_name_H-M "P 21/M"
_symmetry_group_IT_number 11
_symmetry_cell_setting 'monoclinic'
loop_
_space_group_symop_operation_xyz
x,y,z
-x,1/2+y,-z
-x,-y,-z
x,1/2-y,z
loop_
_atom_site_type_symbol
_atom_site_label
_atom_site_fract_x
_atom_site_fract_y
_atom_site_fract_z
Si Si1 0.175869 0.566986 0.515951
Si Si2 0.643109 0.068923 0.770870
Si Si3 0.463223 0.068289 0.680978
Si Si4 0.668821 0.430375 0.534674
Si Si5 0.428615 0.573129 0.891788
Si Si6 0.015956 0.433174 0.385901
Si Si7 0.274963 0.927881 0.960414
Si Si8 0.856822 0.931193 0.258191
O O1 0.167844 0.750000 0.512948
O O2 0.256962 0.511686 0.499600
O O3 0.175739 0.507265 0.644231
O O4 0.103806 0.495401 0.400584
O O5 0.635259 0.250000 0.785685
O O6 0.553241 0.999225 0.726371
O O7 0.684609 0.028148 0.674531
O O8 0.697844 0.004694 0.902828
O O9 0.465954 0.250000 0.682159
O O10 0.413225 0.012314 0.545888
O O11 0.417553 0.010375 0.766836
O O12 0.655702 0.250000 0.511732
O O13 0.448940 0.750000 0.881752
O O14 0.346958 0.551573 0.913323
O O15 0.500000 0.500000 0.000000
O O16 0.014232 0.250000 0.383197
O O17 0.944014 0.500836 0.270204
O O18 0.000000 0.500000 0.500000
O O19 0.248147 0.750000 0.953363
O O20 0.201248 0.029719 0.877174
O O21 0.863112 0.750000 0.280576
#
# Coordination Sequence:
#
# PCOD8069381 Si02
#       8
#     4   4   4   4   4   4   4   4
#     4  10  19  33  53  79 109 138 170 210 259 311
#     4   9  19  37  55  72 100 140 183 221 265 311
#     4  11  21  35  54  77 105 138 177 224 269 313
#     4  10  21  36  55  77 102 138 180 222 263 310
#     4  11  21  34  53  76 104 137 173 215 264 315
#     4  10  18  31  53  79 108 139 167 203 255 312
#     4  10  20  36  54  73 103 141 176 215 262 314
#     4  11  21  33  52  81 111 137 169 210 255 311
#
# _framework density 18.624009000000001
#
# number of rings (size 3 to 8) (size 9 to 14) (size 15 to 20)
#    0.000    1.750    1.250    6.000    0.000    5.000 
#    0.000    1.250    0.000    0.750    0.000    0.000 
#    0.000    0.000    0.000    0.000    0.000    0.000 
#
# Total GULP energy -396789.677863 kJ/mol
# GULP energy per Si atom -12399.677433 kJ/mol
# Density = 1.858162 g / cm^3
# Si number density = 18.624009 Si / 1000 Ang^3
#
#
#
# Elastic Constant Matrix: (Units=GPa)
#
#
# Indices 1 2 3 4 5 6 
#
# 1 80.5927 33.2235 60.9913 0.0000 20.0108 0.0000
# 2 33.2235 81.3937 34.4971 0.0000 12.8703 0.0000
# 3 60.9913 34.4971 124.0235 0.0000 16.0238 0.0000
# 4 0.0000 0.0000 0.0000 28.7691 0.0000 8.2114
# 5 20.0108 12.8703 16.0238 0.0000 33.8849 0.0000
# 6 0.0000 0.0000 0.0000 8.2114 0.0000 22.7102
#
#
#
# Elastic Compliance Matrix: (Units=1/GPa)
#
#
# Indices 1 2 3 4 5 6 
#
# 1 0.022975 -0.004310 -0.009115 0.000000 -0.007621 0.000000
# 2 -0.004310 0.015182 -0.001797 0.000000 -0.002371 0.000000
# 3 -0.009115 -0.001797 0.013060 0.000000 -0.000110 0.000000
# 4 0.000000 0.000000 0.000000 0.038760 0.000000 -0.014015
# 5 -0.007621 -0.002371 -0.000110 0.000000 0.034965 0.000000
# 6 0.000000 0.000000 0.000000 -0.014015 0.000000 0.049100
#
#
# Mechanical properties :
#
#
# Convention : Reuss Voigt Hill
#
# Bulk Modulus (GPa) = 48.14017 60.38150 54.26083
# Shear Modulus (GPa) = 23.65078 27.55937 25.60507
#
# Velocity S-wave (km/s) = 3.56744 3.85096 3.71191
# Velocity P-wave (km/s) = 6.54778 7.22945 6.89704
#
# Compressibility (1/GPa) = 0.02077267
#
# Stress axis : x y z
#
# Youngs Moduli (GPa) = 43.52534 65.86859 76.57167
#
# Poissons Ratio (x) = 0.28388 0.69796
# Poissons Ratio (y) = 0.18758 0.13760
# Poissons Ratio (z) = 0.39674 0.11837
#
# Static dielectric constant tensor:
#      x y z
#    x 2.913730 0.000000 0.350620 
#    y 0.000000 3.364530 0.000000 
#    z 0.350620 0.000000 3.577180 
# 
# 
# High freq. dielectric constant tensor:
#      x y z
#    x 1.713860 0.000000 0.019380 
#    y 0.000000 1.718840 0.000000 
#    z 0.019380 0.000000 1.716930 
# 
# From -- ./inp_files/42502.got.cif
#   From: 2010.06.25/outbox.cif.g09.slc.cpg/sg11_22_cif.got.tgz:42502.got - 2010.06.27 23:14:04.
