data_PCOD8069189
_publ_section_title
;
Structure prediction by ZEFSAII (Michael W. Deem and Ramdas Pophale) SiO2 
 PCOD8069189
Probable space group: P 21/M
;
_chemical_formula_sum "Si O2"
_cell_formula_units_Z 32
_cell_length_a 22.953028
_cell_length_b 8.545819
_cell_length_c 28.137674
_cell_angle_alpha 90.000000
_cell_angle_beta 162.261787
_cell_angle_gamma 90.000000
_cell_volume 1681.547852
_symmetry_space_group_name_H-M "P 21/M"
_symmetry_group_IT_number 11
_symmetry_cell_setting 'monoclinic'
loop_
_space_group_symop_operation_xyz
x,y,z
-x,1/2+y,-z
-x,-y,-z
x,1/2-y,z
loop_
_atom_site_type_symbol
_atom_site_label
_atom_site_fract_x
_atom_site_fract_y
_atom_site_fract_z
Si Si1 0.658556 0.934383 0.657725
Si Si2 0.405934 0.565060 0.788638
Si Si3 0.630847 0.069147 0.380841
Si Si4 0.070962 0.568405 0.458928
Si Si5 0.936748 0.934939 0.054031
Si Si6 0.622763 0.568405 0.734813
Si Si7 0.655205 0.934384 0.156050
Si Si8 0.330615 0.931478 0.080622
O O1 0.635878 0.750000 0.641770
O O2 0.627345 0.009821 0.686292
O O3 0.500000 0.000000 0.500000
O O4 0.864626 0.979309 0.798743
O O5 0.403340 0.750000 0.794004
O O6 0.225271 0.504559 0.616971
O O7 0.398994 0.479321 0.833090
O O8 0.604554 0.514657 0.917913
O O9 0.573171 0.250000 0.323169
O O10 0.849452 0.039194 0.533440
O O11 0.585461 0.039188 0.401453
O O12 0.499991 0.951173 0.249990
O O13 0.046590 0.750000 0.450101
O O14 0.863128 0.490178 0.304202
O O15 0.966009 0.750000 0.075328
O O16 0.792034 0.995437 0.900337
O O17 0.858010 0.985335 0.044634
O O18 0.660566 0.750000 0.757070
O O19 0.659422 0.750000 0.153547
O O20 0.500000 0.000000 0.000000
O O21 0.288707 0.750000 0.038717
#
# Coordination Sequence:
#
# PCOD8069189 Si02
#       8
#     4   4   4   4   4   4   4   4
#     4  11  22  36  51  74 107 144 181 222 266 314
#     4  10  19  35  57  80 103 135 175 218 263 313
#     4   8  14  30  53  78 103 130 166 214 262 310
#     4   8  16  31  55  80 103 131 171 217 264 314
#     4  10  19  35  57  80 103 135 175 218 263 313
#     4   8  16  31  55  80 103 131 171 217 264 314
#     4  11  22  36  51  74 107 144 181 222 266 314
#     4  10  18  30  51  82 111 134 162 208 262 316
#
# _framework density 19.030086000000001
#
# number of rings (size 3 to 8) (size 9 to 14) (size 15 to 20)
#    0.000    2.500    0.000    4.875    0.000    0.000 
#    0.000   12.500    0.000    3.000    0.000    0.000 
#    0.000    0.000    0.000    0.000    0.000    0.000 
#
# Total GULP energy -396549.994084 kJ/mol
# GULP energy per Si atom -12392.187315 kJ/mol
# Density = 1.898677 g / cm^3
# Si number density = 19.030086 Si / 1000 Ang^3
#
#
#
# Elastic Constant Matrix: (Units=GPa)
#
#
# Indices 1 2 3 4 5 6 
#
# 1 148.4629 18.7058 96.6087 0.0000 31.6336 0.0000
# 2 18.7058 49.7486 19.1392 0.0000 -0.3025 0.0000
# 3 96.6087 19.1392 96.4474 0.0000 4.1091 0.0000
# 4 0.0000 0.0000 0.0000 23.6494 0.0000 2.0445
# 5 31.6336 -0.3025 4.1091 0.0000 21.9055 0.0000
# 6 0.0000 0.0000 0.0000 2.0445 0.0000 26.6174
#
#
#
# Elastic Compliance Matrix: (Units=1/GPa)
#
#
# Indices 1 2 3 4 5 6 
#
# 1 0.059429 -0.001230 -0.056076 0.000000 -0.075320 0.000000
# 2 -0.001230 0.021815 -0.003211 0.000000 0.002680 0.000000
# 3 -0.056076 -0.003211 0.064240 0.000000 0.068884 0.000000
# 4 0.000000 0.000000 0.000000 0.042567 0.000000 -0.003270
# 5 -0.075320 0.002680 0.068884 0.000000 0.141536 0.000000
# 6 0.000000 0.000000 0.000000 -0.003270 0.000000 0.037821
#
#
# Mechanical properties :
#
#
# Convention : Reuss Voigt Hill
#
# Bulk Modulus (GPa) = 40.89795 62.61850 51.75822
# Shear Modulus (GPa) = 10.06863 25.11479 17.59171
#
# Velocity S-wave (km/s) = 2.30269 3.63677 3.04372
# Velocity P-wave (km/s) = 5.34862 7.11415 6.29360
#
# Compressibility (1/GPa) = 0.02445110
#
# Stress axis : x y z
#
# Youngs Moduli (GPa) = 16.82671 45.83947 15.56658
#
# Poissons Ratio (x) = 0.05640 0.87291
# Poissons Ratio (y) = 0.02070 0.04998
# Poissons Ratio (z) = 0.94357 0.14718
#
# Static dielectric constant tensor:
#      x y z
#    x 3.879570 0.000000 0.305170 
#    y 0.000000 3.261440 0.000000 
#    z 0.305170 0.000000 3.436730 
# 
# 
# High freq. dielectric constant tensor:
#      x y z
#    x 1.754150 0.000000 0.029940 
#    y 0.000000 1.722150 0.000000 
#    z 0.029940 0.000000 1.710690 
# 
# From -- ./inp_files/72157.got.cif
#   From: 2010.06.25/outbox.cif.g09.slc.cpg/sg11_37_cif.got.tgz:72157.got - 2010.06.27 23:14:04.
