data_PCOD8069062
_publ_section_title
;
Structure prediction by ZEFSAII (Michael W. Deem and Ramdas Pophale) SiO2 
 PCOD8069062
Probable space group: P 21/M
;
_chemical_formula_sum "Si O2"
_cell_formula_units_Z 32
_cell_length_a 22.210691
_cell_length_b 9.250514
_cell_length_c 27.572524
_cell_angle_alpha 90.000000
_cell_angle_beta 161.816318
_cell_angle_gamma 90.000000
_cell_volume 1767.863047
_symmetry_space_group_name_H-M "P 21/M"
_symmetry_group_IT_number 11
_symmetry_cell_setting 'monoclinic'
loop_
_space_group_symop_operation_xyz
x,y,z
-x,1/2+y,-z
-x,-y,-z
x,1/2-y,z
loop_
_atom_site_type_symbol
_atom_site_label
_atom_site_fract_x
_atom_site_fract_y
_atom_site_fract_z
Si Si1 0.726678 0.591525 0.267417
Si Si2 0.022301 0.921626 0.238096
Si Si3 0.602182 0.911846 0.647205
Si Si4 0.369245 0.921678 0.054959
Si Si5 0.613469 0.921268 0.440249
Si Si6 0.786640 0.409685 0.711821
Si Si7 0.981518 0.590647 0.558125
Si Si8 0.377796 0.419761 0.663525
O O1 0.699996 0.750000 0.224613
O O2 0.519089 0.534842 0.127113
O O3 0.870907 0.598203 0.422788
O O4 0.818115 0.495692 0.294451
O O5 0.034194 0.750000 0.256992
O O6 0.049361 0.955300 0.201303
O O7 0.187122 0.001212 0.394657
O O8 0.821491 0.987349 0.101777
O O9 0.660463 0.750000 0.708264
O O10 0.413565 0.907360 0.470096
O O11 0.562682 0.012254 0.663613
O O12 0.777637 0.979025 0.749833
O O13 0.325829 0.750000 0.021825
O O14 0.454967 0.975051 0.172385
O O15 0.630015 0.750000 0.462892
O O16 0.564932 0.956992 0.347357
O O17 0.828365 0.250000 0.764796
O O18 0.042566 0.750000 0.622338
O O19 0.834244 0.516235 0.484351
O O20 0.356235 0.250000 0.656284
#
# Coordination Sequence:
#
# PCOD8069062 Si02
#       8
#     4   4   4   4   4   4   4   4
#     4   8  14  24  40  64  90 114 144 183 224 266
#     4  10  20  32  46  69  97 120 150 191 229 268
#     4   9  16  26  42  66  92 114 145 190 229 263
#     4   9  17  31  49  68  93 123 153 186 226 273
#     4  10  18  30  49  69  92 124 155 183 224 274
#     4   8  15  27  42  61  87 117 147 183 226 268
#     4   8  13  24  42  63  88 115 145 184 224 261
#     4   8  16  30  48  70  93 120 155 189 222 269
#
# _framework density 18.100950000000001
#
# number of rings (size 3 to 8) (size 9 to 14) (size 15 to 20)
#    0.000    3.250    0.000    3.375    0.000    4.000 
#    0.000    4.375    0.000    1.500    0.000    0.000 
#    0.000    0.000    0.000    0.000    0.000    0.000 
#
# Total GULP energy -396534.854161 kJ/mol
# GULP energy per Si atom -12391.714193 kJ/mol
# Density = 1.805975 g / cm^3
# Si number density = 18.100950 Si / 1000 Ang^3
#
#
#
# Elastic Constant Matrix: (Units=GPa)
#
#
# Indices 1 2 3 4 5 6 
#
# 1 25.8359 7.7297 -13.6174 0.0000 -1.2427 0.0000
# 2 7.7297 67.9247 4.0106 0.0000 1.5131 0.0000
# 3 -13.6174 4.0106 19.6339 0.0000 6.0063 0.0000
# 4 0.0000 0.0000 0.0000 16.6709 0.0000 9.1129
# 5 -1.2427 1.5131 6.0063 0.0000 19.1792 0.0000
# 6 0.0000 0.0000 0.0000 9.1129 0.0000 26.5093
#
#
#
# Elastic Compliance Matrix: (Units=1/GPa)
#
#
# Indices 1 2 3 4 5 6 
#
# 1 0.070091 -0.010929 0.054405 0.000000 -0.011634 0.000000
# 2 -0.010929 0.016607 -0.011452 0.000000 0.001568 0.000000
# 3 0.054405 -0.011452 0.099149 0.000000 -0.026622 0.000000
# 4 0.000000 0.000000 0.000000 0.073865 0.000000 -0.025392
# 5 -0.011634 0.001568 -0.026622 0.000000 0.059599 0.000000
# 6 0.000000 0.000000 0.000000 -0.025392 0.000000 0.046451
#
#
# Mechanical properties :
#
#
# Convention : Reuss Voigt Hill
#
# Bulk Modulus (GPa) = 4.00170 12.18225 8.09198
# Shear Modulus (GPa) = 12.98648 20.15664 16.57156
#
# Velocity S-wave (km/s) = 2.68143 3.34064 3.02902
# Velocity P-wave (km/s) = 3.43545 4.65022 4.08821
#
# Compressibility (1/GPa) = 0.24989362
#
# Stress axis : x y z
#
# Youngs Moduli (GPa) = 14.26707 60.21490 10.08583
#
# Poissons Ratio (x) = 0.65811 -0.54872
# Poissons Ratio (y) = 0.15593 0.11551
# Poissons Ratio (z) = -0.77620 0.68960
#
# Static dielectric constant tensor:
#      x y z
#    x 3.461910 0.000000 0.331610 
#    y 0.000000 3.444140 0.000000 
#    z 0.331610 0.000000 2.948130 
# 
# 
# High freq. dielectric constant tensor:
#      x y z
#    x 1.697340 0.000000 0.031260 
#    y 0.000000 1.693180 0.000000 
#    z 0.031260 0.000000 1.655850 
# 
# From -- ./inp_files/72144.got.cif
#   From: 2010.06.25/outbox.cif.g09.slc.cpg/sg11_37_cif.got.tgz:72144.got - 2010.06.27 23:14:04.
