data_PCOD8069514
_publ_section_title
;
Structure prediction by ZEFSAII (Michael W. Deem and Ramdas Pophale) SiO2 
 PCOD8069514
Probable space group: P 21/M
;
_chemical_formula_sum "Si O2"
_cell_formula_units_Z 32
_cell_length_a 10.653551
_cell_length_b 23.328686
_cell_length_c 15.721527
_cell_angle_alpha 90.000000
_cell_angle_beta 24.960058
_cell_angle_gamma 90.000000
_cell_volume 1648.837288
_symmetry_space_group_name_H-M "P 21/M"
_symmetry_group_IT_number 11
_symmetry_cell_setting 'monoclinic'
loop_
_space_group_symop_operation_xyz
x,y,z
-x,1/2+y,-z
-x,-y,-z
x,1/2-y,z
loop_
_atom_site_type_symbol
_atom_site_label
_atom_site_fract_x
_atom_site_fract_y
_atom_site_fract_z
Si Si1 0.375439 0.590980 0.425169
Si Si2 0.738509 0.484073 0.224162
Si Si3 0.317000 0.071086 0.355084
Si Si4 0.726311 0.815560 0.293692
Si Si5 0.731291 0.313880 0.283887
Si Si6 0.054515 0.412118 0.166165
Si Si7 0.332705 0.547452 0.262656
Si Si8 0.381415 0.814974 0.845648
O O1 0.559176 0.540762 0.358028
O O2 0.565814 0.648784 0.317786
O O3 0.322790 0.578551 0.359584
O O4 0.058711 0.594951 0.667759
O O5 0.525350 0.437390 0.309623
O O6 0.870375 0.461024 0.230583
O O7 0.000000 0.500000 0.000000
O O8 0.381810 0.134706 0.276149
O O9 0.974179 0.064018 0.595694
O O10 0.374978 0.021084 0.249209
O O11 0.682731 0.750000 0.293768
O O12 0.572902 0.830485 0.478531
O O13 0.077592 0.829279 0.082967
O O14 0.828068 0.250000 0.249563
O O15 0.675923 0.318853 0.218850
O O16 0.005158 0.353602 0.144107
O O17 0.401174 0.427910 0.957653
O O18 0.495507 0.750000 0.798701
#
# Coordination Sequence:
#
# PCOD8069514 Si02
#       8
#     4   4   4   4   4   4   4   4
#     4  10  20  32  53  78 105 133 176 211 253 310
#     4  11  18  33  56  77 104 132 169 219 265 300
#     4  10  20  37  55  73 107 145 168 213 270 306
#     4   9  18  31  50  79 107 133 167 215 266 304
#     4   9  18  31  50  79 108 131 165 218 265 303
#     4  11  19  33  56  78 101 135 176 213 253 308
#     4  10  22  38  52  71 112 144 169 210 262 317
#     4  10  18  32  54  76 102 134 173 214 258 310
#
# _framework density 19.407615
#
# number of rings (size 3 to 8) (size 9 to 14) (size 15 to 20)
#    0.000    2.000    3.750    1.875    0.000    0.000 
#    0.000    8.125    0.000    0.000    0.000    0.000 
#    0.000    0.000    0.000    0.000    0.000    0.000 
#
# Total GULP energy -396694.653665 kJ/mol
# GULP energy per Si atom -12396.707927 kJ/mol
# Density = 1.936344 g / cm^3
# Si number density = 19.407615 Si / 1000 Ang^3
#
#
#
# Elastic Constant Matrix: (Units=GPa)
#
#
# Indices 1 2 3 4 5 6 
#
# 1 18.2933 1.2272 12.2001 0.0000 -5.8311 0.0000
# 2 1.2272 106.8361 46.6371 0.0000 -9.5168 0.0000
# 3 12.2001 46.6371 109.6428 0.0000 -13.3317 0.0000
# 4 0.0000 0.0000 0.0000 30.5610 0.0000 -3.0143
# 5 -5.8311 -9.5168 -13.3317 0.0000 26.6113 0.0000
# 6 0.0000 0.0000 0.0000 -3.0143 0.0000 17.5092
#
#
#
# Elastic Compliance Matrix: (Units=1/GPa)
#
#
# Indices 1 2 3 4 5 6 
#
# 1 0.062770 0.003364 -0.007025 0.000000 0.011438 0.000000
# 2 0.003364 0.011753 -0.005083 0.000000 0.002394 0.000000
# 3 -0.007025 -0.005083 0.012412 0.000000 0.002861 0.000000
# 4 0.000000 0.000000 0.000000 0.033287 0.000000 0.005731
# 5 0.011438 0.002394 0.002861 0.000000 0.042374 0.000000
# 6 0.000000 0.000000 0.000000 0.005731 0.000000 0.058099
#
#
# Mechanical properties :
#
#
# Convention : Reuss Voigt Hill
#
# Bulk Modulus (GPa) = 14.39899 39.43346 26.91623
# Shear Modulus (GPa) = 19.13283 26.58351 22.85817
#
# Velocity S-wave (km/s) = 3.14322 3.70502 3.43562
# Velocity P-wave (km/s) = 4.53965 6.21817 5.44399
#
# Compressibility (1/GPa) = 0.06944929
#
# Stress axis : x y z
#
# Youngs Moduli (GPa) = 15.93122 85.08120 80.56722
#
# Poissons Ratio (x) = -0.28624 0.56596
# Poissons Ratio (y) = -0.05360 0.40949
# Poissons Ratio (z) = 0.11191 0.43244
#
# Static dielectric constant tensor:
#      x y z
#    x 3.184040 0.000000 0.009800 
#    y 0.000000 4.947000 0.000000 
#    z 0.009800 0.000000 3.728850 
# 
# 
# High freq. dielectric constant tensor:
#      x y z
#    x 1.709440 0.000000 0.010520 
#    y 0.000000 1.768680 0.000000 
#    z 0.010520 0.000000 1.761160 
# 
# From -- ./inp_files/59740.got.cif
#   From: 2010.06.25/outbox.cif.g09.slc.cpg/sg11_30_cif.got.tgz:59740.got - 2010.06.27 23:14:04.
