data_PCOD8069217
_publ_section_title
;
Structure prediction by ZEFSAII (Michael W. Deem and Ramdas Pophale) SiO2 
 PCOD8069217
Probable space group: P 21/M
;
_chemical_formula_sum "Si O2"
_cell_formula_units_Z 32
_cell_length_a 24.085377
_cell_length_b 9.118355
_cell_length_c 12.583217
_cell_angle_alpha 90.000000
_cell_angle_beta 133.615886
_cell_angle_gamma 90.000000
_cell_volume 2000.730425
_symmetry_space_group_name_H-M "P 21/M"
_symmetry_group_IT_number 11
_symmetry_cell_setting 'monoclinic'
loop_
_space_group_symop_operation_xyz
x,y,z
-x,1/2+y,-z
-x,-y,-z
x,1/2-y,z
loop_
_atom_site_type_symbol
_atom_site_label
_atom_site_fract_x
_atom_site_fract_y
_atom_site_fract_z
Si Si1 0.075948 0.076593 0.824290
Si Si2 0.922256 0.924299 0.934351
Si Si3 0.908666 0.078794 0.542426
Si Si4 0.173037 0.423687 0.757843
Si Si5 0.338549 0.579318 0.667201
Si Si6 0.331798 0.077897 0.882454
Si Si7 0.816751 0.419607 0.634309
Si Si8 0.496484 0.080266 0.105267
O O1 0.071298 0.250000 0.817542
O O2 0.141488 0.019889 0.829903
O O3 0.993250 0.016383 0.678725
O O4 0.095470 0.023712 0.968887
O O5 0.932175 0.750000 0.938424
O O6 0.851094 0.977026 0.770044
O O7 0.000000 0.000000 0.000000
O O8 0.909241 0.250000 0.514979
O O9 0.856232 0.046133 0.574573
O O10 0.877563 0.991653 0.401432
O O11 0.164939 0.250000 0.738337
O O12 0.261827 0.475031 0.864749
O O13 0.331146 0.750000 0.686312
O O14 0.324904 0.494997 0.758517
O O15 0.273349 0.538740 0.495336
O O16 0.423384 0.542720 0.727686
O O17 0.324996 0.250000 0.853599
O O18 0.413898 0.038059 0.049281
O O19 0.829233 0.250000 0.682796
O O20 0.495280 0.250000 0.076765
O O21 0.500000 0.000000 0.000000
#
# Coordination Sequence:
#
# PCOD8069217 Si02
#       8
#     4   4   4   4   4   4   4   4
#     4   9  19  34  47  61  86 118 148 183 224 260
#     4  11  21  35  52  67  86 115 151 190 229 265
#     4  10  18  31  47  63  90 120 147 180 217 261
#     4  10  19  30  45  66  91 118 148 180 216 261
#     4   9  16  27  43  61  88 121 146 172 216 267
#     4   9  16  25  40  64  91 114 144 181 211 253
#     4  10  19  31  47  68  91 118 150 184 222 262
#     4   8  14  24  38  59  86 116 144 172 210 256
#
# _framework density 15.994160000000001
#
# number of rings (size 3 to 8) (size 9 to 14) (size 15 to 20)
#    0.000    2.500    2.500    0.750    0.000    1.000 
#    0.000    1.250    0.000    0.000    0.000    0.875 
#    0.000    0.000    0.000    0.000    0.000    0.000 
#
# Total GULP energy -396466.110769 kJ/mol
# GULP energy per Si atom -12389.565962 kJ/mol
# Density = 1.595776 g / cm^3
# Si number density = 15.994160 Si / 1000 Ang^3
#
#
#
# Elastic Constant Matrix: (Units=GPa)
#
#
# Indices 1 2 3 4 5 6 
#
# 1 106.2134 27.6029 81.4255 0.0000 13.2727 0.0000
# 2 27.6029 28.2006 29.4787 0.0000 0.6674 0.0000
# 3 81.4255 29.4787 114.2990 0.0000 16.1070 0.0000
# 4 0.0000 0.0000 0.0000 23.0424 0.0000 0.1118
# 5 13.2727 0.6674 16.1070 0.0000 30.9857 0.0000
# 6 0.0000 0.0000 0.0000 0.1118 0.0000 12.7970
#
#
#
# Elastic Compliance Matrix: (Units=1/GPa)
#
#
# Indices 1 2 3 4 5 6 
#
# 1 0.021840 -0.007384 -0.013335 0.000000 -0.002264 0.000000
# 2 -0.007384 0.052064 -0.009124 0.000000 0.006784 0.000000
# 3 -0.013335 -0.009124 0.021332 0.000000 -0.005180 0.000000
# 4 0.000000 0.000000 0.000000 0.043400 0.000000 -0.000379
# 5 -0.002264 0.006784 -0.005180 0.000000 0.035789 0.000000
# 6 0.000000 0.000000 0.000000 -0.000379 0.000000 0.078147
#
#
# Mechanical properties :
#
#
# Convention : Reuss Voigt Hill
#
# Bulk Modulus (GPa) = 28.12881 58.41412 43.27147
# Shear Modulus (GPa) = 15.42698 20.71207 18.06953
#
# Velocity S-wave (km/s) = 3.10907 3.60248 3.36483
# Velocity P-wave (km/s) = 5.52391 7.34202 6.49688
#
# Compressibility (1/GPa) = 0.03555073
#
# Stress axis : x y z
#
# Youngs Moduli (GPa) = 45.78793 19.20701 46.87850
#
# Poissons Ratio (x) = 0.14182 0.62512
# Poissons Ratio (y) = 0.33810 0.42770
# Poissons Ratio (z) = 0.61058 0.17524
#
# Static dielectric constant tensor:
#      x y z
#    x 3.473780 0.000000 0.431790 
#    y 0.000000 2.879420 0.000000 
#    z 0.431790 0.000000 3.228010 
# 
# 
# High freq. dielectric constant tensor:
#      x y z
#    x 1.606290 0.000000 0.031100 
#    y 0.000000 1.605640 0.000000 
#    z 0.031100 0.000000 1.601220 
# 
# From -- ./inp_files/42493.got.cif
#   From: 2010.06.25/outbox.cif.g09.slc.cpg/sg11_22_cif.got.tgz:42493.got - 2010.06.27 23:14:04.
