data_PCOD8069714
_publ_section_title
;
Structure prediction by ZEFSAII (Michael W. Deem and Ramdas Pophale) SiO2 
 PCOD8069714
Probable space group: P 21/M
;
_chemical_formula_sum "Si O2"
_cell_formula_units_Z 32
_cell_length_a 9.401520
_cell_length_b 14.946655
_cell_length_c 11.856794
_cell_angle_alpha 90.000000
_cell_angle_beta 84.937518
_cell_angle_gamma 90.000000
_cell_volume 1659.632343
_symmetry_space_group_name_H-M "P 21/M"
_symmetry_group_IT_number 11
_symmetry_cell_setting 'monoclinic'
loop_
_space_group_symop_operation_xyz
x,y,z
-x,1/2+y,-z
-x,-y,-z
x,1/2-y,z
loop_
_atom_site_type_symbol
_atom_site_label
_atom_site_fract_x
_atom_site_fract_y
_atom_site_fract_z
Si Si1 0.373565 0.651605 0.688792
Si Si2 0.927590 0.148959 0.715752
Si Si3 0.260445 0.529679 0.114592
Si Si4 0.803890 0.910104 0.202144
Si Si5 0.493007 0.968085 0.278950
Si Si6 0.143926 0.152125 0.043291
Si Si7 0.296018 0.648286 0.446183
Si Si8 0.829304 0.097239 0.109457
O O1 0.447776 0.750000 0.676015
O O2 0.490474 0.573898 0.696630
O O3 0.285785 0.631329 0.580168
O O4 0.261737 0.657512 0.799183
O O5 0.892091 0.250000 0.755757
O O6 0.861147 0.081997 0.810542
O O7 0.861033 0.130708 0.596399
O O8 0.098568 0.133134 0.705547
O O9 0.411777 0.541409 0.165657
O O10 0.219760 0.424634 0.111248
O O11 0.272082 0.572349 0.989613
O O12 0.644120 0.918920 0.259237
O O13 0.872122 0.005980 0.168675
O O14 0.807288 0.849878 0.090126
O O15 0.408389 0.920884 0.385437
O O16 0.187471 0.250000 0.088240
O O17 0.972370 0.145225 0.059528
O O18 0.345946 0.750000 0.416131
#
# Coordination Sequence:
#
# PCOD8069714 Si02
#       8
#     4   4   4   4   4   4   4   4
#     4  10  21  37  58  81 112 152 192 222 271 338
#     4  10  18  33  59  82 107 142 185 237 281 317
#     4  10  20  37  55  84 116 144 186 224 272 336
#     4  10  19  33  53  85 110 140 183 231 278 329
#     4  10  22  37  60  82 115 148 183 231 282 323
#     4  11  20  32  55  83 118 149 179 227 277 328
#     4   9  20  38  59  82 109 146 190 235 276 325
#     4  10  19  34  55  81 111 146 182 228 276 325
#
# _framework density 19.281379000000001
#
# number of rings (size 3 to 8) (size 9 to 14) (size 15 to 20)
#    0.000    2.000    2.500    1.875    0.000    6.500 
#    0.000    2.500    2.750    0.000    0.000    0.000 
#    0.000    0.000    0.000    0.000    0.000    0.000 
#
# Total GULP energy -396683.885956 kJ/mol
# GULP energy per Si atom -12396.371436 kJ/mol
# Density = 1.923749 g / cm^3
# Si number density = 19.281379 Si / 1000 Ang^3
#
#
#
# Elastic Constant Matrix: (Units=GPa)
#
#
# Indices 1 2 3 4 5 6 
#
# 1 110.8351 42.0840 48.2808 0.0000 14.0017 0.0000
# 2 42.0840 105.6046 41.8736 0.0000 3.3426 0.0000
# 3 48.2808 41.8736 102.8289 0.0000 12.8133 0.0000
# 4 0.0000 0.0000 0.0000 23.7232 0.0000 4.8041
# 5 14.0017 3.3426 12.8133 0.0000 19.3995 0.0000
# 6 0.0000 0.0000 0.0000 4.8041 0.0000 22.7104
#
#
#
# Elastic Compliance Matrix: (Units=1/GPa)
#
#
# Indices 1 2 3 4 5 6 
#
# 1 0.012746 -0.003356 -0.003861 0.000000 -0.006071 0.000000
# 2 -0.003356 0.012202 -0.003741 0.000000 0.002790 0.000000
# 3 -0.003861 -0.003741 0.013767 0.000000 -0.005661 0.000000
# 4 0.000000 0.000000 0.000000 0.044039 0.000000 -0.009316
# 5 -0.006071 0.002790 -0.005661 0.000000 0.059188 0.000000
# 6 0.000000 0.000000 0.000000 -0.009316 0.000000 0.046003
#
#
# Mechanical properties :
#
#
# Convention : Reuss Voigt Hill
#
# Bulk Modulus (GPa) = 59.53170 64.86060 62.19615
# Shear Modulus (GPa) = 23.20624 25.63530 24.42077
#
# Velocity S-wave (km/s) = 3.47300 3.65024 3.56272
# Velocity P-wave (km/s) = 6.85744 7.17479 7.01791
#
# Compressibility (1/GPa) = 0.01679777
#
# Stress axis : x y z
#
# Youngs Moduli (GPa) = 78.45846 81.95672 72.63956
#
# Poissons Ratio (x) = 0.27504 0.28049
# Poissons Ratio (y) = 0.26330 0.27172
# Poissons Ratio (z) = 0.30296 0.30657
#
# Static dielectric constant tensor:
#      x y z
#    x 3.374490 0.000000 0.169490 
#    y 0.000000 3.689090 0.000000 
#    z 0.169490 0.000000 3.479680 
# 
# 
# High freq. dielectric constant tensor:
#      x y z
#    x 1.732250 0.000000 0.013150 
#    y 0.000000 1.761910 0.000000 
#    z 0.013150 0.000000 1.738100 
# 
# From -- ./inp_files/31872.got.cif
#   From: 2010.06.25/outbox.cif.g09.slc.cpg/sg11_16_cif.got.tgz:31872.got - 2010.06.27 23:14:04.
