data_PCOD8069619
_publ_section_title
;
Structure prediction by ZEFSAII (Michael W. Deem and Ramdas Pophale) SiO2 
 PCOD8069619
Probable space group: P 21/M
;
_chemical_formula_sum "Si O2"
_cell_formula_units_Z 28
_cell_length_a 30.427912
_cell_length_b 8.969968
_cell_length_c 10.412669
_cell_angle_alpha 90.000000
_cell_angle_beta 146.923790
_cell_angle_gamma 90.000000
_cell_volume 1551.036796
_symmetry_space_group_name_H-M "P 21/M"
_symmetry_group_IT_number 11
_symmetry_cell_setting 'monoclinic'
loop_
_space_group_symop_operation_xyz
x,y,z
-x,1/2+y,-z
-x,-y,-z
x,1/2-y,z
loop_
_atom_site_type_symbol
_atom_site_label
_atom_site_fract_x
_atom_site_fract_y
_atom_site_fract_z
Si Si1 0.668110 0.572944 0.678648
Si Si2 0.085224 0.923717 0.359777
Si Si3 0.739805 0.574700 0.588965
Si Si4 0.905994 0.923033 0.886650
Si Si5 0.770598 0.925786 0.173944
Si Si6 0.338266 0.073927 0.860128
Si Si7 0.508590 0.073503 0.382964
O O1 0.653565 0.750000 0.643337
O O2 0.704877 0.510072 0.635824
O O3 0.583916 0.491196 0.491536
O O4 0.729728 0.525938 0.940968
O O5 0.102643 0.750000 0.406848
O O6 0.991679 0.960402 0.162114
O O7 0.140631 0.002668 0.601871
O O8 0.107860 0.982206 0.274697
O O9 0.726512 0.750000 0.558570
O O10 0.691964 0.506219 0.349565
O O11 0.834853 0.536294 0.811703
O O12 0.901810 0.750000 0.835375
O O13 0.780234 0.750000 0.205791
O O14 0.715946 0.989722 0.156286
O O15 0.327082 0.250000 0.832111
O O16 0.430803 0.029908 0.108201
O O17 0.516380 0.250000 0.420111
O O18 0.500000 0.000000 0.500000
#
# Coordination Sequence:
#
# PCOD8069619 Si02
#       7
#     4   4   4   4   4   4   4
#     4  10  21  36  55  78 102 135 178 215 255 312
#     4  10  19  29  49  82 108 130 174 222 259 302
#     4   9  17  33  56  76  99 137 178 210 249 313
#     4   9  17  32  53  76 105 141 173 211 261 308
#     4  10  18  33  53  74 102 136 175 212 255 310
#     4   9  17  31  54  77  99 133 174 211 249 305
#     4  11  21  35  55  80 108 136 172 216 262 306
#
# _framework density 18.052440000000001
#
# number of rings (size 3 to 8) (size 9 to 14) (size 15 to 20)
#    0.000    2.286    2.857    0.857    0.000    1.714 
#    0.000    1.429    0.000    0.000    0.000    0.000 
#    0.000    0.000    0.000    0.000    0.000    0.000 
#
# Total GULP energy -347167.911618 kJ/mol
# GULP energy per Si atom -12398.853986 kJ/mol
# Density = 1.801135 g / cm^3
# Si number density = 18.052440 Si / 1000 Ang^3
#
#
#
# Elastic Constant Matrix: (Units=GPa)
#
#
# Indices 1 2 3 4 5 6 
#
# 1 152.7828 29.0087 86.7253 0.0000 0.4652 0.0000
# 2 29.0087 34.3821 37.7975 0.0000 4.4375 0.0000
# 3 86.7253 37.7975 162.4627 0.0000 6.3291 0.0000
# 4 0.0000 0.0000 0.0000 26.7227 0.0000 7.9069
# 5 0.4652 4.4375 6.3291 0.0000 31.8165 0.0000
# 6 0.0000 0.0000 0.0000 7.9069 0.0000 18.6988
#
#
#
# Elastic Compliance Matrix: (Units=1/GPa)
#
#
# Indices 1 2 3 4 5 6 
#
# 1 0.009714 -0.003495 -0.004420 0.000000 0.001225 0.000000
# 2 -0.003495 0.040767 -0.007457 0.000000 -0.004151 0.000000
# 3 -0.004420 -0.007457 0.010287 0.000000 -0.000942 0.000000
# 4 0.000000 0.000000 0.000000 0.042773 0.000000 -0.018087
# 5 0.001225 -0.004151 -0.000942 0.000000 0.032179 0.000000
# 6 0.000000 0.000000 0.000000 -0.018087 0.000000 0.061128
#
#
# Mechanical properties :
#
#
# Convention : Reuss Voigt Hill
#
# Bulk Modulus (GPa) = 33.30740 72.96562 53.13651
# Shear Modulus (GPa) = 21.04380 28.52067 24.78223
#
# Velocity S-wave (km/s) = 3.41794 3.97908 3.70914
# Velocity P-wave (km/s) = 5.83668 7.84966 6.91679
#
# Compressibility (1/GPa) = 0.03002336
#
# Stress axis : x y z
#
# Youngs Moduli (GPa) = 102.94278 24.52941 97.21450
#
# Poissons Ratio (x) = 0.08572 0.42971
# Poissons Ratio (y) = 0.35975 0.72497
# Poissons Ratio (z) = 0.45503 0.18293
#
# Static dielectric constant tensor:
#      x y z
#    x 3.429600 0.000000 0.060370 
#    y 0.000000 3.081600 0.000000 
#    z 0.060370 0.000000 3.627860 
# 
# 
# High freq. dielectric constant tensor:
#      x y z
#    x 1.688590 0.000000 0.013230 
#    y 0.000000 1.670210 0.000000 
#    z 0.013230 0.000000 1.711980 
# 
# From -- ./inp_files/28585.got.cif
#   From: 2010.06.25/outbox.cif.g09.slc.cpg/sg11_15_cif.got.tgz:28585.got - 2010.06.27 23:14:04.
