data_PCOD8069524
_publ_section_title
;
Structure prediction by ZEFSAII (Michael W. Deem and Ramdas Pophale) SiO2 
 PCOD8069524
Probable space group: P 21/M
;
_chemical_formula_sum "Si O2"
_cell_formula_units_Z 28
_cell_length_a 10.175972
_cell_length_b 8.449120
_cell_length_c 31.118705
_cell_angle_alpha 90.000000
_cell_angle_beta 32.556049
_cell_angle_gamma 90.000000
_cell_volume 1439.764874
_symmetry_space_group_name_H-M "P 21/M"
_symmetry_group_IT_number 11
_symmetry_cell_setting 'monoclinic'
loop_
_space_group_symop_operation_xyz
x,y,z
-x,1/2+y,-z
-x,-y,-z
x,1/2-y,z
loop_
_atom_site_type_symbol
_atom_site_label
_atom_site_fract_x
_atom_site_fract_y
_atom_site_fract_z
Si Si1 0.223832 0.564375 0.341773
Si Si2 0.991304 0.434342 0.915877
Si Si3 0.088570 0.563006 0.158703
Si Si4 0.456725 0.434804 0.913079
Si Si5 0.847037 0.436067 0.502673
Si Si6 0.435613 0.063266 0.674708
Si Si7 0.485956 0.932590 0.812965
O O1 0.248823 0.750000 0.327234
O O2 0.405783 0.499464 0.328746
O O3 0.287693 0.475281 0.280186
O O4 0.944058 0.521670 0.432697
O O5 0.060121 0.250000 0.898290
O O6 0.890378 0.484953 0.896995
O O7 0.233832 0.532436 0.858227
O O8 0.788112 0.471869 0.007287
O O9 0.087530 0.750000 0.164857
O O10 0.319945 0.493451 0.120466
O O11 0.837558 0.491551 0.248055
O O12 0.417044 0.250000 0.933277
O O13 0.511277 0.460899 0.848219
O O14 0.884174 0.250000 0.487245
O O15 0.564659 0.477475 0.593169
O O16 0.000000 0.500000 0.500000
O O17 0.423241 0.250000 0.684305
O O18 0.497862 0.750000 0.822841
#
# Coordination Sequence:
#
# PCOD8069524 Si02
#       7
#     4   4   4   4   4   4   4
#     4  10  18  32  54  78 109 142 178 223 276 325
#     4  11  21  38  61  82 108 140 181 229 276 323
#     4   9  18  34  58  83 109 143 181 223 271 324
#     4  11  23  38  56  80 110 145 184 223 272 327
#     4   9  16  26  46  77 112 143 177 220 270 321
#     4   8  14  28  51  79 108 139 173 216 268 317
#     4  12  24  38  56  80 110 143 184 228 273 325
#
# _framework density 19.447620000000001
#
# number of rings (size 3 to 8) (size 9 to 14) (size 15 to 20)
#    0.000    2.000    1.429    4.714    0.000    0.000 
#    0.000    2.143    0.000    0.857    0.000    0.000 
#    0.000    0.000    0.000    0.000    0.000    0.000 
#
# Total GULP energy -347126.125450 kJ/mol
# GULP energy per Si atom -12397.361623 kJ/mol
# Density = 1.940336 g / cm^3
# Si number density = 19.447620 Si / 1000 Ang^3
#
#
#
# Elastic Constant Matrix: (Units=GPa)
#
#
# Indices 1 2 3 4 5 6 
#
# 1 60.6314 9.9072 20.6911 0.0000 14.4422 0.0000
# 2 9.9072 45.7086 14.9460 0.0000 -2.8551 0.0000
# 3 20.6911 14.9460 139.5300 0.0000 18.9525 0.0000
# 4 0.0000 0.0000 0.0000 25.1069 0.0000 0.4381
# 5 14.4422 -2.8551 18.9525 0.0000 18.8133 0.0000
# 6 0.0000 0.0000 0.0000 0.4381 0.0000 13.7011
#
#
#
# Elastic Compliance Matrix: (Units=1/GPa)
#
#
# Indices 1 2 3 4 5 6 
#
# 1 0.021601 -0.005669 -0.000263 0.000000 -0.017178 0.000000
# 2 -0.005669 0.024941 -0.003402 0.000000 0.011564 0.000000
# 3 -0.000263 -0.003402 0.008820 0.000000 -0.009200 0.000000
# 4 0.000000 0.000000 0.000000 0.039852 0.000000 -0.001274
# 5 -0.017178 0.011564 -0.009200 0.000000 0.077363 0.000000
# 6 0.000000 0.000000 0.000000 -0.001274 0.000000 0.073028
#
#
# Mechanical properties :
#
#
# Convention : Reuss Voigt Hill
#
# Bulk Modulus (GPa) = 27.25167 37.43984 32.34575
# Shear Modulus (GPa) = 18.08300 24.87929 21.48114
#
# Velocity S-wave (km/s) = 3.05262 3.58061 3.32710
# Velocity P-wave (km/s) = 5.14470 6.03223 5.60605
#
# Compressibility (1/GPa) = 0.03669500
#
# Stress axis : x y z
#
# Youngs Moduli (GPa) = 46.29472 40.09453 113.38053
#
# Poissons Ratio (x) = 0.22729 0.02979
# Poissons Ratio (y) = 0.26244 0.38568
# Poissons Ratio (z) = 0.01216 0.13639
#
# Static dielectric constant tensor:
#      x y z
#    x 3.335030 0.000000 -0.088100 
#    y 0.000000 3.336660 0.000000 
#    z -0.088100 0.000000 4.140670 
# 
# 
# High freq. dielectric constant tensor:
#      x y z
#    x 1.714350 0.000000 0.005660 
#    y 0.000000 1.739790 0.000000 
#    z 0.005660 0.000000 1.782020 
# 
# From -- ./inp_files/70857.got.cif
#   From: 2010.06.25/outbox.cif.g09.slc.cpg/sg11_36_cif.got.tgz:70857.got - 2010.06.27 23:14:04.
