data_PCOD8069783
_publ_section_title
;
Structure prediction by ZEFSAII (Michael W. Deem and Ramdas Pophale) SiO2 
 PCOD8069783
Probable space group: P 21/M
;
_chemical_formula_sum "Si O2"
_cell_formula_units_Z 28
_cell_length_a 26.437712
_cell_length_b 8.794093
_cell_length_c 10.104579
_cell_angle_alpha 90.000000
_cell_angle_beta 141.442634
_cell_angle_gamma 90.000000
_cell_volume 1464.295754
_symmetry_space_group_name_H-M "P 21/M"
_symmetry_group_IT_number 11
_symmetry_cell_setting 'monoclinic'
loop_
_space_group_symop_operation_xyz
x,y,z
-x,1/2+y,-z
-x,-y,-z
x,1/2-y,z
loop_
_atom_site_type_symbol
_atom_site_label
_atom_site_fract_x
_atom_site_fract_y
_atom_site_fract_z
Si Si1 0.437375 0.569856 0.270582
Si Si2 0.734887 0.069729 0.989624
Si Si3 0.254734 0.568994 0.529966
Si Si4 0.012336 0.930197 0.669403
Si Si5 0.858019 0.430140 0.462594
Si Si6 0.565220 0.430027 0.035267
Si Si7 0.188238 0.569239 0.118094
O O1 0.500000 0.500000 0.500000
O O2 0.439082 0.750000 0.287915
O O3 0.349611 0.502572 0.130707
O O4 0.456787 0.520678 0.159710
O O5 0.730161 0.250000 0.985517
O O6 0.752727 0.010980 0.878148
O O7 0.808018 0.015914 0.232222
O O8 0.257360 0.750000 0.535349
O O9 0.191147 0.512998 0.509942
O O10 0.223527 0.501892 0.326638
O O11 0.345062 0.507266 0.745310
O O12 0.011115 0.750000 0.652350
O O13 0.944159 0.985884 0.632763
O O14 0.000000 0.000000 0.500000
O O15 0.097150 0.988002 0.904541
O O16 0.872258 0.250000 0.493989
O O17 0.563132 0.250000 0.046124
O O18 0.500000 0.500000 0.000000
O O19 0.188806 0.750000 0.125238
#
# Coordination Sequence:
#
# PCOD8069783 Si02
#       7
#     4   4   4   4   4   4   4
#     4  10  21  36  56  84 113 142 183 229 274 329
#     4   9  16  31  54  77 103 141 182 218 258 315
#     4   9  18  34  56  80 105 141 184 220 261 323
#     4  11  21  34  54  81 111 141 178 223 270 317
#     4  10  18  34  58  79 104 140 180 222 266 315
#     4  10  21  37  57  82 112 145 185 228 276 330
#     4   9  18  31  52  81 107 134 177 222 260 312
#
# _framework density 19.12182
#
# number of rings (size 3 to 8) (size 9 to 14) (size 15 to 20)
#    0.000    2.286    2.857    0.429    2.000    1.143 
#    0.000    1.429    0.000    2.571    0.000    0.000 
#    0.000    0.000    0.000    0.000    0.000    0.000 
#
# Total GULP energy -347159.875174 kJ/mol
# GULP energy per Si atom -12398.566971 kJ/mol
# Density = 1.907830 g / cm^3
# Si number density = 19.121820 Si / 1000 Ang^3
#
#
#
# Elastic Constant Matrix: (Units=GPa)
#
#
# Indices 1 2 3 4 5 6 
#
# 1 184.0579 26.1699 83.4661 0.0000 -3.5903 0.0000
# 2 26.1699 25.4021 26.1641 0.0000 1.4042 0.0000
# 3 83.4661 26.1641 152.8032 0.0000 -11.6446 0.0000
# 4 0.0000 0.0000 0.0000 21.7074 0.0000 4.7019
# 5 -3.5903 1.4042 -11.6446 0.0000 40.1288 0.0000
# 6 0.0000 0.0000 0.0000 4.7019 0.0000 27.0155
#
#
#
# Elastic Compliance Matrix: (Units=1/GPa)
#
#
# Indices 1 2 3 4 5 6 
#
# 1 0.007593 -0.004284 -0.003426 0.000000 -0.000165 0.000000
# 2 -0.004284 0.050895 -0.006687 0.000000 -0.004105 0.000000
# 3 -0.003426 -0.006687 0.009772 0.000000 0.002763 0.000000
# 4 0.000000 0.000000 0.000000 0.047872 0.000000 -0.008332
# 5 -0.000165 -0.004105 0.002763 0.000000 0.025850 0.000000
# 6 0.000000 0.000000 0.000000 -0.008332 0.000000 0.038466
#
#
# Mechanical properties :
#
#
# Convention : Reuss Voigt Hill
#
# Bulk Modulus (GPa) = 25.33959 70.42927 47.88443
# Shear Modulus (GPa) = 22.48218 32.86785 27.67502
#
# Velocity S-wave (km/s) = 3.43262 4.15042 3.80847
# Velocity P-wave (km/s) = 5.38432 7.73821 6.66599
#
# Compressibility (1/GPa) = 0.03946394
#
# Stress axis : x y z
#
# Youngs Moduli (GPa) = 131.70396 19.64822 102.33674
#
# Poissons Ratio (x) = 0.08417 0.35066
# Poissons Ratio (y) = 0.56421 0.68437
# Poissons Ratio (z) = 0.45128 0.13140
#
# Static dielectric constant tensor:
#      x y z
#    x 3.837250 0.000000 0.017010 
#    y 0.000000 2.976970 0.000000 
#    z 0.017010 0.000000 3.755400 
# 
# 
# High freq. dielectric constant tensor:
#      x y z
#    x 1.762970 0.000000 0.000980 
#    y 0.000000 1.690560 0.000000 
#    z 0.000980 0.000000 1.751590 
# 
# From -- ./inp_files/28618.got.cif
#   From: 2010.06.25/outbox.cif.g09.slc.cpg/sg11_15_cif.got.tgz:28618.got - 2010.06.27 23:14:04.
