data_PCOD8069235
_publ_section_title
;
Structure prediction by ZEFSAII (Michael W. Deem and Ramdas Pophale) SiO2 
 PCOD8069235
Probable space group: P 21/M
;
_chemical_formula_sum "Si O2"
_cell_formula_units_Z 32
_cell_length_a 12.063108
_cell_length_b 9.166469
_cell_length_c 21.742307
_cell_angle_alpha 90.000000
_cell_angle_beta 134.138537
_cell_angle_gamma 90.000000
_cell_volume 1725.378906
_symmetry_space_group_name_H-M "P 21/M"
_symmetry_group_IT_number 11
_symmetry_cell_setting 'monoclinic'
loop_
_space_group_symop_operation_xyz
x,y,z
-x,1/2+y,-z
-x,-y,-z
x,1/2-y,z
loop_
_atom_site_type_symbol
_atom_site_label
_atom_site_fract_x
_atom_site_fract_y
_atom_site_fract_z
Si Si1 0.772571 0.581014 0.918565
Si Si2 0.954436 0.078828 0.889812
Si Si3 0.082107 0.579291 0.263606
Si Si4 0.852709 0.581546 0.278519
Si Si5 0.572611 0.079510 0.226359
Si Si6 0.587856 0.078648 0.370351
Si Si7 0.608305 0.924670 0.592024
Si Si8 0.925927 0.079473 0.527944
O O1 0.795377 0.750000 0.911792
O O2 0.816088 0.496166 0.873347
O O3 0.595599 0.547166 0.867450
O O4 0.880515 0.532326 0.017165
O O5 0.929228 0.250000 0.884639
O O6 0.949557 0.025883 0.817808
O O7 0.127330 0.750000 0.285153
O O8 0.218587 0.485509 0.347027
O O9 0.921987 0.550221 0.237867
O O10 0.811289 0.750000 0.271664
O O11 0.696399 0.493116 0.229119
O O12 0.986057 0.530915 0.376894
O O13 0.610291 0.250000 0.242775
O O14 0.577660 0.011249 0.297562
O O15 0.576388 0.250000 0.357740
O O16 0.451498 0.027165 0.363068
O O17 0.747676 0.031916 0.464662
O O18 0.604421 0.750000 0.581529
O O19 0.500000 0.000000 0.500000
O O20 0.940170 0.250000 0.521268
O O21 0.000000 0.000000 0.500000
#
# Coordination Sequence:
#
# PCOD8069235 Si02
#       8
#     4   4   4   4   4   4   4   4
#     4   9  18  33  55  83 111 136 169 219 274 318
#     4   9  18  34  57  82 107 139 176 215 263 323
#     4  10  21  38  56  75 106 145 181 217 263 317
#     4  10  21  35  51  72 103 141 177 220 267 310
#     4  10  19  33  53  76 103 135 173 217 263 314
#     4   9  18  32  51  73 101 134 167 211 264 309
#     4  11  22  37  56  79 108 141 177 218 265 316
#     4  10  18  31  49  69  95 129 169 210 253 301
#
# _framework density 18.54665
#
# number of rings (size 3 to 8) (size 9 to 14) (size 15 to 20)
#    0.000    2.250    1.250    1.875    0.000    4.500 
#    0.000    4.375    0.000    0.000    0.000    0.000 
#    0.000    0.000    0.000    0.000    0.000    0.000 
#
# Total GULP energy -396775.382760 kJ/mol
# GULP energy per Si atom -12399.230711 kJ/mol
# Density = 1.850444 g / cm^3
# Si number density = 18.546650 Si / 1000 Ang^3
#
#
#
# Elastic Constant Matrix: (Units=GPa)
#
#
# Indices 1 2 3 4 5 6 
#
# 1 122.0227 40.1820 52.7765 0.0000 5.1770 0.0000
# 2 40.1820 43.5108 36.3305 0.0000 2.5019 0.0000
# 3 52.7765 36.3305 98.3010 0.0000 0.0443 0.0000
# 4 0.0000 0.0000 0.0000 22.5354 0.0000 1.9549
# 5 5.1770 2.5019 0.0443 0.0000 31.3773 0.0000
# 6 0.0000 0.0000 0.0000 1.9549 0.0000 32.3106
#
#
#
# Elastic Compliance Matrix: (Units=1/GPa)
#
#
# Indices 1 2 3 4 5 6 
#
# 1 0.012643 -0.008574 -0.003618 0.000000 -0.001397 0.000000
# 2 -0.008574 0.039274 -0.009911 0.000000 -0.001703 0.000000
# 3 -0.003618 -0.009911 0.015778 0.000000 0.001365 0.000000
# 4 0.000000 0.000000 0.000000 0.044609 0.000000 -0.002699
# 5 -0.001397 -0.001703 0.001365 0.000000 0.032235 0.000000
# 6 0.000000 0.000000 0.000000 -0.002699 0.000000 0.031113
#
#
# Mechanical properties :
#
#
# Convention : Reuss Voigt Hill
#
# Bulk Modulus (GPa) = 42.57476 58.04581 50.31028
# Shear Modulus (GPa) = 21.95989 26.21435 24.08712
#
# Velocity S-wave (km/s) = 3.44471 3.76364 3.60770
# Velocity P-wave (km/s) = 6.23111 7.08885 6.67377
#
# Compressibility (1/GPa) = 0.02348810
#
# Stress axis : x y z
#
# Youngs Moduli (GPa) = 79.09592 25.46186 63.37998
#
# Poissons Ratio (x) = 0.21831 0.22933
# Poissons Ratio (y) = 0.67817 0.62817
# Poissons Ratio (z) = 0.28619 0.25236
#
# Static dielectric constant tensor:
#      x y z
#    x 3.424370 0.000000 0.001180 
#    y 0.000000 3.218020 0.000000 
#    z 0.001180 0.000000 3.509470 
# 
# 
# High freq. dielectric constant tensor:
#      x y z
#    x 1.721980 0.000000 0.003760 
#    y 0.000000 1.700660 0.000000 
#    z 0.003760 0.000000 1.719100 
# 
# From -- ./inp_files/42808.got.cif
#   From: 2010.06.25/outbox.cif.g09.slc.cpg/sg11_22_cif.got.tgz:42808.got - 2010.06.27 23:14:04.
