data_PCOD8069632
_publ_section_title
;
Structure prediction by ZEFSAII (Michael W. Deem and Ramdas Pophale) SiO2 
 PCOD8069632
Probable space group: P 21/M
;
_chemical_formula_sum "Si O2"
_cell_formula_units_Z 32
_cell_length_a 14.727095
_cell_length_b 9.250314
_cell_length_c 12.476348
_cell_angle_alpha 90.000000
_cell_angle_beta 88.748700
_cell_angle_gamma 90.000000
_cell_volume 1699.250731
_symmetry_space_group_name_H-M "P 21/M"
_symmetry_group_IT_number 11
_symmetry_cell_setting 'monoclinic'
loop_
_space_group_symop_operation_xyz
x,y,z
-x,1/2+y,-z
-x,-y,-z
x,1/2-y,z
loop_
_atom_site_type_symbol
_atom_site_label
_atom_site_fract_x
_atom_site_fract_y
_atom_site_fract_z
Si Si1 0.988451 0.576953 0.885668
Si Si2 0.696318 0.918702 0.375605
Si Si3 0.284824 0.089006 0.966214
Si Si4 0.317835 0.419385 0.384347
Si Si5 0.206824 0.421223 0.187802
Si Si6 0.552328 0.411721 0.086633
Si Si7 0.148090 0.087123 0.789198
Si Si8 0.514215 0.413669 0.325876
O O1 0.994380 0.750000 0.900808
O O2 0.064174 0.522724 0.798802
O O3 0.895223 0.524943 0.831679
O O4 0.000000 0.500000 0.000000
O O5 0.680839 0.750000 0.353708
O O6 0.724509 0.950496 0.497917
O O7 0.778281 0.974410 0.298231
O O8 0.600864 0.993632 0.355478
O O9 0.328017 0.250000 0.968314
O O10 0.189540 0.093322 0.907329
O O11 0.349456 0.982817 0.898692
O O12 0.269830 0.030270 0.086692
O O13 0.326796 0.250000 0.360603
O O14 0.250514 0.487391 0.295884
O O15 0.421251 0.481369 0.377089
O O16 0.203917 0.250000 0.194507
O O17 0.565437 0.250000 0.044298
O O18 0.498399 0.415585 0.198835
O O19 0.500000 0.500000 0.000000
O O20 0.117166 0.250000 0.756832
O O21 0.531066 0.250000 0.366046
#
# Coordination Sequence:
#
# PCOD8069632 Si02
#       8
#     4   4   4   4   4   4   4   4
#     4  11  21  35  58  85 111 142 179 223 272 325
#     4  10  20  35  57  80 106 142 182 226 267 313
#     4  10  18  33  54  74 106 143 175 217 267 323
#     4   9  18  34  55  78 104 140 185 223 264 322
#     4   9  18  34  55  78 106 141 178 217 268 327
#     4  11  22  33  48  75 109 145 181 220 270 322
#     4  10  20  35  54  80 110 140 176 219 272 324
#     4  10  20  34  54  79 107 140 182 227 268 320
#
# _framework density 18.83183
#
# number of rings (size 3 to 8) (size 9 to 14) (size 15 to 20)
#    0.000    2.000    2.500    1.875    0.000    3.500 
#    0.000    0.625    0.000    3.750    0.000    0.000 
#    0.000    0.000    0.000    0.000    0.000    0.000 
#
# Total GULP energy -396691.518386 kJ/mol
# GULP energy per Si atom -12396.609950 kJ/mol
# Density = 1.878897 g / cm^3
# Si number density = 18.831830 Si / 1000 Ang^3
#
#
#
# Elastic Constant Matrix: (Units=GPa)
#
#
# Indices 1 2 3 4 5 6 
#
# 1 111.2446 35.6563 47.8141 0.0000 -8.8869 0.0000
# 2 35.6563 64.2629 23.0539 0.0000 -5.5001 0.0000
# 3 47.8141 23.0539 110.2635 0.0000 -4.6563 0.0000
# 4 0.0000 0.0000 0.0000 18.4050 0.0000 -2.3004
# 5 -8.8869 -5.5001 -4.6563 0.0000 23.8938 0.0000
# 6 0.0000 0.0000 0.0000 -2.3004 0.0000 29.7053
#
#
#
# Elastic Compliance Matrix: (Units=1/GPa)
#
#
# Indices 1 2 3 4 5 6 
#
# 1 0.012755 -0.005302 -0.004309 0.000000 0.002684 0.000000
# 2 -0.005302 0.019275 -0.001640 0.000000 0.002145 0.000000
# 3 -0.004309 -0.001640 0.011290 0.000000 0.000220 0.000000
# 4 0.000000 0.000000 0.000000 0.054864 0.000000 0.004249
# 5 0.002684 0.002145 0.000220 0.000000 0.043387 0.000000
# 6 0.000000 0.000000 0.000000 0.004249 0.000000 0.033993
#
#
# Mechanical properties :
#
#
# Convention : Reuss Voigt Hill
#
# Bulk Modulus (GPa) = 48.03663 55.42439 51.73051
# Shear Modulus (GPa) = 24.38962 26.35061 25.37011
#
# Velocity S-wave (km/s) = 3.60269 3.74473 3.67439
# Velocity P-wave (km/s) = 6.54748 6.94208 6.74766
#
# Compressibility (1/GPa) = 0.02081745
#
# Stress axis : x y z
#
# Youngs Moduli (GPa) = 78.40054 51.88139 88.57328
#
# Poissons Ratio (x) = 0.27505 0.38168
# Poissons Ratio (y) = 0.41564 0.14530
# Poissons Ratio (z) = 0.33785 0.08511
#
# Static dielectric constant tensor:
#      x y z
#    x 3.626140 0.000000 -0.064870 
#    y 0.000000 3.150960 0.000000 
#    z -0.064870 0.000000 3.594190 
# 
# 
# High freq. dielectric constant tensor:
#      x y z
#    x 1.729990 0.000000 -0.006340 
#    y 0.000000 1.702140 0.000000 
#    z -0.006340 0.000000 1.733540 
# 
# From -- ./inp_files/38154.got.cif
#   From: 2010.06.25/outbox.cif.g09.slc.cpg/sg11_20_cif.got.tgz:38154.got - 2010.06.27 23:14:04.
