data_PCOD8069284
_publ_section_title
;
Structure prediction by ZEFSAII (Michael W. Deem and Ramdas Pophale) SiO2 
 PCOD8069284
Probable space group: P 21/M
;
_chemical_formula_sum "Si O2"
_cell_formula_units_Z 28
_cell_length_a 17.594223
_cell_length_b 9.294177
_cell_length_c 14.082774
_cell_angle_alpha 90.000000
_cell_angle_beta 43.666764
_cell_angle_gamma 90.000000
_cell_volume 1590.045676
_symmetry_space_group_name_H-M "P 21/M"
_symmetry_group_IT_number 11
_symmetry_cell_setting 'monoclinic'
loop_
_space_group_symop_operation_xyz
x,y,z
-x,1/2+y,-z
-x,-y,-z
x,1/2-y,z
loop_
_atom_site_type_symbol
_atom_site_label
_atom_site_fract_x
_atom_site_fract_y
_atom_site_fract_z
Si Si1 0.339032 0.420037 0.322109
Si Si2 0.897061 0.581411 0.135757
Si Si3 0.443087 0.420392 0.844499
Si Si4 0.294944 0.419796 0.152170
Si Si5 0.760124 0.581744 0.086171
Si Si6 0.878297 0.581400 0.368746
Si Si7 0.909190 0.579851 0.782811
O O1 0.359399 0.250000 0.302540
O O2 0.443666 0.496810 0.273758
O O3 0.319458 0.483523 0.233973
O O4 0.235507 0.462246 0.479832
O O5 0.922974 0.750000 0.107027
O O6 0.789860 0.543319 0.167976
O O7 0.871679 0.530955 0.265186
O O8 0.000000 0.500000 0.000000
O O9 0.464566 0.250000 0.822031
O O10 0.360915 0.474241 0.834372
O O11 0.388990 0.469380 0.993438
O O12 0.295496 0.250000 0.157052
O O13 0.173654 0.467676 0.226674
O O14 0.756909 0.750000 0.069051
O O15 0.855971 0.523214 0.929846
O O16 0.901036 0.750000 0.356752
O O17 0.975411 0.500002 0.336155
O O18 0.930618 0.750000 0.763620
#
# Coordination Sequence:
#
# PCOD8069284 Si02
#       7
#     4   4   4   4   4   4   4
#     4  10  20  34  47  66 101 136 156 188 243 288
#     4  10  18  31  51  73  95 124 158 193 235 285
#     4   9  17  32  53  73  89 117 167 209 231 269
#     4   8  16  31  52  72  93 124 163 200 236 279
#     4   8  15  29  50  72  93 117 152 201 244 271
#     4  10  21  32  45  70 104 131 153 188 242 294
#     4   9  16  30  51  72  92 123 164 198 231 279
#
# _framework density 17.609556999999999
#
# number of rings (size 3 to 8) (size 9 to 14) (size 15 to 20)
#    0.000    2.857    1.429    2.143    0.000    1.143 
#    0.000    5.000    0.000    0.000    0.000    0.000 
#    0.000    0.000    0.000    0.000    0.000    0.000 
#
# Total GULP energy -347080.071640 kJ/mol
# GULP energy per Si atom -12395.716844 kJ/mol
# Density = 1.756948 g / cm^3
# Si number density = 17.609557 Si / 1000 Ang^3
#
#
#
# Elastic Constant Matrix: (Units=GPa)
#
#
# Indices 1 2 3 4 5 6 
#
# 1 113.3331 29.3665 54.7012 0.0000 -23.3242 0.0000
# 2 29.3665 27.6674 31.6175 0.0000 -13.2801 0.0000
# 3 54.7012 31.6175 96.9924 0.0000 -25.6229 0.0000
# 4 0.0000 0.0000 0.0000 21.6920 0.0000 -6.8748
# 5 -23.3242 -13.2801 -25.6229 0.0000 29.6137 0.0000
# 6 0.0000 0.0000 0.0000 -6.8748 0.0000 24.1288
#
#
#
# Elastic Compliance Matrix: (Units=1/GPa)
#
#
# Indices 1 2 3 4 5 6 
#
# 1 0.013632 -0.008047 -0.004125 0.000000 0.003559 0.000000
# 2 -0.008047 0.066108 -0.014070 0.000000 0.011134 0.000000
# 3 -0.004125 -0.014070 0.019053 0.000000 0.006927 0.000000
# 4 0.000000 0.000000 0.000000 0.050676 0.000000 0.014439
# 5 0.003559 0.011134 0.006927 0.000000 0.047558 0.000000
# 6 0.000000 0.000000 0.000000 0.014439 0.000000 0.045558
#
#
# Mechanical properties :
#
#
# Convention : Reuss Voigt Hill
#
# Bulk Modulus (GPa) = 21.59418 52.15146 36.87282
# Shear Modulus (GPa) = 16.10282 23.24076 19.67179
#
# Velocity S-wave (km/s) = 3.02725 3.63682 3.34594
# Velocity P-wave (km/s) = 4.95059 6.87859 5.99263
#
# Compressibility (1/GPa) = 0.04630878
#
# Stress axis : x y z
#
# Youngs Moduli (GPa) = 73.35682 15.12675 52.48586
#
# Poissons Ratio (x) = 0.12173 0.21648
# Poissons Ratio (y) = 0.59032 0.73848
# Poissons Ratio (z) = 0.30257 0.21284
#
# Static dielectric constant tensor:
#      x y z
#    x 3.692480 0.000000 0.098550 
#    y 0.000000 2.924000 0.000000 
#    z 0.098550 0.000000 3.170610 
# 
# 
# High freq. dielectric constant tensor:
#      x y z
#    x 1.696820 0.000000 -0.004180 
#    y 0.000000 1.646510 0.000000 
#    z -0.004180 0.000000 1.663820 
# 
# From -- ./inp_files/26442.got.cif
#   From: 2010.06.25/outbox.cif.g09.slc.cpg/sg11_14_cif.got.tgz:26442.got - 2010.06.27 23:14:04.
