data_PCOD8069549
_publ_section_title
;
Structure prediction by ZEFSAII (Michael W. Deem and Ramdas Pophale) SiO2 
 PCOD8069549
Probable space group: P 21/M
;
_chemical_formula_sum "Si O2"
_cell_formula_units_Z 32
_cell_length_a 11.859199
_cell_length_b 8.910380
_cell_length_c 28.870577
_cell_angle_alpha 90.000000
_cell_angle_beta 148.591390
_cell_angle_gamma 90.000000
_cell_volume 1589.862982
_symmetry_space_group_name_H-M "P 21/M"
_symmetry_group_IT_number 11
_symmetry_cell_setting 'monoclinic'
loop_
_space_group_symop_operation_xyz
x,y,z
-x,1/2+y,-z
-x,-y,-z
x,1/2-y,z
loop_
_atom_site_type_symbol
_atom_site_label
_atom_site_fract_x
_atom_site_fract_y
_atom_site_fract_z
Si Si1 0.586824 0.574572 0.656394
Si Si2 0.737978 0.078819 0.974086
Si Si3 0.830878 0.927637 0.831131
Si Si4 0.416271 0.072508 0.166710
Si Si5 0.030095 0.074906 0.272737
Si Si6 0.875915 0.571560 0.500097
Si Si7 0.101029 0.571689 0.672801
Si Si8 0.364582 0.078138 0.912347
O O1 0.526836 0.750000 0.641310
O O2 0.742905 0.512882 0.751663
O O3 0.372101 0.477085 0.583859
O O4 0.722058 0.546492 0.656521
O O5 0.792459 0.250000 0.980229
O O6 0.504016 0.063375 0.914738
O O7 0.743072 0.983730 0.929126
O O8 0.924000 0.015657 0.073842
O O9 0.828185 0.750000 0.828783
O O10 0.673347 0.988043 0.816108
O O11 0.420208 0.250000 0.166771
O O12 0.656409 0.006959 0.243984
O O13 0.972121 0.250000 0.250218
O O14 0.009791 0.013233 0.318327
O O15 0.865626 0.997118 0.179117
O O16 0.893178 0.750000 0.501388
O O17 0.000000 0.500000 0.500000
O O18 0.979120 0.512339 0.584385
O O19 0.100048 0.750000 0.671992
O O20 0.326655 0.250000 0.913278
O O21 0.500000 0.000000 0.000000
#
# Coordination Sequence:
#
# PCOD8069549 Si02
#       8
#     4   4   4   4   4   4   4   4
#     4  10  21  39  62  86 115 152 193 240 296 356
#     4  10  20  34  51  78 112 145 188 239 289 337
#     4   9  18  33  53  77 110 152 190 229 287 351
#     4  10  18  32  55  78 106 147 190 231 281 347
#     4  10  20  38  62  85 114 155 199 241 294 359
#     4  11  23  41  64  90 120 154 194 243 294 354
#     4   9  19  36  59  85 116 154 195 240 298 358
#     4  11  22  35  54  80 115 158 200 248 295 342
#
# _framework density 20.127521999999999
#
# number of rings (size 3 to 8) (size 9 to 14) (size 15 to 20)
#    0.000    2.000    1.250    2.625    0.000    5.500 
#    0.000    5.000    0.000    0.000    0.000    0.000 
#    0.000    0.000    0.000    0.000    0.000    0.000 
#
# Total GULP energy -396743.605714 kJ/mol
# GULP energy per Si atom -12398.237679 kJ/mol
# Density = 2.008171 g / cm^3
# Si number density = 20.127522 Si / 1000 Ang^3
#
#
#
# Elastic Constant Matrix: (Units=GPa)
#
#
# Indices 1 2 3 4 5 6 
#
# 1 103.6907 29.5120 46.2286 0.0000 1.0921 0.0000
# 2 29.5120 52.5331 26.5388 0.0000 0.9057 0.0000
# 3 46.2286 26.5388 124.6532 0.0000 -1.0841 0.0000
# 4 0.0000 0.0000 0.0000 31.8593 0.0000 0.1721
# 5 1.0921 0.9057 -1.0841 0.0000 39.2572 0.0000
# 6 0.0000 0.0000 0.0000 0.1721 0.0000 21.6030
#
#
#
# Elastic Compliance Matrix: (Units=1/GPa)
#
#
# Indices 1 2 3 4 5 6 
#
# 1 0.012777 -0.005352 -0.003602 0.000000 -0.000331 0.000000
# 2 -0.005352 0.023587 -0.003041 0.000000 -0.000479 0.000000
# 3 -0.003602 -0.003041 0.010009 0.000000 0.000447 0.000000
# 4 0.000000 0.000000 0.000000 0.031389 0.000000 -0.000250
# 5 -0.000331 -0.000479 0.000447 0.000000 0.025506 0.000000
# 6 0.000000 0.000000 0.000000 -0.000250 0.000000 0.046292
#
#
# Mechanical properties :
#
#
# Convention : Reuss Voigt Hill
#
# Bulk Modulus (GPa) = 44.67691 53.93732 49.30712
# Shear Modulus (GPa) = 27.62264 30.45039 29.03652
#
# Velocity S-wave (km/s) = 3.70859 3.89379 3.80231
# Velocity P-wave (km/s) = 6.37050 6.86086 6.62022
#
# Compressibility (1/GPa) = 0.02238293
#
# Stress axis : x y z
#
# Youngs Moduli (GPa) = 78.26753 42.39624 99.90763
#
# Poissons Ratio (x) = 0.22692 0.35983
# Poissons Ratio (y) = 0.41893 0.30381
# Poissons Ratio (z) = 0.28189 0.12892
#
# Static dielectric constant tensor:
#      x y z
#    x 3.942530 0.000000 -0.042350 
#    y 0.000000 3.314180 0.000000 
#    z -0.042350 0.000000 3.799850 
# 
# 
# High freq. dielectric constant tensor:
#      x y z
#    x 1.801750 0.000000 0.000940 
#    y 0.000000 1.750460 0.000000 
#    z 0.000940 0.000000 1.789930 
# 
# From -- ./inp_files/38204.got.cif
#   From: 2010.06.25/outbox.cif.g09.slc.cpg/sg11_20_cif.got.tgz:38204.got - 2010.06.27 23:14:04.
