data_PCOD8069999
_publ_section_title
;
Structure prediction by ZEFSAII (Michael W. Deem and Ramdas Pophale) SiO2 
 PCOD8069999
Probable space group: P 21/M
;
_chemical_formula_sum "Si O2"
_cell_formula_units_Z 32
_cell_length_a 13.596840
_cell_length_b 8.958039
_cell_length_c 26.824370
_cell_angle_alpha 90.000000
_cell_angle_beta 39.291004
_cell_angle_gamma 90.000000
_cell_volume 2069.007607
_symmetry_space_group_name_H-M "P 21/M"
_symmetry_group_IT_number 11
_symmetry_cell_setting 'monoclinic'
loop_
_space_group_symop_operation_xyz
x,y,z
-x,1/2+y,-z
-x,-y,-z
x,1/2-y,z
loop_
_atom_site_type_symbol
_atom_site_label
_atom_site_fract_x
_atom_site_fract_y
_atom_site_fract_z
Si Si1 0.986187 0.585317 0.430025
Si Si2 0.350797 0.077190 0.121537
Si Si3 0.739186 0.427110 0.743334
Si Si4 0.233578 0.584721 0.420628
Si Si5 0.110478 0.921449 0.021337
Si Si6 0.228132 0.077415 0.880232
Si Si7 0.300563 0.921468 0.041922
Si Si8 0.538430 0.573365 0.737989
O O1 0.920144 0.750000 0.444582
O O2 0.088207 0.526245 0.343357
O O3 0.099480 0.592582 0.432601
O O4 0.839418 0.479571 0.499378
O O5 0.313735 0.250000 0.145411
O O6 0.275120 0.979846 0.194648
O O7 0.273353 0.026720 0.100037
O O8 0.534251 0.044986 0.048566
O O9 0.716210 0.250000 0.747594
O O10 0.608550 0.504719 0.760930
O O11 0.299482 0.750000 0.405639
O O12 0.371778 0.480311 0.346691
O O13 0.149863 0.750000 0.992060
O O14 0.166607 0.959637 0.054909
O O15 0.926694 0.950742 0.091291
O O16 0.201158 0.027069 0.947608
O O17 0.277458 0.250000 0.861082
O O18 0.361348 0.979506 0.802380
O O19 0.293690 0.750000 0.062324
O O20 0.548408 0.750000 0.737591
#
# Coordination Sequence:
#
# PCOD8069999 Si02
#       8
#     4   4   4   4   4   4   4   4
#     4   8  15  26  39  57  81 110 141 171 207 250
#     4  10  19  29  44  66  88 111 142 178 214 254
#     4  10  19  30  44  62  86 115 146 179 213 251
#     4   9  16  26  40  58  81 110 143 175 208 248
#     4   9  18  32  48  64  84 113 146 180 217 255
#     4  10  19  30  45  65  87 111 144 182 217 255
#     4   9  18  32  46  60  83 114 145 177 214 254
#     4  11  20  29  42  60  86 117 147 179 214 253
#
# _framework density 15.466353
#
# number of rings (size 3 to 8) (size 9 to 14) (size 15 to 20)
#    0.000    2.500    0.000    4.125    0.000    6.000 
#    0.000    0.000    0.000    0.000    0.000    0.000 
#    0.000    1.000    0.000    3.000    0.000    4.250 
#
# Total GULP energy -396795.489419 kJ/mol
# GULP energy per Si atom -12399.859044 kJ/mol
# Density = 1.543115 g / cm^3
# Si number density = 15.466353 Si / 1000 Ang^3
#
#
#
# Elastic Constant Matrix: (Units=GPa)
#
#
# Indices 1 2 3 4 5 6 
#
# 1 64.8209 32.3279 38.6808 0.0000 1.4502 0.0000
# 2 32.3279 99.1514 56.6605 0.0000 -0.7522 0.0000
# 3 38.6808 56.6605 110.8213 0.0000 2.4577 0.0000
# 4 0.0000 0.0000 0.0000 30.0092 0.0000 1.0083
# 5 1.4502 -0.7522 2.4577 0.0000 14.3904 0.0000
# 6 0.0000 0.0000 0.0000 1.0083 0.0000 18.7677
#
#
#
# Elastic Compliance Matrix: (Units=1/GPa)
#
#
# Indices 1 2 3 4 5 6 
#
# 1 0.020403 -0.003688 -0.005206 0.000000 -0.001360 0.000000
# 2 -0.003688 0.014973 -0.006418 0.000000 0.002250 0.000000
# 3 -0.005206 -0.006418 0.014171 0.000000 -0.002231 0.000000
# 4 0.000000 0.000000 0.000000 0.033383 0.000000 -0.001794
# 5 -0.001360 0.002250 -0.002231 0.000000 0.070126 0.000000
# 6 0.000000 0.000000 0.000000 -0.001794 0.000000 0.053379
#
#
# Mechanical properties :
#
#
# Convention : Reuss Voigt Hill
#
# Bulk Modulus (GPa) = 52.84257 58.90356 55.87307
# Shear Modulus (GPa) = 20.54507 22.44176 21.49342
#
# Velocity S-wave (km/s) = 3.64864 3.81334 3.73190
# Velocity P-wave (km/s) = 7.21044 7.58659 7.40091
#
# Compressibility (1/GPa) = 0.01892413
#
# Stress axis : x y z
#
# Youngs Moduli (GPa) = 49.01183 66.78878 70.56479
#
# Poissons Ratio (x) = 0.24630 0.36735
# Poissons Ratio (y) = 0.18075 0.45288
# Poissons Ratio (z) = 0.25515 0.42864
#
# Static dielectric constant tensor:
#      x y z
#    x 2.636230 0.000000 -0.033160 
#    y 0.000000 3.123400 0.000000 
#    z -0.033160 0.000000 3.056450 
# 
# 
# High freq. dielectric constant tensor:
#      x y z
#    x 1.543690 0.000000 -0.001430 
#    y 0.000000 1.607980 0.000000 
#    z -0.001430 0.000000 1.592380 
# 
# From -- ./inp_files/71509.got.cif
#   From: 2010.06.25/outbox.cif.g09.slc.cpg/sg11_36_cif.got.tgz:71509.got - 2010.06.27 23:14:04.
