data_PCOD8069186
_publ_section_title
;
Structure prediction by ZEFSAII (Michael W. Deem and Ramdas Pophale) SiO2 
 PCOD8069186
Probable space group: P 21/M
;
_chemical_formula_sum "Si O2"
_cell_formula_units_Z 32
_cell_length_a 14.215819
_cell_length_b 14.604031
_cell_length_c 19.830154
_cell_angle_alpha 90.000000
_cell_angle_beta 21.590669
_cell_angle_gamma 90.000000
_cell_volume 1514.909965
_symmetry_space_group_name_H-M "P 21/M"
_symmetry_group_IT_number 11
_symmetry_cell_setting 'monoclinic'
loop_
_space_group_symop_operation_xyz
x,y,z
-x,1/2+y,-z
-x,-y,-z
x,1/2-y,z
loop_
_atom_site_type_symbol
_atom_site_label
_atom_site_fract_x
_atom_site_fract_y
_atom_site_fract_z
Si Si1 0.116587 0.568408 0.696220
Si Si2 0.513245 0.015981 0.238959
Si Si3 0.752393 0.348518 0.254756
Si Si4 0.511920 0.648214 0.341118
Si Si5 0.947327 0.144663 0.981772
Si Si6 0.326942 0.853554 0.104504
Si Si7 0.238874 0.391033 0.538125
Si Si8 0.535366 0.521829 0.075513
O O1 0.203085 0.579415 0.715737
O O2 0.249119 0.643049 0.558821
O O3 0.227369 0.473786 0.597466
O O4 0.811806 0.570397 0.892161
O O5 0.779663 0.072519 0.050774
O O6 0.312174 0.079089 0.412966
O O7 0.539766 0.921357 0.261007
O O8 0.416300 0.991629 0.228924
O O9 0.851661 0.250000 0.214695
O O10 0.913311 0.381781 0.083202
O O11 0.462088 0.331871 0.422748
O O12 0.530909 0.750000 0.297279
O O13 0.750403 0.631948 0.234133
O O14 0.860325 0.250000 0.024939
O O15 0.446545 0.750000 0.024603
O O16 0.353961 0.906082 0.157800
O O17 0.028384 0.838752 0.287039
O O18 0.462022 0.920645 0.960221
#
# Coordination Sequence:
#
# PCOD8069186 Si02
#       8
#     4   4   4   4   4   4   4   4
#     4  10  20  34  52  79 115 150 186 232 279 330
#     4  10  20  36  58  82 115 147 185 240 287 337
#     4  10  18  30  51  79 111 146 185 226 274 333
#     4  10  20  33  51  80 118 157 194 231 278 336
#     4   9  19  33  50  77 114 156 194 228 276 336
#     4  10  22  42  63  83 112 147 189 240 285 335
#     4   9  20  36  56  81 111 148 187 230 283 334
#     4  10  23  40  61  87 111 148 194 232 284 343
#
# _framework density 21.123369
#
# number of rings (size 3 to 8) (size 9 to 14) (size 15 to 20)
#    0.000    2.250    0.000    2.250    0.000    7.000 
#    0.000    1.250    0.000    0.000    0.000    0.000 
#    0.000    0.000    0.000    0.000    0.000    0.000 
#
# Total GULP energy -396579.693253 kJ/mol
# GULP energy per Si atom -12393.115414 kJ/mol
# Density = 2.107529 g / cm^3
# Si number density = 21.123369 Si / 1000 Ang^3
#
#
#
# Elastic Constant Matrix: (Units=GPa)
#
#
# Indices 1 2 3 4 5 6 
#
# 1 97.0145 34.4306 8.0325 0.0000 3.5014 0.0000
# 2 34.4306 103.9127 9.1310 0.0000 0.1619 0.0000
# 3 8.0325 9.1310 35.2992 0.0000 -0.6569 0.0000
# 4 0.0000 0.0000 0.0000 15.3495 0.0000 -7.3382
# 5 3.5014 0.1619 -0.6569 0.0000 18.0034 0.0000
# 6 0.0000 0.0000 0.0000 -7.3382 0.0000 11.3565
#
#
#
# Elastic Compliance Matrix: (Units=1/GPa)
#
#
# Indices 1 2 3 4 5 6 
#
# 1 0.011879 -0.003777 -0.001770 0.000000 -0.002341 0.000000
# 2 -0.003777 0.011049 -0.001988 0.000000 0.000563 0.000000
# 3 -0.001770 -0.001988 0.029273 0.000000 0.001430 0.000000
# 4 0.000000 0.000000 0.000000 0.094270 0.000000 0.060914
# 5 -0.002341 0.000563 0.001430 0.000000 0.056047 0.000000
# 6 0.000000 0.000000 0.000000 0.060914 0.000000 0.127416
#
#
# Mechanical properties :
#
#
# Convention : Reuss Voigt Hill
#
# Bulk Modulus (GPa) = 26.93148 37.71272 32.32210
# Shear Modulus (GPa) = 13.99068 21.25071 17.62070
#
# Velocity S-wave (km/s) = 2.57637 3.17524 2.89135
# Velocity P-wave (km/s) = 4.65054 5.59778 5.14600
#
# Compressibility (1/GPa) = 0.03713127
#
# Stress axis : x y z
#
# Youngs Moduli (GPa) = 84.18082 90.50815 34.16138
#
# Poissons Ratio (x) = 0.34184 0.06046
# Poissons Ratio (y) = 0.31794 0.06792
# Poissons Ratio (z) = 0.14898 0.17994
#
# Static dielectric constant tensor:
#      x y z
#    x 3.599150 0.000000 -0.014640 
#    y 0.000000 4.124060 0.000000 
#    z -0.014640 0.000000 3.931710 
# 
# 
# High freq. dielectric constant tensor:
#      x y z
#    x 1.805350 0.000000 0.004900 
#    y 0.000000 1.836490 0.000000 
#    z 0.004900 0.000000 1.818970 
# 
# From -- ./inp_files/65758.got.cif
#   From: 2010.06.25/outbox.cif.g09.slc.cpg/sg11_33_cif.got.tgz:65758.got - 2010.06.27 23:14:04.
