data_PCOD8069931
_publ_section_title
;
Structure prediction by ZEFSAII (Michael W. Deem and Ramdas Pophale) SiO2 
 PCOD8069931
Probable space group: P 21/M
;
_chemical_formula_sum "Si O2"
_cell_formula_units_Z 32
_cell_length_a 15.698608
_cell_length_b 9.070255
_cell_length_c 29.933196
_cell_angle_alpha 90.000000
_cell_angle_beta 150.197479
_cell_angle_gamma 90.000000
_cell_volume 2118.364697
_symmetry_space_group_name_H-M "P 21/M"
_symmetry_group_IT_number 11
_symmetry_cell_setting 'monoclinic'
loop_
_space_group_symop_operation_xyz
x,y,z
-x,1/2+y,-z
-x,-y,-z
x,1/2-y,z
loop_
_atom_site_type_symbol
_atom_site_label
_atom_site_fract_x
_atom_site_fract_y
_atom_site_fract_z
Si Si1 0.705365 0.416822 0.686031
Si Si2 0.242761 0.578889 0.862202
Si Si3 0.838361 0.921705 0.831122
Si Si4 0.762981 0.418240 0.979496
Si Si5 0.904226 0.422358 0.685133
Si Si6 0.175782 0.920435 0.089876
Si Si7 0.390877 0.079745 0.487528
Si Si8 0.608397 0.920271 0.987850
O O1 0.746426 0.250000 0.720013
O O2 0.753886 0.529678 0.746572
O O3 0.816352 0.455268 0.692743
O O4 0.501142 0.433583 0.583353
O O5 0.196145 0.750000 0.846185
O O6 0.409797 0.553424 0.908059
O O7 0.091163 0.493610 0.768585
O O8 0.270893 0.512883 0.924193
O O9 0.808062 0.750000 0.824225
O O10 0.039151 0.961930 0.922214
O O11 0.742727 0.004697 0.828900
O O12 0.732033 0.250000 0.980437
O O13 0.710267 0.438492 0.903253
O O14 0.642094 0.525266 0.952997
O O15 0.917618 0.250000 0.681176
O O16 0.793247 0.498298 0.594759
O O17 0.140409 0.750000 0.083818
O O18 0.000000 0.000000 0.000000
O O19 0.364246 0.250000 0.462355
O O20 0.500000 0.000000 0.500000
O O21 0.659120 0.750000 0.015994
#
# Coordination Sequence:
#
# PCOD8069931 Si02
#       8
#     4   4   4   4   4   4   4   4
#     4   9  18  29  41  60  85 112 141 171 205 246
#     4  10  20  32  44  60  84 112 142 177 214 249
#     4  10  19  28  41  62  85 111 142 173 207 245
#     4   9  18  30  43  60  82 111 143 173 209 249
#     4  10  19  30  45  63  82 110 146 178 212 251
#     4   9  17  29  43  59  81 108 138 171 207 247
#     4   9  17  29  43  60  84 112 141 174 210 248
#     4  10  20  31  44  62  83 110 143 178 213 247
#
# _framework density 15.105992000000001
#
# number of rings (size 3 to 8) (size 9 to 14) (size 15 to 20)
#    0.000    2.500    0.000    4.500    0.000    9.500 
#    0.000    0.000    0.000    0.000    0.000    0.000 
#    0.000    1.000    0.000    3.250    0.000    4.000 
#
# Total GULP energy -396696.429835 kJ/mol
# GULP energy per Si atom -12396.763432 kJ/mol
# Density = 1.507161 g / cm^3
# Si number density = 15.105992 Si / 1000 Ang^3
#
#
#
# Elastic Constant Matrix: (Units=GPa)
#
#
# Indices 1 2 3 4 5 6 
#
# 1 65.4331 42.4230 21.9870 0.0000 -7.1658 0.0000
# 2 42.4230 108.2620 44.3604 0.0000 -2.3572 0.0000
# 3 21.9870 44.3604 72.4053 0.0000 0.5657 0.0000
# 4 0.0000 0.0000 0.0000 28.1742 0.0000 -2.5385
# 5 -7.1658 -2.3572 0.5657 0.0000 15.3859 0.0000
# 6 0.0000 0.0000 0.0000 -2.5385 0.0000 25.7530
#
#
#
# Elastic Compliance Matrix: (Units=1/GPa)
#
#
# Indices 1 2 3 4 5 6 
#
# 1 0.021852 -0.007499 -0.002112 0.000000 0.009106 0.000000
# 2 -0.007499 0.014979 -0.006893 0.000000 -0.000944 0.000000
# 3 -0.002112 -0.006893 0.018697 0.000000 -0.002727 0.000000
# 4 0.000000 0.000000 0.000000 0.035812 0.000000 0.003530
# 5 0.009106 -0.000944 -0.002727 0.000000 0.069191 0.000000
# 6 0.000000 0.000000 0.000000 0.003530 0.000000 0.039178
#
#
# Mechanical properties :
#
#
# Convention : Reuss Voigt Hill
#
# Bulk Modulus (GPa) = 44.40568 51.51567 47.96067
# Shear Modulus (GPa) = 20.81397 23.01794 21.91596
#
# Velocity S-wave (km/s) = 3.71598 3.90777 3.81309
# Velocity P-wave (km/s) = 6.91891 7.38497 7.15573
#
# Compressibility (1/GPa) = 0.02251964
#
# Stress axis : x y z
#
# Youngs Moduli (GPa) = 45.76312 66.76015 53.48498
#
# Poissons Ratio (x) = 0.50062 0.11299
# Poissons Ratio (y) = 0.34317 0.36865
# Poissons Ratio (z) = 0.09667 0.46015
#
# Static dielectric constant tensor:
#      x y z
#    x 2.342390 0.000000 0.150940 
#    y 0.000000 3.126640 0.000000 
#    z 0.150940 0.000000 2.747140 
# 
# 
# High freq. dielectric constant tensor:
#      x y z
#    x 1.547600 0.000000 -0.011350 
#    y 0.000000 1.599380 0.000000 
#    z -0.011350 0.000000 1.558040 
# 
# From -- ./inp_files/51222.got.cif
#   From: 2010.06.25/outbox.cif.g09.slc.cpg/sg11_26_cif.got.tgz:51222.got - 2010.06.27 23:14:04.
