data_PCOD8069836
_publ_section_title
;
Structure prediction by ZEFSAII (Michael W. Deem and Ramdas Pophale) SiO2 
 PCOD8069836
Probable space group: P 21/M
;
_chemical_formula_sum "Si O2"
_cell_formula_units_Z 20
_cell_length_a 9.055492
_cell_length_b 17.981907
_cell_length_c 12.149171
_cell_angle_alpha 90.000000
_cell_angle_beta 144.597437
_cell_angle_gamma 90.000000
_cell_volume 1146.070126
_symmetry_space_group_name_H-M "P 21/M"
_symmetry_group_IT_number 11
_symmetry_cell_setting 'monoclinic'
loop_
_space_group_symop_operation_xyz
x,y,z
-x,1/2+y,-z
-x,-y,-z
x,1/2-y,z
loop_
_atom_site_type_symbol
_atom_site_label
_atom_site_fract_x
_atom_site_fract_y
_atom_site_fract_z
Si Si1 0.659111 0.054305 0.236078
Si Si2 0.988224 0.577483 0.352160
Si Si3 0.763799 0.028182 0.708507
Si Si4 0.762140 0.439369 0.949695
Si Si5 0.504597 0.163151 0.955568
O O1 0.786654 0.086390 0.423221
O O2 0.852276 0.002503 0.284787
O O3 0.406372 0.008793 0.111552
O O4 0.585198 0.124173 0.117523
O O5 0.789571 0.644239 0.249743
O O6 0.104704 0.581869 0.300939
O O7 0.717908 0.074385 0.792719
O O8 0.500000 0.000000 0.500000
O O9 0.942699 0.957374 0.845902
O O10 0.681365 0.364301 0.962477
O O11 0.542698 0.250000 0.992799
#
# Coordination Sequence:
#
# PCOD8069836 Si02
#       5
#     4   4   4   4   4
#     4  10  18  35  58  81 105 140 185 237 265 311
#     4  10  19  34  58  84 108 136 186 230 271 316
#     4  11  19  32  58  87 107 136 176 238 279 311
#     4  10  20  34  57  84 107 140 189 226 274 322
#     4  11  22  37  55  78 114 149 180 225 274 330
#
# _framework density 17.450939000000002
#
# number of rings (size 3 to 8) (size 9 to 14) (size 15 to 20)
#    0.000    1.600    6.000    1.200    0.000    0.800 
#    0.000    1.000    0.000    1.200    0.000    0.000 
#    0.000    0.000    0.000    0.000    0.000    0.000 
#
# Total GULP energy -248049.729520 kJ/mol
# GULP energy per Si atom -12402.486476 kJ/mol
# Density = 1.741122 g / cm^3
# Si number density = 17.450939 Si / 1000 Ang^3
#
#
#
# Elastic Constant Matrix: (Units=GPa)
#
#
# Indices 1 2 3 4 5 6 
#
# 1 104.8131 34.3717 29.8061 0.0000 -22.9583 0.0000
# 2 34.3717 103.9962 36.5950 0.0000 -12.0603 0.0000
# 3 29.8061 36.5950 120.8812 0.0000 -6.7421 0.0000
# 4 0.0000 0.0000 0.0000 12.6017 0.0000 -3.0977
# 5 -22.9583 -12.0603 -6.7421 0.0000 34.0915 0.0000
# 6 0.0000 0.0000 0.0000 -3.0977 0.0000 14.6719
#
#
#
# Elastic Compliance Matrix: (Units=1/GPa)
#
#
# Indices 1 2 3 4 5 6 
#
# 1 0.012502 -0.002644 -0.001886 0.000000 0.007111 0.000000
# 2 -0.002644 0.011678 -0.002783 0.000000 0.001800 0.000000
# 3 -0.001886 -0.002783 0.009560 0.000000 -0.000364 0.000000
# 4 0.000000 0.000000 0.000000 0.083698 0.000000 0.017671
# 5 0.007111 0.001800 -0.000364 0.000000 0.034686 0.000000
# 6 0.000000 0.000000 0.000000 0.017671 0.000000 0.071889
#
#
# Mechanical properties :
#
#
# Convention : Reuss Voigt Hill
#
# Bulk Modulus (GPa) = 52.31677 59.02622 55.67150
# Shear Modulus (GPa) = 20.40751 27.53419 23.97085
#
# Velocity S-wave (km/s) = 3.42339 3.97647 3.71025
# Velocity P-wave (km/s) = 6.75800 7.41489 7.09405
#
# Compressibility (1/GPa) = 0.01911433
#
# Stress axis : x y z
#
# Youngs Moduli (GPa) = 79.99028 85.63418 104.60552
#
# Poissons Ratio (x) = 0.22639 0.19724
# Poissons Ratio (y) = 0.21147 0.29111
# Poissons Ratio (z) = 0.15083 0.23831
#
# Static dielectric constant tensor:
#      x y z
#    x 3.538030 0.000000 -0.040280 
#    y 0.000000 2.709320 0.000000 
#    z -0.040280 0.000000 3.506540 
# 
# 
# High freq. dielectric constant tensor:
#      x y z
#    x 1.690990 0.000000 -0.005450 
#    y 0.000000 1.613190 0.000000 
#    z -0.005450 0.000000 1.697950 
# 
# From -- ./inp_files/12905.got.cif
#   From: 2010.06.25/outbox.cif.g09.slc.cpg/sg11_7_cif.got.tgz:12905.got - 2010.06.27 23:14:04.
