data_PCOD8069630
_publ_section_title
;
Structure prediction by ZEFSAII (Michael W. Deem and Ramdas Pophale) SiO2 
 PCOD8069630
Probable space group: P 21/M
;
_chemical_formula_sum "Si O2"
_cell_formula_units_Z 32
_cell_length_a 20.111104
_cell_length_b 9.036113
_cell_length_c 25.220624
_cell_angle_alpha 90.000000
_cell_angle_beta 157.049248
_cell_angle_gamma 90.000000
_cell_volume 1787.190833
_symmetry_space_group_name_H-M "P 21/M"
_symmetry_group_IT_number 11
_symmetry_cell_setting 'monoclinic'
loop_
_space_group_symop_operation_xyz
x,y,z
-x,1/2+y,-z
-x,-y,-z
x,1/2-y,z
loop_
_atom_site_type_symbol
_atom_site_label
_atom_site_fract_x
_atom_site_fract_y
_atom_site_fract_z
Si Si1 0.151608 0.574538 0.143276
Si Si2 0.636654 0.078520 0.136650
Si Si3 0.973276 0.424946 0.835724
Si Si4 0.358797 0.077165 0.122850
Si Si5 0.838069 0.075001 0.625507
Si Si6 0.468589 0.575809 0.101350
Si Si7 0.536675 0.577331 0.681843
Si Si8 0.863621 0.080913 0.209849
O O1 0.136982 0.750000 0.125498
O O2 0.134373 0.526107 0.192034
O O3 0.332424 0.518095 0.256046
O O4 0.000000 0.500000 0.000000
O O5 0.588842 0.250000 0.108156
O O6 0.816597 0.060983 0.237774
O O7 0.629567 0.998832 0.188758
O O8 0.500000 0.000000 0.000000
O O9 0.981172 0.250000 0.838398
O O10 0.883852 0.489491 0.717343
O O11 0.165955 0.485285 0.981689
O O12 0.364222 0.250000 0.112384
O O13 0.441975 0.044994 0.240543
O O14 0.467669 0.986989 0.159967
O O15 0.849083 0.250000 0.632916
O O16 0.649801 0.021974 0.471944
O O17 0.971386 0.016928 0.680173
O O18 0.497685 0.750000 0.123447
O O19 0.293019 0.530873 0.942884
O O20 0.567147 0.750000 0.691740
O O21 0.908764 0.250000 0.230388
#
# Coordination Sequence:
#
# PCOD8069630 Si02
#       8
#     4   4   4   4   4   4   4   4
#     4  11  21  36  57  79 106 138 175 218 263 313
#     4   9  17  29  46  73 108 143 174 216 267 312
#     4   9  18  33  54  78 101 134 175 213 258 312
#     4  10  18  33  54  74 103 138 171 214 264 313
#     4  10  20  35  55  76 103 139 177 213 256 314
#     4  10  19  30  48  79 109 134 175 224 260 309
#     4  10  22  38  54  78 107 136 174 217 262 316
#     4   9  18  31  48  74 108 137 169 213 259 305
#
# _framework density 17.905196
#
# number of rings (size 3 to 8) (size 9 to 14) (size 15 to 20)
#    0.000    2.250    2.500    1.875    0.000    4.000 
#    0.000    1.250    0.000    0.750    0.000    0.000 
#    0.000    0.000    0.000    0.000    0.000    0.000 
#
# Total GULP energy -396760.105794 kJ/mol
# GULP energy per Si atom -12398.753306 kJ/mol
# Density = 1.786444 g / cm^3
# Si number density = 17.905196 Si / 1000 Ang^3
#
#
#
# Elastic Constant Matrix: (Units=GPa)
#
#
# Indices 1 2 3 4 5 6 
#
# 1 156.1909 59.6946 59.2630 0.0000 9.8446 0.0000
# 2 59.6946 68.6228 35.7509 0.0000 7.1662 0.0000
# 3 59.2630 35.7509 107.7871 0.0000 -0.6221 0.0000
# 4 0.0000 0.0000 0.0000 18.4902 0.0000 8.4271
# 5 9.8446 7.1662 -0.6221 0.0000 23.6101 0.0000
# 6 0.0000 0.0000 0.0000 8.4271 0.0000 32.7512
#
#
#
# Elastic Compliance Matrix: (Units=1/GPa)
#
#
# Indices 1 2 3 4 5 6 
#
# 1 0.010608 -0.007179 -0.003465 0.000000 -0.002336 0.000000
# 2 -0.007179 0.023219 -0.003778 0.000000 -0.004154 0.000000
# 3 -0.003465 -0.003778 0.012453 0.000000 0.002920 0.000000
# 4 0.000000 0.000000 0.000000 0.061268 0.000000 -0.015764
# 5 -0.002336 -0.004154 0.002920 0.000000 0.044666 0.000000
# 6 0.000000 0.000000 0.000000 -0.015764 0.000000 0.034589
#
#
# Mechanical properties :
#
#
# Convention : Reuss Voigt Hill
#
# Bulk Modulus (GPa) = 57.35264 71.33531 64.34397
# Shear Modulus (GPa) = 22.57751 26.82980 24.70365
#
# Velocity S-wave (km/s) = 3.55483 3.87516 3.71845
# Velocity P-wave (km/s) = 6.99642 7.74271 7.37901
#
# Compressibility (1/GPa) = 0.01743599
#
# Stress axis : x y z
#
# Youngs Moduli (GPa) = 94.26896 43.06731 80.30434
#
# Poissons Ratio (x) = 0.30917 0.27824
# Poissons Ratio (y) = 0.67674 0.30342
# Poissons Ratio (z) = 0.32663 0.16273
#
# Static dielectric constant tensor:
#      x y z
#    x 3.626810 0.000000 0.029880 
#    y 0.000000 3.218800 0.000000 
#    z 0.029880 0.000000 3.172230 
# 
# 
# High freq. dielectric constant tensor:
#      x y z
#    x 1.710550 0.000000 0.008060 
#    y 0.000000 1.684830 0.000000 
#    z 0.008060 0.000000 1.658980 
# 
# From -- ./inp_files/72130.got.cif
#   From: 2010.06.25/outbox.cif.g09.slc.cpg/sg11_37_cif.got.tgz:72130.got - 2010.06.27 23:14:04.
