data_PCOD8069379
_publ_section_title
;
Structure prediction by ZEFSAII (Michael W. Deem and Ramdas Pophale) SiO2 
 PCOD8069379
Probable space group: P 21/M
;
_chemical_formula_sum "Si O2"
_cell_formula_units_Z 28
_cell_length_a 14.323540
_cell_length_b 8.884597
_cell_length_c 14.235747
_cell_angle_alpha 90.000000
_cell_angle_beta 60.060241
_cell_angle_gamma 90.000000
_cell_volume 1569.864976
_symmetry_space_group_name_H-M "P 21/M"
_symmetry_group_IT_number 11
_symmetry_cell_setting 'monoclinic'
loop_
_space_group_symop_operation_xyz
x,y,z
-x,1/2+y,-z
-x,-y,-z
x,1/2-y,z
loop_
_atom_site_type_symbol
_atom_site_label
_atom_site_fract_x
_atom_site_fract_y
_atom_site_fract_z
Si Si1 0.508843 0.427118 0.392314
Si Si2 0.107439 0.573440 0.404921
Si Si3 0.302441 0.925313 0.434868
Si Si4 0.181007 0.083123 0.647011
Si Si5 0.936347 0.077051 0.778562
Si Si6 0.714930 0.580778 0.212030
Si Si7 0.096258 0.073126 0.010774
O O1 0.500000 0.500000 0.500000
O O2 0.501218 0.250000 0.410315
O O3 0.414033 0.484155 0.370892
O O4 0.618241 0.468185 0.283280
O O5 0.093221 0.750000 0.428538
O O6 0.214918 0.514752 0.403566
O O7 0.128224 0.537131 0.284329
O O8 0.000000 0.500000 0.500000
O O9 0.326997 0.750000 0.410450
O O10 0.255559 0.957714 0.561917
O O11 0.210424 0.250000 0.592921
O O12 0.197714 0.078261 0.749231
O O13 0.058440 0.043838 0.687858
O O14 0.920401 0.250000 0.817251
O O15 0.900985 0.972937 0.881859
O O16 0.668527 0.750000 0.221634
O O17 0.785225 0.526924 0.087501
O O18 0.079186 0.250000 0.010616
O O19 0.000000 0.000000 0.000000
#
# Coordination Sequence:
#
# PCOD8069379 Si02
#       7
#     4   4   4   4   4   4   4
#     4  12  24  37  56  81 109 145 183 226 277 330
#     4  10  21  35  55  82 113 149 187 227 275 325
#     4  11  22  35  53  81 113 147 186 226 270 327
#     4  10  18  31  53  78 112 150 180 219 269 322
#     4  10  20  36  54  79 115 150 183 225 272 323
#     4  10  21  37  54  78 112 146 181 224 273 323
#     4  11  22  36  56  82 112 147 184 225 275 328
#
# _framework density 17.835927999999999
#
# number of rings (size 3 to 8) (size 9 to 14) (size 15 to 20)
#    0.000    1.429    4.286    2.143    0.000    2.857 
#    0.000    0.000    0.000    0.857    0.000    0.000 
#    0.000    0.000    0.000    0.000    0.000    0.000 
#
# Total GULP energy -347161.344482 kJ/mol
# GULP energy per Si atom -12398.619446 kJ/mol
# Density = 1.779533 g / cm^3
# Si number density = 17.835928 Si / 1000 Ang^3
#
#
#
# Elastic Constant Matrix: (Units=GPa)
#
#
# Indices 1 2 3 4 5 6 
#
# 1 111.5492 46.4186 43.9972 0.0000 -3.4172 0.0000
# 2 46.4186 86.4768 43.4480 0.0000 -9.8580 0.0000
# 3 43.9972 43.4480 97.8227 0.0000 -1.3347 0.0000
# 4 0.0000 0.0000 0.0000 30.6729 0.0000 -2.7131
# 5 -3.4172 -9.8580 -1.3347 0.0000 20.6531 0.0000
# 6 0.0000 0.0000 0.0000 -2.7131 0.0000 26.8694
#
#
#
# Elastic Compliance Matrix: (Units=1/GPa)
#
#
# Indices 1 2 3 4 5 6 
#
# 1 0.012351 -0.005020 -0.003333 0.000000 -0.000568 0.000000
# 2 -0.005020 0.017908 -0.005596 0.000000 0.007356 0.000000
# 3 -0.003333 -0.005596 0.014176 0.000000 -0.002306 0.000000
# 4 0.000000 0.000000 0.000000 0.032896 0.000000 0.003322
# 5 -0.000568 0.007356 -0.002306 0.000000 0.051687 0.000000
# 6 0.000000 0.000000 0.000000 0.003322 0.000000 0.037552
#
#
# Mechanical properties :
#
#
# Convention : Reuss Voigt Hill
#
# Bulk Modulus (GPa) = 60.46992 62.61958 61.54475
# Shear Modulus (GPa) = 25.00252 26.43807 25.72030
#
# Velocity S-wave (km/s) = 3.74813 3.85423 3.80155
# Velocity P-wave (km/s) = 7.26005 7.41564 7.33826
#
# Compressibility (1/GPa) = 0.01653715
#
# Stress axis : x y z
#
# Youngs Moduli (GPa) = 80.96674 55.84021 70.54320
#
# Poissons Ratio (x) = 0.28030 0.23514
# Poissons Ratio (y) = 0.40642 0.39476
# Poissons Ratio (z) = 0.26988 0.31248
#
# Static dielectric constant tensor:
#      x y z
#    x 3.467100 0.000000 0.062900 
#    y 0.000000 3.298370 0.000000 
#    z 0.062900 0.000000 3.237190 
# 
# 
# High freq. dielectric constant tensor:
#      x y z
#    x 1.686400 0.000000 -0.000750 
#    y 0.000000 1.691050 0.000000 
#    z -0.000750 0.000000 1.674660 
# 
# From -- ./inp_files/51119.got.cif
#   From: 2010.06.25/outbox.cif.g09.slc.cpg/sg11_26_cif.got.tgz:51119.got - 2010.06.27 23:14:04.
