data_PCOD8069081
_publ_section_title
;
Structure prediction by ZEFSAII (Michael W. Deem and Ramdas Pophale) SiO2 
 PCOD8069081
Probable space group: P 21/M
;
_chemical_formula_sum "Si O2"
_cell_formula_units_Z 24
_cell_length_a 29.154758
_cell_length_b 7.580023
_cell_length_c 21.347567
_cell_angle_alpha 90.000000
_cell_angle_beta 16.781688
_cell_angle_gamma 90.000000
_cell_volume 1362.115612
_symmetry_space_group_name_H-M "P 21/M"
_symmetry_group_IT_number 11
_symmetry_cell_setting 'monoclinic'
loop_
_space_group_symop_operation_xyz
x,y,z
-x,1/2+y,-z
-x,-y,-z
x,1/2-y,z
loop_
_atom_site_type_symbol
_atom_site_label
_atom_site_fract_x
_atom_site_fract_y
_atom_site_fract_z
Si Si1 0.408342 0.250000 0.964914
Si Si2 0.746586 0.250000 0.457543
Si Si3 0.846757 0.951161 0.410688
Si Si4 0.846759 0.451161 0.910686
Si Si5 0.514174 0.549226 0.909638
Si Si6 0.746587 0.750000 0.957542
Si Si7 0.408344 0.750000 0.464912
Si Si8 0.485824 0.950774 0.590365
O O1 0.262620 0.250000 0.106088
O O2 0.571229 0.250000 0.714397
O O3 0.397399 0.424615 0.022177
O O4 0.838452 0.424975 0.360452
O O5 0.737378 0.250000 0.393914
O O6 0.856865 0.750000 0.373622
O O7 0.695939 0.982242 0.652391
O O8 0.999998 0.005080 0.250002
O O9 0.856865 0.250000 0.873623
O O10 0.838452 0.575025 0.860451
O O11 0.695942 0.482244 0.152389
O O12 0.461093 0.750000 0.966944
O O13 0.500000 0.500000 0.000000
O O14 0.571229 0.750000 0.214395
O O15 0.397402 0.575385 0.522174
O O16 0.538904 0.750000 0.533060
O O17 0.500000 0.000000 0.500000
#
# Coordination Sequence:
#
# PCOD8069081 Si02
#       8
#     2   2   4   4   4   2   2   4
#     4   9  18  30  46  72  97 123 153 193 237 276
#     4   9  17  30  48  70  99 121 153 193 236 282
#     4   9  18  31  49  74  94 122 158 195 234 273
#     4   9  18  31  49  74  94 122 158 195 234 273
#     4  10  18  30  49  72  95 122 157 195 233 275
#     4   9  17  30  48  70  99 121 153 193 236 282
#     4   9  18  30  46  72  97 123 153 193 237 276
#     4  10  18  30  49  72  95 122 157 195 233 275
#
# _framework density 17.61965
#
# number of rings (size 3 to 8) (size 9 to 14) (size 15 to 20)
#    0.000    2.667    1.667    0.500    0.000    1.333 
#    0.000    6.667    0.000    2.000    0.000    0.000 
#    0.000    0.000    0.000    0.000    0.000    0.000 
#
# Total GULP energy -297573.036571 kJ/mol
# GULP energy per Si atom -12398.876524 kJ/mol
# Density = 1.757955 g / cm^3
# Si number density = 17.619650 Si / 1000 Ang^3
#
#
#
# Elastic Constant Matrix: (Units=GPa)
#
#
# Indices 1 2 3 4 5 6 
#
# 1 180.6879 102.1956 36.1492 0.0000 -17.3796 0.0000
# 2 102.1956 158.3995 31.8423 0.0000 -14.1479 0.0000
# 3 36.1492 31.8423 29.0247 0.0000 -9.3488 0.0000
# 4 0.0000 0.0000 0.0000 17.9439 0.0000 -4.8762
# 5 -17.3796 -14.1479 -9.3488 0.0000 23.1364 0.0000
# 6 0.0000 0.0000 0.0000 -4.8762 0.0000 30.7437
#
#
#
# Elastic Compliance Matrix: (Units=1/GPa)
#
#
# Indices 1 2 3 4 5 6 
#
# 1 0.009682 -0.004847 -0.006155 0.000000 0.001822 0.000000
# 2 -0.004847 0.010575 -0.005352 0.000000 0.000664 0.000000
# 3 -0.006155 -0.005352 0.052247 0.000000 0.013216 0.000000
# 4 0.000000 0.000000 0.000000 0.058239 0.000000 0.009237
# 5 0.001822 0.000664 0.013216 0.000000 0.050337 0.000000
# 6 0.000000 0.000000 0.000000 0.009237 0.000000 0.033992
#
#
# Mechanical properties :
#
#
# Convention : Reuss Voigt Hill
#
# Bulk Modulus (GPa) = 25.12686 78.72069 51.92378
# Shear Modulus (GPa) = 19.15381 27.55982 23.35681
#
# Velocity S-wave (km/s) = 3.30065 3.95923 3.64484
# Velocity P-wave (km/s) = 5.36819 8.10404 6.87360
#
# Compressibility (1/GPa) = 0.03979804
#
# Stress axis : x y z
#
# Youngs Moduli (GPa) = 103.28089 94.56031 19.13998
#
# Poissons Ratio (x) = 0.45831 0.11780
# Poissons Ratio (y) = 0.50058 0.10243
# Poissons Ratio (z) = 0.63566 0.50605
#
# Static dielectric constant tensor:
#      x y z
#    x 3.499810 0.000000 -0.137640 
#    y 0.000000 3.599940 0.000000 
#    z -0.137640 0.000000 2.984190 
# 
# 
# High freq. dielectric constant tensor:
#      x y z
#    x 1.677220 0.000000 -0.006220 
#    y 0.000000 1.701770 0.000000 
#    z -0.006220 0.000000 1.639340 
# 
# From -- ./inp_files/61878.got.cif
#   From: 2010.06.25/outbox.cif.g09.slc.cpg/sg11_31_cif.got.tgz:61878.got - 2010.06.27 23:14:04.
