data_PCOD8069042
_publ_section_title
;
Structure prediction by ZEFSAII (Michael W. Deem and Ramdas Pophale) SiO2 
 PCOD8069042
Probable space group: P 21/M
;
_chemical_formula_sum "Si O2"
_cell_formula_units_Z 24
_cell_length_a 11.316426
_cell_length_b 8.632272
_cell_length_c 20.044618
_cell_angle_alpha 90.000000
_cell_angle_beta 43.177668
_cell_angle_gamma 90.000000
_cell_volume 1339.846970
_symmetry_space_group_name_H-M "P 21/M"
_symmetry_group_IT_number 11
_symmetry_cell_setting 'monoclinic'
loop_
_space_group_symop_operation_xyz
x,y,z
-x,1/2+y,-z
-x,-y,-z
x,1/2-y,z
loop_
_atom_site_type_symbol
_atom_site_label
_atom_site_fract_x
_atom_site_fract_y
_atom_site_fract_z
Si Si1 0.607695 0.568350 0.679842
Si Si2 0.685604 0.067970 0.909237
Si Si3 0.823995 0.433816 0.711280
Si Si4 0.745358 0.929302 0.146630
Si Si5 0.889135 0.066257 0.485174
Si Si6 0.120598 0.930397 0.039051
O O1 0.640262 0.750000 0.671614
O O2 0.686933 0.487696 0.712553
O O3 0.405552 0.530899 0.758642
O O4 0.696877 0.502451 0.575256
O O5 0.665339 0.250000 0.913391
O O6 0.759597 0.003559 0.809175
O O7 0.818029 0.019609 0.912964
O O8 0.500000 0.000000 0.000000
O O9 0.839304 0.250000 0.702913
O O10 0.015498 0.506222 0.620837
O O11 0.695007 0.750000 0.172557
O O12 0.918091 0.969156 0.116692
O O13 0.770058 0.971521 0.058999
O O14 0.882585 0.250000 0.488782
O O15 0.000000 0.000000 0.500000
O O16 0.155173 0.750000 0.010081
#
# Coordination Sequence:
#
# PCOD8069042 Si02
#       6
#     4   4   4   4   4   4
#     4  11  20  31  49  73 100 128 161 200 242 287
#     4  10  21  34  50  72  99 131 162 195 235 284
#     4  10  19  32  49  72 101 130 161 197 241 288
#     4  10  19  32  51  73  97 126 162 204 243 283
#     4  10  18  30  48  71  98 127 160 198 242 287
#     4   9  19  35  51  70  98 130 163 198 241 287
#
# _framework density 17.912493000000001
#
# number of rings (size 3 to 8) (size 9 to 14) (size 15 to 20)
#    0.000    2.000    0.000    7.000    0.000    5.333 
#    0.000    0.000    0.000    1.000    0.000    0.000 
#    0.000    0.000    0.000    0.000    0.000    0.000 
#
# Total GULP energy -297599.285964 kJ/mol
# GULP energy per Si atom -12399.970249 kJ/mol
# Density = 1.787172 g / cm^3
# Si number density = 17.912493 Si / 1000 Ang^3
#
#
#
# Elastic Constant Matrix: (Units=GPa)
#
#
# Indices 1 2 3 4 5 6 
#
# 1 74.8640 19.1882 58.8773 0.0000 0.7568 0.0000
# 2 19.1882 79.6151 46.7914 0.0000 -3.7496 0.0000
# 3 58.8773 46.7914 170.6494 0.0000 -4.9625 0.0000
# 4 0.0000 0.0000 0.0000 35.1604 0.0000 -4.4111
# 5 0.7568 -3.7496 -4.9625 0.0000 25.7132 0.0000
# 6 0.0000 0.0000 0.0000 -4.4111 0.0000 20.0130
#
#
#
# Elastic Compliance Matrix: (Units=1/GPa)
#
#
# Indices 1 2 3 4 5 6 
#
# 1 0.018467 -0.000909 -0.006177 0.000000 -0.001868 0.000000
# 2 -0.000909 0.015068 -0.003775 0.000000 0.001496 0.000000
# 3 -0.006177 -0.003775 0.009066 0.000000 0.001381 0.000000
# 4 0.000000 0.000000 0.000000 0.029250 0.000000 0.006447
# 5 -0.001868 0.001496 0.001381 0.000000 0.039430 0.000000
# 6 0.000000 0.000000 0.000000 0.006447 0.000000 0.051389
#
#
# Mechanical properties :
#
#
# Convention : Reuss Voigt Hill
#
# Bulk Modulus (GPa) = 47.88906 63.87138 55.88022
# Shear Modulus (GPa) = 26.13005 29.52876 27.82940
#
# Velocity S-wave (km/s) = 3.82352 4.06458 3.94589
# Velocity P-wave (km/s) = 6.80334 7.60017 7.21277
#
# Compressibility (1/GPa) = 0.02088160
#
# Stress axis : x y z
#
# Youngs Moduli (GPa) = 54.15065 66.36437 110.29976
#
# Poissons Ratio (x) = 0.06030 0.68128
# Poissons Ratio (y) = 0.04920 0.41635
# Poissons Ratio (z) = 0.33447 0.25051
#
# Static dielectric constant tensor:
#      x y z
#    x 3.111010 0.000000 -0.079860 
#    y 0.000000 3.371610 0.000000 
#    z -0.079860 0.000000 3.943540 
# 
# 
# High freq. dielectric constant tensor:
#      x y z
#    x 1.655730 0.000000 -0.012090 
#    y 0.000000 1.703980 0.000000 
#    z -0.012090 0.000000 1.708540 
# 
# From -- ./inp_files/40813.got.cif
#   From: 2010.06.25/outbox.cif.g09.slc.cpg/sg11_21_cif.got.tgz:40813.got - 2010.06.27 23:14:04.
