data_PCOD8069076
_publ_section_title
;
Structure prediction by ZEFSAII (Michael W. Deem and Ramdas Pophale) SiO2 
 PCOD8069076
Probable space group: P 21/M
;
_chemical_formula_sum "Si O2"
_cell_formula_units_Z 28
_cell_length_a 18.348436
_cell_length_b 8.964153
_cell_length_c 22.860241
_cell_angle_alpha 90.000000
_cell_angle_beta 25.934716
_cell_angle_gamma 90.000000
_cell_volume 1644.428624
_symmetry_space_group_name_H-M "P 21/M"
_symmetry_group_IT_number 11
_symmetry_cell_setting 'monoclinic'
loop_
_space_group_symop_operation_xyz
x,y,z
-x,1/2+y,-z
-x,-y,-z
x,1/2-y,z
loop_
_atom_site_type_symbol
_atom_site_label
_atom_site_fract_x
_atom_site_fract_y
_atom_site_fract_z
Si Si1 0.840490 0.921379 0.745363
Si Si2 0.256179 0.924696 0.066756
Si Si3 0.257609 0.420060 0.517351
Si Si4 0.045934 0.574046 0.757392
Si Si5 0.644146 0.580774 0.430574
Si Si6 0.636784 0.920952 0.777438
Si Si7 0.788725 0.076396 0.559468
O O1 0.841688 0.750000 0.766201
O O2 0.704668 0.947433 0.793147
O O3 0.019106 0.966440 0.589594
O O4 0.785005 0.026258 0.837931
O O5 0.222857 0.750000 0.085165
O O6 0.140758 0.009770 0.101792
O O7 0.444120 0.967561 0.915201
O O8 0.197924 0.250000 0.551003
O O9 0.394995 0.425468 0.470879
O O10 0.322327 0.490203 0.409892
O O11 0.101297 0.523134 0.651538
O O12 0.049190 0.750000 0.762943
O O13 0.176366 0.500282 0.709631
O O14 0.500000 0.500000 0.500000
O O15 0.657141 0.750000 0.398707
O O16 0.661527 0.750000 0.740323
O O17 0.737358 0.024256 0.660450
O O18 0.752944 0.250000 0.579335
#
# Coordination Sequence:
#
# PCOD8069076 Si02
#       7
#     4   4   4   4   4   4   4
#     4  10  20  35  53  72  96 129 170 218 266 312
#     4  11  21  34  52  73  98 134 174 213 259 310
#     4   9  18  31  49  72 100 133 166 199 246 298
#     4  10  18  30  49  72 100 132 166 204 247 297
#     4   9  17  28  47  77 109 136 163 203 248 293
#     4  10  23  37  49  70 101 134 172 216 262 309
#     4  11  21  33  52  75  99 132 173 213 259 308
#
# _framework density 17.027190999999998
#
# number of rings (size 3 to 8) (size 9 to 14) (size 15 to 20)
#    0.857    1.143    1.429    3.429    0.000    2.286 
#    0.000    0.000    0.000    0.000    0.000    1.000 
#    0.000    0.000    0.000    0.000    0.000    0.000 
#
# Total GULP energy -347016.960370 kJ/mol
# GULP energy per Si atom -12393.462870 kJ/mol
# Density = 1.698844 g / cm^3
# Si number density = 17.027191 Si / 1000 Ang^3
#
#
#
# Elastic Constant Matrix: (Units=GPa)
#
#
# Indices 1 2 3 4 5 6 
#
# 1 54.2995 34.8315 26.6010 0.0000 -25.9857 0.0000
# 2 34.8315 118.0117 42.2440 0.0000 -15.9200 0.0000
# 3 26.6010 42.2440 72.1451 0.0000 -17.9133 0.0000
# 4 0.0000 0.0000 0.0000 22.9589 0.0000 -3.7792
# 5 -25.9857 -15.9200 -17.9133 0.0000 26.0782 0.0000
# 6 0.0000 0.0000 0.0000 -3.7792 0.0000 29.8624
#
#
#
# Elastic Compliance Matrix: (Units=1/GPa)
#
#
# Indices 1 2 3 4 5 6 
#
# 1 0.040203 -0.006294 -0.002586 0.000000 0.034442 0.000000
# 2 -0.006294 0.011865 -0.005287 0.000000 -0.002660 0.000000
# 3 -0.002586 -0.005287 0.019856 0.000000 0.007834 0.000000
# 4 0.000000 0.000000 0.000000 0.044483 0.000000 0.005629
# 5 0.034442 -0.002660 0.007834 0.000000 0.076423 0.000000
# 6 0.000000 0.000000 0.000000 0.005629 0.000000 0.034199
#
#
# Mechanical properties :
#
#
# Convention : Reuss Voigt Hill
#
# Bulk Modulus (GPa) = 22.94171 50.20103 36.57137
# Shear Modulus (GPa) = 18.52571 25.16524 21.84547
#
# Velocity S-wave (km/s) = 3.30207 3.84857 3.58575
# Velocity P-wave (km/s) = 5.29538 7.02108 6.21839
#
# Compressibility (1/GPa) = 0.04358874
#
# Stress axis : x y z
#
# Youngs Moduli (GPa) = 24.87346 84.27945 50.36314
#
# Poissons Ratio (x) = 0.53046 0.13026
# Poissons Ratio (y) = 0.15655 0.26629
# Poissons Ratio (z) = 0.06433 0.44562
#
# Static dielectric constant tensor:
#      x y z
#    x 3.077250 0.000000 -0.184800 
#    y 0.000000 3.246310 0.000000 
#    z -0.184800 0.000000 3.007390 
# 
# 
# High freq. dielectric constant tensor:
#      x y z
#    x 1.644580 0.000000 -0.020010 
#    y 0.000000 1.672390 0.000000 
#    z -0.020010 0.000000 1.625690 
# 
# From -- ./inp_files/71927.got.cif
#   From: 2010.06.25/outbox.cif.g09.slc.cpg/sg11_36_cif.got.tgz:71927.got - 2010.06.27 23:14:04.
