data_PCOD8069502
_publ_section_title
;
Structure prediction by ZEFSAII (Michael W. Deem and Ramdas Pophale) SiO2 
 PCOD8069502
Probable space group: P 21/M
;
_chemical_formula_sum "Si O2"
_cell_formula_units_Z 32
_cell_length_a 16.674213
_cell_length_b 14.974082
_cell_length_c 11.251205
_cell_angle_alpha 90.000000
_cell_angle_beta 32.829562
_cell_angle_gamma 90.000000
_cell_volume 1522.991603
_symmetry_space_group_name_H-M "P 21/M"
_symmetry_group_IT_number 11
_symmetry_cell_setting 'monoclinic'
loop_
_space_group_symop_operation_xyz
x,y,z
-x,1/2+y,-z
-x,-y,-z
x,1/2-y,z
loop_
_atom_site_type_symbol
_atom_site_label
_atom_site_fract_x
_atom_site_fract_y
_atom_site_fract_z
Si Si1 0.941102 0.888403 0.349186
Si Si2 0.191843 0.347105 0.247967
Si Si3 0.070294 0.855029 0.823065
Si Si4 0.777167 0.348462 0.139017
Si Si5 0.627256 0.480065 0.937361
Si Si6 0.461843 0.644336 0.737187
Si Si7 0.080623 0.921360 0.551994
Si Si8 0.792395 0.646456 0.304987
O O1 0.853753 0.833924 0.557824
O O2 0.830638 0.908439 0.376856
O O3 0.991042 0.981083 0.347436
O O4 0.084689 0.838391 0.122693
O O5 0.257642 0.250000 0.125992
O O6 0.313305 0.425723 0.081393
O O7 0.041591 0.361703 0.360087
O O8 0.086165 0.750000 0.815022
O O9 0.174959 0.897941 0.797561
O O10 0.120957 0.884661 0.631489
O O11 0.899614 0.883364 0.062758
O O12 0.719764 0.250000 0.242204
O O13 0.645298 0.395976 0.231529
O O14 0.764907 0.425973 0.710386
O O15 0.500000 0.500000 0.000000
O O16 0.557360 0.415211 0.122103
O O17 0.432706 0.750000 0.802103
O O18 0.623829 0.629467 0.480174
O O19 0.821777 0.750000 0.299989
#
# Coordination Sequence:
#
# PCOD8069502 Si02
#       8
#     4   4   4   4   4   4   4   4
#     4  10  18  32  53  78 107 138 187 243 286 336
#     4  11  22  38  60  84 115 158 204 250 298 352
#     4   9  19  36  55  80 114 151 193 239 291 352
#     4   9  17  30  52  79 107 142 188 239 283 333
#     4  11  24  40  59  89 127 157 195 249 304 368
#     4  10  19  34  58  86 115 153 201 248 294 344
#     4  11  22  36  57  84 115 151 190 237 298 365
#     4   9  18  33  56  82 110 150 196 240 287 342
#
# _framework density 21.011278999999998
#
# number of rings (size 3 to 8) (size 9 to 14) (size 15 to 20)
#    0.000    2.000    0.000    6.750    0.000    5.500 
#    0.000    1.250    0.000    4.500    0.000    0.000 
#    0.000    1.000    0.000    0.000    0.000    0.000 
#
# Total GULP energy -396558.039905 kJ/mol
# GULP energy per Si atom -12392.438747 kJ/mol
# Density = 2.096346 g / cm^3
# Si number density = 21.011279 Si / 1000 Ang^3
#
#
#
# Elastic Constant Matrix: (Units=GPa)
#
#
# Indices 1 2 3 4 5 6 
#
# 1 97.9602 22.9635 39.7197 0.0000 -19.5433 0.0000
# 2 22.9635 65.6598 20.3324 0.0000 -7.4657 0.0000
# 3 39.7197 20.3324 66.1314 0.0000 -10.9211 0.0000
# 4 0.0000 0.0000 0.0000 6.6596 0.0000 -3.3955
# 5 -19.5433 -7.4657 -10.9211 0.0000 36.8246 0.0000
# 6 0.0000 0.0000 0.0000 -3.3955 0.0000 30.6666
#
#
#
# Elastic Compliance Matrix: (Units=1/GPa)
#
#
# Indices 1 2 3 4 5 6 
#
# 1 0.014740 -0.002308 -0.007285 0.000000 0.005194 0.000000
# 2 -0.002308 0.017332 -0.003748 0.000000 0.001177 0.000000
# 3 -0.007285 -0.003748 0.020910 0.000000 0.001575 0.000000
# 4 0.000000 0.000000 0.000000 0.159144 0.000000 0.017621
# 5 0.005194 0.001177 0.001575 0.000000 0.030618 0.000000
# 6 0.000000 0.000000 0.000000 0.017621 0.000000 0.034560
#
#
# Mechanical properties :
#
#
# Convention : Reuss Voigt Hill
#
# Bulk Modulus (GPa) = 38.02636 43.97585 41.00110
# Shear Modulus (GPa) = 15.98714 24.61252 20.29983
#
# Velocity S-wave (km/s) = 2.76140 3.42628 3.11165
# Velocity P-wave (km/s) = 5.32020 6.05207 5.69790
#
# Compressibility (1/GPa) = 0.02629755
#
# Stress axis : x y z
#
# Youngs Moduli (GPa) = 67.84481 57.69750 47.82509
#
# Poissons Ratio (x) = 0.13319 0.34842
# Poissons Ratio (y) = 0.15661 0.17924
# Poissons Ratio (z) = 0.49428 0.21624
#
# Static dielectric constant tensor:
#      x y z
#    x 4.014160 0.000000 0.014030 
#    y 0.000000 3.736690 0.000000 
#    z 0.014030 0.000000 3.702130 
# 
# 
# High freq. dielectric constant tensor:
#      x y z
#    x 1.832330 0.000000 -0.003430 
#    y 0.000000 1.815250 0.000000 
#    z -0.003430 0.000000 1.800990 
# 
# From -- ./inp_files/41632.got.cif
#   From: 2010.06.25/outbox.cif.g09.slc.cpg/sg11_21_cif.got.tgz:41632.got - 2010.06.27 23:14:04.
