data_PCOD8069518
_publ_section_title
;
Structure prediction by ZEFSAII (Michael W. Deem and Ramdas Pophale) SiO2 
 PCOD8069518
Probable space group: P 21/M
;
_chemical_formula_sum "Si O2"
_cell_formula_units_Z 32
_cell_length_a 24.996611
_cell_length_b 9.007179
_cell_length_c 19.974300
_cell_angle_alpha 90.000000
_cell_angle_beta 156.437677
_cell_angle_gamma 90.000000
_cell_volume 1797.736386
_symmetry_space_group_name_H-M "P 21/M"
_symmetry_group_IT_number 11
_symmetry_cell_setting 'monoclinic'
loop_
_space_group_symop_operation_xyz
x,y,z
-x,1/2+y,-z
-x,-y,-z
x,1/2-y,z
loop_
_atom_site_type_symbol
_atom_site_label
_atom_site_fract_x
_atom_site_fract_y
_atom_site_fract_z
Si Si1 0.353803 0.074249 0.054898
Si Si2 0.857866 0.575209 0.078789
Si Si3 0.845115 0.426691 0.556963
Si Si4 0.395924 0.422532 0.472452
Si Si5 0.666199 0.577479 0.745532
Si Si6 0.684368 0.924166 0.259228
Si Si7 0.616503 0.424066 0.048486
Si Si8 0.356383 0.924119 0.559175
O O1 0.348955 0.250000 0.036789
O O2 0.496792 0.026437 0.248640
O O3 0.240173 0.017038 0.975429
O O4 0.326664 0.990417 0.954706
O O5 0.866775 0.750000 0.095010
O O6 0.006621 0.510614 0.257594
O O7 0.799464 0.530447 0.938842
O O8 0.839689 0.250000 0.541476
O O9 0.798181 0.502747 0.434970
O O10 0.750923 0.478736 0.509652
O O11 0.406470 0.250000 0.499725
O O12 0.544666 0.484521 0.635694
O O13 0.312082 0.454679 0.308280
O O14 0.320292 0.499542 0.447296
O O15 0.631270 0.750000 0.718179
O O16 0.709620 0.750000 0.281634
O O17 0.695486 0.996940 0.199046
O O18 0.540838 0.960377 0.127185
O O19 0.645072 0.250000 0.084778
O O20 0.347595 0.750000 0.537897
#
# Coordination Sequence:
#
# PCOD8069518 Si02
#       8
#     4   4   4   4   4   4   4   4
#     4  10  18  32  54  78 102 133 172 215 257 300
#     4   9  18  34  55  75 101 137 174 210 255 310
#     4  10  20  35  55  77 101 136 176 211 252 308
#     4  10  19  29  50  79 105 133 172 219 259 301
#     4   9  17  33  52  74 104 138 173 211 261 309
#     4  10  20  34  53  78 108 138 167 209 260 305
#     4  10  20  33  53  80 107 134 169 214 254 301
#     4  10  19  32  52  76 104 135 172 214 255 304
#
# _framework density 17.800162
#
# number of rings (size 3 to 8) (size 9 to 14) (size 15 to 20)
#    0.000    2.250    2.500    1.125    0.000    2.500 
#    0.000    2.500    0.000    0.000    0.000    0.000 
#    0.000    0.000    0.000    0.000    0.000    0.000 
#
# Total GULP energy -396837.484539 kJ/mol
# GULP energy per Si atom -12401.171392 kJ/mol
# Density = 1.775965 g / cm^3
# Si number density = 17.800162 Si / 1000 Ang^3
#
#
#
# Elastic Constant Matrix: (Units=GPa)
#
#
# Indices 1 2 3 4 5 6 
#
# 1 132.7567 42.4636 78.5801 0.0000 -16.6753 0.0000
# 2 42.4636 48.1300 37.6492 0.0000 -10.0213 0.0000
# 3 78.5801 37.6492 139.5383 0.0000 -12.0085 0.0000
# 4 0.0000 0.0000 0.0000 18.4778 0.0000 -9.7735
# 5 -16.6753 -10.0213 -12.0085 0.0000 32.4036 0.0000
# 6 0.0000 0.0000 0.0000 -9.7735 0.0000 30.4669
#
#
#
# Elastic Compliance Matrix: (Units=1/GPa)
#
#
# Indices 1 2 3 4 5 6 
#
# 1 0.013270 -0.006950 -0.005366 0.000000 0.002691 0.000000
# 2 -0.006950 0.031033 -0.004071 0.000000 0.004512 0.000000
# 3 -0.005366 -0.004071 0.011301 0.000000 0.000168 0.000000
# 4 0.000000 0.000000 0.000000 0.065178 0.000000 0.020909
# 5 0.002691 0.004512 0.000168 0.000000 0.033703 0.000000
# 6 0.000000 0.000000 0.000000 0.020909 0.000000 0.039530
#
#
# Mechanical properties :
#
#
# Convention : Reuss Voigt Hill
#
# Bulk Modulus (GPa) = 43.80199 70.86787 57.33493
# Shear Modulus (GPa) = 21.33120 27.05178 24.19149
#
# Velocity S-wave (km/s) = 3.46550 3.90262 3.69054
# Velocity P-wave (km/s) = 6.37762 7.75930 7.10214
#
# Compressibility (1/GPa) = 0.02283001
#
# Stress axis : x y z
#
# Youngs Moduli (GPa) = 75.35951 32.22423 88.48599
#
# Poissons Ratio (x) = 0.22395 0.47482
# Poissons Ratio (y) = 0.52372 0.36023
# Poissons Ratio (z) = 0.40439 0.13119
#
# Static dielectric constant tensor:
#      x y z
#    x 3.389850 0.000000 -0.111240 
#    y 0.000000 3.139570 0.000000 
#    z -0.111240 0.000000 3.343260 
# 
# 
# High freq. dielectric constant tensor:
#      x y z
#    x 1.692020 0.000000 -0.020890 
#    y 0.000000 1.677000 0.000000 
#    z -0.020890 0.000000 1.673590 
# 
# From -- ./inp_files/67233.got.cif
#   From: 2010.06.25/outbox.cif.g09.slc.cpg/sg11_34_cif.got.tgz:67233.got - 2010.06.27 23:14:04.
