data_PCOD8069874
_publ_section_title
;
Structure prediction by ZEFSAII (Michael W. Deem and Ramdas Pophale) SiO2 
 PCOD8069874
Probable space group: P 21/M
;
_chemical_formula_sum "Si O2"
_cell_formula_units_Z 32
_cell_length_a 12.000982
_cell_length_b 19.622405
_cell_length_c 9.550269
_cell_angle_alpha 90.000000
_cell_angle_beta 48.865597
_cell_angle_gamma 90.000000
_cell_volume 1693.857199
_symmetry_space_group_name_H-M "P 21/M"
_symmetry_group_IT_number 11
_symmetry_cell_setting 'monoclinic'
loop_
_space_group_symop_operation_xyz
x,y,z
-x,1/2+y,-z
-x,-y,-z
x,1/2-y,z
loop_
_atom_site_type_symbol
_atom_site_label
_atom_site_fract_x
_atom_site_fract_y
_atom_site_fract_z
Si Si1 0.905875 0.584285 0.858699
Si Si2 0.785005 0.450176 0.432606
Si Si3 0.351482 0.173456 0.608732
Si Si4 0.634270 0.827491 0.077244
Si Si5 0.412121 0.563321 0.138790
Si Si6 0.218371 0.943917 0.053732
Si Si7 0.084261 0.082916 0.821227
Si Si8 0.421903 0.934144 0.628143
O O1 0.805057 0.649877 0.911987
O O2 0.828486 0.518712 0.853857
O O3 0.067451 0.594034 0.654084
O O4 0.930232 0.565021 0.002571
O O5 0.681278 0.462662 0.651350
O O6 0.833275 0.522725 0.328818
O O7 0.695872 0.407714 0.388975
O O8 0.367869 0.250000 0.539329
O O9 0.182049 0.150961 0.724697
O O10 0.462272 0.125363 0.430946
O O11 0.398726 0.166946 0.731335
O O12 0.617489 0.750000 0.037421
O O13 0.521809 0.875410 0.087050
O O14 0.294884 0.593255 0.122486
O O15 0.500000 0.500000 0.000000
O O16 0.077184 0.902096 0.111976
O O17 0.343083 0.955824 0.834678
O O18 0.500000 0.000000 0.500000
#
# Coordination Sequence:
#
# PCOD8069874 Si02
#       8
#     4   4   4   4   4   4   4   4
#     4  10  18  36  59  92 115 144 200 245 292 348
#     4  11  20  34  61  88 116 150 194 246 290 337
#     4  10  21  36  60  89 116 150 200 244 290 355
#     4  10  21  40  60  81 119 161 191 236 296 356
#     4  12  24  38  56  92 122 155 199 243 287 351
#     4  11  21  35  58  88 121 146 189 249 291 334
#     4  10  19  35  59  88 118 150 190 245 301 345
#     4  12  18  34  60  88 112 151 194 241 295 337
#
# _framework density 18.891794000000001
#
# number of rings (size 3 to 8) (size 9 to 14) (size 15 to 20)
#    0.000    1.250    6.250    2.250    0.000    2.000 
#    0.000    3.125    0.000    0.000    0.000    0.000 
#    0.000    0.000    0.000    0.000    0.000    0.000 
#
# Total GULP energy -396731.332005 kJ/mol
# GULP energy per Si atom -12397.854125 kJ/mol
# Density = 1.884880 g / cm^3
# Si number density = 18.891794 Si / 1000 Ang^3
#
#
#
# Elastic Constant Matrix: (Units=GPa)
#
#
# Indices 1 2 3 4 5 6 
#
# 1 121.8341 44.4773 28.5167 0.0000 -8.6290 0.0000
# 2 44.4773 103.9666 26.9796 0.0000 -18.4952 0.0000
# 3 28.5167 26.9796 91.9181 0.0000 -14.5075 0.0000
# 4 0.0000 0.0000 0.0000 16.7018 0.0000 -1.5884
# 5 -8.6290 -18.4952 -14.5075 0.0000 30.5455 0.0000
# 6 0.0000 0.0000 0.0000 -1.5884 0.0000 23.3643
#
#
#
# Elastic Compliance Matrix: (Units=1/GPa)
#
#
# Indices 1 2 3 4 5 6 
#
# 1 0.010065 -0.003854 -0.002066 0.000000 -0.000471 0.000000
# 2 -0.003854 0.012727 -0.001617 0.000000 0.005850 0.000000
# 3 -0.002066 -0.001617 0.012700 0.000000 0.004469 0.000000
# 4 0.000000 0.000000 0.000000 0.060264 0.000000 0.004097
# 5 -0.000471 0.005850 0.004469 0.000000 0.038270 0.000000
# 6 0.000000 0.000000 0.000000 0.004097 0.000000 0.043079
#
#
# Mechanical properties :
#
#
# Convention : Reuss Voigt Hill
#
# Bulk Modulus (GPa) = 48.97204 57.51845 53.24524
# Shear Modulus (GPa) = 25.12774 28.63866 26.88320
#
# Velocity S-wave (km/s) = 3.65099 3.89772 3.77637
# Velocity P-wave (km/s) = 6.61450 7.12521 6.87460
#
# Compressibility (1/GPa) = 0.02041982
#
# Stress axis : x y z
#
# Youngs Moduli (GPa) = 99.35603 78.57156 78.73936
#
# Poissons Ratio (x) = 0.30278 0.16266
# Poissons Ratio (y) = 0.38287 0.12731
# Poissons Ratio (z) = 0.20525 0.12704
#
# Static dielectric constant tensor:
#      x y z
#    x 3.901120 0.000000 -0.271450 
#    y 0.000000 3.180760 0.000000 
#    z -0.271450 0.000000 3.499970 
# 
# 
# High freq. dielectric constant tensor:
#      x y z
#    x 1.747240 0.000000 -0.021650 
#    y 0.000000 1.693710 0.000000 
#    z -0.021650 0.000000 1.728890 
# 
# From -- ./inp_files/19351.got.cif
#   From: 2010.06.25/outbox.cif.g09.slc.cpg/sg11_10_cif.got.tgz:19351.got - 2010.06.27 23:14:04.
