data_PCOD8069067
_publ_section_title
;
Structure prediction by ZEFSAII (Michael W. Deem and Ramdas Pophale) SiO2 
 PCOD8069067
Probable space group: P 21/M
;
_chemical_formula_sum "Si O2"
_cell_formula_units_Z 32
_cell_length_a 15.859367
_cell_length_b 8.914632
_cell_length_c 14.521490
_cell_angle_alpha 90.000000
_cell_angle_beta 117.466931
_cell_angle_gamma 90.000000
_cell_volume 1821.628306
_symmetry_space_group_name_H-M "P 21/M"
_symmetry_group_IT_number 11
_symmetry_cell_setting 'monoclinic'
loop_
_space_group_symop_operation_xyz
x,y,z
-x,1/2+y,-z
-x,-y,-z
x,1/2-y,z
loop_
_atom_site_type_symbol
_atom_site_label
_atom_site_fract_x
_atom_site_fract_y
_atom_site_fract_z
Si Si1 0.052824 0.577032 0.881822
Si Si2 0.047232 0.575428 0.670251
Si Si3 0.150643 0.574874 0.414480
Si Si4 0.225505 0.571089 0.086730
Si Si5 0.597485 0.072929 0.154969
Si Si6 0.159565 0.071367 0.230093
Si Si7 0.776546 0.425403 0.355033
Si Si8 0.597079 0.073601 0.944307
O O1 0.047319 0.750000 0.904141
O O2 0.085164 0.553504 0.793132
O O3 0.947347 0.509412 0.844183
O O4 0.132011 0.504207 0.988098
O O5 0.023178 0.750000 0.639470
O O6 0.128395 0.508783 0.644550
O O7 0.952975 0.479479 0.606113
O O8 0.145912 0.750000 0.388276
O O9 0.190452 0.485270 0.346598
O O10 0.222455 0.542498 0.535314
O O11 0.223131 0.750000 0.092672
O O12 0.230165 0.498512 0.190325
O O13 0.317252 0.516607 0.076557
O O14 0.588778 0.250000 0.161138
O O15 0.681573 0.006069 0.261455
O O16 0.499161 0.002260 0.140176
O O17 0.618946 0.026020 0.060439
O O18 0.164908 0.250000 0.232081
O O19 0.777956 0.250000 0.333492
O O20 0.584099 0.250000 0.930044
#
# Coordination Sequence:
#
# PCOD8069067 Si02
#       8
#     4   4   4   4   4   4   4   4
#     4   8  15  27  45  68  94 124 154 185 223 272
#     4   9  16  29  47  69  98 127 156 189 227 273
#     4  10  19  31  46  67  95 126 161 196 230 269
#     4  10  18  30  49  70  93 123 157 191 231 277
#     4   9  17  32  52  72  97 127 154 183 226 280
#     4  10  20  33  47  66  93 125 161 197 233 271
#     4   9  17  29  49  72  93 124 162 193 225 273
#     4   9  18  31  49  74 100 123 149 186 232 279
#
# _framework density 17.566700999999998
#
# number of rings (size 3 to 8) (size 9 to 14) (size 15 to 20)
#    0.000    2.750    0.000    3.000    0.000    3.500 
#    0.000    5.000    0.000    5.250    0.000    0.000 
#    0.000    0.000    0.000    0.000    0.000    0.000 
#
# Total GULP energy -396732.055890 kJ/mol
# GULP energy per Si atom -12397.876747 kJ/mol
# Density = 1.752672 g / cm^3
# Si number density = 17.566701 Si / 1000 Ang^3
#
#
#
# Elastic Constant Matrix: (Units=GPa)
#
#
# Indices 1 2 3 4 5 6 
#
# 1 115.1130 31.3284 62.8483 0.0000 -11.6904 0.0000
# 2 31.3284 35.9810 28.6500 0.0000 -2.3190 0.0000
# 3 62.8483 28.6500 111.6531 0.0000 1.3286 0.0000
# 4 0.0000 0.0000 0.0000 20.4921 0.0000 -1.2603
# 5 -11.6904 -2.3190 1.3286 0.0000 22.8240 0.0000
# 6 0.0000 0.0000 0.0000 -1.2603 0.0000 25.9485
#
#
#
# Elastic Compliance Matrix: (Units=1/GPa)
#
#
# Indices 1 2 3 4 5 6 
#
# 1 0.015088 -0.007327 -0.006701 0.000000 0.007374 0.000000
# 2 -0.007327 0.038869 -0.005856 0.000000 0.000537 0.000000
# 3 -0.006701 -0.005856 0.014289 0.000000 -0.004859 0.000000
# 4 0.000000 0.000000 0.000000 0.048946 0.000000 0.002377
# 5 0.007374 0.000537 -0.004859 0.000000 0.047928 0.000000
# 6 0.000000 0.000000 0.000000 0.002377 0.000000 0.038653
#
#
# Mechanical properties :
#
#
# Convention : Reuss Voigt Hill
#
# Bulk Modulus (GPa) = 35.11339 56.48896 45.80117
# Shear Modulus (GPa) = 19.76025 23.18094 21.47060
#
# Velocity S-wave (km/s) = 3.35755 3.63656 3.49984
# Velocity P-wave (km/s) = 5.92139 7.06112 6.51622
#
# Compressibility (1/GPa) = 0.02847917
#
# Stress axis : x y z
#
# Youngs Moduli (GPa) = 66.27615 25.72730 69.98566
#
# Poissons Ratio (x) = 0.18849 0.46896
# Poissons Ratio (y) = 0.48557 0.40985
# Poissons Ratio (z) = 0.44411 0.15066
#
# Static dielectric constant tensor:
#      x y z
#    x 3.268190 0.000000 -0.011060 
#    y 0.000000 2.979920 0.000000 
#    z -0.011060 0.000000 3.331550 
# 
# 
# High freq. dielectric constant tensor:
#      x y z
#    x 1.665940 0.000000 -0.009910 
#    y 0.000000 1.654630 0.000000 
#    z -0.009910 0.000000 1.675310 
# 
# From -- ./inp_files/51772.got.cif
#   From: 2010.06.25/outbox.cif.g09.slc.cpg/sg11_26_cif.got.tgz:51772.got - 2010.06.27 23:14:04.
