data_PCOD8069380
_publ_section_title
;
Structure prediction by ZEFSAII (Michael W. Deem and Ramdas Pophale) SiO2 
 PCOD8069380
Probable space group: P 21/M
;
_chemical_formula_sum "Si O2"
_cell_formula_units_Z 32
_cell_length_a 13.610339
_cell_length_b 18.113082
_cell_length_c 14.243855
_cell_angle_alpha 90.000000
_cell_angle_beta 27.964643
_cell_angle_gamma 90.000000
_cell_volume 1646.621258
_symmetry_space_group_name_H-M "P 21/M"
_symmetry_group_IT_number 11
_symmetry_cell_setting 'monoclinic'
loop_
_space_group_symop_operation_xyz
x,y,z
-x,1/2+y,-z
-x,-y,-z
x,1/2-y,z
loop_
_atom_site_type_symbol
_atom_site_label
_atom_site_fract_x
_atom_site_fract_y
_atom_site_fract_z
Si Si1 0.046726 0.564313 0.327330
Si Si2 0.383143 0.832464 0.365209
Si Si3 0.832140 0.167089 0.255865
Si Si4 0.682213 0.664595 0.581214
Si Si5 0.755848 0.586649 0.128994
Si Si6 0.363357 0.959500 0.901496
Si Si7 0.730854 0.049949 0.673381
Si Si8 0.614981 0.666162 0.425986
O O1 0.227125 0.569781 0.253710
O O2 0.890011 0.634618 0.458117
O O3 0.915467 0.492417 0.464393
O O4 0.151205 0.556509 0.137217
O O5 0.392978 0.750000 0.323950
O O6 0.248867 0.846106 0.571245
O O7 0.620713 0.858561 0.179248
O O8 0.272244 0.871660 0.373155
O O9 0.925087 0.250000 0.165425
O O10 0.635670 0.156245 0.351611
O O11 0.000561 0.104183 0.091723
O O12 0.644522 0.750000 0.641480
O O13 0.476869 0.617439 0.781474
O O14 0.721635 0.656362 0.436726
O O15 0.697504 0.503433 0.143690
O O16 0.705957 0.602648 0.280666
O O17 0.512158 0.007456 0.844228
O O18 0.658520 0.750000 0.349948
#
# Coordination Sequence:
#
# PCOD8069380 Si02
#       8
#     4   4   4   4   4   4   4   4
#     4  10  20  37  59  79 101 141 184 219 266 320
#     4   9  17  29  47  76 110 136 164 210 264 317
#     4   9  16  28  49  75 105 140 174 211 261 320
#     4  10  23  41  56  75 106 143 185 227 264 312
#     4  10  18  31  53  79 106 137 175 217 266 325
#     4  10  21  36  57  82 108 138 174 223 276 321
#     4   9  19  35  56  80 109 138 173 218 265 320
#     4   9  19  35  53  75 108 147 181 218 264 312
#
# _framework density 19.433734000000001
#
# number of rings (size 3 to 8) (size 9 to 14) (size 15 to 20)
#    0.000    2.500    0.000    3.000    0.000    3.500 
#    0.000    3.750    0.000    0.000    0.000    0.000 
#    0.000    0.000    0.000    0.000    0.000    0.000 
#
# Total GULP energy -396666.525619 kJ/mol
# GULP energy per Si atom -12395.828926 kJ/mol
# Density = 1.938950 g / cm^3
# Si number density = 19.433734 Si / 1000 Ang^3
#
#
#
# Elastic Constant Matrix: (Units=GPa)
#
#
# Indices 1 2 3 4 5 6 
#
# 1 68.5506 34.9685 12.0065 0.0000 2.8405 0.0000
# 2 34.9685 110.1372 32.7326 0.0000 4.4728 0.0000
# 3 12.0065 32.7326 74.7354 0.0000 -1.7196 0.0000
# 4 0.0000 0.0000 0.0000 20.0137 0.0000 4.1260
# 5 2.8405 4.4728 -1.7196 0.0000 22.0364 0.0000
# 6 0.0000 0.0000 0.0000 4.1260 0.0000 25.8507
#
#
#
# Elastic Compliance Matrix: (Units=1/GPa)
#
#
# Indices 1 2 3 4 5 6 
#
# 1 0.017450 -0.005346 -0.000490 0.000000 -0.001202 0.000000
# 2 -0.005346 0.012213 -0.004540 0.000000 -0.002144 0.000000
# 3 -0.000490 -0.004540 0.015498 0.000000 0.002194 0.000000
# 4 0.000000 0.000000 0.000000 0.051666 0.000000 -0.008246
# 5 -0.001202 -0.002144 0.002194 0.000000 0.046141 0.000000
# 6 0.000000 0.000000 0.000000 -0.008246 0.000000 0.040000
#
#
# Mechanical properties :
#
#
# Convention : Reuss Voigt Hill
#
# Bulk Modulus (GPa) = 40.96542 45.87095 43.41818
# Shear Modulus (GPa) = 23.60094 25.16121 24.38107
#
# Velocity S-wave (km/s) = 3.48865 3.60212 3.54584
# Velocity P-wave (km/s) = 6.11170 6.39964 6.25733
#
# Compressibility (1/GPa) = 0.02441083
#
# Stress axis : x y z
#
# Youngs Moduli (GPa) = 57.30496 81.87844 64.52468
#
# Poissons Ratio (x) = 0.43774 0.03159
# Poissons Ratio (y) = 0.30636 0.29292
# Poissons Ratio (z) = 0.02806 0.37170
#
# Static dielectric constant tensor:
#      x y z
#    x 3.597950 0.000000 -0.111300 
#    y 0.000000 3.527710 0.000000 
#    z -0.111300 0.000000 3.316840 
# 
# 
# High freq. dielectric constant tensor:
#      x y z
#    x 1.755580 0.000000 -0.009530 
#    y 0.000000 1.750490 0.000000 
#    z -0.009530 0.000000 1.745380 
# 
# From -- ./inp_files/52574.got.cif
#   From: 2010.06.25/outbox.cif.g09.slc.cpg/sg11_27_cif.got.tgz:52574.got - 2010.06.27 23:14:04.
