data_PCOD8069848
_publ_section_title
;
Structure prediction by ZEFSAII (Michael W. Deem and Ramdas Pophale) SiO2 
 PCOD8069848
Probable space group: P 21/M
;
_chemical_formula_sum "Si O2"
_cell_formula_units_Z 32
_cell_length_a 16.549164
_cell_length_b 16.602890
_cell_length_c 10.855925
_cell_angle_alpha 90.000000
_cell_angle_beta 146.072605
_cell_angle_gamma 90.000000
_cell_volume 1664.835056
_symmetry_space_group_name_H-M "P 21/M"
_symmetry_group_IT_number 11
_symmetry_cell_setting 'monoclinic'
loop_
_space_group_symop_operation_xyz
x,y,z
-x,1/2+y,-z
-x,-y,-z
x,1/2-y,z
loop_
_atom_site_type_symbol
_atom_site_label
_atom_site_fract_x
_atom_site_fract_y
_atom_site_fract_z
Si Si1 0.422530 0.452499 0.510229
Si Si2 0.051172 0.843291 0.610863
Si Si3 0.271933 0.390346 0.108464
Si Si4 0.046352 0.838844 0.319792
Si Si5 0.536646 0.658657 0.876788
Si Si6 0.273286 0.543646 0.524034
Si Si7 0.290425 0.951405 0.997618
Si Si8 0.241330 0.065586 0.709255
O O1 0.500000 0.500000 0.500000
O O2 0.334145 0.381957 0.327236
O O3 0.305971 0.509812 0.429984
O O4 0.544803 0.422586 0.762289
O O5 0.017136 0.750000 0.599456
O O6 0.088340 0.854698 0.514520
O O7 0.920363 0.902426 0.477837
O O8 0.188010 0.872935 0.865119
O O9 0.391859 0.357084 0.165877
O O10 0.126231 0.339910 0.914028
O O11 0.237188 0.484000 0.032333
O O12 0.098738 0.750000 0.345975
O O13 0.123952 0.905683 0.333498
O O14 0.484751 0.750000 0.821234
O O15 0.399653 0.602748 0.727634
O O16 0.651856 0.640446 0.130493
O O17 0.260739 0.466675 0.596680
O O18 0.283339 0.994234 0.856113
#
# Coordination Sequence:
#
# PCOD8069848 Si02
#       8
#     4   4   4   4   4   4   4   4
#     4  10  21  40  61  84 113 155 212 247 288 354
#     4  11  21  36  57  89 128 161 193 242 313 375
#     4  10  20  39  65  84 114 163 214 243 285 367
#     4  11  22  36  59  94 126 155 198 255 308 355
#     4  11  21  36  60  90 122 160 198 249 307 358
#     4  12  22  36  61  93 123 154 200 264 301 351
#     4  10  18  35  60  85 117 152 201 245 292 360
#     4  11  20  34  60  92 120 159 199 245 301 372
#
# _framework density 19.221122999999999
#
# number of rings (size 3 to 8) (size 9 to 14) (size 15 to 20)
#    0.000    1.250    7.500    2.625    0.000    0.500 
#    0.000    1.250    0.000    6.000    0.000    0.000 
#    0.000    0.000    0.000    0.000    0.000    0.000 
#
# Total GULP energy -396707.309177 kJ/mol
# GULP energy per Si atom -12397.103412 kJ/mol
# Density = 1.917737 g / cm^3
# Si number density = 19.221123 Si / 1000 Ang^3
#
#
#
# Elastic Constant Matrix: (Units=GPa)
#
#
# Indices 1 2 3 4 5 6 
#
# 1 86.5623 32.9478 13.6710 0.0000 1.8794 0.0000
# 2 32.9478 77.0365 26.8814 0.0000 -6.1249 0.0000
# 3 13.6710 26.8814 81.2015 0.0000 -0.3950 0.0000
# 4 0.0000 0.0000 0.0000 16.3766 0.0000 4.3703
# 5 1.8794 -6.1249 -0.3950 0.0000 25.1546 0.0000
# 6 0.0000 0.0000 0.0000 4.3703 0.0000 16.6193
#
#
#
# Elastic Compliance Matrix: (Units=1/GPa)
#
#
# Indices 1 2 3 4 5 6 
#
# 1 0.013966 -0.006047 -0.000362 0.000000 -0.002522 0.000000
# 2 -0.006047 0.017609 -0.004789 0.000000 0.004664 0.000000
# 3 -0.000362 -0.004789 0.013957 0.000000 -0.000920 0.000000
# 4 0.000000 0.000000 0.000000 0.065671 0.000000 -0.017269
# 5 -0.002522 0.004664 -0.000920 0.000000 0.041064 0.000000
# 6 0.000000 0.000000 0.000000 -0.017269 0.000000 0.064712
#
#
# Mechanical properties :
#
#
# Convention : Reuss Voigt Hill
#
# Bulk Modulus (GPa) = 43.22162 43.53340 43.37751
# Shear Modulus (GPa) = 20.23584 23.05011 21.64297
#
# Velocity S-wave (km/s) = 3.24820 3.46671 3.35923
# Velocity P-wave (km/s) = 6.05004 6.22270 6.13698
#
# Compressibility (1/GPa) = 0.02313657
#
# Stress axis : x y z
#
# Youngs Moduli (GPa) = 71.60226 56.78892 71.65023
#
# Poissons Ratio (x) = 0.34343 0.02591
# Poissons Ratio (y) = 0.43301 0.34310
# Poissons Ratio (z) = 0.02589 0.27194
#
# Static dielectric constant tensor:
#      x y z
#    x 3.454360 0.000000 -0.118330 
#    y 0.000000 3.467070 0.000000 
#    z -0.118330 0.000000 4.075500 
# 
# 
# High freq. dielectric constant tensor:
#      x y z
#    x 1.729720 0.000000 0.013870 
#    y 0.000000 1.732660 0.000000 
#    z 0.013870 0.000000 1.749980 
# 
# From -- ./inp_files/41864.got.cif
#   From: 2010.06.25/outbox.cif.g09.slc.cpg/sg11_21_cif.got.tgz:41864.got - 2010.06.27 23:14:04.
