data_PCOD8069912
_publ_section_title
;
Structure prediction by ZEFSAII (Michael W. Deem and Ramdas Pophale) SiO2 
 PCOD8069912
Probable space group: P 21/M
;
_chemical_formula_sum "Si O2"
_cell_formula_units_Z 18
_cell_length_a 11.813591
_cell_length_b 11.114536
_cell_length_c 14.757050
_cell_angle_alpha 90.000000
_cell_angle_beta 26.922772
_cell_angle_gamma 90.000000
_cell_volume 877.341746
_symmetry_space_group_name_H-M "P 21/M"
_symmetry_group_IT_number 11
_symmetry_cell_setting 'monoclinic'
loop_
_space_group_symop_operation_xyz
x,y,z
-x,1/2+y,-z
-x,-y,-z
x,1/2-y,z
loop_
_atom_site_type_symbol
_atom_site_label
_atom_site_fract_x
_atom_site_fract_y
_atom_site_fract_z
Si Si1 0.706731 0.015060 0.278407
Si Si2 0.754824 0.750000 0.643165
Si Si3 0.454154 0.552497 0.935058
Si Si4 0.499409 0.750000 0.651137
Si Si5 0.774313 0.891934 0.051397
Si Si6 0.942412 0.250000 0.743467
O O1 0.664762 0.137222 0.255598
O O2 0.500000 0.000000 0.500000
O O3 0.685260 0.907797 0.219691
O O4 0.971981 0.029901 0.138847
O O5 0.709779 0.628680 0.733258
O O6 0.513770 0.750000 0.748989
O O7 0.011082 0.750000 0.400771
O O8 0.417698 0.448621 0.884992
O O9 0.500000 0.500000 0.000000
O O10 0.204936 0.632664 0.120162
O O11 0.781318 0.750000 0.406362
O O12 0.804747 0.750000 0.008507
#
# Coordination Sequence:
#
# PCOD8069912 Si02
#       6
#     4   2   4   2   4   2
#     4  11  23  40  63  91 125 163 200 253 311 370
#     4   9  21  42  62  89 119 161 214 246 297 378
#     4  11  23  40  66  90 124 166 207 255 309 359
#     4  10  18  42  62  85 121 157 208 243 297 379
#     4  11  24  39  60  95 128 158 203 258 309 364
#     4   9  21  40  64  86 114 168 206 251 300 363
#
# _framework density 20.51652
#
# number of rings (size 3 to 8) (size 9 to 14) (size 15 to 20)
#    0.667    0.889    3.333    1.333    4.667    0.889 
#    2.000    0.000    0.000    0.000    0.000    0.000 
#    0.000    0.000    0.000    0.000    0.000    0.000 
#
# Total GULP energy -223037.930493 kJ/mol
# GULP energy per Si atom -12390.996138 kJ/mol
# Density = 2.046982 g / cm^3
# Si number density = 20.516520 Si / 1000 Ang^3
#
#
#
# Elastic Constant Matrix: (Units=GPa)
#
#
# Indices 1 2 3 4 5 6 
#
# 1 78.5417 33.7212 7.8832 0.0000 13.5553 0.0000
# 2 33.7212 99.1854 10.3590 0.0000 12.7304 0.0000
# 3 7.8832 10.3590 101.2010 0.0000 24.8663 0.0000
# 4 0.0000 0.0000 0.0000 27.2020 0.0000 8.1502
# 5 13.5553 12.7304 24.8663 0.0000 32.8374 0.0000
# 6 0.0000 0.0000 0.0000 8.1502 0.0000 28.6804
#
#
#
# Elastic Compliance Matrix: (Units=1/GPa)
#
#
# Indices 1 2 3 4 5 6 
#
# 1 0.015560 -0.004703 0.000491 0.000000 -0.004972 0.000000
# 2 -0.004703 0.012032 -0.000241 0.000000 -0.002541 0.000000
# 3 0.000491 -0.000241 0.012157 0.000000 -0.009315 0.000000
# 4 0.000000 0.000000 0.000000 0.040183 0.000000 -0.011419
# 5 -0.004972 -0.002541 -0.009315 0.000000 0.040544 0.000000
# 6 0.000000 0.000000 0.000000 -0.011419 0.000000 0.038112
#
#
# Mechanical properties :
#
#
# Convention : Reuss Voigt Hill
#
# Bulk Modulus (GPa) = 32.42297 42.53945 37.48121
# Shear Modulus (GPa) = 28.12526 32.87494 30.50010
#
# Velocity S-wave (km/s) = 3.70653 4.00730 3.85984
# Velocity P-wave (km/s) = 5.84427 6.49542 6.17843
#
# Compressibility (1/GPa) = 0.03084234
#
# Stress axis : x y z
#
# Youngs Moduli (GPa) = 64.26651 83.10860 82.26047
#
# Poissons Ratio (x) = 0.39089 -0.04039
# Poissons Ratio (y) = 0.30227 0.01982
# Poissons Ratio (z) = -0.03155 0.02003
#
# Static dielectric constant tensor:
#      x y z
#    x 3.156120 0.000000 -0.134550 
#    y 0.000000 3.935620 0.000000 
#    z -0.134550 0.000000 3.475030 
# 
# 
# High freq. dielectric constant tensor:
#      x y z
#    x 1.792020 0.000000 0.014640 
#    y 0.000000 1.805310 0.000000 
#    z 0.014640 0.000000 1.799100 
# 
# From -- ./inp_files/38770.got.cif
#   From: 2010.06.25/outbox.cif.g09.slc.cpg/sg11_20_cif.got.tgz:38770.got - 2010.06.27 23:14:04.
