data_PCOD8069251
_publ_section_title
;
Structure prediction by ZEFSAII (Michael W. Deem and Ramdas Pophale) SiO2 
 PCOD8069251
Probable space group: P 21/M
;
_chemical_formula_sum "Si O2"
_cell_formula_units_Z 32
_cell_length_a 15.082433
_cell_length_b 9.114160
_cell_length_c 30.952405
_cell_angle_alpha 90.000000
_cell_angle_beta 27.984803
_cell_angle_gamma 90.000000
_cell_volume 1996.526279
_symmetry_space_group_name_H-M "P 21/M"
_symmetry_group_IT_number 11
_symmetry_cell_setting 'monoclinic'
loop_
_space_group_symop_operation_xyz
x,y,z
-x,1/2+y,-z
-x,-y,-z
x,1/2-y,z
loop_
_atom_site_type_symbol
_atom_site_label
_atom_site_fract_x
_atom_site_fract_y
_atom_site_fract_z
Si Si1 0.243017 0.420408 0.076705
Si Si2 0.347116 0.079078 0.889437
Si Si3 0.954514 0.580011 0.586068
Si Si4 0.767137 0.081150 0.738728
Si Si5 0.304753 0.076932 0.810305
Si Si6 0.928618 0.075138 0.927202
Si Si7 0.677168 0.420072 0.873172
Si Si8 0.282158 0.920428 0.384001
O O1 0.190150 0.250000 0.099361
O O2 0.097787 0.507055 0.108807
O O3 0.221488 0.481989 0.134340
O O4 0.453283 0.448595 0.968565
O O5 0.296064 0.250000 0.919206
O O6 0.568360 0.052819 0.801010
O O7 0.294616 0.022724 0.864176
O O8 0.235397 0.979362 0.970864
O O9 0.907610 0.750000 0.609492
O O10 0.929373 0.509448 0.644157
O O11 0.807994 0.510547 0.615894
O O12 0.168850 0.552005 0.477335
O O13 0.824104 0.250000 0.711792
O O14 0.759838 0.029894 0.791589
O O15 0.291936 0.250000 0.816377
O O16 0.501180 0.027431 0.703215
O O17 0.128786 0.014406 0.858989
O O18 0.921705 0.250000 0.927041
O O19 0.717959 0.250000 0.865445
O O20 0.273099 0.750000 0.374138
#
# Coordination Sequence:
#
# PCOD8069251 Si02
#       8
#     4   4   4   4   4   4   4   4
#     4  10  19  33  49  67  92 123 154 191 237 278
#     4  10  18  32  48  64  92 131 165 190 224 274
#     4  10  19  28  46  73  95 117 155 200 236 273
#     4  10  18  31  50  68  95 131 155 181 230 288
#     4   9  18  32  49  65  89 130 168 191 226 274
#     4  11  21  31  46  69  94 124 163 201 227 265
#     4   9  18  32  49  69  90 120 158 189 227 280
#     4   9  17  33  49  63  91 128 159 192 235 280
#
# _framework density 16.027839
#
# number of rings (size 3 to 8) (size 9 to 14) (size 15 to 20)
#    0.000    2.250    2.500    1.500    0.000    2.000 
#    0.000    1.875    0.000    0.000    0.000    0.875 
#    0.000    0.000    0.000    0.000    0.000    0.000 
#
# Total GULP energy -396791.181569 kJ/mol
# GULP energy per Si atom -12399.724424 kJ/mol
# Density = 1.599136 g / cm^3
# Si number density = 16.027839 Si / 1000 Ang^3
#
#
#
# Elastic Constant Matrix: (Units=GPa)
#
#
# Indices 1 2 3 4 5 6 
#
# 1 107.0670 44.8508 39.7011 0.0000 15.3886 0.0000
# 2 44.8508 65.0368 35.6564 0.0000 10.7880 0.0000
# 3 39.7011 35.6564 68.1202 0.0000 21.0911 0.0000
# 4 0.0000 0.0000 0.0000 22.6368 0.0000 7.4459
# 5 15.3886 10.7880 21.0911 0.0000 22.5309 0.0000
# 6 0.0000 0.0000 0.0000 7.4459 0.0000 24.5934
#
#
#
# Elastic Compliance Matrix: (Units=1/GPa)
#
#
# Indices 1 2 3 4 5 6 
#
# 1 0.014127 -0.007348 -0.003505 0.000000 -0.002850 0.000000
# 2 -0.007348 0.025388 -0.009570 0.000000 0.001822 0.000000
# 3 -0.003505 -0.009570 0.027560 0.000000 -0.018823 0.000000
# 4 0.000000 0.000000 0.000000 0.049062 0.000000 -0.014854
# 5 -0.002850 0.001822 -0.018823 0.000000 0.063077 0.000000
# 6 0.000000 0.000000 0.000000 -0.014854 0.000000 0.045159
#
#
# Mechanical properties :
#
#
# Convention : Reuss Voigt Hill
#
# Bulk Modulus (GPa) = 38.12691 53.40454 45.76573
# Shear Modulus (GPa) = 18.25060 21.95325 20.10193
#
# Velocity S-wave (km/s) = 3.37810 3.70495 3.54529
# Velocity P-wave (km/s) = 6.24940 7.18988 6.73607
#
# Compressibility (1/GPa) = 0.02622819
#
# Stress axis : x y z
#
# Youngs Moduli (GPa) = 70.78437 39.38819 36.28459
#
# Poissons Ratio (x) = 0.28944 0.12718
# Poissons Ratio (y) = 0.52015 0.34726
# Poissons Ratio (z) = 0.24810 0.37696
#
# Static dielectric constant tensor:
#      x y z
#    x 3.092770 0.000000 0.035610 
#    y 0.000000 2.995740 0.000000 
#    z 0.035610 0.000000 3.109850 
# 
# 
# High freq. dielectric constant tensor:
#      x y z
#    x 1.600980 0.000000 0.014470 
#    y 0.000000 1.612400 0.000000 
#    z 0.014470 0.000000 1.602760 
# 
# From -- ./inp_files/51252.got.cif
#   From: 2010.06.25/outbox.cif.g09.slc.cpg/sg11_26_cif.got.tgz:51252.got - 2010.06.27 23:14:04.
