data_PCOD8069600
_publ_section_title
;
Structure prediction by ZEFSAII (Michael W. Deem and Ramdas Pophale) SiO2 
 PCOD8069600
Probable space group: P 21/M
;
_chemical_formula_sum "Si O2"
_cell_formula_units_Z 32
_cell_length_a 8.411659
_cell_length_b 13.262711
_cell_length_c 17.764530
_cell_angle_alpha 90.000000
_cell_angle_beta 128.048070
_cell_angle_gamma 90.000000
_cell_volume 1560.683762
_symmetry_space_group_name_H-M "P 21/M"
_symmetry_group_IT_number 11
_symmetry_cell_setting 'monoclinic'
loop_
_space_group_symop_operation_xyz
x,y,z
-x,1/2+y,-z
-x,-y,-z
x,1/2-y,z
loop_
_atom_site_type_symbol
_atom_site_label
_atom_site_fract_x
_atom_site_fract_y
_atom_site_fract_z
Si Si1 0.307379 0.362186 0.571727
Si Si2 0.643311 0.637067 0.180275
Si Si3 0.678190 0.003577 0.730835
Si Si4 0.285754 0.454807 0.420305
Si Si5 0.067759 0.367849 0.878230
Si Si6 0.105267 0.024291 0.628583
Si Si7 0.417476 0.032788 0.056362
Si Si8 0.415944 0.632082 0.758999
O O1 0.302841 0.250000 0.603009
O O2 0.514202 0.415437 0.656285
O O3 0.275395 0.356652 0.471497
O O4 0.119603 0.432243 0.546998
O O5 0.564989 0.750000 0.162317
O O6 0.805557 0.621384 0.161262
O O7 0.747745 0.604890 0.287779
O O8 0.438020 0.570946 0.110254
O O9 0.744073 0.935729 0.677175
O O10 0.599541 0.924930 0.769822
O O11 0.864348 0.068123 0.815575
O O12 0.500000 0.500000 0.500000
O O13 0.115639 0.533058 0.400405
O O14 0.023704 0.250000 0.882748
O O15 0.196201 0.418584 0.983815
O O16 0.201347 0.912692 0.668217
O O17 0.556534 0.113847 0.142823
O O18 0.500000 0.000000 0.000000
O O19 0.419511 0.750000 0.741181
#
# Coordination Sequence:
#
# PCOD8069600 Si02
#       8
#     4   4   4   4   4   4   4   4
#     4  10  21  36  57  86 117 152 197 250 299 356
#     4   9  17  31  56  86 115 150 192 234 287 350
#     4  10  21  38  59  84 121 157 200 249 294 353
#     4  10  21  38  57  82 116 154 190 245 305 350
#     4  10  18  32  58  84 115 156 194 237 294 350
#     4  10  19  37  60  84 115 153 198 247 293 350
#     4   9  19  35  57  86 119 149 188 243 288 341
#     4  10  22  39  60  83 117 162 200 239 293 355
#
# _framework density 20.503833
#
# number of rings (size 3 to 8) (size 9 to 14) (size 15 to 20)
#    0.000    2.250    1.250    1.500    0.000    2.000 
#    0.000    1.875    0.000    1.500    0.000    0.000 
#    0.000    0.000    0.000    0.000    0.000    0.000 
#
# Total GULP energy -396430.560443 kJ/mol
# GULP energy per Si atom -12388.455014 kJ/mol
# Density = 2.045717 g / cm^3
# Si number density = 20.503833 Si / 1000 Ang^3
#
#
#
# Elastic Constant Matrix: (Units=GPa)
#
#
# Indices 1 2 3 4 5 6 
#
# 1 93.5340 42.2501 40.4119 0.0000 3.6079 0.0000
# 2 42.2501 149.7538 42.6585 0.0000 10.5153 0.0000
# 3 40.4119 42.6585 61.3595 0.0000 11.8088 0.0000
# 4 0.0000 0.0000 0.0000 22.2422 0.0000 -0.7621
# 5 3.6079 10.5153 11.8088 0.0000 30.2845 0.0000
# 6 0.0000 0.0000 0.0000 -0.7621 0.0000 27.1701
#
#
#
# Elastic Compliance Matrix: (Units=1/GPa)
#
#
# Indices 1 2 3 4 5 6 
#
# 1 0.015493 -0.001873 -0.009375 0.000000 0.002460 0.000000
# 2 -0.001873 0.008566 -0.004532 0.000000 -0.000984 0.000000
# 3 -0.009375 -0.004532 0.027142 0.000000 -0.007893 0.000000
# 4 0.000000 0.000000 0.000000 0.045003 0.000000 0.001262
# 5 0.002460 -0.000984 -0.007893 0.000000 0.036146 0.000000
# 6 0.000000 0.000000 0.000000 0.001262 0.000000 0.036841
#
#
# Mechanical properties :
#
#
# Convention : Reuss Voigt Hill
#
# Bulk Modulus (GPa) = 50.91672 61.69870 56.30771
# Shear Modulus (GPa) = 24.11974 27.89449 26.00711
#
# Velocity S-wave (km/s) = 3.43352 3.69243 3.56533
# Velocity P-wave (km/s) = 6.37224 6.95236 6.66861
#
# Compressibility (1/GPa) = 0.01963992
#
# Stress axis : x y z
#
# Youngs Moduli (GPa) = 64.54479 116.73642 36.84337
#
# Poissons Ratio (x) = 0.21868 0.34541
# Poissons Ratio (y) = 0.12091 0.16699
# Poissons Ratio (z) = 0.60511 0.52909
#
# Static dielectric constant tensor:
#      x y z
#    x 4.025860 0.000000 -0.317260 
#    y 0.000000 3.642850 0.000000 
#    z -0.317260 0.000000 4.179390 
# 
# 
# High freq. dielectric constant tensor:
#      x y z
#    x 1.795720 0.000000 -0.012370 
#    y 0.000000 1.785180 0.000000 
#    z -0.012370 0.000000 1.816050 
# 
# From -- ./inp_files/63689.got.cif
#   From: 2010.06.25/outbox.cif.g09.slc.cpg/sg11_32_cif.got.tgz:63689.got - 2010.06.27 23:14:04.
