data_PCOD8069599
_publ_section_title
;
Structure prediction by ZEFSAII (Michael W. Deem and Ramdas Pophale) SiO2 
 PCOD8069599
Probable space group: P 21/M
;
_chemical_formula_sum "Si O2"
_cell_formula_units_Z 20
_cell_length_a 10.340693
_cell_length_b 17.973301
_cell_length_c 11.057990
_cell_angle_alpha 90.000000
_cell_angle_beta 34.905692
_cell_angle_gamma 90.000000
_cell_volume 1176.040546
_symmetry_space_group_name_H-M "P 21/M"
_symmetry_group_IT_number 11
_symmetry_cell_setting 'monoclinic'
loop_
_space_group_symop_operation_xyz
x,y,z
-x,1/2+y,-z
-x,-y,-z
x,1/2-y,z
loop_
_atom_site_type_symbol
_atom_site_label
_atom_site_fract_x
_atom_site_fract_y
_atom_site_fract_z
Si Si1 0.273909 0.335167 0.701057
Si Si2 0.603828 0.666788 0.667266
Si Si3 0.830038 0.079537 0.972806
Si Si4 0.898806 0.966228 0.457828
Si Si5 0.472140 0.469798 0.655408
O O1 0.245729 0.250000 0.766535
O O2 0.399875 0.338743 0.475591
O O3 0.421248 0.381233 0.686238
O O4 0.033079 0.375849 0.879257
O O5 0.651572 0.750000 0.675660
O O6 0.803357 0.615179 0.565126
O O7 0.697271 0.482118 0.561050
O O8 0.365264 0.639778 0.902549
O O9 0.902623 0.041680 0.791721
O O10 0.741027 0.012972 0.124861
O O11 0.000000 0.000000 0.500000
O O12 0.500000 0.500000 0.500000
#
# Coordination Sequence:
#
# PCOD8069599 Si02
#       5
#     4   4   4   4   4
#     4  10  19  31  50  82 111 133 167 218 269 312
#     4   9  18  32  52  80 107 131 172 220 260 309
#     4  10  18  32  58  76 104 138 178 212 263 308
#     4  10  22  36  53  77 105 142 180 213 255 312
#     4  11  19  34  54  80 106 134 176 219 256 311
#
# _framework density 17.006215999999998
#
# number of rings (size 3 to 8) (size 9 to 14) (size 15 to 20)
#    0.000    2.000    6.000    1.200    0.000    4.000 
#    0.000    1.000    0.000    3.600    0.000    0.000 
#    0.000    0.000    0.000    0.000    0.000    0.000 
#
# Total GULP energy -247950.442925 kJ/mol
# GULP energy per Si atom -12397.522146 kJ/mol
# Density = 1.696751 g / cm^3
# Si number density = 17.006216 Si / 1000 Ang^3
#
#
#
# Elastic Constant Matrix: (Units=GPa)
#
#
# Indices 1 2 3 4 5 6 
#
# 1 106.8066 70.8535 47.9934 0.0000 3.5749 0.0000
# 2 70.8535 159.4108 57.8026 0.0000 5.1072 0.0000
# 3 47.9934 57.8026 117.6426 0.0000 -12.6494 0.0000
# 4 0.0000 0.0000 0.0000 16.3600 0.0000 1.5209
# 5 3.5749 5.1072 -12.6494 0.0000 15.2969 0.0000
# 6 0.0000 0.0000 0.0000 1.5209 0.0000 24.3339
#
#
#
# Elastic Compliance Matrix: (Units=1/GPa)
#
#
# Indices 1 2 3 4 5 6 
#
# 1 0.014598 -0.004815 -0.004153 0.000000 -0.005238 0.000000
# 2 -0.004815 0.009797 -0.003381 0.000000 -0.004942 0.000000
# 3 -0.004153 -0.003381 0.013261 0.000000 0.013065 0.000000
# 4 0.000000 0.000000 0.000000 0.061482 0.000000 -0.003843
# 5 -0.005238 -0.004942 0.013065 0.000000 0.079050 0.000000
# 6 0.000000 0.000000 0.000000 -0.003843 0.000000 0.041335
#
#
# Mechanical properties :
#
#
# Convention : Reuss Voigt Hill
#
# Bulk Modulus (GPa) = 77.16855 81.90657 79.53756
# Shear Modulus (GPa) = 20.11740 25.01219 22.56479
#
# Velocity S-wave (km/s) = 3.44313 3.83922 3.64655
# Velocity P-wave (km/s) = 7.82828 8.24136 8.03748
#
# Compressibility (1/GPa) = 0.01295865
#
# Stress axis : x y z
#
# Youngs Moduli (GPa) = 68.50140 102.06801 75.41130
#
# Poissons Ratio (x) = 0.49143 0.31319
# Poissons Ratio (y) = 0.32982 0.25496
# Poissons Ratio (z) = 0.28449 0.34509
#
# Static dielectric constant tensor:
#      x y z
#    x 3.098510 0.000000 -0.339780 
#    y 0.000000 4.038920 0.000000 
#    z -0.339780 0.000000 3.408100 
# 
# 
# High freq. dielectric constant tensor:
#      x y z
#    x 1.620260 0.000000 -0.021650 
#    y 0.000000 1.663210 0.000000 
#    z -0.021650 0.000000 1.664230 
# 
# From -- ./inp_files/35129.got.cif
#   From: 2010.06.25/outbox.cif.g09.slc.cpg/sg11_18_cif.got.tgz:35129.got - 2010.06.27 23:14:04.
