data_PCOD8069672
_publ_section_title
;
Structure prediction by ZEFSAII (Michael W. Deem and Ramdas Pophale) SiO2 
 PCOD8069672
Probable space group: P 21/M
;
_chemical_formula_sum "Si O2"
_cell_formula_units_Z 32
_cell_length_a 29.696753
_cell_length_b 9.333595
_cell_length_c 20.682953
_cell_angle_alpha 90.000000
_cell_angle_beta 18.812306
_cell_angle_gamma 90.000000
_cell_volume 1848.665973
_symmetry_space_group_name_H-M "P 21/M"
_symmetry_group_IT_number 11
_symmetry_cell_setting 'monoclinic'
loop_
_space_group_symop_operation_xyz
x,y,z
-x,1/2+y,-z
-x,-y,-z
x,1/2-y,z
loop_
_atom_site_type_symbol
_atom_site_label
_atom_site_fract_x
_atom_site_fract_y
_atom_site_fract_z
Si Si1 0.081367 0.581665 0.704914
Si Si2 0.334450 0.914435 0.666510
Si Si3 0.918534 0.917469 0.800530
Si Si4 0.359802 0.583998 0.119510
Si Si5 0.625966 0.414987 0.752415
Si Si6 0.058941 0.918896 0.480960
Si Si7 0.956300 0.081396 0.995378
Si Si8 0.357748 0.415831 0.763016
O O1 0.051285 0.750000 0.759101
O O2 0.244961 0.554234 0.470237
O O3 0.996153 0.523185 0.758719
O O4 0.038862 0.486824 0.823582
O O5 0.336339 0.750000 0.685674
O O6 0.484176 0.956953 0.430647
O O7 0.308979 0.004308 0.765183
O O8 0.210210 0.944168 0.785327
O O9 0.951341 0.750000 0.753669
O O10 0.979108 0.983311 0.652283
O O11 0.752605 0.953335 0.030291
O O12 0.394997 0.750000 0.066981
O O13 0.333604 0.538381 0.229589
O O14 0.222548 0.545672 0.265180
O O15 0.491238 0.501106 0.910446
O O16 0.584077 0.250000 0.807775
O O17 0.032430 0.750000 0.509134
O O18 0.000000 0.000000 0.500000
O O19 0.991557 0.250000 0.952209
O O20 0.000000 0.000000 0.000000
O O21 0.345969 0.250000 0.761391
#
# Coordination Sequence:
#
# PCOD8069672 Si02
#       8
#     4   4   4   4   4   4   4   4
#     4  10  18  33  56  80 102 130 174 220 262 310
#     4   9  18  31  48  76 107 130 162 210 256 297
#     4   9  16  30  54  78 100 131 172 211 254 310
#     4   9  17  31  50  73 105 139 170 210 262 313
#     4   9  17  30  52  79 103 129 168 217 262 308
#     4  10  20  35  52  74 106 142 176 214 260 310
#     4  11  23  37  52  74 108 144 176 213 259 310
#     4   9  16  29  53  78  99 129 167 207 255 307
#
# _framework density 17.309778999999999
#
# number of rings (size 3 to 8) (size 9 to 14) (size 15 to 20)
#    0.000    2.500    2.500    0.375    0.000    1.500 
#    0.000    2.500    0.000    3.000    0.000    0.000 
#    0.000    0.000    0.000    0.000    0.000    0.000 
#
# Total GULP energy -396700.450745 kJ/mol
# GULP energy per Si atom -12396.889086 kJ/mol
# Density = 1.727038 g / cm^3
# Si number density = 17.309779 Si / 1000 Ang^3
#
#
#
# Elastic Constant Matrix: (Units=GPa)
#
#
# Indices 1 2 3 4 5 6 
#
# 1 119.5545 51.3134 71.7430 0.0000 -1.7083 0.0000
# 2 51.3134 59.1891 55.0802 0.0000 -4.8880 0.0000
# 3 71.7430 55.0802 134.3378 0.0000 -6.3383 0.0000
# 4 0.0000 0.0000 0.0000 27.5457 0.0000 -0.4537
# 5 -1.7083 -4.8880 -6.3383 0.0000 25.0178 0.0000
# 6 0.0000 0.0000 0.0000 -0.4537 0.0000 28.4552
#
#
#
# Elastic Compliance Matrix: (Units=1/GPa)
#
#
# Indices 1 2 3 4 5 6 
#
# 1 0.014757 -0.008942 -0.004301 0.000000 -0.001829 0.000000
# 2 -0.008942 0.032896 -0.008540 0.000000 0.003653 0.000000
# 3 -0.004301 -0.008540 0.013309 0.000000 0.001410 0.000000
# 4 0.000000 0.000000 0.000000 0.036313 0.000000 0.000579
# 5 -0.001829 0.003653 0.001410 0.000000 0.040918 0.000000
# 6 0.000000 0.000000 0.000000 0.000579 0.000000 0.035152
#
#
# Mechanical properties :
#
#
# Convention : Reuss Voigt Hill
#
# Bulk Modulus (GPa) = 57.48460 74.37274 65.92867
# Shear Modulus (GPa) = 22.45076 25.20005 23.82540
#
# Velocity S-wave (km/s) = 3.60529 3.81967 3.71403
# Velocity P-wave (km/s) = 7.11423 7.90646 7.52079
#
# Compressibility (1/GPa) = 0.01739596
#
# Stress axis : x y z
#
# Youngs Moduli (GPa) = 67.76309 30.39874 75.13841
#
# Poissons Ratio (x) = 0.27184 0.32317
# Poissons Ratio (y) = 0.60596 0.64167
# Poissons Ratio (z) = 0.29145 0.25960
#
# Static dielectric constant tensor:
#      x y z
#    x 3.039140 0.000000 -0.056240 
#    y 0.000000 3.117370 0.000000 
#    z -0.056240 0.000000 3.571290 
# 
# 
# High freq. dielectric constant tensor:
#      x y z
#    x 1.640340 0.000000 -0.008720 
#    y 0.000000 1.654730 0.000000 
#    z -0.008720 0.000000 1.685920 
# 
# From -- ./inp_files/54332.got.cif
#   From: 2010.06.25/outbox.cif.g09.slc.cpg/sg11_28_cif.got.tgz:54332.got - 2010.06.27 23:14:04.
