data_PCOD8069477
_publ_section_title
;
Structure prediction by ZEFSAII (Michael W. Deem and Ramdas Pophale) SiO2 
 PCOD8069477
Probable space group: P 21/M
;
_chemical_formula_sum "Si O2"
_cell_formula_units_Z 28
_cell_length_a 13.700988
_cell_length_b 8.646700
_cell_length_c 14.408757
_cell_angle_alpha 90.000000
_cell_angle_beta 75.541776
_cell_angle_gamma 90.000000
_cell_volume 1652.921221
_symmetry_space_group_name_H-M "P 21/M"
_symmetry_group_IT_number 11
_symmetry_cell_setting 'monoclinic'
loop_
_space_group_symop_operation_xyz
x,y,z
-x,1/2+y,-z
-x,-y,-z
x,1/2-y,z
loop_
_atom_site_type_symbol
_atom_site_label
_atom_site_fract_x
_atom_site_fract_y
_atom_site_fract_z
Si Si1 0.135185 0.567856 0.398549
Si Si2 0.923231 0.574079 0.895721
Si Si3 0.389203 0.566890 0.026490
Si Si4 0.764777 0.565672 0.076584
Si Si5 0.089513 0.068632 0.599894
Si Si6 0.752424 0.572417 0.789875
Si Si7 0.865523 0.066261 0.218558
O O1 0.141859 0.750000 0.411250
O O2 0.148137 0.485373 0.494295
O O3 0.227608 0.509747 0.313192
O O4 0.027843 0.519752 0.379119
O O5 0.945281 0.750000 0.915400
O O6 0.856271 0.558770 0.820344
O O7 0.030534 0.494614 0.849023
O O8 0.862912 0.500415 0.996902
O O9 0.391323 0.750000 0.022142
O O10 0.335766 0.513579 0.133997
O O11 0.500000 0.500000 0.000000
O O12 0.334321 0.503057 0.947619
O O13 0.757368 0.750000 0.072548
O O14 0.774101 0.506335 0.180082
O O15 0.101663 0.250000 0.609877
O O16 0.143427 0.985082 0.673147
O O17 0.720555 0.750000 0.782424
O O18 0.861152 0.250000 0.214791
#
# Coordination Sequence:
#
# PCOD8069477 Si02
#       7
#     4   4   4   4   4   4   4
#     4  10  19  31  47  70  98 134 176 215 253 297
#     4   8  16  28  44  66  96 132 168 203 241 287
#     4  11  22  38  57  79 102 129 164 208 257 306
#     4  10  20  34  49  71  99 132 168 207 250 302
#     4  10  20  31  45  67  98 138 177 215 253 293
#     4  10  18  32  52  75 102 134 168 209 254 302
#     4  11  19  30  46  69  99 137 174 209 248 295
#
# _framework density 16.939705
#
# number of rings (size 3 to 8) (size 9 to 14) (size 15 to 20)
#    0.000    2.000    1.429    4.714    0.000    1.143 
#    0.000    1.429    0.000    0.000    0.000    1.000 
#    0.000    0.000    0.000    0.000    0.000    0.000 
#
# Total GULP energy -347170.219248 kJ/mol
# GULP energy per Si atom -12398.936402 kJ/mol
# Density = 1.690115 g / cm^3
# Si number density = 16.939705 Si / 1000 Ang^3
#
#
#
# Elastic Constant Matrix: (Units=GPa)
#
#
# Indices 1 2 3 4 5 6 
#
# 1 80.7447 37.4915 55.4968 0.0000 1.3367 0.0000
# 2 37.4915 91.1648 36.7242 0.0000 -0.3720 0.0000
# 3 55.4968 36.7242 102.8642 0.0000 8.6315 0.0000
# 4 0.0000 0.0000 0.0000 31.4766 0.0000 1.8730
# 5 1.3367 -0.3720 8.6315 0.0000 17.2602 0.0000
# 6 0.0000 0.0000 0.0000 1.8730 0.0000 22.8191
#
#
#
# Elastic Compliance Matrix: (Units=1/GPa)
#
#
# Indices 1 2 3 4 5 6 
#
# 1 0.021549 -0.004733 -0.010216 0.000000 0.003338 0.000000
# 2 -0.004733 0.013971 -0.002599 0.000000 0.001968 0.000000
# 3 -0.010216 -0.002599 0.016805 0.000000 -0.007669 0.000000
# 4 0.000000 0.000000 0.000000 0.031926 0.000000 -0.002620
# 5 0.003338 0.001968 -0.007669 0.000000 0.061556 0.000000
# 6 0.000000 0.000000 0.000000 -0.002620 0.000000 0.044038
#
#
# Mechanical properties :
#
#
# Convention : Reuss Voigt Hill
#
# Bulk Modulus (GPa) = 58.04752 59.35542 58.70147
# Shear Modulus (GPa) = 21.67473 23.98192 22.82832
#
# Velocity S-wave (km/s) = 3.58092 3.76669 3.67498
# Velocity P-wave (km/s) = 7.17209 7.35068 7.26194
#
# Compressibility (1/GPa) = 0.01722726
#
# Stress axis : x y z
#
# Youngs Moduli (GPa) = 46.40622 71.57840 59.50632
#
# Poissons Ratio (x) = 0.33877 0.60794
# Poissons Ratio (y) = 0.21963 0.15468
# Poissons Ratio (z) = 0.47410 0.18606
#
# Static dielectric constant tensor:
#      x y z
#    x 2.901940 0.000000 0.045780 
#    y 0.000000 3.140890 0.000000 
#    z 0.045780 0.000000 3.225610 
# 
# 
# High freq. dielectric constant tensor:
#      x y z
#    x 1.609310 0.000000 0.009150 
#    y 0.000000 1.661470 0.000000 
#    z 0.009150 0.000000 1.654290 
# 
# From -- ./inp_files/48742.got.cif
#   From: 2010.06.25/outbox.cif.g09.slc.cpg/sg11_25_cif.got.tgz:48742.got - 2010.06.27 23:14:04.
