data_PCOD8069616
_publ_section_title
;
Structure prediction by ZEFSAII (Michael W. Deem and Ramdas Pophale) SiO2 
 PCOD8069616
Probable space group: P 21/M
;
_chemical_formula_sum "Si O2"
_cell_formula_units_Z 28
_cell_length_a 8.448923
_cell_length_b 21.532501
_cell_length_c 14.925676
_cell_angle_alpha 90.000000
_cell_angle_beta 32.719150
_cell_angle_gamma 90.000000
_cell_volume 1467.718778
_symmetry_space_group_name_H-M "P 21/M"
_symmetry_group_IT_number 11
_symmetry_cell_setting 'monoclinic'
loop_
_space_group_symop_operation_xyz
x,y,z
-x,1/2+y,-z
-x,-y,-z
x,1/2-y,z
loop_
_atom_site_type_symbol
_atom_site_label
_atom_site_fract_x
_atom_site_fract_y
_atom_site_fract_z
Si Si1 0.857435 0.996681 0.166427
Si Si2 0.276114 0.086537 0.279658
Si Si3 0.221998 0.945516 0.287790
Si Si4 0.280097 0.177699 0.637190
Si Si5 0.252767 0.910785 0.084280
Si Si6 0.588274 0.597574 0.591659
Si Si7 0.628989 0.394045 0.604764
O O1 0.589419 0.950187 0.307340
O O2 0.110314 0.973472 0.112195
O O3 0.724745 0.062348 0.261694
O O4 0.000000 0.000000 0.000000
O O5 0.364737 0.122761 0.328904
O O6 0.942845 0.096745 0.408108
O O7 0.322589 0.012629 0.276870
O O8 0.479590 0.111965 0.104083
O O9 0.384417 0.929425 0.118061
O O10 0.313579 0.891657 0.315218
O O11 0.871582 0.945908 0.436277
O O12 0.231850 0.250000 0.646850
O O13 0.426902 0.151249 0.475964
O O14 0.485918 0.166489 0.626637
O O15 0.966720 0.146780 0.803729
#
# Coordination Sequence:
#
# PCOD8069616 Si02
#       7
#     4   4   4   4   4   4   4
#     4  11  18  32  54  91 121 150 177 225 283 356
#     4  11  18  35  54  95 120 142 170 229 291 360
#     4  10  18  33  52  89 125 146 171 220 287 360
#     4  10  24  43  57  74 105 152 207 241 265 322
#     4  10  22  32  59  86 119 150 179 224 292 336
#     4  10  19  34  58  81 118 153 185 220 287 339
#     4  10  20  35  57  79 117 147 188 227 286 333
#
# _framework density 19.077223
#
# number of rings (size 3 to 8) (size 9 to 14) (size 15 to 20)
#    0.000    1.714    4.286    1.286    2.000    1.714 
#    0.000    7.857    0.000    0.000    0.000    0.000 
#    0.000    0.000    0.000    0.000    0.000    0.000 
#
# Total GULP energy -346987.567732 kJ/mol
# GULP energy per Si atom -12392.413133 kJ/mol
# Density = 1.903380 g / cm^3
# Si number density = 19.077223 Si / 1000 Ang^3
#
#
#
# Elastic Constant Matrix: (Units=GPa)
#
#
# Indices 1 2 3 4 5 6 
#
# 1 98.6207 29.4420 38.9253 0.0000 18.3576 0.0000
# 2 29.4420 78.6962 29.3979 0.0000 7.7589 0.0000
# 3 38.9253 29.3979 131.6617 0.0000 15.6844 0.0000
# 4 0.0000 0.0000 0.0000 12.2717 0.0000 3.5937
# 5 18.3576 7.7589 15.6844 0.0000 33.9180 0.0000
# 6 0.0000 0.0000 0.0000 3.5937 0.0000 18.5776
#
#
#
# Elastic Compliance Matrix: (Units=1/GPa)
#
#
# Indices 1 2 3 4 5 6 
#
# 1 0.013118 -0.003469 -0.002489 0.000000 -0.005155 0.000000
# 2 -0.003469 0.014891 -0.002240 0.000000 -0.000493 0.000000
# 3 -0.002489 -0.002240 0.009112 0.000000 -0.002354 0.000000
# 4 0.000000 0.000000 0.000000 0.086382 0.000000 -0.016710
# 5 -0.005155 -0.000493 -0.002354 0.000000 0.033474 0.000000
# 6 0.000000 0.000000 0.000000 -0.016710 0.000000 0.057061
#
#
# Mechanical properties :
#
#
# Convention : Reuss Voigt Hill
#
# Bulk Modulus (GPa) = 48.25894 56.05655 52.15774
# Shear Modulus (GPa) = 21.06661 27.03436 24.05048
#
# Velocity S-wave (km/s) = 3.32668 3.76852 3.55447
# Velocity P-wave (km/s) = 6.33303 6.95583 6.65172
#
# Compressibility (1/GPa) = 0.02072155
#
# Stress axis : x y z
#
# Youngs Moduli (GPa) = 76.23258 67.15656 109.74720
#
# Poissons Ratio (x) = 0.23300 0.27321
# Poissons Ratio (y) = 0.26448 0.24588
# Poissons Ratio (z) = 0.18978 0.15046
#
# Static dielectric constant tensor:
#      x y z
#    x 3.784680 0.000000 0.038730 
#    y 0.000000 2.965180 0.000000 
#    z 0.038730 0.000000 3.757570 
# 
# 
# High freq. dielectric constant tensor:
#      x y z
#    x 1.754390 0.000000 0.004690 
#    y 0.000000 1.670260 0.000000 
#    z 0.004690 0.000000 1.758640 
# 
# From -- ./inp_files/48308.got.cif
#   From: 2010.06.25/outbox.cif.g09.slc.cpg/sg11_25_cif.got.tgz:48308.got - 2010.06.27 23:14:04.
