data_PCOD8069194
_publ_section_title
;
Structure prediction by ZEFSAII (Michael W. Deem and Ramdas Pophale) SiO2 
 PCOD8069194
Probable space group: P 21/M
;
_chemical_formula_sum "Si O2"
_cell_formula_units_Z 32
_cell_length_a 11.788558
_cell_length_b 8.935567
_cell_length_c 29.970348
_cell_angle_alpha 90.000000
_cell_angle_beta 33.782453
_cell_angle_gamma 90.000000
_cell_volume 1755.421763
_symmetry_space_group_name_H-M "P 21/M"
_symmetry_group_IT_number 11
_symmetry_cell_setting 'monoclinic'
loop_
_space_group_symop_operation_xyz
x,y,z
-x,1/2+y,-z
-x,-y,-z
x,1/2-y,z
loop_
_atom_site_type_symbol
_atom_site_label
_atom_site_fract_x
_atom_site_fract_y
_atom_site_fract_z
Si Si1 0.379525 0.075104 0.344771
Si Si2 0.422359 0.076333 0.089677
Si Si3 0.795739 0.575357 0.930592
Si Si4 0.097032 0.574971 0.365768
Si Si5 0.795270 0.925292 0.219169
Si Si6 0.650642 0.578120 0.542731
Si Si7 0.756024 0.575792 0.335230
Si Si8 0.881375 0.926184 0.733206
O O1 0.385308 0.250000 0.332305
O O2 0.316527 0.040183 0.416076
O O3 0.210475 0.997370 0.370166
O O4 0.600499 0.006539 0.261540
O O5 0.482353 0.250000 0.069132
O O6 0.281593 0.035474 0.093598
O O7 0.300091 0.031233 0.173784
O O8 0.629419 0.980039 0.020886
O O9 0.835499 0.750000 0.924003
O O10 0.005396 0.487883 0.870709
O O11 0.144347 0.750000 0.349702
O O12 0.177306 0.501402 0.294199
O O13 0.856767 0.542642 0.448920
O O14 0.774633 0.750000 0.217291
O O15 0.811497 0.963497 0.266218
O O16 0.583460 0.750000 0.559248
O O17 0.474971 0.474827 0.579103
O O18 0.778186 0.750000 0.338546
O O19 0.904554 0.486986 0.319109
O O20 0.901158 0.750000 0.720656
#
# Coordination Sequence:
#
# PCOD8069194 Si02
#       8
#     4   4   4   4   4   4   4   4
#     4  10  20  36  58  81 105 137 179 224 270 315
#     4   9  19  33  50  76 109 143 176 215 260 312
#     4  10  18  30  52  81 110 140 175 216 262 313
#     4  11  23  38  55  78 106 140 182 223 268 318
#     4  10  19  32  53  81 112 141 173 219 269 315
#     4   9  20  37  57  79 106 138 175 224 272 318
#     4  10  20  33  53  80 108 140 178 220 268 317
#     4  11  22  37  55  75 108 148 182 217 262 319
#
# _framework density 18.229236
#
# number of rings (size 3 to 8) (size 9 to 14) (size 15 to 20)
#    0.000    2.000    1.250    2.625    0.000    4.500 
#    0.000    0.000    0.000    0.750    0.000    0.000 
#    0.000    0.000    0.000    0.000    0.000    0.000 
#
# Total GULP energy -396960.984894 kJ/mol
# GULP energy per Si atom -12405.030778 kJ/mol
# Density = 1.818775 g / cm^3
# Si number density = 18.229236 Si / 1000 Ang^3
#
#
#
# Elastic Constant Matrix: (Units=GPa)
#
#
# Indices 1 2 3 4 5 6 
#
# 1 30.8226 24.6353 16.5897 0.0000 6.3489 0.0000
# 2 24.6353 85.1516 42.8106 0.0000 -0.9289 0.0000
# 3 16.5897 42.8106 94.3095 0.0000 2.2877 0.0000
# 4 0.0000 0.0000 0.0000 33.5734 0.0000 -5.0965
# 5 6.3489 -0.9289 2.2877 0.0000 19.2502 0.0000
# 6 0.0000 0.0000 0.0000 -5.0965 0.0000 33.1746
#
#
#
# Elastic Compliance Matrix: (Units=1/GPa)
#
#
# Indices 1 2 3 4 5 6 
#
# 1 0.047009 -0.012710 -0.002115 0.000000 -0.015866 0.000000
# 2 -0.012710 0.018700 -0.006395 0.000000 0.005854 0.000000
# 3 -0.002115 -0.006395 0.013909 0.000000 -0.001264 0.000000
# 4 0.000000 0.000000 0.000000 0.030497 0.000000 0.004685
# 5 -0.015866 0.005854 -0.001264 0.000000 0.057613 0.000000
# 6 0.000000 0.000000 0.000000 0.004685 0.000000 0.030863
#
#
# Mechanical properties :
#
#
# Convention : Reuss Voigt Hill
#
# Bulk Modulus (GPa) = 26.89741 42.03943 34.46842
# Shear Modulus (GPa) = 19.72994 25.61618 22.67306
#
# Velocity S-wave (km/s) = 3.29344 3.75270 3.53055
# Velocity P-wave (km/s) = 5.40828 6.47214 5.96398
#
# Compressibility (1/GPa) = 0.03717829
#
# Stress axis : x y z
#
# Youngs Moduli (GPa) = 21.27267 53.47667 71.89664
#
# Poissons Ratio (x) = 0.67969 0.15205
# Poissons Ratio (y) = 0.27037 0.45976
# Poissons Ratio (z) = 0.04499 0.34197
#
# Static dielectric constant tensor:
#      x y z
#    x 3.134330 0.000000 -0.047890 
#    y 0.000000 3.421240 0.000000 
#    z -0.047890 0.000000 3.406300 
# 
# 
# High freq. dielectric constant tensor:
#      x y z
#    x 1.680750 0.000000 -0.011190 
#    y 0.000000 1.719490 0.000000 
#    z -0.011190 0.000000 1.708830 
# 
# From -- ./inp_files/38085.got.cif
#   From: 2010.06.25/outbox.cif.g09.slc.cpg/sg11_20_cif.got.tgz:38085.got - 2010.06.27 23:14:04.
