data_PCOD8069972
_publ_section_title
;
Structure prediction by ZEFSAII (Michael W. Deem and Ramdas Pophale) SiO2 
 PCOD8069972
Probable space group: P 21/M
;
_chemical_formula_sum "Si O2"
_cell_formula_units_Z 32
_cell_length_a 12.213434
_cell_length_b 8.964877
_cell_length_c 32.685770
_cell_angle_alpha 90.000000
_cell_angle_beta 29.037426
_cell_angle_gamma 90.000000
_cell_volume 1737.094561
_symmetry_space_group_name_H-M "P 21/M"
_symmetry_group_IT_number 11
_symmetry_cell_setting 'monoclinic'
loop_
_space_group_symop_operation_xyz
x,y,z
-x,1/2+y,-z
-x,-y,-z
x,1/2-y,z
loop_
_atom_site_type_symbol
_atom_site_label
_atom_site_fract_x
_atom_site_fract_y
_atom_site_fract_z
Si Si1 0.064318 0.579537 0.240188
Si Si2 0.140945 0.086007 0.421439
Si Si3 0.857004 0.077539 0.694942
Si Si4 0.270127 0.575621 0.087945
Si Si5 0.491780 0.574636 0.258273
Si Si6 0.170942 0.925319 0.798985
Si Si7 0.367049 0.923639 0.647364
Si Si8 0.215763 0.912837 0.530523
O O1 0.979299 0.750000 0.265308
O O2 0.193677 0.549684 0.240681
O O3 0.236573 0.544522 0.147238
O O4 0.847173 0.474745 0.308892
O O5 0.229242 0.250000 0.408187
O O6 0.991505 0.114874 0.431231
O O7 0.342319 0.974056 0.345727
O O8 0.000000 0.000000 0.500000
O O9 0.888035 0.250000 0.673619
O O10 0.636578 0.020449 0.741352
O O11 0.100721 0.003169 0.605386
O O12 0.278973 0.750000 0.075125
O O13 0.069382 0.503339 0.127624
O O14 0.500000 0.500000 0.000000
O O15 0.538270 0.750000 0.243028
O O16 0.725159 0.488555 0.192161
O O17 0.133174 0.750000 0.815781
O O18 0.327587 0.962893 0.708137
O O19 0.400789 0.750000 0.629579
O O20 0.588131 0.002062 0.557384
O O21 0.304408 0.750000 0.516711
#
# Coordination Sequence:
#
# PCOD8069972 Si02
#       8
#     4   4   4   4   4   4   4   4
#     4   9  19  36  56  76 100 132 167 205 251 303
#     4  10  19  29  42  62  90 127 172 218 261 302
#     4   9  19  35  52  71  98 135 177 214 250 295
#     4  10  20  36  60  87 111 132 158 197 249 306
#     4  10  19  31  49  72  99 132 169 209 252 299
#     4  10  20  34  53  78 107 136 169 209 254 302
#     4  10  20  32  48  71  99 133 173 218 262 301
#     4  10  20  31  44  65  95 133 176 218 257 298
#
# _framework density 18.421565000000001
#
# number of rings (size 3 to 8) (size 9 to 14) (size 15 to 20)
#    0.000    2.250    0.000    3.000    0.000    7.000 
#    0.000    0.000    0.000    0.750    0.000    0.000 
#    0.000    0.000    0.000    0.000    0.000    0.000 
#
# Total GULP energy -396565.683271 kJ/mol
# GULP energy per Si atom -12392.677602 kJ/mol
# Density = 1.837964 g / cm^3
# Si number density = 18.421565 Si / 1000 Ang^3
#
#
#
# Elastic Constant Matrix: (Units=GPa)
#
#
# Indices 1 2 3 4 5 6 
#
# 1 106.2031 48.3790 45.1890 0.0000 -11.1902 0.0000
# 2 48.3790 102.7747 48.0625 0.0000 -10.0886 0.0000
# 3 45.1890 48.0625 94.0044 0.0000 -16.7521 0.0000
# 4 0.0000 0.0000 0.0000 29.2005 0.0000 -6.8891
# 5 -11.1902 -10.0886 -16.7521 0.0000 17.8479 0.0000
# 6 0.0000 0.0000 0.0000 -6.8891 0.0000 25.0178
#
#
#
# Elastic Compliance Matrix: (Units=1/GPa)
#
#
# Indices 1 2 3 4 5 6 
#
# 1 0.013186 -0.004216 -0.003764 0.000000 0.002351 0.000000
# 2 -0.004216 0.014161 -0.005114 0.000000 0.000562 0.000000
# 3 -0.003764 -0.005114 0.016963 0.000000 0.010671 0.000000
# 4 0.000000 0.000000 0.000000 0.036625 0.000000 0.010085
# 5 0.002351 0.000562 0.010671 0.000000 0.067837 0.000000
# 6 0.000000 0.000000 0.000000 0.010085 0.000000 0.042749
#
#
# Mechanical properties :
#
#
# Convention : Reuss Voigt Hill
#
# Bulk Modulus (GPa) = 55.17774 65.13813 60.15794
# Shear Modulus (GPa) = 22.34649 25.17004 23.75826
#
# Velocity S-wave (km/s) = 3.48668 3.70041 3.59513
# Velocity P-wave (km/s) = 6.79905 7.32761 7.06827
#
# Compressibility (1/GPa) = 0.01812325
#
# Stress axis : x y z
#
# Youngs Moduli (GPa) = 75.83980 70.61642 58.95056
#
# Poissons Ratio (x) = 0.29771 0.22189
# Poissons Ratio (y) = 0.31973 0.30145
# Poissons Ratio (z) = 0.28547 0.36110
#
# Static dielectric constant tensor:
#      x y z
#    x 1.415210 0.000000 0.141720 
#    y 0.000000 3.676730 0.000000 
#    z 0.141720 0.000000 3.097560 
# 
# 
# High freq. dielectric constant tensor:
#      x y z
#    x 1.714300 0.000000 -0.007600 
#    y 0.000000 1.728370 0.000000 
#    z -0.007600 0.000000 1.678950 
# 
# From -- ./inp_files/73114.got.cif
#   From: 2010.06.25/outbox.cif.g09.slc.cpg/sg11_37_cif.got.tgz:73114.got - 2010.06.27 23:14:04.
