data_PCOD8069594
_publ_section_title
;
Structure prediction by ZEFSAII (Michael W. Deem and Ramdas Pophale) SiO2 
 PCOD8069594
Probable space group: P 21/M
;
_chemical_formula_sum "Si O2"
_cell_formula_units_Z 32
_cell_length_a 11.070401
_cell_length_b 20.800387
_cell_length_c 10.824805
_cell_angle_alpha 90.000000
_cell_angle_beta 42.386255
_cell_angle_gamma 90.000000
_cell_volume 1680.333253
_symmetry_space_group_name_H-M "P 21/M"
_symmetry_group_IT_number 11
_symmetry_cell_setting 'monoclinic'
loop_
_space_group_symop_operation_xyz
x,y,z
-x,1/2+y,-z
-x,-y,-z
x,1/2-y,z
loop_
_atom_site_type_symbol
_atom_site_label
_atom_site_fract_x
_atom_site_fract_y
_atom_site_fract_z
Si Si1 0.957888 0.324731 0.663469
Si Si2 0.433594 0.819454 0.687374
Si Si3 0.440765 0.491736 0.846089
Si Si4 0.140073 0.056757 0.889355
Si Si5 0.681456 0.678152 0.733172
Si Si6 0.588048 0.555631 0.509253
Si Si7 0.395533 0.906497 0.080161
Si Si8 0.966065 0.177644 0.938675
O O1 0.912873 0.250000 0.679105
O O2 0.116148 0.346664 0.449793
O O3 0.023782 0.336358 0.754268
O O4 0.776727 0.362526 0.769549
O O5 0.432077 0.750000 0.618544
O O6 0.585534 0.818763 0.674760
O O7 0.481167 0.877820 0.559480
O O8 0.247249 0.831571 0.896927
O O9 0.291415 0.455263 0.877552
O O10 0.573122 0.537130 0.664743
O O11 0.347293 0.538479 0.016338
O O12 0.562766 0.438710 0.819716
O O13 0.211847 0.059807 0.693864
O O14 0.050512 0.127198 0.973224
O O15 0.000000 0.000000 0.000000
O O16 0.688360 0.750000 0.785533
O O17 0.575503 0.632153 0.906758
O O18 0.500000 0.500000 0.500000
O O19 0.022239 0.250000 0.936283
#
# Coordination Sequence:
#
# PCOD8069594 Si02
#       8
#     4   4   4   4   4   4   4   4
#     4  10  19  33  58  89 111 145 194 240 294 342
#     4  10  18  32  57  86 114 144 189 246 296 336
#     4  10  23  38  53  84 111 159 195 228 293 354
#     4  11  22  37  58  83 116 152 193 243 295 345
#     4  10  19  32  57  86 111 145 190 239 293 343
#     4  10  19  35  56  78 113 147 190 238 286 349
#     4  11  20  39  58  79 126 147 190 243 285 354
#     4  10  19  32  55  85 116 147 190 245 292 343
#
# _framework density 19.043839999999999
#
# number of rings (size 3 to 8) (size 9 to 14) (size 15 to 20)
#    0.000    1.750    2.500    3.375    0.000    1.500 
#    2.250    2.500    0.000    1.500    0.000    0.000 
#    0.000    0.000    0.000    0.000    0.000    0.000 
#
# Total GULP energy -396588.765177 kJ/mol
# GULP energy per Si atom -12393.398912 kJ/mol
# Density = 1.900050 g / cm^3
# Si number density = 19.043840 Si / 1000 Ang^3
#
#
#
# Elastic Constant Matrix: (Units=GPa)
#
#
# Indices 1 2 3 4 5 6 
#
# 1 80.0102 48.4877 37.8306 0.0000 -6.4367 0.0000
# 2 48.4877 146.4883 58.3954 0.0000 -8.3603 0.0000
# 3 37.8306 58.3954 106.3055 0.0000 -18.2311 0.0000
# 4 0.0000 0.0000 0.0000 30.7775 0.0000 -4.3795
# 5 -6.4367 -8.3603 -18.2311 0.0000 21.3891 0.0000
# 6 0.0000 0.0000 0.0000 -4.3795 0.0000 33.6217
#
#
#
# Elastic Compliance Matrix: (Units=1/GPa)
#
#
# Indices 1 2 3 4 5 6 
#
# 1 0.016714 -0.004052 -0.003667 0.000000 0.000320 0.000000
# 2 -0.004052 0.009734 -0.004054 0.000000 -0.000870 0.000000
# 3 -0.003667 -0.004054 0.014614 0.000000 0.009768 0.000000
# 4 0.000000 0.000000 0.000000 0.033105 0.000000 0.004312
# 5 0.000320 -0.000870 0.009768 0.000000 0.054835 0.000000
# 6 0.000000 0.000000 0.000000 0.004312 0.000000 0.030304
#
#
# Mechanical properties :
#
#
# Convention : Reuss Voigt Hill
#
# Bulk Modulus (GPa) = 57.09407 69.13683 63.11545
# Shear Modulus (GPa) = 26.49821 29.69702 28.09761
#
# Velocity S-wave (km/s) = 3.73424 3.95321 3.84528
# Velocity P-wave (km/s) = 6.97410 7.56439 7.27524
#
# Compressibility (1/GPa) = 0.01751495
#
# Stress axis : x y z
#
# Youngs Moduli (GPa) = 59.83114 102.72912 68.42636
#
# Poissons Ratio (x) = 0.41628 0.25092
# Poissons Ratio (y) = 0.24245 0.27743
# Poissons Ratio (z) = 0.21940 0.41651
#
# Static dielectric constant tensor:
#      x y z
#    x 3.056310 0.000000 0.204460 
#    y 0.000000 3.955800 0.000000 
#    z 0.204460 0.000000 3.459640 
# 
# 
# High freq. dielectric constant tensor:
#      x y z
#    x 1.693130 0.000000 -0.019320 
#    y 0.000000 1.763600 0.000000 
#    z -0.019320 0.000000 1.743750 
# 
# From -- ./inp_files/36328.got.cif
#   From: 2010.06.25/outbox.cif.g09.slc.cpg/sg11_19_cif.got.tgz:36328.got - 2010.06.27 23:14:04.
