data_PCOD8069172
_publ_section_title
;
Structure prediction by ZEFSAII (Michael W. Deem and Ramdas Pophale) SiO2 
 PCOD8069172
Probable space group: P 21/M
;
_chemical_formula_sum "Si O2"
_cell_formula_units_Z 32
_cell_length_a 8.947567
_cell_length_b 18.581136
_cell_length_c 11.766348
_cell_angle_alpha 90.000000
_cell_angle_beta 67.161030
_cell_angle_gamma 90.000000
_cell_volume 1802.856160
_symmetry_space_group_name_H-M "P 21/M"
_symmetry_group_IT_number 11
_symmetry_cell_setting 'monoclinic'
loop_
_space_group_symop_operation_xyz
x,y,z
-x,1/2+y,-z
-x,-y,-z
x,1/2-y,z
loop_
_atom_site_type_symbol
_atom_site_label
_atom_site_fract_x
_atom_site_fract_y
_atom_site_fract_z
Si Si1 0.892545 0.045935 0.119058
Si Si2 0.915957 0.520468 0.356748
Si Si3 0.747934 0.470888 0.618738
Si Si4 0.058489 0.169455 0.742139
Si Si5 0.709744 0.171319 0.755229
Si Si6 0.521575 0.465472 0.163897
Si Si7 0.441691 0.111026 0.975004
Si Si8 0.104288 0.167444 0.992767
O O1 0.702958 0.041694 0.153505
O O2 0.945326 0.128904 0.090045
O O3 0.926952 0.018497 0.234057
O O4 0.000000 0.000000 0.000000
O O5 0.780874 0.482468 0.475249
O O6 0.865922 0.605235 0.356622
O O7 0.092183 0.509364 0.358299
O O8 0.699894 0.387711 0.657607
O O9 0.603744 0.525886 0.694642
O O10 0.111352 0.250000 0.684479
O O11 0.864831 0.160216 0.791002
O O12 0.115558 0.158057 0.854062
O O13 0.715006 0.250000 0.694624
O O14 0.556030 0.171113 0.885039
O O15 0.500896 0.536885 0.096766
O O16 0.471064 0.396485 0.102006
O O17 0.256742 0.129207 0.005356
O O18 0.095313 0.250000 0.031960
#
# Coordination Sequence:
#
# PCOD8069172 Si02
#       8
#     4   4   4   4   4   4   4   4
#     4  12  21  34  56  81 106 144 179 228 275 324
#     4  10  19  35  55  77 109 144 190 229 271 328
#     4   9  20  34  53  78 107 148 188 229 269 324
#     4   9  17  30  51  76 104 136 174 226 275 326
#     4   9  17  30  49  75 105 139 180 223 274 325
#     4  10  20  32  53  80 105 138 181 225 269 323
#     4  10  18  30  51  77 107 137 170 226 273 318
#     4  11  21  33  50  79 112 140 177 222 281 334
#
# _framework density 17.749614999999999
#
# number of rings (size 3 to 8) (size 9 to 14) (size 15 to 20)
#    0.000    2.000    2.500    1.875    3.500    0.500 
#    0.000    1.250    0.000    7.500    0.000    0.000 
#    0.000    0.000    0.000    0.000    0.000    0.000 
#
# Total GULP energy -396682.566101 kJ/mol
# GULP energy per Si atom -12396.330191 kJ/mol
# Density = 1.770922 g / cm^3
# Si number density = 17.749615 Si / 1000 Ang^3
#
#
#
# Elastic Constant Matrix: (Units=GPa)
#
#
# Indices 1 2 3 4 5 6 
#
# 1 66.0438 20.7395 35.7908 0.0000 -3.7312 0.0000
# 2 20.7395 89.9900 53.8878 0.0000 -1.5934 0.0000
# 3 35.7908 53.8878 119.7807 0.0000 -2.8461 0.0000
# 4 0.0000 0.0000 0.0000 22.9531 0.0000 -0.0130
# 5 -3.7312 -1.5934 -2.8461 0.0000 25.6740 0.0000
# 6 0.0000 0.0000 0.0000 -0.0130 0.0000 23.4235
#
#
#
# Elastic Compliance Matrix: (Units=1/GPa)
#
#
# Indices 1 2 3 4 5 6 
#
# 1 0.018281 -0.001280 -0.004838 0.000000 0.002041 0.000000
# 2 -0.001280 0.015300 -0.006500 0.000000 0.000043 0.000000
# 3 -0.004838 -0.006500 0.012726 0.000000 0.000304 0.000000
# 4 0.000000 0.000000 0.000000 0.043567 0.000000 0.000024
# 5 0.002041 0.000043 0.000304 0.000000 0.039283 0.000000
# 6 0.000000 0.000000 0.000000 0.000024 0.000000 0.042692
#
#
# Mechanical properties :
#
#
# Convention : Reuss Voigt Hill
#
# Bulk Modulus (GPa) = 47.45864 55.18342 51.32103
# Shear Modulus (GPa) = 24.49681 25.43654 24.96667
#
# Velocity S-wave (km/s) = 3.71904 3.78971 3.75454
# Velocity P-wave (km/s) = 6.72589 7.09271 6.91174
#
# Compressibility (1/GPa) = 0.02107098
#
# Stress axis : x y z
#
# Youngs Moduli (GPa) = 54.70306 65.35778 78.58106
#
# Poissons Ratio (x) = 0.08364 0.38018
# Poissons Ratio (y) = 0.07001 0.51078
# Poissons Ratio (z) = 0.26465 0.42483
#
# Static dielectric constant tensor:
#      x y z
#    x 3.257680 0.000000 -0.049840 
#    y 0.000000 3.518770 0.000000 
#    z -0.049840 0.000000 3.252400 
# 
# 
# High freq. dielectric constant tensor:
#      x y z
#    x 1.691330 0.000000 -0.002550 
#    y 0.000000 1.684790 0.000000 
#    z -0.002550 0.000000 1.659060 
# 
# From -- ./inp_files/19167.got.cif
#   From: 2010.06.25/outbox.cif.g09.slc.cpg/sg11_10_cif.got.tgz:19167.got - 2010.06.27 23:14:04.
