data_PCOD8069628
_publ_section_title
;
Structure prediction by ZEFSAII (Michael W. Deem and Ramdas Pophale) SiO2 
 PCOD8069628
Probable space group: P 21/M
;
_chemical_formula_sum "Si O2"
_cell_formula_units_Z 28
_cell_length_a 8.992460
_cell_length_b 16.509537
_cell_length_c 11.522286
_cell_angle_alpha 90.000000
_cell_angle_beta 66.901315
_cell_angle_gamma 90.000000
_cell_volume 1573.475069
_symmetry_space_group_name_H-M "P 21/M"
_symmetry_group_IT_number 11
_symmetry_cell_setting 'monoclinic'
loop_
_space_group_symop_operation_xyz
x,y,z
-x,1/2+y,-z
-x,-y,-z
x,1/2-y,z
loop_
_atom_site_type_symbol
_atom_site_label
_atom_site_fract_x
_atom_site_fract_y
_atom_site_fract_z
Si Si1 0.412831 0.844547 0.449282
Si Si2 0.547975 0.049337 0.785948
Si Si3 0.349106 0.892503 0.818066
Si Si4 0.780944 0.913428 0.742588
Si Si5 0.629423 0.839314 0.583650
Si Si6 0.513788 0.658268 0.980215
Si Si7 0.884898 0.154941 0.292011
O O1 0.427740 0.750000 0.415500
O O2 0.404669 0.893755 0.334178
O O3 0.571001 0.872816 0.475755
O O4 0.249867 0.861776 0.570262
O O5 0.412283 0.984964 0.786867
O O6 0.711364 0.004246 0.781191
O O7 0.474084 0.101486 0.912046
O O8 0.467166 0.833000 0.710625
O O9 0.356181 0.865733 0.951057
O O10 0.172377 0.878347 0.816931
O O11 0.760814 0.894183 0.610166
O O12 0.673907 0.852540 0.853096
O O13 0.965216 0.902362 0.721190
O O14 0.704017 0.750000 0.546513
O O15 0.500487 0.750000 0.027681
O O16 0.932591 0.250000 0.271094
#
# Coordination Sequence:
#
# PCOD8069628 Si02
#       7
#     4   4   4   4   4   4   4
#     4   9  18  32  50  72  99 130 162 195 239 294
#     4  10  20  33  48  72 102 130 161 196 241 292
#     4   9  17  30  50  72  94 121 160 205 239 274
#     4  10  19  31  51  75  98 122 161 209 246 278
#     4   8  14  27  47  69  91 120 159 198 233 273
#     4  10  18  33  54  72  94 127 166 202 239 285
#     4  10  19  32  51  75  99 126 162 202 243 285
#
# _framework density 17.795006999999998
#
# number of rings (size 3 to 8) (size 9 to 14) (size 15 to 20)
#    0.000    2.857    0.000    6.429    0.000    5.714 
#    0.000    2.857    0.000    0.000    0.000    6.000 
#    0.000    0.000    0.000    0.000    0.000    0.000 
#
# Total GULP energy -346951.559086 kJ/mol
# GULP energy per Si atom -12391.127110 kJ/mol
# Density = 1.775450 g / cm^3
# Si number density = 17.795007 Si / 1000 Ang^3
#
#
#
# Elastic Constant Matrix: (Units=GPa)
#
#
# Indices 1 2 3 4 5 6 
#
# 1 108.4603 31.3004 25.6073 0.0000 13.8365 0.0000
# 2 31.3004 86.1820 34.3211 0.0000 5.7371 0.0000
# 3 25.6073 34.3211 62.6254 0.0000 13.5689 0.0000
# 4 0.0000 0.0000 0.0000 26.2851 0.0000 7.3798
# 5 13.8365 5.7371 13.5689 0.0000 13.9888 0.0000
# 6 0.0000 0.0000 0.0000 7.3798 0.0000 18.8402
#
#
#
# Elastic Compliance Matrix: (Units=1/GPa)
#
#
# Indices 1 2 3 4 5 6 
#
# 1 0.011541 -0.003188 -0.000990 0.000000 -0.009148 0.000000
# 2 -0.003188 0.015781 -0.008389 0.000000 0.004819 0.000000
# 3 -0.000990 -0.008389 0.025338 0.000000 -0.020158 0.000000
# 4 0.000000 0.000000 0.000000 0.042745 0.000000 -0.016743
# 5 -0.009148 0.004819 -0.020158 0.000000 0.098110 0.000000
# 6 0.000000 0.000000 0.000000 -0.016743 0.000000 0.059637
#
#
# Mechanical properties :
#
#
# Convention : Reuss Voigt Hill
#
# Bulk Modulus (GPa) = 36.32996 48.85836 42.59416
# Shear Modulus (GPa) = 17.39364 22.89208 20.14286
#
# Velocity S-wave (km/s) = 3.12980 3.59058 3.36808
# Velocity P-wave (km/s) = 5.78973 6.68622 6.25406
#
# Compressibility (1/GPa) = 0.02752550
#
# Stress axis : x y z
#
# Youngs Moduli (GPa) = 86.64966 63.36538 39.46684
#
# Poissons Ratio (x) = 0.20204 0.03906
# Poissons Ratio (y) = 0.27628 0.33110
# Poissons Ratio (z) = 0.08575 0.53158
#
# Static dielectric constant tensor:
#      x y z
#    x 3.313720 0.000000 0.402200 
#    y 0.000000 3.230190 0.000000 
#    z 0.402200 0.000000 3.123430 
# 
# 
# High freq. dielectric constant tensor:
#      x y z
#    x 1.669200 0.000000 0.033820 
#    y 0.000000 1.691070 0.000000 
#    z 0.033820 0.000000 1.662860 
# 
# From -- ./inp_files/31647.got.cif
#   From: 2010.06.25/outbox.cif.g09.slc.cpg/sg11_16_cif.got.tgz:31647.got - 2010.06.27 23:14:04.
