data_PCOD8069686
_publ_section_title
;
Structure prediction by ZEFSAII (Michael W. Deem and Ramdas Pophale) SiO2 
 PCOD8069686
Probable space group: P 21/M
;
_chemical_formula_sum "Si O2"
_cell_formula_units_Z 32
_cell_length_a 16.432376
_cell_length_b 16.853607
_cell_length_c 10.216552
_cell_angle_alpha 90.000000
_cell_angle_beta 36.359493
_cell_angle_gamma 90.000000
_cell_volume 1677.421388
_symmetry_space_group_name_H-M "P 21/M"
_symmetry_group_IT_number 11
_symmetry_cell_setting 'monoclinic'
loop_
_space_group_symop_operation_xyz
x,y,z
-x,1/2+y,-z
-x,-y,-z
x,1/2-y,z
loop_
_atom_site_type_symbol
_atom_site_label
_atom_site_fract_x
_atom_site_fract_y
_atom_site_fract_z
Si Si1 0.030234 0.843405 0.780204
Si Si2 0.685581 0.156504 0.489640
Si Si3 0.517451 0.091413 0.944212
Si Si4 0.748118 0.913690 0.842062
Si Si5 0.267284 0.156484 0.853509
Si Si6 0.555452 0.157472 0.379961
Si Si7 0.695056 0.097010 0.948977
Si Si8 0.028063 0.841334 0.488288
O O1 0.030009 0.750000 0.780590
O O2 0.154180 0.871691 0.713179
O O3 0.058081 0.872959 0.596079
O O4 0.877781 0.872391 0.023491
O O5 0.668477 0.250000 0.544706
O O6 0.605990 0.104417 0.698865
O O7 0.629799 0.136522 0.419081
O O8 0.592378 0.133169 0.970781
O O9 0.363755 0.124006 0.113812
O O10 0.500000 0.000000 0.000000
O O11 0.899565 0.890127 0.595679
O O12 0.735024 0.008015 0.862030
O O13 0.715023 0.881433 0.028039
O O14 0.267927 0.250000 0.876415
O O15 0.394955 0.132922 0.596348
O O16 0.573291 0.250000 0.321646
O O17 0.621872 0.103003 0.183285
O O18 0.835659 0.147011 0.774057
O O19 0.984113 0.750000 0.544788
#
# Coordination Sequence:
#
# PCOD8069686 Si02
#       8
#     4   4   4   4   4   4   4   4
#     4   8  15  28  52  79  97 127 177 230 265 300
#     4  10  18  33  57  80 105 144 193 230 265 328
#     4  10  21  36  53  83 112 147 185 232 274 327
#     4  10  20  35  56  81 108 150 189 226 277 329
#     4   9  17  33  54  78 107 138 188 232 262 319
#     4  10  21  35  54  81 112 146 183 226 276 335
#     4  11  22  36  54  82 120 146 177 229 289 335
#     4  10  19  34  57  83 109 139 186 237 278 326
#
# _framework density 19.076899999999998
#
# number of rings (size 3 to 8) (size 9 to 14) (size 15 to 20)
#    0.000    2.250    2.500    1.875    0.000    1.500 
#    0.000    1.250    0.000    4.500    0.000    0.000 
#    0.000    0.000    0.000    0.000    0.000    0.000 
#
# Total GULP energy -396592.325535 kJ/mol
# GULP energy per Si atom -12393.510173 kJ/mol
# Density = 1.903348 g / cm^3
# Si number density = 19.076900 Si / 1000 Ang^3
#
#
#
# Elastic Constant Matrix: (Units=GPa)
#
#
# Indices 1 2 3 4 5 6 
#
# 1 115.6095 24.4754 77.4790 0.0000 -22.0266 0.0000
# 2 24.4754 39.0344 25.5875 0.0000 -4.4744 0.0000
# 3 77.4790 25.5875 141.1784 0.0000 -24.2409 0.0000
# 4 0.0000 0.0000 0.0000 23.5240 0.0000 -1.4515
# 5 -22.0266 -4.4744 -24.2409 0.0000 36.8914 0.0000
# 6 0.0000 0.0000 0.0000 -1.4515 0.0000 16.0004
#
#
#
# Elastic Compliance Matrix: (Units=1/GPa)
#
#
# Indices 1 2 3 4 5 6 
#
# 1 0.014790 -0.004477 -0.006631 0.000000 0.003931 0.000000
# 2 -0.004477 0.030428 -0.003250 0.000000 -0.001118 0.000000
# 3 -0.006631 -0.003250 0.011907 0.000000 0.003471 0.000000
# 4 0.000000 0.000000 0.000000 0.042749 0.000000 0.003878
# 5 0.003931 -0.001118 0.003471 0.000000 0.031599 0.000000
# 6 0.000000 0.000000 0.000000 0.003878 0.000000 0.062850
#
#
# Mechanical properties :
#
#
# Convention : Reuss Voigt Hill
#
# Bulk Modulus (GPa) = 35.19820 61.21178 48.20499
# Shear Modulus (GPa) = 21.50468 26.50185 24.00326
#
# Velocity S-wave (km/s) = 3.36112 3.73126 3.55101
# Velocity P-wave (km/s) = 5.79254 7.12177 6.49127
#
# Compressibility (1/GPa) = 0.02841055
#
# Stress axis : x y z
#
# Youngs Moduli (GPa) = 67.61253 32.86488 83.98367
#
# Poissons Ratio (x) = 0.14713 0.55686
# Poissons Ratio (y) = 0.30268 0.27294
# Poissons Ratio (z) = 0.44831 0.10681
#
# Static dielectric constant tensor:
#      x y z
#    x 3.860630 0.000000 -0.624410 
#    y 0.000000 3.214940 0.000000 
#    z -0.624410 0.000000 3.794340 
# 
# 
# High freq. dielectric constant tensor:
#      x y z
#    x 1.735710 0.000000 -0.030710 
#    y 0.000000 1.716420 0.000000 
#    z -0.030710 0.000000 1.744890 
# 
# From -- ./inp_files/41833.got.cif
#   From: 2010.06.25/outbox.cif.g09.slc.cpg/sg11_21_cif.got.tgz:41833.got - 2010.06.27 23:14:04.
