data_PCOD8069691
_publ_section_title
;
Structure prediction by ZEFSAII (Michael W. Deem and Ramdas Pophale) SiO2 
 PCOD8069691
Probable space group: P 21/M
;
_chemical_formula_sum "Si O2"
_cell_formula_units_Z 32
_cell_length_a 11.455984
_cell_length_b 20.710501
_cell_length_c 13.936775
_cell_angle_alpha 90.000000
_cell_angle_beta 31.180910
_cell_angle_gamma 90.000000
_cell_volume 1711.979967
_symmetry_space_group_name_H-M "P 21/M"
_symmetry_group_IT_number 11
_symmetry_cell_setting 'monoclinic'
loop_
_space_group_symop_operation_xyz
x,y,z
-x,1/2+y,-z
-x,-y,-z
x,1/2-y,z
loop_
_atom_site_type_symbol
_atom_site_label
_atom_site_fract_x
_atom_site_fract_y
_atom_site_fract_z
Si Si1 0.472411 0.512844 0.267447
Si Si2 0.008982 0.178484 0.018174
Si Si3 0.332238 0.949431 0.161746
Si Si4 0.950011 0.360776 0.277191
Si Si5 0.926646 0.449129 0.970549
Si Si6 0.917861 0.512270 0.331534
Si Si7 0.444645 0.179569 0.960680
Si Si8 0.499040 0.346463 0.705312
O O1 0.320997 0.533482 0.282650
O O2 0.322484 0.475803 0.450701
O O3 0.564285 0.578031 0.251042
O O4 0.685127 0.468135 0.093863
O O5 0.906759 0.250000 0.068565
O O6 0.278717 0.185580 0.813287
O O7 0.909375 0.124505 0.017369
O O8 0.937829 0.156319 0.174273
O O9 0.422619 0.877015 0.078004
O O10 0.091719 0.954820 0.282037
O O11 0.500000 0.000000 0.000000
O O12 0.972453 0.437081 0.277692
O O13 0.728358 0.331884 0.485347
O O14 0.175835 0.329665 0.161563
O O15 0.096657 0.452660 0.761144
O O16 0.000000 0.500000 0.000000
O O17 0.505539 0.250000 0.961703
O O18 0.525434 0.180064 0.793769
#
# Coordination Sequence:
#
# PCOD8069691 Si02
#       8
#     4   4   4   4   4   4   4   4
#     4  10  21  35  60  90 112 142 187 234 284 330
#     4  11  23  36  52  79 114 150 188 229 274 332
#     4  11  19  38  61  82 113 148 184 238 280 326
#     4  10  18  33  57  83 109 143 182 233 289 331
#     4  12  21  38  58  81 115 149 186 229 275 332
#     4  11  21  36  61  87 112 146 189 237 284 327
#     4  10  20  33  51  81 114 145 182 227 280 339
#     4   9  18  33  55  82 111 142 179 230 286 334
#
# _framework density 18.691807000000001
#
# number of rings (size 3 to 8) (size 9 to 14) (size 15 to 20)
#    0.000    1.500    5.000    2.625    0.000    3.500 
#    0.000    0.625    0.000    0.750    0.000    0.000 
#    0.000    0.000    0.000    0.000    0.000    0.000 
#
# Total GULP energy -396679.519650 kJ/mol
# GULP energy per Si atom -12396.234989 kJ/mol
# Density = 1.864926 g / cm^3
# Si number density = 18.691807 Si / 1000 Ang^3
#
#
#
# Elastic Constant Matrix: (Units=GPa)
#
#
# Indices 1 2 3 4 5 6 
#
# 1 52.2258 25.1875 9.4886 0.0000 3.6824 0.0000
# 2 25.1875 125.8447 26.2284 0.0000 -2.3921 0.0000
# 3 9.4886 26.2284 104.1758 0.0000 12.6697 0.0000
# 4 0.0000 0.0000 0.0000 13.4564 0.0000 -1.2895
# 5 3.6824 -2.3921 12.6697 0.0000 19.6074 0.0000
# 6 0.0000 0.0000 0.0000 -1.2895 0.0000 21.0183
#
#
#
# Elastic Compliance Matrix: (Units=1/GPa)
#
#
# Indices 1 2 3 4 5 6 
#
# 1 0.021609 -0.004336 -0.000346 0.000000 -0.004364 0.000000
# 2 -0.004336 0.009379 -0.002393 0.000000 0.003505 0.000000
# 3 -0.000346 -0.002393 0.011136 0.000000 -0.007423 0.000000
# 4 0.000000 0.000000 0.000000 0.074753 0.000000 0.004586
# 5 -0.004364 0.003505 -0.007423 0.000000 0.057045 0.000000
# 6 0.000000 0.000000 0.000000 0.004586 0.000000 0.047859
#
#
# Mechanical properties :
#
#
# Convention : Reuss Voigt Hill
#
# Bulk Modulus (GPa) = 35.74563 44.89504 40.32033
# Shear Modulus (GPa) = 20.38689 25.57255 22.97972
#
# Velocity S-wave (km/s) = 3.30614 3.70282 3.51008
# Velocity P-wave (km/s) = 5.80855 6.50783 6.16811
#
# Compressibility (1/GPa) = 0.02797545
#
# Stress axis : x y z
#
# Youngs Moduli (GPa) = 46.27643 106.61617 89.80027
#
# Poissons Ratio (x) = 0.46228 0.03106
# Poissons Ratio (y) = 0.20065 0.21487
# Poissons Ratio (z) = 0.01601 0.25511
#
# Static dielectric constant tensor:
#      x y z
#    x 3.769050 0.000000 -0.091710 
#    y 0.000000 3.513130 0.000000 
#    z -0.091710 0.000000 3.614590 
# 
# 
# High freq. dielectric constant tensor:
#      x y z
#    x 1.693610 0.000000 0.007060 
#    y 0.000000 1.722870 0.000000 
#    z 0.007060 0.000000 1.733120 
# 
# From -- ./inp_files/50787.got.cif
#   From: 2010.06.25/outbox.cif.g09.slc.cpg/sg11_26_cif.got.tgz:50787.got - 2010.06.27 23:14:04.
