data_PCOD8069759
_publ_section_title
;
Structure prediction by ZEFSAII (Michael W. Deem and Ramdas Pophale) SiO2 
 PCOD8069759
Probable space group: P 21/M
;
_chemical_formula_sum "Si O2"
_cell_formula_units_Z 32
_cell_length_a 12.076778
_cell_length_b 9.387124
_cell_length_c 28.707225
_cell_angle_alpha 90.000000
_cell_angle_beta 145.313553
_cell_angle_gamma 90.000000
_cell_volume 1852.047050
_symmetry_space_group_name_H-M "P 21/M"
_symmetry_group_IT_number 11
_symmetry_cell_setting 'monoclinic'
loop_
_space_group_symop_operation_xyz
x,y,z
-x,1/2+y,-z
-x,-y,-z
x,1/2-y,z
loop_
_atom_site_type_symbol
_atom_site_label
_atom_site_fract_x
_atom_site_fract_y
_atom_site_fract_z
Si Si1 0.585712 0.080993 0.223188
Si Si2 0.795667 0.585566 0.479370
Si Si3 0.821106 0.914762 0.958200
Si Si4 0.680254 0.582910 0.541843
Si Si5 0.728977 0.915498 0.127397
Si Si6 0.753352 0.084763 0.376684
Si Si7 0.342492 0.412179 0.001154
Si Si8 0.921269 0.081908 0.270267
O O1 0.598577 0.250000 0.226670
O O2 0.376370 0.026345 0.133758
O O3 0.622813 0.027267 0.288700
O O4 0.753458 0.024222 0.246814
O O5 0.753996 0.750000 0.455352
O O6 0.705731 0.536097 0.497111
O O7 0.693051 0.498324 0.402485
O O8 0.024606 0.554355 0.560350
O O9 0.850984 0.750000 0.956105
O O10 0.809861 0.938996 0.009941
O O11 0.000000 0.000000 0.000000
O O12 0.500000 0.500000 0.500000
O O13 0.640743 0.750000 0.531813
O O14 0.871584 0.540655 0.636745
O O15 0.730003 0.750000 0.141549
O O16 0.768242 0.937236 0.085896
O O17 0.898270 0.998485 0.213498
O O18 0.520736 0.980631 0.068882
O O19 0.716122 0.250000 0.373445
O O20 0.424461 0.250000 0.032490
O O21 0.903768 0.250000 0.255271
#
# Coordination Sequence:
#
# PCOD8069759 Si02
#       8
#     4   4   4   4   4   4   4   4
#     4   9  16  31  55  76  97 132 176 210 247 303
#     4   9  17  31  50  75 104 133 164 206 260 305
#     4  10  20  35  54  74 101 138 173 209 255 305
#     4  10  21  36  55  76 104 141 177 212 257 313
#     4  10  19  30  51  83 108 129 169 222 260 298
#     4   9  16  29  52  78 100 127 169 214 249 297
#     4   9  18  34  53  73 104 143 173 204 261 318
#     4  10  18  34  56  76 101 138 177 212 258 312
#
# _framework density 17.278179000000002
#
# number of rings (size 3 to 8) (size 9 to 14) (size 15 to 20)
#    0.000    2.500    2.500    0.375    0.000    2.000 
#    0.000    2.500    0.000    6.000    0.000    0.000 
#    0.000    0.000    0.000    0.000    0.000    0.000 
#
# Total GULP energy -396787.817468 kJ/mol
# GULP energy per Si atom -12399.619296 kJ/mol
# Density = 1.723885 g / cm^3
# Si number density = 17.278179 Si / 1000 Ang^3
#
#
#
# Elastic Constant Matrix: (Units=GPa)
#
#
# Indices 1 2 3 4 5 6 
#
# 1 134.0977 57.2558 80.9244 0.0000 -12.5722 0.0000
# 2 57.2558 60.8091 52.4337 0.0000 -6.1334 0.0000
# 3 80.9244 52.4337 125.2581 0.0000 -13.1536 0.0000
# 4 0.0000 0.0000 0.0000 29.9235 0.0000 -1.2882
# 5 -12.5722 -6.1334 -13.1536 0.0000 32.0714 0.0000
# 6 0.0000 0.0000 0.0000 -1.2882 0.0000 30.9454
#
#
#
# Elastic Compliance Matrix: (Units=1/GPa)
#
#
# Indices 1 2 3 4 5 6 
#
# 1 0.014858 -0.008911 -0.005681 0.000000 0.001790 0.000000
# 2 -0.008911 0.031086 -0.007313 0.000000 -0.000548 0.000000
# 3 -0.005681 -0.007313 0.014980 0.000000 0.002518 0.000000
# 4 0.000000 0.000000 0.000000 0.033479 0.000000 0.001394
# 5 0.001790 -0.000548 0.002518 0.000000 0.032810 0.000000
# 6 0.000000 0.000000 0.000000 0.001394 0.000000 0.032373
#
#
# Mechanical properties :
#
#
# Convention : Reuss Voigt Hill
#
# Bulk Modulus (GPa) = 58.43435 77.93250 68.18343
# Shear Modulus (GPa) = 23.91199 27.22479 25.56839
#
# Velocity S-wave (km/s) = 3.72417 3.97378 3.85100
# Velocity P-wave (km/s) = 7.23780 8.13985 7.70204
#
# Compressibility (1/GPa) = 0.01711322
#
# Stress axis : x y z
#
# Youngs Moduli (GPa) = 67.30321 32.16920 66.75669
#
# Poissons Ratio (x) = 0.28665 0.37926
# Poissons Ratio (y) = 0.59971 0.48821
# Poissons Ratio (z) = 0.38237 0.23526
#
# Static dielectric constant tensor:
#      x y z
#    x 3.242040 0.000000 -0.315190 
#    y 0.000000 3.098260 0.000000 
#    z -0.315190 0.000000 3.288730 
# 
# 
# High freq. dielectric constant tensor:
#      x y z
#    x 1.662580 0.000000 -0.024540 
#    y 0.000000 1.652520 0.000000 
#    z -0.024540 0.000000 1.660110 
# 
# From -- ./inp_files/42745.got.cif
#   From: 2010.06.25/outbox.cif.g09.slc.cpg/sg11_22_cif.got.tgz:42745.got - 2010.06.27 23:14:04.
