data_PCOD8069748
_publ_section_title
;
Structure prediction by ZEFSAII (Michael W. Deem and Ramdas Pophale) SiO2 
 PCOD8069748
Probable space group: P 21/M
;
_chemical_formula_sum "Si O2"
_cell_formula_units_Z 28
_cell_length_a 12.397858
_cell_length_b 9.052824
_cell_length_c 14.938162
_cell_angle_alpha 90.000000
_cell_angle_beta 75.259012
_cell_angle_gamma 90.000000
_cell_volume 1621.410511
_symmetry_space_group_name_H-M "P 21/M"
_symmetry_group_IT_number 11
_symmetry_cell_setting 'monoclinic'
loop_
_space_group_symop_operation_xyz
x,y,z
-x,1/2+y,-z
-x,-y,-z
x,1/2-y,z
loop_
_atom_site_type_symbol
_atom_site_label
_atom_site_fract_x
_atom_site_fract_y
_atom_site_fract_z
Si Si1 0.655773 0.579069 0.916422
Si Si2 0.590118 0.420712 0.101735
Si Si3 0.404677 0.079570 0.715801
Si Si4 0.980644 0.424680 0.409395
Si Si5 0.207724 0.075599 0.277263
Si Si6 0.760512 0.918411 0.406377
Si Si7 0.623957 0.923625 0.608656
O O1 0.669670 0.750000 0.939742
O O2 0.540001 0.552811 0.889204
O O3 0.753118 0.521845 0.829282
O O4 0.663406 0.483824 0.004698
O O5 0.619076 0.250000 0.107283
O O6 0.623939 0.504080 0.184386
O O7 0.433612 0.250000 0.726024
O O8 0.295428 0.060618 0.678025
O O9 0.507397 0.005142 0.643648
O O10 0.979443 0.250000 0.424039
O O11 0.866856 0.475801 0.387793
O O12 0.000000 0.500000 0.500000
O O13 0.081195 0.474099 0.322375
O O14 0.219364 0.250000 0.278738
O O15 0.289115 0.012190 0.336819
O O16 0.800108 0.750000 0.413660
O O17 0.671669 0.962021 0.501131
O O18 0.602681 0.750000 0.626123
#
# Coordination Sequence:
#
# PCOD8069748 Si02
#       7
#     4   4   4   4   4   4   4
#     4   9  17  32  52  75 103 136 169 210 263 314
#     4  10  19  32  52  77 105 138 170 210 263 318
#     4  11  22  34  51  78 109 142 178 217 260 313
#     4  11  21  35  56  79 105 140 182 221 259 308
#     4   9  17  32  54  77 105 139 170 210 266 309
#     4  10  22  38  53  73 108 146 180 219 262 306
#     4  10  18  34  54  74 107 144 174 212 262 313
#
# _framework density 17.268915
#
# number of rings (size 3 to 8) (size 9 to 14) (size 15 to 20)
#    0.000    2.000    2.857    1.714    0.000    2.286 
#    0.000    1.429    0.000    0.857    0.000    0.000 
#    0.000    0.000    0.000    0.000    0.000    0.000 
#
# Total GULP energy -347253.110535 kJ/mol
# GULP energy per Si atom -12401.896805 kJ/mol
# Density = 1.722961 g / cm^3
# Si number density = 17.268915 Si / 1000 Ang^3
#
#
#
# Elastic Constant Matrix: (Units=GPa)
#
#
# Indices 1 2 3 4 5 6 
#
# 1 81.8366 46.2989 54.1761 0.0000 -5.0512 0.0000
# 2 46.2989 80.8342 57.4597 0.0000 -2.9931 0.0000
# 3 54.1761 57.4597 146.4060 0.0000 -7.8154 0.0000
# 4 0.0000 0.0000 0.0000 27.1713 0.0000 0.9655
# 5 -5.0512 -2.9931 -7.8154 0.0000 25.4505 0.0000
# 6 0.0000 0.0000 0.0000 0.9655 0.0000 26.7478
#
#
#
# Elastic Compliance Matrix: (Units=1/GPa)
#
#
# Indices 1 2 3 4 5 6 
#
# 1 0.019669 -0.008451 -0.003869 0.000000 0.001722 0.000000
# 2 -0.008451 0.020789 -0.005074 0.000000 -0.000791 0.000000
# 3 -0.003869 -0.005074 0.010350 0.000000 0.001814 0.000000
# 4 0.000000 0.000000 0.000000 0.036851 0.000000 -0.001330
# 5 0.001722 -0.000791 0.001814 0.000000 0.040098 0.000000
# 6 0.000000 0.000000 0.000000 -0.001330 0.000000 0.037434
#
#
# Mechanical properties :
#
#
# Convention : Reuss Voigt Hill
#
# Bulk Modulus (GPa) = 62.42672 69.43848 65.93260
# Shear Modulus (GPa) = 24.35232 25.95006 25.15119
#
# Velocity S-wave (km/s) = 3.75931 3.88068 3.82048
# Velocity P-wave (km/s) = 7.42102 7.77026 7.59765
#
# Compressibility (1/GPa) = 0.01601878
#
# Stress axis : x y z
#
# Youngs Moduli (GPa) = 50.84262 48.10239 96.61508
#
# Poissons Ratio (x) = 0.40652 0.37385
# Poissons Ratio (y) = 0.42968 0.49022
# Poissons Ratio (z) = 0.19673 0.24407
#
# Static dielectric constant tensor:
#      x y z
#    x 3.086580 0.000000 -0.100440 
#    y 0.000000 3.177860 0.000000 
#    z -0.100440 0.000000 3.425900 
# 
# 
# High freq. dielectric constant tensor:
#      x y z
#    x 1.644350 0.000000 -0.002190 
#    y 0.000000 1.660980 0.000000 
#    z -0.002190 0.000000 1.674890 
# 
# From -- ./inp_files/37422.got.cif
#   From: 2010.06.25/outbox.cif.g09.slc.cpg/sg11_19_cif.got.tgz:37422.got - 2010.06.27 23:14:04.
