data_PCOD8069774
_publ_section_title
;
Structure prediction by ZEFSAII (Michael W. Deem and Ramdas Pophale) SiO2 
 PCOD8069774
Probable space group: P 21/M
;
_chemical_formula_sum "Si O2"
_cell_formula_units_Z 32
_cell_length_a 14.802361
_cell_length_b 9.045656
_cell_length_c 19.556553
_cell_angle_alpha 90.000000
_cell_angle_beta 139.988340
_cell_angle_gamma 90.000000
_cell_volume 1683.589360
_symmetry_space_group_name_H-M "P 21/M"
_symmetry_group_IT_number 11
_symmetry_cell_setting 'monoclinic'
loop_
_space_group_symop_operation_xyz
x,y,z
-x,1/2+y,-z
-x,-y,-z
x,1/2-y,z
loop_
_atom_site_type_symbol
_atom_site_label
_atom_site_fract_x
_atom_site_fract_y
_atom_site_fract_z
Si Si1 0.822748 0.079088 0.119710
Si Si2 0.328510 0.575826 0.832087
Si Si3 0.191165 0.421125 0.464779
Si Si4 0.559889 0.421351 0.883510
Si Si5 0.061839 0.578088 0.600012
Si Si6 0.600678 0.074204 0.615524
Si Si7 0.528101 0.574508 0.315102
Si Si8 0.137233 0.077154 0.282369
O O1 0.849883 0.250000 0.153472
O O2 0.741113 0.011568 0.138410
O O3 0.977302 0.012172 0.192590
O O4 0.724604 0.056181 0.996337
O O5 0.356306 0.750000 0.855766
O O6 0.472890 0.497965 0.894507
O O7 0.221653 0.536341 0.708579
O O8 0.201365 0.250000 0.487071
O O9 0.315118 0.493155 0.582467
O O10 0.215339 0.449501 0.399489
O O11 0.035639 0.476922 0.393606
O O12 0.518490 0.250000 0.861756
O O13 0.532451 0.490062 0.791904
O O14 0.047826 0.750000 0.579249
O O15 0.000000 0.500000 0.500000
O O16 0.592932 0.250000 0.600063
O O17 0.557865 0.027052 0.667562
O O18 0.500000 0.000000 0.500000
O O19 0.762632 0.017784 0.708650
O O20 0.526411 0.750000 0.308236
O O21 0.136699 0.250000 0.260908
#
# Coordination Sequence:
#
# PCOD8069774 Si02
#       8
#     4   4   4   4   4   4   4   4
#     4   9  18  34  57  79 102 139 183 217 253 308
#     4  10  19  33  52  77 108 141 175 216 265 309
#     4   9  15  28  50  70  94 136 172 199 248 313
#     4  10  20  35  55  78 102 137 184 221 251 305
#     4  10  19  30  47  71 103 139 175 210 254 311
#     4  11  21  35  56  82 108 137 172 213 263 317
#     4   9  18  32  52  76 104 136 170 210 261 314
#     4  10  18  34  57  78 102 135 175 215 256 307
#
# _framework density 19.007009
#
# number of rings (size 3 to 8) (size 9 to 14) (size 15 to 20)
#    0.000    2.250    2.500    1.500    0.000    1.500 
#    0.000    3.750    0.000    0.000    0.000    0.000 
#    0.000    0.000    0.000    0.000    0.000    0.000 
#
# Total GULP energy -396455.505623 kJ/mol
# GULP energy per Si atom -12389.234551 kJ/mol
# Density = 1.896375 g / cm^3
# Si number density = 19.007009 Si / 1000 Ang^3
#
#
#
# Elastic Constant Matrix: (Units=GPa)
#
#
# Indices 1 2 3 4 5 6 
#
# 1 92.6891 24.0457 42.0280 0.0000 13.3885 0.0000
# 2 24.0457 33.2214 21.7022 0.0000 5.5432 0.0000
# 3 42.0280 21.7022 105.8501 0.0000 11.1231 0.0000
# 4 0.0000 0.0000 0.0000 18.5612 0.0000 4.1014
# 5 13.3885 5.5432 11.1231 0.0000 29.3772 0.0000
# 6 0.0000 0.0000 0.0000 4.1014 0.0000 26.2303
#
#
#
# Elastic Compliance Matrix: (Units=1/GPa)
#
#
# Indices 1 2 3 4 5 6 
#
# 1 0.015185 -0.007696 -0.004037 0.000000 -0.003940 0.000000
# 2 -0.007696 0.039119 -0.004746 0.000000 -0.002077 0.000000
# 3 -0.004037 -0.004746 0.012222 0.000000 -0.001892 0.000000
# 4 0.000000 0.000000 0.000000 0.055804 0.000000 -0.008726
# 5 -0.003940 -0.002077 -0.001892 0.000000 0.036944 0.000000
# 6 0.000000 0.000000 0.000000 -0.008726 0.000000 0.039488
#
#
# Mechanical properties :
#
#
# Convention : Reuss Voigt Hill
#
# Bulk Modulus (GPa) = 29.79182 45.25695 37.52438
# Shear Modulus (GPa) = 20.58371 24.43271 22.50821
#
# Velocity S-wave (km/s) = 3.29440 3.58922 3.44496
# Velocity P-wave (km/s) = 5.49353 6.40617 5.96732
#
# Compressibility (1/GPa) = 0.03356626
#
# Stress axis : x y z
#
# Youngs Moduli (GPa) = 65.85438 25.56320 81.81741
#
# Poissons Ratio (x) = 0.19674 0.33032
# Poissons Ratio (y) = 0.50683 0.38834
# Poissons Ratio (z) = 0.26588 0.12133
#
# Static dielectric constant tensor:
#      x y z
#    x 2.631420 0.000000 -0.076400 
#    y 0.000000 3.080320 0.000000 
#    z -0.076400 0.000000 3.613750 
# 
# 
# High freq. dielectric constant tensor:
#      x y z
#    x 1.741350 0.000000 0.008720 
#    y 0.000000 1.687900 0.000000 
#    z 0.008720 0.000000 1.747060 
# 
# From -- ./inp_files/65252.got.cif
#   From: 2010.06.25/outbox.cif.g09.slc.cpg/sg11_33_cif.got.tgz:65252.got - 2010.06.27 23:14:04.
