data_PCOD8069807
_publ_section_title
;
Structure prediction by ZEFSAII (Michael W. Deem and Ramdas Pophale) SiO2 
 PCOD8069807
Probable space group: P 21/M
;
_chemical_formula_sum "Si O2"
_cell_formula_units_Z 32
_cell_length_a 11.522066
_cell_length_b 17.806343
_cell_length_c 16.528451
_cell_angle_alpha 90.000000
_cell_angle_beta 151.727941
_cell_angle_gamma 90.000000
_cell_volume 1606.211893
_symmetry_space_group_name_H-M "P 21/M"
_symmetry_group_IT_number 11
_symmetry_cell_setting 'monoclinic'
loop_
_space_group_symop_operation_xyz
x,y,z
-x,1/2+y,-z
-x,-y,-z
x,1/2-y,z
loop_
_atom_site_type_symbol
_atom_site_label
_atom_site_fract_x
_atom_site_fract_y
_atom_site_fract_z
Si Si1 0.767213 0.424685 0.862099
Si Si2 0.216091 0.509320 0.844663
Si Si3 0.176030 0.333346 0.196011
Si Si4 0.103904 0.667097 0.828910
Si Si5 0.529049 0.335890 0.279188
Si Si6 0.152385 0.058398 0.981683
Si Si7 0.453038 0.165914 0.772650
Si Si8 0.014585 0.431314 0.569120
O O1 0.533935 0.370760 0.735591
O O2 0.860853 0.430342 0.826125
O O3 0.710726 0.504331 0.869184
O O4 0.013094 0.396303 0.055804
O O5 0.140868 0.597905 0.790017
O O6 0.159564 0.477831 0.898215
O O7 0.052495 0.462289 0.682493
O O8 0.500000 0.500000 0.000000
O O9 0.074654 0.250000 0.110993
O O10 0.447858 0.341577 0.324470
O O11 0.155555 0.341992 0.281498
O O12 0.114124 0.750000 0.791978
O O13 0.315489 0.662570 0.026260
O O14 0.582826 0.250000 0.287910
O O15 0.769876 0.383830 0.413718
O O16 0.311491 0.365032 0.085494
O O17 0.363705 0.250000 0.700366
O O18 0.237570 0.121442 0.682319
O O19 0.000000 0.500000 0.500000
#
# Coordination Sequence:
#
# PCOD8069807 Si02
#       8
#     4   4   4   4   4   4   4   4
#     4   9  15  29  56  90 115 136 188 241 299 336
#     4  12  21  38  58  89 120 148 199 250 297 341
#     4   8  14  28  55  84 113 148 186 228 280 347
#     4   9  17  33  59  89 112 142 189 242 289 335
#     4  10  21  38  57  82 117 157 192 230 294 366
#     4  10  19  33  60  88 115 145 188 247 293 343
#     4  10  18  34  60  84 110 150 197 239 288 347
#     4  12  25  40  57  80 119 161 199 239 295 357
#
# _framework density 19.922650999999998
#
# number of rings (size 3 to 8) (size 9 to 14) (size 15 to 20)
#    0.000    2.000    3.750    3.000    0.000    0.500 
#    0.000    5.000    0.000    0.000    0.000    0.000 
#    0.000    0.000    0.000    0.000    0.000    0.000 
#
# Total GULP energy -396441.553897 kJ/mol
# GULP energy per Si atom -12388.798559 kJ/mol
# Density = 1.987731 g / cm^3
# Si number density = 19.922651 Si / 1000 Ang^3
#
#
#
# Elastic Constant Matrix: (Units=GPa)
#
#
# Indices 1 2 3 4 5 6 
#
# 1 126.3059 64.0037 30.0129 0.0000 16.7457 0.0000
# 2 64.0037 150.3506 26.2930 0.0000 12.2547 0.0000
# 3 30.0129 26.2930 33.4466 0.0000 4.6834 0.0000
# 4 0.0000 0.0000 0.0000 22.8003 0.0000 8.8636
# 5 16.7457 12.2547 4.6834 0.0000 21.5921 0.0000
# 6 0.0000 0.0000 0.0000 8.8636 0.0000 36.3106
#
#
#
# Elastic Compliance Matrix: (Units=1/GPa)
#
#
# Indices 1 2 3 4 5 6 
#
# 1 0.012195 -0.003410 -0.007436 0.000000 -0.005910 0.000000
# 2 -0.003410 0.008879 -0.003697 0.000000 -0.001593 0.000000
# 3 -0.007436 -0.003697 0.039578 0.000000 -0.000719 0.000000
# 4 0.000000 0.000000 0.000000 0.048458 0.000000 -0.011829
# 5 -0.005910 -0.001593 -0.000719 0.000000 0.051957 0.000000
# 6 0.000000 0.000000 0.000000 -0.011829 0.000000 0.030428
#
#
# Mechanical properties :
#
#
# Convention : Reuss Voigt Hill
#
# Bulk Modulus (GPa) = 31.67823 61.19137 46.43480
# Shear Modulus (GPa) = 21.63547 28.79349 25.21448
#
# Velocity S-wave (km/s) = 3.29899 3.80579 3.56141
# Velocity P-wave (km/s) = 5.51781 7.07765 6.34584
#
# Compressibility (1/GPa) = 0.03156742
#
# Stress axis : x y z
#
# Youngs Moduli (GPa) = 81.99794 112.62562 25.26664
#
# Poissons Ratio (x) = 0.38400 0.18787
# Poissons Ratio (y) = 0.27957 0.09342
# Poissons Ratio (z) = 0.60970 0.41642
#
# Static dielectric constant tensor:
#      x y z
#    x 4.172810 0.000000 0.346450 
#    y 0.000000 4.112900 0.000000 
#    z 0.346450 0.000000 3.170780 
# 
# 
# High freq. dielectric constant tensor:
#      x y z
#    x 1.786070 0.000000 0.036560 
#    y 0.000000 1.802750 0.000000 
#    z 0.036560 0.000000 1.712210 
# 
# From -- ./inp_files/59645.got.cif
#   From: 2010.06.25/outbox.cif.g09.slc.cpg/sg11_30_cif.got.tgz:59645.got - 2010.06.27 23:14:04.
