data_PCOD8069120
_publ_section_title
;
Structure prediction by ZEFSAII (Michael W. Deem and Ramdas Pophale) SiO2 
 PCOD8069120
Probable space group: P 21/M
;
_chemical_formula_sum "Si O2"
_cell_formula_units_Z 28
_cell_length_a 6.604371
_cell_length_b 14.092053
_cell_length_c 18.991703
_cell_angle_alpha 90.000000
_cell_angle_beta 58.882073
_cell_angle_gamma 90.000000
_cell_volume 1513.201941
_symmetry_space_group_name_H-M "P 21/M"
_symmetry_group_IT_number 11
_symmetry_cell_setting 'monoclinic'
loop_
_space_group_symop_operation_xyz
x,y,z
-x,1/2+y,-z
-x,-y,-z
x,1/2-y,z
loop_
_atom_site_type_symbol
_atom_site_label
_atom_site_fract_x
_atom_site_fract_y
_atom_site_fract_z
Si Si1 0.836773 0.964820 0.889913
Si Si2 0.485311 0.362399 0.947244
Si Si3 0.302123 0.048230 0.841250
Si Si4 0.150589 0.354260 0.729039
Si Si5 0.879245 0.021343 0.448690
Si Si6 0.820954 0.511439 0.739341
Si Si7 0.557210 0.643216 0.454198
O O1 0.876711 0.929444 0.801531
O O2 0.717687 0.070844 0.909089
O O3 0.674499 0.886575 0.956159
O O4 0.085860 0.972788 0.887154
O O5 0.549628 0.250000 0.936317
O O6 0.333501 0.389697 0.905713
O O7 0.230690 0.116350 0.791315
O O8 0.539880 0.991765 0.778661
O O9 0.046737 0.250000 0.751616
O O10 0.385121 0.362160 0.639080
O O11 0.930414 0.408335 0.734235
O O12 0.711463 0.112165 0.485843
O O13 0.059168 0.050794 0.353395
O O14 0.735114 0.925427 0.462276
O O15 0.000000 0.000000 0.500000
O O16 0.589985 0.750000 0.477473
#
# Coordination Sequence:
#
# PCOD8069120 Si02
#       7
#     4   4   4   4   4   4   4
#     4   9  20  36  51  72 102 130 160 202 247 293
#     4  10  20  34  53  75  97 127 165 201 241 290
#     4  10  18  30  50  74 100 128 158 199 247 296
#     4   9  17  29  46  72 102 128 158 200 251 302
#     4  10  19  33  54  77 101 134 175 215 255 300
#     4   9  19  32  48  70  99 133 164 200 248 297
#     4   9  19  34  51  74 104 136 170 210 256 303
#
# _framework density 18.503809
#
# number of rings (size 3 to 8) (size 9 to 14) (size 15 to 20)
#    0.000    2.571    0.000    1.714    0.000    8.000 
#    0.000    3.571    0.000    0.857    0.000    0.000 
#    0.000    0.000    0.000    0.000    0.000    0.000 
#
# Total GULP energy -346978.448115 kJ/mol
# GULP energy per Si atom -12392.087433 kJ/mol
# Density = 1.846169 g / cm^3
# Si number density = 18.503809 Si / 1000 Ang^3
#
#
#
# Elastic Constant Matrix: (Units=GPa)
#
#
# Indices 1 2 3 4 5 6 
#
# 1 97.7673 11.5325 32.0741 0.0000 -6.6413 0.0000
# 2 11.5325 49.5101 13.2086 0.0000 -3.1782 0.0000
# 3 32.0741 13.2086 102.5146 0.0000 -2.4561 0.0000
# 4 0.0000 0.0000 0.0000 20.2666 0.0000 -2.0784
# 5 -6.6413 -3.1782 -2.4561 0.0000 31.5428 0.0000
# 6 0.0000 0.0000 0.0000 -2.0784 0.0000 10.5341
#
#
#
# Elastic Compliance Matrix: (Units=1/GPa)
#
#
# Indices 1 2 3 4 5 6 
#
# 1 0.011676 -0.001686 -0.003387 0.000000 0.002025 0.000000
# 2 -0.001686 0.021275 -0.002175 0.000000 0.001619 0.000000
# 3 -0.003387 -0.002175 0.011093 0.000000 -0.000069 0.000000
# 4 0.000000 0.000000 0.000000 0.050361 0.000000 0.009936
# 5 0.002025 0.001619 -0.000069 0.000000 0.032287 0.000000
# 6 0.000000 0.000000 0.000000 0.009936 0.000000 0.096891
#
#
# Mechanical properties :
#
#
# Convention : Reuss Voigt Hill
#
# Bulk Modulus (GPa) = 33.84392 40.38026 37.11209
# Shear Modulus (GPa) = 20.16707 25.33380 22.75044
#
# Velocity S-wave (km/s) = 3.30493 3.70417 3.51023
# Velocity P-wave (km/s) = 5.73527 6.33755 6.04392
#
# Compressibility (1/GPa) = 0.02954740
#
# Stress axis : x y z
#
# Youngs Moduli (GPa) = 85.64516 47.00400 90.14609
#
# Poissons Ratio (x) = 0.07925 0.30536
# Poissons Ratio (y) = 0.14440 0.19605
# Poissons Ratio (z) = 0.29011 0.10223
#
# Static dielectric constant tensor:
#      x y z
#    x 3.429520 0.000000 -0.061300 
#    y 0.000000 3.146670 0.000000 
#    z -0.061300 0.000000 3.831470 
# 
# 
# High freq. dielectric constant tensor:
#      x y z
#    x 1.719090 0.000000 -0.003360 
#    y 0.000000 1.677760 0.000000 
#    z -0.003360 0.000000 1.740050 
# 
# From -- ./inp_files/7925.got.cif
#   From: 2010.06.25/outbox.cif.g09.slc.cpg/sg11_4_cif.got.tgz:7925.got - 2010.06.27 23:14:04.
