data_PCOD8069699
_publ_section_title
;
Structure prediction by ZEFSAII (Michael W. Deem and Ramdas Pophale) SiO2 
 PCOD8069699
Probable space group: P 21/M
;
_chemical_formula_sum "Si O2"
_cell_formula_units_Z 28
_cell_length_a 14.847963
_cell_length_b 18.471394
_cell_length_c 8.813916
_cell_angle_alpha 90.000000
_cell_angle_beta 35.011863
_cell_angle_gamma 90.000000
_cell_volume 1386.931934
_symmetry_space_group_name_H-M "P 21/M"
_symmetry_group_IT_number 11
_symmetry_cell_setting 'monoclinic'
loop_
_space_group_symop_operation_xyz
x,y,z
-x,1/2+y,-z
-x,-y,-z
x,1/2-y,z
loop_
_atom_site_type_symbol
_atom_site_label
_atom_site_fract_x
_atom_site_fract_y
_atom_site_fract_z
Si Si1 0.698470 0.092451 0.565314
Si Si2 0.395807 0.331660 0.066458
Si Si3 0.426328 0.577923 0.596750
Si Si4 0.299622 0.329153 0.854798
Si Si5 0.155388 0.564507 0.200198
Si Si6 0.043936 0.665006 0.622908
Si Si7 0.180770 0.458846 0.424694
O O1 0.658304 0.092990 0.444965
O O2 0.844709 0.146462 0.389057
O O3 0.743237 0.011187 0.554440
O O4 0.557855 0.124111 0.863937
O O5 0.402248 0.250000 0.129178
O O6 0.258465 0.379515 0.332920
O O7 0.366330 0.323803 0.930570
O O8 0.500000 0.500000 0.500000
O O9 0.575526 0.629248 0.421346
O O10 0.301024 0.591898 0.901198
O O11 0.281993 0.250000 0.806067
O O12 0.127989 0.366257 0.096923
O O13 0.107217 0.626544 0.384785
O O14 0.209590 0.492363 0.216401
O O15 0.007666 0.547249 0.293686
O O16 0.035569 0.750000 0.600521
#
# Coordination Sequence:
#
# PCOD8069699 Si02
#       7
#     4   4   4   4   4   4   4
#     4  10  22  36  59  87 123 159 200 248 301 362
#     4  10  18  33  57  85 112 151 202 246 296 356
#     4  11  24  39  59  90 125 163 201 247 303 363
#     4   9  19  37  60  83 117 160 196 238 305 374
#     4  10  21  36  61  91 119 154 204 253 298 357
#     4  10  20  39  66  91 118 157 206 252 300 361
#     4  10  20  36  60  87 119 155 201 254 302 354
#
# _framework density 20.188447
#
# number of rings (size 3 to 8) (size 9 to 14) (size 15 to 20)
#    0.000    2.000    1.429    2.571    4.000    2.857 
#    0.000    0.000    0.000    0.857    0.000    0.000 
#    0.000    0.000    0.000    0.000    0.000    0.000 
#
# Total GULP energy -347119.123815 kJ/mol
# GULP energy per Si atom -12397.111565 kJ/mol
# Density = 2.014250 g / cm^3
# Si number density = 20.188447 Si / 1000 Ang^3
#
#
#
# Elastic Constant Matrix: (Units=GPa)
#
#
# Indices 1 2 3 4 5 6 
#
# 1 71.2814 22.9228 46.4286 0.0000 -20.6295 0.0000
# 2 22.9228 114.9222 60.5999 0.0000 -9.7325 0.0000
# 3 46.4286 60.5999 170.7255 0.0000 -17.7304 0.0000
# 4 0.0000 0.0000 0.0000 31.3804 0.0000 -3.6048
# 5 -20.6295 -9.7325 -17.7304 0.0000 25.6295 0.0000
# 6 0.0000 0.0000 0.0000 -3.6048 0.0000 24.2667
#
#
#
# Elastic Compliance Matrix: (Units=1/GPa)
#
#
# Indices 1 2 3 4 5 6 
#
# 1 0.020849 -0.000933 -0.003914 0.000000 0.013720 0.000000
# 2 -0.000933 0.010804 -0.003484 0.000000 0.000942 0.000000
# 3 -0.003914 -0.003484 0.008289 0.000000 0.001261 0.000000
# 4 0.000000 0.000000 0.000000 0.032420 0.000000 0.004816
# 5 0.013720 0.000942 0.001261 0.000000 0.051291 0.000000
# 6 0.000000 0.000000 0.000000 0.004816 0.000000 0.041924
#
#
# Mechanical properties :
#
#
# Convention : Reuss Voigt Hill
#
# Bulk Modulus (GPa) = 42.95205 68.53686 55.74445
# Shear Modulus (GPa) = 26.31600 31.38717 28.85158
#
# Velocity S-wave (km/s) = 3.61434 3.94726 3.78446
# Velocity P-wave (km/s) = 6.22412 7.40248 6.83873
#
# Compressibility (1/GPa) = 0.02328178
#
# Stress axis : x y z
#
# Youngs Moduli (GPa) = 47.96460 92.55577 120.63887
#
# Poissons Ratio (x) = 0.08634 0.47216
# Poissons Ratio (y) = 0.04474 0.42025
# Poissons Ratio (z) = 0.18773 0.32242
#
# Static dielectric constant tensor:
#      x y z
#    x 3.729220 0.000000 -0.388450 
#    y 0.000000 3.934090 0.000000 
#    z -0.388450 0.000000 3.812290 
# 
# 
# High freq. dielectric constant tensor:
#      x y z
#    x 1.772710 0.000000 -0.036940 
#    y 0.000000 1.796070 0.000000 
#    z -0.036940 0.000000 1.779180 
# 
# From -- ./inp_files/23028.got.cif
#   From: 2010.06.25/outbox.cif.g09.slc.cpg/sg11_12_cif.got.tgz:23028.got - 2010.06.27 23:14:04.
