data_PCOD8069788
_publ_section_title
;
Structure prediction by ZEFSAII (Michael W. Deem and Ramdas Pophale) SiO2 
 PCOD8069788
Probable space group: P 21/M
;
_chemical_formula_sum "Si O2"
_cell_formula_units_Z 24
_cell_length_a 10.919963
_cell_length_b 13.896046
_cell_length_c 16.377584
_cell_angle_alpha 90.000000
_cell_angle_beta 30.490747
_cell_angle_gamma 90.000000
_cell_volume 1260.991125
_symmetry_space_group_name_H-M "P 21/M"
_symmetry_group_IT_number 11
_symmetry_cell_setting 'monoclinic'
loop_
_space_group_symop_operation_xyz
x,y,z
-x,1/2+y,-z
-x,-y,-z
x,1/2-y,z
loop_
_atom_site_type_symbol
_atom_site_label
_atom_site_fract_x
_atom_site_fract_y
_atom_site_fract_z
Si Si1 0.390531 0.049486 0.485419
Si Si2 0.494503 0.541723 0.121140
Si Si3 0.967576 0.750000 0.786933
Si Si4 0.618538 0.750000 0.258700
Si Si5 0.882340 0.548994 0.764043
Si Si6 0.266280 0.039725 0.842023
Si Si7 0.489337 0.750000 0.155020
Si Si8 0.504515 0.250000 0.483361
O O1 0.371735 0.161742 0.516426
O O2 0.124573 0.012297 0.618646
O O3 0.500000 0.000000 0.500000
O O4 0.574659 0.026794 0.307529
O O5 0.272329 0.469729 0.229830
O O6 0.593018 0.530639 0.154565
O O7 0.717551 0.514990 0.934220
O O8 0.390850 0.651830 0.169916
O O9 0.211989 0.750000 0.699093
O O10 0.947552 0.660341 0.736857
O O11 0.776629 0.750000 0.970439
O O12 0.767210 0.650358 0.168096
O O13 0.492764 0.750000 0.419125
O O14 0.440592 0.750000 0.281322
O O15 0.000000 0.000000 0.000000
#
# Coordination Sequence:
#
# PCOD8069788 Si02
#       8
#     4   4   2   2   4   4   2   2
#     4  12  23  38  59  87 119 154 200 250 297 349
#     4   9  20  37  60  87 118 159 197 244 297 355
#     4  10  18  34  58  83 114 159 202 234 293 367
#     4  10  20  36  57  86 113 161 199 237 303 358
#     4  10  20  38  60  85 121 160 201 241 297 360
#     4  11  23  38  62  90 123 157 203 252 299 358
#     4   8  18  33  58  83 114 153 198 243 288 356
#     4  12  24  37  59  90 119 159 201 250 302 357
#
# _framework density 19.032647999999998
#
# number of rings (size 3 to 8) (size 9 to 14) (size 15 to 20)
#    0.000    1.667    3.333    1.000    4.667    1.333 
#    0.000    2.500    0.000    0.000    0.000    0.000 
#    0.000    0.000    0.000    0.000    0.000    0.000 
#
# Total GULP energy -297421.210022 kJ/mol
# GULP energy per Si atom -12392.550418 kJ/mol
# Density = 1.898933 g / cm^3
# Si number density = 19.032648 Si / 1000 Ang^3
#
#
#
# Elastic Constant Matrix: (Units=GPa)
#
#
# Indices 1 2 3 4 5 6 
#
# 1 99.9800 48.3697 54.2588 0.0000 -5.1984 0.0000
# 2 48.3697 134.1304 47.4989 0.0000 -8.1473 0.0000
# 3 54.2588 47.4989 103.2877 0.0000 -6.0526 0.0000
# 4 0.0000 0.0000 0.0000 26.5146 0.0000 -3.2212
# 5 -5.1984 -8.1473 -6.0526 0.0000 33.9513 0.0000
# 6 0.0000 0.0000 0.0000 -3.2212 0.0000 23.1976
#
#
#
# Elastic Compliance Matrix: (Units=1/GPa)
#
#
# Indices 1 2 3 4 5 6 
#
# 1 0.015022 -0.003114 -0.006436 0.000000 0.000406 0.000000
# 2 -0.003114 0.009620 -0.002709 0.000000 0.001349 0.000000
# 3 -0.006436 -0.002709 0.014363 0.000000 0.000925 0.000000
# 4 0.000000 0.000000 0.000000 0.038362 0.000000 0.005327
# 5 0.000406 0.001349 0.000925 0.000000 0.030005 0.000000
# 6 0.000000 0.000000 0.000000 0.005327 0.000000 0.043848
#
#
# Mechanical properties :
#
#
# Convention : Reuss Voigt Hill
#
# Bulk Modulus (GPa) = 69.02577 70.85033 69.93805
# Shear Modulus (GPa) = 27.69096 29.21743 28.45419
#
# Velocity S-wave (km/s) = 3.81848 3.92231 3.87074
# Velocity P-wave (km/s) = 7.46906 7.60389 7.53678
#
# Compressibility (1/GPa) = 0.01448734
#
# Stress axis : x y z
#
# Youngs Moduli (GPa) = 66.56881 103.95548 69.62555
#
# Poissons Ratio (x) = 0.32367 0.44809
# Poissons Ratio (y) = 0.20726 0.18862
# Poissons Ratio (z) = 0.42842 0.28163
#
# Static dielectric constant tensor:
#      x y z
#    x 3.706300 0.000000 -0.043030 
#    y 0.000000 3.937000 0.000000 
#    z -0.043030 0.000000 3.347510 
# 
# 
# High freq. dielectric constant tensor:
#      x y z
#    x 1.726900 0.000000 0.009200 
#    y 0.000000 1.751770 0.000000 
#    z 0.009200 0.000000 1.737780 
# 
# From -- ./inp_files/47728.got.cif
#   From: 2010.06.25/outbox.cif.g09.slc.cpg/sg11_24_cif.got.tgz:47728.got - 2010.06.27 23:14:04.
