data_PCOD8069758
_publ_section_title
;
Structure prediction by ZEFSAII (Michael W. Deem and Ramdas Pophale) SiO2 
 PCOD8069758
Probable space group: P 21/M
;
_chemical_formula_sum "Si O2"
_cell_formula_units_Z 32
_cell_length_a 28.282047
_cell_length_b 8.908994
_cell_length_c 21.921168
_cell_angle_alpha 90.000000
_cell_angle_beta 161.220037
_cell_angle_gamma 90.000000
_cell_volume 1778.160180
_symmetry_space_group_name_H-M "P 21/M"
_symmetry_group_IT_number 11
_symmetry_cell_setting 'monoclinic'
loop_
_space_group_symop_operation_xyz
x,y,z
-x,1/2+y,-z
-x,-y,-z
x,1/2-y,z
loop_
_atom_site_type_symbol
_atom_site_label
_atom_site_fract_x
_atom_site_fract_y
_atom_site_fract_z
Si Si1 0.149064 0.928522 0.801386
Si Si2 0.049607 0.572881 0.998080
Si Si3 0.810635 0.072267 0.015542
Si Si4 0.904420 0.573091 0.700534
Si Si5 0.336637 0.927822 0.917470
Si Si6 0.332903 0.072124 0.681076
Si Si7 0.167176 0.928309 0.590785
Si Si8 0.347447 0.572872 0.295693
O O1 0.126545 0.750000 0.771385
O O2 0.255243 0.988756 0.878134
O O3 0.221843 0.979343 0.954825
O O4 0.993810 0.005096 0.602116
O O5 0.041678 0.750000 0.996502
O O6 0.214848 0.525188 0.179470
O O7 0.000000 0.500000 0.000000
O O8 0.933248 0.514624 0.804517
O O9 0.814686 0.250000 0.017279
O O10 0.690186 0.016273 0.819245
O O11 0.970415 0.007866 0.191775
O O12 0.923834 0.750000 0.726348
O O13 0.745641 0.529206 0.479245
O O14 0.340443 0.750000 0.923786
O O15 0.254214 0.985770 0.756735
O O16 0.502179 0.990229 0.120455
O O17 0.325176 0.250000 0.683552
O O18 0.251356 0.988797 0.635409
O O19 0.159036 0.750000 0.578297
O O20 0.500000 0.500000 0.500000
O O21 0.367454 0.750000 0.321864
#
# Coordination Sequence:
#
# PCOD8069758 Si02
#       8
#     4   4   4   4   4   4   4   4
#     4  10  18  34  56  75  96 131 174 210 246 294
#     4   9  18  33  52  76 105 132 163 206 249 292
#     4   8  14  28  52  76  94 122 169 213 240 277
#     4   8  14  28  52  76  94 122 169 213 240 277
#     4   9  20  33  49  77 106 127 162 214 257 293
#     4  10  18  34  56  75  96 131 174 210 246 294
#     4  11  21  33  49  75 106 133 164 206 253 303
#     4   9  18  33  52  76 105 132 163 206 249 292
#
# _framework density 17.996129
#
# number of rings (size 3 to 8) (size 9 to 14) (size 15 to 20)
#    0.000    2.750    1.250    2.625    0.000    0.500 
#    2.250    3.125    0.000    0.000    0.000    0.000 
#    0.000    0.000    0.000    0.000    0.000    0.000 
#
# Total GULP energy -396574.775525 kJ/mol
# GULP energy per Si atom -12392.961735 kJ/mol
# Density = 1.795517 g / cm^3
# Si number density = 17.996129 Si / 1000 Ang^3
#
#
#
# Elastic Constant Matrix: (Units=GPa)
#
#
# Indices 1 2 3 4 5 6 
#
# 1 96.3696 17.8309 33.7156 0.0000 -15.4966 0.0000
# 2 17.8309 25.1647 19.3505 0.0000 -1.3609 0.0000
# 3 33.7156 19.3505 111.9970 0.0000 -13.9003 0.0000
# 4 0.0000 0.0000 0.0000 17.0324 0.0000 -10.2251
# 5 -15.4966 -1.3609 -13.9003 0.0000 31.7370 0.0000
# 6 0.0000 0.0000 0.0000 -10.2251 0.0000 9.4609
#
#
#
# Elastic Compliance Matrix: (Units=1/GPa)
#
#
# Indices 1 2 3 4 5 6 
#
# 1 0.013351 -0.007598 -0.002049 0.000000 0.005296 0.000000
# 2 -0.007598 0.050227 -0.006962 0.000000 -0.004606 0.000000
# 3 -0.002049 -0.006962 0.011196 0.000000 0.003605 0.000000
# 4 0.000000 0.000000 0.000000 0.167185 0.000000 0.180689
# 5 0.005296 -0.004606 0.003605 0.000000 0.035476 0.000000
# 6 0.000000 0.000000 0.000000 0.180689 0.000000 0.300980
#
#
# Mechanical properties :
#
#
# Convention : Reuss Voigt Hill
#
# Bulk Modulus (GPa) = 24.06470 41.70282 32.88376
# Shear Modulus (GPa) = 7.99379 22.48836 15.24107
#
# Velocity S-wave (km/s) = 2.10988 3.53883 2.91333
# Velocity P-wave (km/s) = 4.39734 6.31833 5.44325
#
# Compressibility (1/GPa) = 0.04155464
#
# Stress axis : x y z
#
# Youngs Moduli (GPa) = 74.90054 19.90976 89.31771
#
# Poissons Ratio (x) = 0.15128 0.18303
# Poissons Ratio (y) = 0.56910 0.62186
# Poissons Ratio (z) = 0.15348 0.13862
#
# Static dielectric constant tensor:
#      x y z
#    x 3.744150 0.000000 -0.086790 
#    y 0.000000 2.935030 0.000000 
#    z -0.086790 0.000000 3.835930 
# 
# 
# High freq. dielectric constant tensor:
#      x y z
#    x 1.702730 0.000000 -0.012950 
#    y 0.000000 1.655090 0.000000 
#    z -0.012950 0.000000 1.704480 
# 
# From -- ./inp_files/66989.got.cif
#   From: 2010.06.25/outbox.cif.g09.slc.cpg/sg11_34_cif.got.tgz:66989.got - 2010.06.27 23:14:04.
