data_PCOD8069681
_publ_section_title
;
Structure prediction by ZEFSAII (Michael W. Deem and Ramdas Pophale) SiO2 
 PCOD8069681
Probable space group: P 21/M
;
_chemical_formula_sum "Si O2"
_cell_formula_units_Z 24
_cell_length_a 23.890044
_cell_length_b 8.806984
_cell_length_c 19.279382
_cell_angle_alpha 90.000000
_cell_angle_beta 164.226197
_cell_angle_gamma 90.000000
_cell_volume 1102.683961
_symmetry_space_group_name_H-M "P 21/M"
_symmetry_group_IT_number 11
_symmetry_cell_setting 'monoclinic'
loop_
_space_group_symop_operation_xyz
x,y,z
-x,1/2+y,-z
-x,-y,-z
x,1/2-y,z
loop_
_atom_site_type_symbol
_atom_site_label
_atom_site_fract_x
_atom_site_fract_y
_atom_site_fract_z
Si Si1 0.982933 0.427821 0.404825
Si Si2 0.700664 0.572023 0.705534
Si Si3 0.213378 0.569423 0.556709
Si Si4 0.425333 0.570248 0.574635
Si Si5 0.860886 0.572881 0.037214
Si Si6 0.515785 0.072767 0.822430
O O1 0.027018 0.250000 0.462328
O O2 0.000000 0.500000 0.500000
O O3 0.154873 0.505601 0.562003
O O4 0.757889 0.462288 0.104919
O O5 0.500000 0.500000 0.500000
O O6 0.666476 0.750000 0.653160
O O7 0.744455 0.491981 0.683404
O O8 0.881662 0.542306 0.978683
O O9 0.223349 0.750000 0.572054
O O10 0.433491 0.503201 0.795476
O O11 0.050804 0.503244 0.306084
O O12 0.403904 0.750000 0.553471
O O13 0.391392 0.502090 0.610258
O O14 0.646061 0.508845 0.810894
O O15 0.857729 0.750000 0.048711
O O16 0.469846 0.250000 0.769621
#
# Coordination Sequence:
#
# PCOD8069681 Si02
#       6
#     4   4   4   4   4   4
#     4  11  25  45  69  95 124 158 198 247 304 367
#     4   9  16  28  48  80 117 157 205 255 304 357
#     4  11  22  40  66  94 125 163 204 250 303 363
#     4  10  18  33  56  84 118 160 207 255 305 359
#     4   8  16  31  54  83 117 156 202 251 300 353
#     4  11  24  41  62  93 127 161 202 251 304 364
#
# _framework density 21.765076000000001
#
# number of rings (size 3 to 8) (size 9 to 14) (size 15 to 20)
#    0.000    2.000    1.667    3.500    0.000    2.667 
#    0.000    3.333    0.000    0.000    0.000    0.000 
#    0.000    0.000    0.000    0.000    0.000    0.000 
#
# Total GULP energy -297540.052371 kJ/mol
# GULP energy per Si atom -12397.502182 kJ/mol
# Density = 2.171554 g / cm^3
# Si number density = 21.765076 Si / 1000 Ang^3
#
#
#
# Elastic Constant Matrix: (Units=GPa)
#
#
# Indices 1 2 3 4 5 6 
#
# 1 142.8147 58.8557 14.7601 0.0000 -15.1944 0.0000
# 2 58.8557 123.2860 26.9196 0.0000 -10.5448 0.0000
# 3 14.7601 26.9196 22.0811 0.0000 -17.5123 0.0000
# 4 0.0000 0.0000 0.0000 25.1630 0.0000 -6.0878
# 5 -15.1944 -10.5448 -17.5123 0.0000 35.4176 0.0000
# 6 0.0000 0.0000 0.0000 -6.0878 0.0000 42.2803
#
#
#
# Elastic Compliance Matrix: (Units=1/GPa)
#
#
# Indices 1 2 3 4 5 6 
#
# 1 0.009006 -0.004513 0.002435 0.000000 0.003724 0.000000
# 2 -0.004513 0.014020 -0.020235 0.000000 -0.007767 0.000000
# 3 0.002435 -0.020235 0.105913 0.000000 0.047389 0.000000
# 4 0.000000 0.000000 0.000000 0.041175 0.000000 0.005929
# 5 0.003724 -0.007767 0.047389 0.000000 0.050951 0.000000
# 6 0.000000 0.000000 0.000000 0.005929 0.000000 0.024505
#
#
# Mechanical properties :
#
#
# Convention : Reuss Voigt Hill
#
# Bulk Modulus (GPa) = 11.86066 54.36141 33.11103
# Shear Modulus (GPa) = 15.70841 33.08195 24.39518
#
# Velocity S-wave (km/s) = 2.68941 3.90289 3.35153
# Velocity P-wave (km/s) = 3.88653 6.73355 5.49754
#
# Compressibility (1/GPa) = 0.08431236
#
# Stress axis : x y z
#
# Youngs Moduli (GPa) = 111.03229 71.32882 9.44173
#
# Poissons Ratio (x) = 0.32188 -0.02299
# Poissons Ratio (y) = 0.50105 0.19106
# Poissons Ratio (z) = -0.27033 1.44336
#
# Static dielectric constant tensor:
#      x y z
#    x 3.989050 0.000000 -0.232670 
#    y 0.000000 3.768610 0.000000 
#    z -0.232670 0.000000 4.057880 
# 
# 
# High freq. dielectric constant tensor:
#      x y z
#    x 1.861990 0.000000 -0.015740 
#    y 0.000000 1.846890 0.000000 
#    z -0.015740 0.000000 1.841670 
# 
# From -- ./inp_files/61895.got.cif
#   From: 2010.06.25/outbox.cif.g09.slc.cpg/sg11_31_cif.got.tgz:61895.got - 2010.06.27 23:14:04.
