data_PCOD8069868
_publ_section_title
;
Structure prediction by ZEFSAII (Michael W. Deem and Ramdas Pophale) SiO2 
 PCOD8069868
Probable space group: P 21/M
;
_chemical_formula_sum "Si O2"
_cell_formula_units_Z 28
_cell_length_a 8.454477
_cell_length_b 14.207781
_cell_length_c 15.018329
_cell_angle_alpha 90.000000
_cell_angle_beta 129.761176
_cell_angle_gamma 90.000000
_cell_volume 1386.759506
_symmetry_space_group_name_H-M "P 21/M"
_symmetry_group_IT_number 11
_symmetry_cell_setting 'monoclinic'
loop_
_space_group_symop_operation_xyz
x,y,z
-x,1/2+y,-z
-x,-y,-z
x,1/2-y,z
loop_
_atom_site_type_symbol
_atom_site_label
_atom_site_fract_x
_atom_site_fract_y
_atom_site_fract_z
Si Si1 0.570089 0.356825 0.230627
Si Si2 0.060989 0.986719 0.680112
Si Si3 0.022055 0.026848 0.154584
Si Si4 0.297843 0.534578 0.103963
Si Si5 0.320545 0.147275 0.701269
Si Si6 0.417248 0.398364 0.357409
Si Si7 0.374906 0.411088 0.532859
O O1 0.540542 0.250000 0.183059
O O2 0.790023 0.396483 0.278673
O O3 0.389660 0.427551 0.132475
O O4 0.565606 0.351370 0.337756
O O5 0.055847 0.019612 0.781541
O O6 0.838025 0.963277 0.563669
O O7 0.134733 0.075760 0.649727
O O8 0.178868 0.111763 0.238641
O O9 0.820694 0.062154 0.029172
O O10 0.142449 0.955242 0.131834
O O11 0.477750 0.609886 0.176685
O O12 0.267196 0.250000 0.720558
O O13 0.355283 0.159602 0.607758
O O14 0.445354 0.356006 0.467470
O O15 0.458876 0.510556 0.378574
#
# Coordination Sequence:
#
# PCOD8069868 Si02
#       7
#     4   4   4   4   4   4   4
#     4  10  20  35  53  82 112 143 181 221 272 324
#     4  10  21  36  56  82 112 145 179 225 268 329
#     4   9  17  37  64  77 104 145 184 225 279 310
#     4   9  19  39  59  80 105 142 184 231 267 322
#     4  11  22  36  54  83 116 147 177 220 277 329
#     4   9  18  34  61  79 102 142 184 224 267 316
#     4  10  18  36  58  79 107 144 180 224 267 316
#
# _framework density 20.190956
#
# number of rings (size 3 to 8) (size 9 to 14) (size 15 to 20)
#    0.000    2.286    4.286    0.429    0.000    3.429 
#    0.000   15.714    0.000    0.000    0.000    0.000 
#    0.000    0.000    0.000    0.000    0.000    0.000 
#
# Total GULP energy -346933.047319 kJ/mol
# GULP energy per Si atom -12390.465976 kJ/mol
# Density = 2.014500 g / cm^3
# Si number density = 20.190956 Si / 1000 Ang^3
#
#
#
# Elastic Constant Matrix: (Units=GPa)
#
#
# Indices 1 2 3 4 5 6 
#
# 1 75.6518 19.7607 19.4578 0.0000 1.3398 0.0000
# 2 19.7607 101.3439 23.0650 0.0000 2.5343 0.0000
# 3 19.4578 23.0650 106.8552 0.0000 4.8039 0.0000
# 4 0.0000 0.0000 0.0000 8.1803 0.0000 -3.3378
# 5 1.3398 2.5343 4.8039 0.0000 28.0953 0.0000
# 6 0.0000 0.0000 0.0000 -3.3378 0.0000 2.4080
#
#
#
# Elastic Compliance Matrix: (Units=1/GPa)
#
#
# Indices 1 2 3 4 5 6 
#
# 1 0.014369 -0.002318 -0.002111 0.000000 -0.000115 0.000000
# 2 -0.002318 0.010760 -0.001876 0.000000 -0.000539 0.000000
# 3 -0.002111 -0.001876 0.010214 0.000000 -0.001477 0.000000
# 4 0.000000 0.000000 0.000000 0.281405 0.000000 0.390069
# 5 -0.000115 -0.000539 -0.001477 0.000000 0.035900 0.000000
# 6 0.000000 0.000000 0.000000 0.390069 0.000000 0.955982
#
#
# Mechanical properties :
#
#
# Convention : Reuss Voigt Hill
#
# Bulk Modulus (GPa) = 43.99058 45.37977 44.68518
# Shear Modulus (GPa) = 3.76274 22.50788 13.13531
#
# Velocity S-wave (km/s) = 1.36661 3.34241 2.55336
# Velocity P-wave (km/s) = 4.93201 6.11716 5.55628
#
# Compressibility (1/GPa) = 0.02273214
#
# Stress axis : x y z
#
# Youngs Moduli (GPa) = 69.59412 92.93736 97.90297
#
# Poissons Ratio (x) = 0.21547 0.20666
# Poissons Ratio (y) = 0.16135 0.18368
# Poissons Ratio (z) = 0.14691 0.17436
#
# Static dielectric constant tensor:
#      x y z
#    x 3.991450 0.000000 -0.152430 
#    y 0.000000 3.160030 0.000000 
#    z -0.152430 0.000000 3.835700 
# 
# 
# High freq. dielectric constant tensor:
#      x y z
#    x 1.801690 0.000000 -0.004230 
#    y 0.000000 1.734530 0.000000 
#    z -0.004230 0.000000 1.793690 
# 
# From -- ./inp_files/47402.got.cif
#   From: 2010.06.25/outbox.cif.g09.slc.cpg/sg11_24_cif.got.tgz:47402.got - 2010.06.27 23:14:04.
