data_PCOD8069850
_publ_section_title
;
Structure prediction by ZEFSAII (Michael W. Deem and Ramdas Pophale) SiO2 
 PCOD8069850
Probable space group: P 21/M
;
_chemical_formula_sum "Si O2"
_cell_formula_units_Z 28
_cell_length_a 14.212832
_cell_length_b 19.704486
_cell_length_c 8.862246
_cell_angle_alpha 90.000000
_cell_angle_beta 35.489879
_cell_angle_gamma 90.000000
_cell_volume 1440.907159
_symmetry_space_group_name_H-M "P 21/M"
_symmetry_group_IT_number 11
_symmetry_cell_setting 'monoclinic'
loop_
_space_group_symop_operation_xyz
x,y,z
-x,1/2+y,-z
-x,-y,-z
x,1/2-y,z
loop_
_atom_site_type_symbol
_atom_site_label
_atom_site_fract_x
_atom_site_fract_y
_atom_site_fract_z
Si Si1 0.960248 0.099103 0.095726
Si Si2 0.656312 0.523349 0.986039
Si Si3 0.030830 0.094564 0.522949
Si Si4 0.163491 0.988060 0.988325
Si Si5 0.196843 0.329214 0.554697
Si Si6 0.156890 0.826757 0.479359
Si Si7 0.517147 0.109451 0.015511
O O1 0.820483 0.060579 0.179379
O O2 0.870548 0.157038 0.307837
O O3 0.105334 0.129487 0.805781
O O4 0.035585 0.045952 0.114773
O O5 0.836606 0.537052 0.686240
O O6 0.544418 0.584469 0.069714
O O7 0.671552 0.520296 0.151898
O O8 0.588651 0.453127 0.013738
O O9 0.106539 0.158121 0.514898
O O10 0.956342 0.123947 0.468321
O O11 0.894564 0.059826 0.800474
O O12 0.198397 0.250000 0.592746
O O13 0.379295 0.357254 0.300214
O O14 0.106019 0.750000 0.514234
O O15 0.345384 0.835056 0.192830
#
# Coordination Sequence:
#
# PCOD8069850 Si02
#       7
#     4   4   4   4   4   4   4
#     4  10  22  35  60  90 113 153 189 243 299 329
#     4  10  18  35  60  87 116 143 191 247 285 341
#     4  10  19  34  63  86 111 151 202 244 288 333
#     4  10  18  35  60  87 116 143 191 247 285 341
#     4  10  21  40  56  79 120 162 196 227 281 364
#     4  12  22  37  60  88 117 152 198 243 281 338
#     4  10  22  35  60  90 113 153 189 243 299 329
#
# _framework density 19.432202
#
# number of rings (size 3 to 8) (size 9 to 14) (size 15 to 20)
#    0.000    1.714    2.857    2.571    0.000    3.429 
#    0.000    2.857    0.000    1.714    0.000    0.000 
#    0.000    0.000    0.000    0.000    0.000    0.000 
#
# Total GULP energy -346997.127979 kJ/mol
# GULP energy per Si atom -12392.754571 kJ/mol
# Density = 1.938797 g / cm^3
# Si number density = 19.432202 Si / 1000 Ang^3
#
#
#
# Elastic Constant Matrix: (Units=GPa)
#
#
# Indices 1 2 3 4 5 6 
#
# 1 113.0984 22.2604 10.1681 0.0000 8.3066 0.0000
# 2 22.2604 84.1601 9.1162 0.0000 9.3387 0.0000
# 3 10.1681 9.1162 70.2020 0.0000 5.9556 0.0000
# 4 0.0000 0.0000 0.0000 24.5647 0.0000 1.8474
# 5 8.3066 9.3387 5.9556 0.0000 22.0508 0.0000
# 6 0.0000 0.0000 0.0000 1.8474 0.0000 26.9569
#
#
#
# Elastic Compliance Matrix: (Units=1/GPa)
#
#
# Indices 1 2 3 4 5 6 
#
# 1 0.009525 -0.002152 -0.000893 0.000000 -0.002435 0.000000
# 2 -0.002152 0.013054 -0.001006 0.000000 -0.004446 0.000000
# 3 -0.000893 -0.001006 0.014779 0.000000 -0.003229 0.000000
# 4 0.000000 0.000000 0.000000 0.040920 0.000000 -0.002804
# 5 -0.002435 -0.004446 -0.003229 0.000000 0.049022 0.000000
# 6 0.000000 0.000000 0.000000 -0.002804 0.000000 0.037288
#
#
# Mechanical properties :
#
#
# Convention : Reuss Voigt Hill
#
# Bulk Modulus (GPa) = 34.18454 38.95000 36.56727
# Shear Modulus (GPa) = 27.40595 29.77553 28.59074
#
# Velocity S-wave (km/s) = 3.75952 3.91868 3.83992
# Velocity P-wave (km/s) = 6.03947 6.36885 6.20635
#
# Compressibility (1/GPa) = 0.02925299
#
# Stress axis : x y z
#
# Youngs Moduli (GPa) = 104.99065 76.60653 67.66540
#
# Poissons Ratio (x) = 0.16488 0.06046
# Poissons Ratio (y) = 0.22597 0.06809
# Poissons Ratio (z) = 0.09381 0.07708
#
# Static dielectric constant tensor:
#      x y z
#    x 4.008110 0.000000 -0.007520 
#    y 0.000000 3.477700 0.000000 
#    z -0.007520 0.000000 3.332710 
# 
# 
# High freq. dielectric constant tensor:
#      x y z
#    x 1.769960 0.000000 0.001710 
#    y 0.000000 1.755510 0.000000 
#    z 0.001710 0.000000 1.732200 
# 
# From -- ./inp_files/23170.got.cif
#   From: 2010.06.25/outbox.cif.g09.slc.cpg/sg11_12_cif.got.tgz:23170.got - 2010.06.27 23:14:04.
