data_PCOD8069617
_publ_section_title
;
Structure prediction by ZEFSAII (Michael W. Deem and Ramdas Pophale) SiO2 
 PCOD8069617
Probable space group: P 21/M
;
_chemical_formula_sum "Si O2"
_cell_formula_units_Z 32
_cell_length_a 21.497377
_cell_length_b 8.854515
_cell_length_c 12.665382
_cell_angle_alpha 90.000000
_cell_angle_beta 127.247569
_cell_angle_gamma 90.000000
_cell_volume 1919.096067
_symmetry_space_group_name_H-M "P 21/M"
_symmetry_group_IT_number 11
_symmetry_cell_setting 'monoclinic'
loop_
_space_group_symop_operation_xyz
x,y,z
-x,1/2+y,-z
-x,-y,-z
x,1/2-y,z
loop_
_atom_site_type_symbol
_atom_site_label
_atom_site_fract_x
_atom_site_fract_y
_atom_site_fract_z
Si Si1 0.322228 0.572218 0.122646
Si Si2 0.413844 0.424116 0.789818
Si Si3 0.841131 0.074435 0.720256
Si Si4 0.993119 0.927152 0.878915
Si Si5 0.415458 0.071384 0.405463
Si Si6 0.407279 0.923623 0.998972
Si Si7 0.161899 0.572821 0.045367
Si Si8 0.670382 0.425976 0.488139
O O1 0.332033 0.750000 0.156518
O O2 0.377380 0.481248 0.257627
O O3 0.346457 0.534729 0.028149
O O4 0.232879 0.513355 0.045538
O O5 0.392608 0.250000 0.748473
O O6 0.505696 0.454792 0.868643
O O7 0.368264 0.527372 0.660878
O O8 0.387345 0.470196 0.879938
O O9 0.860726 0.250000 0.744555
O O10 0.830033 0.007402 0.827365
O O11 0.763055 0.040901 0.573705
O O12 0.916492 0.994844 0.742016
O O13 0.982105 0.750000 0.878639
O O14 0.076385 0.965981 0.906927
O O15 0.000000 0.000000 0.000000
O O16 0.423476 0.250000 0.414656
O O17 0.500000 0.000000 0.500000
O O18 0.363707 0.021120 0.450926
O O19 0.399542 0.750000 0.955020
O O20 0.172114 0.750000 0.066100
O O21 0.654868 0.250000 0.494910
#
# Coordination Sequence:
#
# PCOD8069617 Si02
#       8
#     4   4   4   4   4   4   4   4
#     4  10  18  33  53  72  98 130 166 205 245 291
#     4  10  20  34  51  73  99 125 163 210 251 293
#     4   9  17  30  46  67  96 130 162 196 242 290
#     4   9  16  26  42  65  94 129 164 195 236 287
#     4  12  24  35  48  70 100 134 169 199 243 297
#     4   9  19  34  53  72  92 126 167 205 247 294
#     4   8  14  27  45  67  96 128 159 194 240 286
#     4  11  21  35  53  72  99 131 166 206 250 296
#
# _framework density 16.674517000000002
#
# number of rings (size 3 to 8) (size 9 to 14) (size 15 to 20)
#    0.000    2.250    1.250    3.750    0.000    3.000 
#    0.000    0.625    0.000    0.000    0.000    0.875 
#    0.000    0.000    0.000    0.000    0.000    0.000 
#
# Total GULP energy -396660.835725 kJ/mol
# GULP energy per Si atom -12395.651116 kJ/mol
# Density = 1.663656 g / cm^3
# Si number density = 16.674517 Si / 1000 Ang^3
#
#
#
# Elastic Constant Matrix: (Units=GPa)
#
#
# Indices 1 2 3 4 5 6 
#
# 1 100.6277 35.2692 28.8041 0.0000 13.4868 0.0000
# 2 35.2692 73.6214 25.2793 0.0000 7.6735 0.0000
# 3 28.8041 25.2793 37.6651 0.0000 3.3577 0.0000
# 4 0.0000 0.0000 0.0000 26.3028 0.0000 3.7195
# 5 13.4868 7.6735 3.3577 0.0000 21.7910 0.0000
# 6 0.0000 0.0000 0.0000 3.7195 0.0000 21.7953
#
#
#
# Elastic Compliance Matrix: (Units=1/GPa)
#
#
# Indices 1 2 3 4 5 6 
#
# 1 0.014304 -0.003411 -0.008079 0.000000 -0.006407 0.000000
# 2 -0.003411 0.018900 -0.009806 0.000000 -0.003034 0.000000
# 3 -0.008079 -0.009806 0.039093 0.000000 0.002430 0.000000
# 4 0.000000 0.000000 0.000000 0.038959 0.000000 -0.006649
# 5 -0.006407 -0.003034 0.002430 0.000000 0.050550 0.000000
# 6 0.000000 0.000000 0.000000 -0.006649 0.000000 0.047016
#
#
# Mechanical properties :
#
#
# Convention : Reuss Voigt Hill
#
# Bulk Modulus (GPa) = 33.66342 43.40218 38.53280
# Shear Modulus (GPa) = 19.13390 22.14858 20.64124
#
# Velocity S-wave (km/s) = 3.39114 3.64852 3.52218
# Velocity P-wave (km/s) = 5.96368 6.62076 6.30079
#
# Compressibility (1/GPa) = 0.02970583
#
# Stress axis : x y z
#
# Youngs Moduli (GPa) = 69.90890 52.90899 25.58011
#
# Poissons Ratio (x) = 0.18047 0.20665
# Poissons Ratio (y) = 0.23845 0.25085
# Poissons Ratio (z) = 0.56477 0.51884
#
# Static dielectric constant tensor:
#      x y z
#    x 3.486760 0.000000 0.353010 
#    y 0.000000 3.214900 0.000000 
#    z 0.353010 0.000000 3.078380 
# 
# 
# High freq. dielectric constant tensor:
#      x y z
#    x 1.637760 0.000000 0.025150 
#    y 0.000000 1.640800 0.000000 
#    z 0.025150 0.000000 1.617890 
# 
# From -- ./inp_files/42896.got.cif
#   From: 2010.06.25/outbox.cif.g09.slc.cpg/sg11_22_cif.got.tgz:42896.got - 2010.06.27 23:14:04.
