data_PCOD8069125
_publ_section_title
;
Structure prediction by ZEFSAII (Michael W. Deem and Ramdas Pophale) SiO2 
 PCOD8069125
Probable space group: P 21/M
;
_chemical_formula_sum "Si O2"
_cell_formula_units_Z 32
_cell_length_a 11.596090
_cell_length_b 8.991423
_cell_length_c 21.336200
_cell_angle_alpha 90.000000
_cell_angle_beta 51.393124
_cell_angle_gamma 90.000000
_cell_volume 1738.424477
_symmetry_space_group_name_H-M "P 21/M"
_symmetry_group_IT_number 11
_symmetry_cell_setting 'monoclinic'
loop_
_space_group_symop_operation_xyz
x,y,z
-x,1/2+y,-z
-x,-y,-z
x,1/2-y,z
loop_
_atom_site_type_symbol
_atom_site_label
_atom_site_fract_x
_atom_site_fract_y
_atom_site_fract_z
Si Si1 0.266762 0.416849 0.679146
Si Si2 0.636544 0.073702 0.721023
Si Si3 0.846928 0.423457 0.538251
Si Si4 0.165455 0.922113 0.598133
Si Si5 0.933697 0.081715 0.838970
Si Si6 0.359740 0.578515 0.765492
Si Si7 0.161091 0.074991 0.248106
Si Si8 0.970075 0.077823 0.075315
O O1 0.331123 0.250000 0.655317
O O2 0.272444 0.485449 0.607572
O O3 0.365456 0.512825 0.693179
O O4 0.099903 0.418493 0.758637
O O5 0.632799 0.250000 0.730063
O O6 0.724982 0.022887 0.628963
O O7 0.471757 0.011162 0.771498
O O8 0.709508 0.002471 0.757239
O O9 0.877373 0.250000 0.533787
O O10 0.790128 0.463535 0.487826
O O11 0.000000 0.500000 0.500000
O O12 0.190577 0.750000 0.605295
O O13 0.993895 0.963428 0.666145
O O14 0.874397 0.250000 0.866167
O O15 0.833526 0.991925 0.823686
O O16 0.925481 0.999262 0.908409
O O17 0.406056 0.750000 0.746490
O O18 0.200208 0.556559 0.849764
O O19 0.189582 0.250000 0.234960
O O20 0.013629 0.250000 0.056581
O O21 0.000000 0.000000 0.000000
#
# Coordination Sequence:
#
# PCOD8069125 Si02
#       8
#     4   4   4   4   4   4   4   4
#     4   9  17  30  50  74  99 130 170 217 263 306
#     4  11  22  34  51  75 105 140 179 221 264 311
#     4  10  20  33  49  72 102 136 177 224 269 312
#     4   9  17  30  48  71  99 132 172 220 268 311
#     4   9  17  30  50  78 109 136 169 214 257 301
#     4  10  21  37  55  76 105 139 174 209 254 314
#     4  10  18  30  50  74 103 139 178 218 262 309
#     4  10  20  35  58  86 111 137 169 208 255 307
#
# _framework density 18.407471000000001
#
# number of rings (size 3 to 8) (size 9 to 14) (size 15 to 20)
#    0.000    2.250    1.250    2.250    0.000    6.000 
#    0.000    0.625    0.000    0.750    0.000    0.000 
#    0.000    0.000    0.000    0.000    0.000    0.000 
#
# Total GULP energy -396867.969667 kJ/mol
# GULP energy per Si atom -12402.124052 kJ/mol
# Density = 1.836557 g / cm^3
# Si number density = 18.407471 Si / 1000 Ang^3
#
#
#
# Elastic Constant Matrix: (Units=GPa)
#
#
# Indices 1 2 3 4 5 6 
#
# 1 125.3758 67.5633 39.6142 0.0000 31.0161 0.0000
# 2 67.5633 123.3172 40.2050 0.0000 18.5226 0.0000
# 3 39.6142 40.2050 56.9278 0.0000 29.2681 0.0000
# 4 0.0000 0.0000 0.0000 24.7242 0.0000 7.8455
# 5 31.0161 18.5226 29.2681 0.0000 30.9979 0.0000
# 6 0.0000 0.0000 0.0000 7.8455 0.0000 38.8809
#
#
#
# Elastic Compliance Matrix: (Units=1/GPa)
#
#
# Indices 1 2 3 4 5 6 
#
# 1 0.013714 -0.005944 -0.000226 0.000000 -0.009957 0.000000
# 2 -0.005944 0.013144 -0.008097 0.000000 0.005739 0.000000
# 3 -0.000226 -0.008097 0.040496 0.000000 -0.033172 0.000000
# 4 0.000000 0.000000 0.000000 0.043213 0.000000 -0.008720
# 5 -0.009957 0.005739 -0.033172 0.000000 0.070115 0.000000
# 6 0.000000 0.000000 0.000000 -0.008720 0.000000 0.027479
#
#
# Mechanical properties :
#
#
# Convention : Reuss Voigt Hill
#
# Bulk Modulus (GPa) = 25.75990 66.70955 46.23472
# Shear Modulus (GPa) = 20.02928 29.46983 24.74956
#
# Velocity S-wave (km/s) = 3.30222 4.00555 3.67077
# Velocity P-wave (km/s) = 5.34455 7.59683 6.56795
#
# Compressibility (1/GPa) = 0.03882003
#
# Stress axis : x y z
#
# Youngs Moduli (GPa) = 72.91894 76.08166 24.69365
#
# Poissons Ratio (x) = 0.45226 0.00558
# Poissons Ratio (y) = 0.43346 0.19994
# Poissons Ratio (z) = 0.01647 0.61600
#
# Static dielectric constant tensor:
#      x y z
#    x 13.063670 0.000000 1.850370 
#    y 0.000000 3.545420 0.000000 
#    z 1.850370 0.000000 3.469060 
# 
# 
# High freq. dielectric constant tensor:
#      x y z
#    x 1.712990 0.000000 0.027620 
#    y 0.000000 1.727500 0.000000 
#    z 0.027620 0.000000 1.679730 
# 
# From -- ./inp_files/42452.got.cif
#   From: 2010.06.25/outbox.cif.g09.slc.cpg/sg11_22_cif.got.tgz:42452.got - 2010.06.27 23:14:04.
