data_PCOD8069209
_publ_section_title
;
Structure prediction by ZEFSAII (Michael W. Deem and Ramdas Pophale) SiO2 
 PCOD8069209
Probable space group: P 21/M
;
_chemical_formula_sum "Si O2"
_cell_formula_units_Z 26
_cell_length_a 16.030626
_cell_length_b 15.415273
_cell_length_c 11.592187
_cell_angle_alpha 90.000000
_cell_angle_beta 27.367816
_cell_angle_gamma 90.000000
_cell_volume 1316.868896
_symmetry_space_group_name_H-M "P 21/M"
_symmetry_group_IT_number 11
_symmetry_cell_setting 'monoclinic'
loop_
_space_group_symop_operation_xyz
x,y,z
-x,1/2+y,-z
-x,-y,-z
x,1/2-y,z
loop_
_atom_site_type_symbol
_atom_site_label
_atom_site_fract_x
_atom_site_fract_y
_atom_site_fract_z
Si Si1 0.253494 0.750000 0.636587
Si Si2 0.528833 0.852029 0.788401
Si Si3 0.233175 0.153752 0.300612
Si Si4 0.856222 0.750000 0.033886
Si Si5 0.229796 0.088876 0.708693
Si Si6 0.153798 0.647975 0.163440
Si Si7 0.168190 0.911118 0.893321
Si Si8 0.350268 0.250000 0.949373
O O1 0.258102 0.834050 0.710925
O O2 0.436932 0.750000 0.337646
O O3 0.076679 0.750000 0.769772
O O4 0.562730 0.750000 0.731425
O O5 0.620157 0.890494 0.793429
O O6 0.607346 0.900047 0.580350
O O7 0.313765 0.872409 0.058574
O O8 0.204048 0.250000 0.388017
O O9 0.307283 0.162814 0.078275
O O10 0.033881 0.109501 0.552527
O O11 0.772707 0.665941 0.196335
O O12 0.788277 0.750000 0.986330
O O13 0.260831 0.999990 0.739172
O O14 0.046864 0.087396 0.859504
O O15 0.142964 0.750000 0.151190
O O16 0.204867 0.599971 0.982820
#
# Coordination Sequence:
#
# PCOD8069209 Si02
#       8
#     2   4   4   2   4   4   4   2
#     4  10  22  37  55  81 119 150 182 225 276 350
#     4  10  18  30  55  86 107 136 186 235 274 320
#     4   8  18  34  53  79 106 141 187 239 263 316
#     4  10  22  37  55  81 119 150 182 225 276 350
#     4  10  20  34  56  87 120 147 177 229 292 339
#     4  10  18  30  55  86 107 136 186 235 274 320
#     4  10  20  34  56  87 120 147 177 229 292 339
#     4  10  22  36  58  82 108 160 192 218 284 342
#
# _framework density 19.743803
#
# number of rings (size 3 to 8) (size 9 to 14) (size 15 to 20)
#    0.462    1.846    3.077    0.000    2.154    1.846 
#    0.000    0.000    0.000    1.846    0.000    0.000 
#    0.000    0.000    0.000    0.000    0.000    0.000 
#
# Total GULP energy -322232.163148 kJ/mol
# GULP energy per Si atom -12393.544736 kJ/mol
# Density = 1.969887 g / cm^3
# Si number density = 19.743803 Si / 1000 Ang^3
#
#
#
# Elastic Constant Matrix: (Units=GPa)
#
#
# Indices 1 2 3 4 5 6 
#
# 1 121.5619 24.0302 58.4837 0.0000 -4.0414 0.0000
# 2 24.0302 80.9171 23.9847 0.0000 0.3322 0.0000
# 3 58.4837 23.9847 122.5219 0.0000 -3.4612 0.0000
# 4 0.0000 0.0000 0.0000 -6.1740 0.0000 1.1667
# 5 -4.0414 0.3322 -3.4612 0.0000 27.3782 0.0000
# 6 0.0000 0.0000 0.0000 1.1667 0.0000 -5.9782
#
#
#
# Elastic Compliance Matrix: (Units=1/GPa)
#
#
# Indices 1 2 3 4 5 6 
#
# 1 0.010949 -0.001821 -0.004841 0.000000 0.001026 0.000000
# 2 -0.001821 0.013429 -0.001778 0.000000 -0.000657 0.000000
# 3 -0.004841 -0.001778 0.010840 0.000000 0.000677 0.000000
# 4 0.000000 0.000000 0.000000 -0.168170 0.000000 -0.032819
# 5 0.001026 -0.000657 0.000677 0.000000 0.036771 0.000000
# 6 0.000000 0.000000 0.000000 -0.032819 0.000000 -0.173678
#
#
# Mechanical properties :
#
#
# Convention : Reuss Voigt Hill
#
# Bulk Modulus (GPa) = 54.53230 59.77758 57.15494
# Shear Modulus (GPa) = -20.25381 17.61199 -1.32091
#
# Velocity S-wave (km/s) = -3.20634 2.98992 -0.81883
# Velocity P-wave (km/s) = 3.73798 6.50091 5.30256
#
# Compressibility (1/GPa) = 0.01833776
#
# Stress axis : x y z
#
# Youngs Moduli (GPa) = 91.32933 74.46646 92.25247
#
# Poissons Ratio (x) = 0.13560 0.44660
# Poissons Ratio (y) = 0.16631 0.16404
# Poissons Ratio (z) = 0.44213 0.13241
#
# Static dielectric constant tensor:
#      x y z
#    x 3.522870 0.000000 -0.236840 
#    y 0.000000 3.297010 0.000000 
#    z -0.236840 0.000000 3.553300 
# 
# 
# High freq. dielectric constant tensor:
#      x y z
#    x 1.769440 0.000000 -0.014930 
#    y 0.000000 1.732240 0.000000 
#    z -0.014930 0.000000 1.771350 
# 
# From -- ./inp_files/39840.got.cif
#   From: 2010.06.25/outbox.cif.g09.slc.cpg/sg11_20_cif.got.tgz:39840.got - 2010.06.27 23:14:04.
