data_PCOD8069015
_publ_section_title
;
Structure prediction by ZEFSAII (Michael W. Deem and Ramdas Pophale) SiO2 
 PCOD8069015
Probable space group: P 21/M
;
_chemical_formula_sum "Si O2"
_cell_formula_units_Z 20
_cell_length_a 12.730175
_cell_length_b 20.386253
_cell_length_c 5.192175
_cell_angle_alpha 90.000000
_cell_angle_beta 72.283435
_cell_angle_gamma 90.000000
_cell_volume 1283.570182
_symmetry_space_group_name_H-M "P 21/M"
_symmetry_group_IT_number 11
_symmetry_cell_setting 'monoclinic'
loop_
_space_group_symop_operation_xyz
x,y,z
-x,1/2+y,-z
-x,-y,-z
x,1/2-y,z
loop_
_atom_site_type_symbol
_atom_site_label
_atom_site_fract_x
_atom_site_fract_y
_atom_site_fract_z
Si Si1 0.515218 0.396647 0.867215
Si Si2 0.884208 0.464575 0.576779
Si Si3 0.206562 0.585834 0.863063
Si Si4 0.328889 0.008920 0.081039
Si Si5 0.404776 0.673006 0.692099
O O1 0.595632 0.459314 0.808650
O O2 0.526763 0.360171 0.588477
O O3 0.389146 0.422335 0.986015
O O4 0.540876 0.346816 0.078102
O O5 0.872703 0.425096 0.320091
O O6 0.785675 0.518897 0.674376
O O7 0.000000 0.500000 0.500000
O O8 0.870992 0.412625 0.823025
O O9 0.275500 0.652817 0.778784
O O10 0.297302 0.527000 0.833326
O O11 0.411843 0.750000 0.652278
#
# Coordination Sequence:
#
# PCOD8069015 Si02
#       5
#     4   4   4   4   4
#     4  10  19  30  48  70 101 124 157 189 242 293
#     4  10  18  30  47  72  98 120 152 194 245 290
#     4   9  18  31  45  71  98 126 152 195 242 288
#     4   8  19  28  50  70 100 125 149 191 251 287
#     4  11  20  32  47  70  99 131 163 194 231 283
#
# _framework density 15.581538999999999
#
# number of rings (size 3 to 8) (size 9 to 14) (size 15 to 20)
#    1.200    1.200    2.000    1.200    2.800    2.400 
#    0.000    0.000    0.000    0.000    0.000    8.400 
#    0.000    0.000    0.000    0.000    0.000    0.000 
#
# Total GULP energy -247794.591044 kJ/mol
# GULP energy per Si atom -12389.729552 kJ/mol
# Density = 1.554608 g / cm^3
# Si number density = 15.581539 Si / 1000 Ang^3
#
#
#
# Elastic Constant Matrix: (Units=GPa)
#
#
# Indices 1 2 3 4 5 6 
#
# 1 61.4572 15.8231 20.1743 0.0000 -13.2591 0.0000
# 2 15.8231 60.7023 15.5186 0.0000 -10.8775 0.0000
# 3 20.1743 15.5186 85.3616 0.0000 3.7135 0.0000
# 4 0.0000 0.0000 0.0000 18.9163 0.0000 -0.7961
# 5 -13.2591 -10.8775 3.7135 0.0000 29.5459 0.0000
# 6 0.0000 0.0000 0.0000 -0.7961 0.0000 14.6659
#
#
#
# Elastic Compliance Matrix: (Units=1/GPa)
#
#
# Indices 1 2 3 4 5 6 
#
# 1 0.020378 -0.002521 -0.004741 0.000000 0.008813 0.000000
# 2 -0.002521 0.019060 -0.003143 0.000000 0.006281 0.000000
# 3 -0.004741 -0.003143 0.013624 0.000000 -0.004997 0.000000
# 4 0.000000 0.000000 0.000000 0.052985 0.000000 0.002876
# 5 0.008813 0.006281 -0.004997 0.000000 0.040741 0.000000
# 6 0.000000 0.000000 0.000000 0.002876 0.000000 0.068342
#
#
# Mechanical properties :
#
#
# Convention : Reuss Voigt Hill
#
# Bulk Modulus (GPa) = 31.00472 34.50592 32.75532
# Shear Modulus (GPa) = 20.26834 23.02596 21.64715
#
# Velocity S-wave (km/s) = 3.61056 3.84835 3.73135
# Velocity P-wave (km/s) = 6.10926 6.47610 6.29535
#
# Compressibility (1/GPa) = 0.03225316
#
# Stress axis : x y z
#
# Youngs Moduli (GPa) = 49.07198 52.46661 73.39916
#
# Poissons Ratio (x) = 0.13225 0.34801
# Poissons Ratio (y) = 0.12369 0.23066
# Poissons Ratio (z) = 0.23267 0.16488
#
# Static dielectric constant tensor:
#      x y z
#    x 2.877730 0.000000 0.048490 
#    y 0.000000 2.648420 0.000000 
#    z 0.048490 0.000000 3.038580 
# 
# 
# High freq. dielectric constant tensor:
#      x y z
#    x 1.584360 0.000000 0.010700 
#    y 0.000000 1.552120 0.000000 
#    z 0.010700 0.000000 1.612300 
# 
# From -- ./inp_files/4499.got.cif
#   From: 2010.06.25/outbox.cif.g09.slc.cpg/sg11_3_cif.got.tgz:4499.got - 2010.06.27 23:14:04.
