data_PCOD8069315
_publ_section_title
;
Structure prediction by ZEFSAII (Michael W. Deem and Ramdas Pophale) SiO2 
 PCOD8069315
Probable space group: P 21/M
;
_chemical_formula_sum "Si O2"
_cell_formula_units_Z 32
_cell_length_a 8.117061
_cell_length_b 15.749183
_cell_length_c 13.407347
_cell_angle_alpha 90.000000
_cell_angle_beta 101.795671
_cell_angle_gamma 90.000000
_cell_volume 1677.762189
_symmetry_space_group_name_H-M "P 21/M"
_symmetry_group_IT_number 11
_symmetry_cell_setting 'monoclinic'
loop_
_space_group_symop_operation_xyz
x,y,z
-x,1/2+y,-z
-x,-y,-z
x,1/2-y,z
loop_
_atom_site_type_symbol
_atom_site_label
_atom_site_fract_x
_atom_site_fract_y
_atom_site_fract_z
Si Si1 0.265686 0.507644 0.162496
Si Si2 0.481429 0.151916 0.822966
Si Si3 0.745225 0.930821 0.370368
Si Si4 0.586597 0.586725 0.983600
Si Si5 0.977742 0.034030 0.262447
Si Si6 0.515793 0.419330 0.345297
Si Si7 0.310547 0.843503 0.809852
Si Si8 0.218543 0.349045 0.421672
O O1 0.342051 0.600238 0.144401
O O2 0.255459 0.442304 0.066412
O O3 0.393920 0.468203 0.256345
O O4 0.082426 0.514860 0.189601
O O5 0.529602 0.250000 0.819757
O O6 0.375531 0.125063 0.713869
O O7 0.365944 0.134825 0.907725
O O8 0.814758 0.872619 0.467713
O O9 0.905796 0.963248 0.328042
O O10 0.645407 0.011072 0.405983
O O11 0.460837 0.646646 0.906685
O O12 0.500000 0.500000 0.000000
O O13 0.828620 0.084253 0.188137
O O14 0.090721 0.101247 0.335447
O O15 0.621036 0.350807 0.294905
O O16 0.412255 0.372461 0.419313
O O17 0.231620 0.750000 0.813224
O O18 0.186309 0.250000 0.401208
#
# Coordination Sequence:
#
# PCOD8069315 Si02
#       8
#     4   4   4   4   4   4   4   4
#     4   8  17  33  54  75  99 133 169 203 252 309
#     4  10  19  35  55  77 101 131 174 220 250 286
#     4  10  20  35  53  73 102 142 175 203 249 311
#     4   9  17  33  55  75  97 131 170 206 251 303
#     4  10  20  35  52  74 106 140 167 201 256 319
#     4   8  17  32  52  73  97 130 171 212 255 301
#     4  10  18  31  51  78 104 129 165 215 261 300
#     4  11  20  32  51  77 103 132 171 218 256 293
#
# _framework density 19.073025000000001
#
# number of rings (size 3 to 8) (size 9 to 14) (size 15 to 20)
#    0.000    2.500    0.000    4.500    0.000    0.000 
#    0.000    8.750    0.000    0.000    0.000    0.000 
#    0.000    0.000    0.000    0.000    0.000    0.000 
#
# Total GULP energy -396640.760277 kJ/mol
# GULP energy per Si atom -12395.023759 kJ/mol
# Density = 1.902961 g / cm^3
# Si number density = 19.073025 Si / 1000 Ang^3
#
#
#
# Elastic Constant Matrix: (Units=GPa)
#
#
# Indices 1 2 3 4 5 6 
#
# 1 80.7903 30.9871 7.7241 0.0000 -27.8191 0.0000
# 2 30.9871 110.3440 26.5735 0.0000 -15.0621 0.0000
# 3 7.7241 26.5735 60.9443 0.0000 -12.8027 0.0000
# 4 0.0000 0.0000 0.0000 26.8189 0.0000 2.6471
# 5 -27.8191 -15.0621 -12.8027 0.0000 27.0863 0.0000
# 6 0.0000 0.0000 0.0000 2.6471 0.0000 18.0726
#
#
#
# Elastic Compliance Matrix: (Units=1/GPa)
#
#
# Indices 1 2 3 4 5 6 
#
# 1 0.020626 -0.003784 0.003379 0.000000 0.020677 0.000000
# 2 -0.003784 0.011212 -0.004348 0.000000 0.000294 0.000000
# 3 0.003379 -0.004348 0.020092 0.000000 0.010550 0.000000
# 4 0.000000 0.000000 0.000000 0.037834 0.000000 -0.005542
# 5 0.020677 0.000294 0.010550 0.000000 0.063305 0.000000
# 6 0.000000 0.000000 0.000000 -0.005542 0.000000 0.056144
#
#
# Mechanical properties :
#
#
# Convention : Reuss Voigt Hill
#
# Bulk Modulus (GPa) = 23.57028 42.51645 33.04337
# Shear Modulus (GPa) = 21.47221 26.84850 24.16036
#
# Velocity S-wave (km/s) = 3.35892 3.75596 3.56298
# Velocity P-wave (km/s) = 5.23716 6.41478 5.85565
#
# Compressibility (1/GPa) = 0.04242630
#
# Stress axis : x y z
#
# Youngs Moduli (GPa) = 48.48327 89.18852 49.77098
#
# Poissons Ratio (x) = 0.33745 -0.16819
# Poissons Ratio (y) = 0.18344 0.21638
# Poissons Ratio (z) = -0.16384 0.38775
#
# Static dielectric constant tensor:
#      x y z
#    x 3.638640 0.000000 -0.406580 
#    y 0.000000 3.431250 0.000000 
#    z -0.406580 0.000000 3.900140 
# 
# 
# High freq. dielectric constant tensor:
#      x y z
#    x 1.720680 0.000000 -0.014600 
#    y 0.000000 1.736010 0.000000 
#    z -0.014600 0.000000 1.739340 
# 
# From -- ./inp_files/47461.got.cif
#   From: 2010.06.25/outbox.cif.g09.slc.cpg/sg11_24_cif.got.tgz:47461.got - 2010.06.27 23:14:04.
