data_PCOD8069663
_publ_section_title
;
Structure prediction by ZEFSAII (Michael W. Deem and Ramdas Pophale) SiO2 
 PCOD8069663
Probable space group: P 21/M
;
_chemical_formula_sum "Si O2"
_cell_formula_units_Z 32
_cell_length_a 16.861069
_cell_length_b 13.445288
_cell_length_c 24.381262
_cell_angle_alpha 90.000000
_cell_angle_beta 161.463916
_cell_angle_gamma 90.000000
_cell_volume 1757.132164
_symmetry_space_group_name_H-M "P 21/M"
_symmetry_group_IT_number 11
_symmetry_cell_setting 'monoclinic'
loop_
_space_group_symop_operation_xyz
x,y,z
-x,1/2+y,-z
-x,-y,-z
x,1/2-y,z
loop_
_atom_site_type_symbol
_atom_site_label
_atom_site_fract_x
_atom_site_fract_y
_atom_site_fract_z
Si Si1 0.065760 0.138299 0.287072
Si Si2 0.841116 0.512111 0.559730
Si Si3 0.722125 0.362911 0.156676
Si Si4 0.931908 0.868084 0.910265
Si Si5 0.846183 0.866160 0.049552
Si Si6 0.191851 0.364805 0.847846
Si Si7 0.237289 0.021008 0.301089
Si Si8 0.660875 0.529724 0.828879
O O1 0.157583 0.250000 0.337027
O O2 0.258514 0.084949 0.456404
O O3 0.056550 0.081675 0.223658
O O4 0.790894 0.133464 0.136168
O O5 0.622707 0.483878 0.375734
O O6 0.065900 0.569305 0.674169
O O7 0.954120 0.416218 0.664594
O O8 0.740475 0.250000 0.191361
O O9 0.445477 0.404780 0.985684
O O10 0.968439 0.750000 0.927206
O O11 0.740941 0.912820 0.739569
O O12 0.810246 0.892266 0.888947
O O13 0.199384 0.922947 0.078889
O O14 0.856774 0.750000 0.043538
O O15 0.784798 0.887671 0.072475
O O16 0.643479 0.921012 0.877858
O O17 0.112746 0.914145 0.207690
O O18 0.151554 0.250000 0.809624
O O19 0.500000 0.000000 0.500000
#
# Coordination Sequence:
#
# PCOD8069663 Si02
#       8
#     4   4   4   4   4   4   4   4
#     4   9  18  32  53  80 110 138 171 220 271 316
#     4  10  18  33  55  82 105 142 174 225 270 314
#     4   8  17  32  54  83 110 138 176 220 273 329
#     4  10  22  37  55  73 105 149 185 228 274 317
#     4  10  21  37  55  75 109 148 177 219 274 323
#     4  10  19  33  56  84 109 141 180 221 272 327
#     4  11  21  35  52  82 110 136 183 229 271 323
#     4  10  22  38  53  78 108 142 191 225 263 327
#
# _framework density 18.211493000000001
#
# number of rings (size 3 to 8) (size 9 to 14) (size 15 to 20)
#    0.750    1.500    1.250    1.875    0.000    3.000 
#    0.000    0.625    0.000    0.000    0.000    7.000 
#    0.000    0.000    0.000    0.000    0.000    0.000 
#
# Total GULP energy -396505.505496 kJ/mol
# GULP energy per Si atom -12390.797047 kJ/mol
# Density = 1.817004 g / cm^3
# Si number density = 18.211493 Si / 1000 Ang^3
#
#
#
# Elastic Constant Matrix: (Units=GPa)
#
#
# Indices 1 2 3 4 5 6 
#
# 1 53.5433 29.3671 31.3121 0.0000 -4.5737 0.0000
# 2 29.3671 115.1396 51.1471 0.0000 -1.3482 0.0000
# 3 31.3121 51.1471 126.7331 0.0000 -11.5443 0.0000
# 4 0.0000 0.0000 0.0000 13.7731 0.0000 -4.7608
# 5 -4.5737 -1.3482 -11.5443 0.0000 21.1769 0.0000
# 6 0.0000 0.0000 0.0000 -4.7608 0.0000 24.2816
#
#
#
# Elastic Compliance Matrix: (Units=1/GPa)
#
#
# Indices 1 2 3 4 5 6 
#
# 1 0.023486 -0.004253 -0.003840 0.000000 0.002709 0.000000
# 2 -0.004253 0.011414 -0.003760 0.000000 -0.002241 0.000000
# 3 -0.003840 -0.003760 0.010795 0.000000 0.004816 0.000000
# 4 0.000000 0.000000 0.000000 0.077884 0.000000 0.015271
# 5 0.002709 -0.002241 0.004816 0.000000 0.050289 0.000000
# 6 0.000000 0.000000 0.000000 0.015271 0.000000 0.044178
#
#
# Mechanical properties :
#
#
# Convention : Reuss Voigt Hill
#
# Bulk Modulus (GPa) = 45.47433 57.67432 51.57433
# Shear Modulus (GPa) = 20.07387 24.08563 22.07975
#
# Velocity S-wave (km/s) = 3.32364 3.64063 3.48574
# Velocity P-wave (km/s) = 6.30501 7.02924 6.67695
#
# Compressibility (1/GPa) = 0.02199043
#
# Stress axis : x y z
#
# Youngs Moduli (GPa) = 42.57892 87.61356 92.63249
#
# Poissons Ratio (x) = 0.37261 0.35567
# Poissons Ratio (y) = 0.18108 0.34828
# Poissons Ratio (z) = 0.16348 0.32941
#
# Static dielectric constant tensor:
#      x y z
#    x 3.361170 0.000000 -0.063710 
#    y 0.000000 3.540060 0.000000 
#    z -0.063710 0.000000 3.106400 
# 
# 
# High freq. dielectric constant tensor:
#      x y z
#    x 1.694650 0.000000 -0.002720 
#    y 0.000000 1.723610 0.000000 
#    z -0.002720 0.000000 1.678060 
# 
# From -- ./inp_files/69662.got.cif
#   From: 2010.06.25/outbox.cif.g09.slc.cpg/sg11_35_cif.got.tgz:69662.got - 2010.06.27 23:14:04.
