data_PCOD8069721
_publ_section_title
;
Structure prediction by ZEFSAII (Michael W. Deem and Ramdas Pophale) SiO2 
 PCOD8069721
Probable space group: P 21/M
;
_chemical_formula_sum "Si O2"
_cell_formula_units_Z 28
_cell_length_a 9.173070
_cell_length_b 26.675970
_cell_length_c 6.736186
_cell_angle_alpha 90.000000
_cell_angle_beta 51.321569
_cell_angle_gamma 90.000000
_cell_volume 1286.809061
_symmetry_space_group_name_H-M "P 21/M"
_symmetry_group_IT_number 11
_symmetry_cell_setting 'monoclinic'
loop_
_space_group_symop_operation_xyz
x,y,z
-x,1/2+y,-z
-x,-y,-z
x,1/2-y,z
loop_
_atom_site_type_symbol
_atom_site_label
_atom_site_fract_x
_atom_site_fract_y
_atom_site_fract_z
Si Si1 0.997747 0.473843 0.214048
Si Si2 0.801352 0.692648 0.200483
Si Si3 0.599068 0.963876 0.161180
Si Si4 0.689127 0.541760 0.547464
Si Si5 0.744812 0.651057 0.659305
Si Si6 0.483135 0.853945 0.221393
Si Si7 0.927726 0.361178 0.309607
O O1 0.877069 0.511723 0.451644
O O2 0.898531 0.419562 0.281021
O O3 0.000000 0.500000 0.000000
O O4 0.206040 0.466206 0.127139
O O5 0.800383 0.750000 0.130816
O O6 0.794392 0.690527 0.445374
O O7 0.615763 0.664599 0.284823
O O8 0.990101 0.666701 0.955241
O O9 0.654507 0.962066 0.343242
O O10 0.489885 0.913953 0.193488
O O11 0.516926 0.986657 0.799678
O O12 0.695663 0.598706 0.601279
O O13 0.927489 0.646374 0.637152
O O14 0.566158 0.668948 0.943889
O O15 0.270958 0.837632 0.451691
#
# Coordination Sequence:
#
# PCOD8069721 Si02
#       7
#     4   4   4   4   4   4   4
#     4  10  18  33  59  88 128 178 219 253 306 373
#     4  11  25  48  73  92 122 168 219 277 342 400
#     4  10  18  36  58  89 127 181 220 255 306 373
#     4  10  20  33  60  92 133 178 220 255 304 381
#     4  11  24  42  64 101 138 172 218 270 329 390
#     4  11  23  44  68  97 133 170 216 272 325 391
#     4  11  24  44  66  98 134 173 215 273 327 389
#
# _framework density 21.759249000000001
#
# number of rings (size 3 to 8) (size 9 to 14) (size 15 to 20)
#    0.000    1.429    5.714    0.857    0.000    6.286 
#    0.000    0.000    0.000    0.000    0.000    0.000 
#    0.000    0.000    0.000    0.000    0.000    0.000 
#
# Total GULP energy -347122.708373 kJ/mol
# GULP energy per Si atom -12397.239585 kJ/mol
# Density = 2.170972 g / cm^3
# Si number density = 21.759249 Si / 1000 Ang^3
#
#
#
# Elastic Constant Matrix: (Units=GPa)
#
#
# Indices 1 2 3 4 5 6 
#
# 1 68.7444 4.2902 49.5844 0.0000 -34.2466 0.0000
# 2 4.2902 71.4528 21.5046 0.0000 -4.0410 0.0000
# 3 49.5844 21.5046 145.1818 0.0000 -30.3794 0.0000
# 4 0.0000 0.0000 0.0000 18.5474 0.0000 1.6787
# 5 -34.2466 -4.0410 -30.3794 0.0000 34.4127 0.0000
# 6 0.0000 0.0000 0.0000 1.6787 0.0000 12.2494
#
#
#
# Elastic Compliance Matrix: (Units=1/GPa)
#
#
# Indices 1 2 3 4 5 6 
#
# 1 0.031852 0.001243 -0.005396 0.000000 0.027081 0.000000
# 2 0.001243 0.014698 -0.002431 0.000000 0.000817 0.000000
# 3 -0.005396 -0.002431 0.009699 0.000000 0.002907 0.000000
# 4 0.000000 0.000000 0.000000 0.054593 0.000000 -0.007481
# 5 0.027081 0.000817 0.002907 0.000000 0.058671 0.000000
# 6 0.000000 0.000000 0.000000 -0.007481 0.000000 0.082662
#
#
# Mechanical properties :
#
#
# Convention : Reuss Voigt Hill
#
# Bulk Modulus (GPa) = 23.21138 48.45971 35.83554
# Shear Modulus (GPa) = 17.87606 27.04189 22.45898
#
# Velocity S-wave (km/s) = 2.86936 3.52913 3.21621
# Velocity P-wave (km/s) = 4.65491 6.23903 5.50426
#
# Compressibility (1/GPa) = 0.04308232
#
# Stress axis : x y z
#
# Youngs Moduli (GPa) = 31.39522 68.03475 103.10177
#
# Poissons Ratio (x) = -0.08457 0.55633
# Poissons Ratio (y) = -0.03903 0.25061
# Poissons Ratio (z) = 0.16941 0.16537
#
# Static dielectric constant tensor:
#      x y z
#    x 4.008480 0.000000 -0.270580 
#    y 0.000000 3.773060 0.000000 
#    z -0.270580 0.000000 4.504150 
# 
# 
# High freq. dielectric constant tensor:
#      x y z
#    x 1.847540 0.000000 -0.001620 
#    y 0.000000 1.832620 0.000000 
#    z -0.001620 0.000000 1.878830 
# 
# From -- ./inp_files/3339.got.cif
#   From: 2010.06.25/outbox.cif.g09.slc.cpg/sg11_2_cif.got.tgz:3339.got - 2010.06.27 23:14:04.
