data_PCOD8069093
_publ_section_title
;
Structure prediction by ZEFSAII (Michael W. Deem and Ramdas Pophale) SiO2 
 PCOD8069093
Probable space group: P 21/M
;
_chemical_formula_sum "Si O2"
_cell_formula_units_Z 28
_cell_length_a 9.714169
_cell_length_b 8.516565
_cell_length_c 31.632457
_cell_angle_alpha 90.000000
_cell_angle_beta 145.376108
_cell_angle_gamma 90.000000
_cell_volume 1486.942903
_symmetry_space_group_name_H-M "P 21/M"
_symmetry_group_IT_number 11
_symmetry_cell_setting 'monoclinic'
loop_
_space_group_symop_operation_xyz
x,y,z
-x,1/2+y,-z
-x,-y,-z
x,1/2-y,z
loop_
_atom_site_type_symbol
_atom_site_label
_atom_site_fract_x
_atom_site_fract_y
_atom_site_fract_z
Si Si1 0.715100 0.434321 0.196911
Si Si2 0.133049 0.435342 0.242912
Si Si3 0.198588 0.934328 0.081480
Si Si4 0.191376 0.432600 0.692312
Si Si5 0.704729 0.564959 0.806201
Si Si6 0.957801 0.567059 0.555662
Si Si7 0.369299 0.564653 0.593496
O O1 0.660697 0.250000 0.179536
O O2 0.463567 0.527207 0.130251
O O3 0.849232 0.469786 0.274976
O O4 0.886908 0.496732 0.202454
O O5 0.145134 0.250000 0.250690
O O6 0.134315 0.483251 0.193809
O O7 0.368885 0.502590 0.326746
O O8 0.168043 0.750000 0.078935
O O9 0.155087 0.014381 0.116069
O O10 0.000000 0.000000 0.000000
O O11 0.183600 0.250000 0.701416
O O12 0.450591 0.476243 0.737923
O O13 0.981647 0.476114 0.606099
O O14 0.651337 0.750000 0.793458
O O15 0.957930 0.750000 0.565538
O O16 0.181788 0.516823 0.582728
O O17 0.707681 0.517420 0.469861
O O18 0.369389 0.750000 0.586425
#
# Coordination Sequence:
#
# PCOD8069093 Si02
#       7
#     4   4   4   4   4   4   4
#     4  10  20  36  58  82 109 143 176 215 267 321
#     4   9  18  34  56  81 110 142 177 217 269 324
#     4  11  22  39  60  86 112 141 177 216 258 309
#     4  11  20  32  50  76 106 142 185 228 267 315
#     4  10  18  34  58  84 109 140 177 219 264 315
#     4  10  18  30  49  74 103 138 183 231 276 317
#     4   9  17  31  49  74 106 138 175 225 275 320
#
# _framework density 18.830580000000001
#
# number of rings (size 3 to 8) (size 9 to 14) (size 15 to 20)
#    0.000    2.000    1.429    5.571    0.000    0.571 
#    0.000    5.714    0.000    0.000    0.000    0.000 
#    0.000    0.000    0.000    0.000    0.000    0.000 
#
# Total GULP energy -347210.206289 kJ/mol
# GULP energy per Si atom -12400.364510 kJ/mol
# Density = 1.878772 g / cm^3
# Si number density = 18.830580 Si / 1000 Ang^3
#
#
#
# Elastic Constant Matrix: (Units=GPa)
#
#
# Indices 1 2 3 4 5 6 
#
# 1 121.8274 9.2630 49.5323 0.0000 -6.5165 0.0000
# 2 9.2630 45.4859 10.9996 0.0000 0.3205 0.0000
# 3 49.5323 10.9996 127.1950 0.0000 -16.2512 0.0000
# 4 0.0000 0.0000 0.0000 31.6194 0.0000 -1.8860
# 5 -6.5165 0.3205 -16.2512 0.0000 20.8349 0.0000
# 6 0.0000 0.0000 0.0000 -1.8860 0.0000 15.3081
#
#
#
# Elastic Compliance Matrix: (Units=1/GPa)
#
#
# Indices 1 2 3 4 5 6 
#
# 1 0.009806 -0.001104 -0.003698 0.000000 0.000200 0.000000
# 2 -0.001104 0.022659 -0.001797 0.000000 -0.002096 0.000000
# 3 -0.003698 -0.001797 0.010344 0.000000 0.006939 0.000000
# 4 0.000000 0.000000 0.000000 0.031860 0.000000 0.003925
# 5 0.000200 -0.002096 0.006939 0.000000 0.053504 0.000000
# 6 0.000000 0.000000 0.000000 0.003925 0.000000 0.065808
#
#
# Mechanical properties :
#
#
# Convention : Reuss Voigt Hill
#
# Bulk Modulus (GPa) = 33.77136 48.23313 41.00225
# Shear Modulus (GPa) = 23.03608 28.53340 25.78474
#
# Velocity S-wave (km/s) = 3.50141 3.89687 3.70442
# Velocity P-wave (km/s) = 5.85831 6.77623 6.33392
#
# Compressibility (1/GPa) = 0.02961089
#
# Stress axis : x y z
#
# Youngs Moduli (GPa) = 101.97400 44.13243 96.67449
#
# Poissons Ratio (x) = 0.04873 0.35748
# Poissons Ratio (y) = 0.11260 0.17375
# Poissons Ratio (z) = 0.37708 0.07932
#
# Static dielectric constant tensor:
#      x y z
#    x 3.547210 0.000000 -0.132460 
#    y 0.000000 3.384420 0.000000 
#    z -0.132460 0.000000 3.479280 
# 
# 
# High freq. dielectric constant tensor:
#      x y z
#    x 1.714890 0.000000 -0.017160 
#    y 0.000000 1.727850 0.000000 
#    z -0.017160 0.000000 1.725640 
# 
# From -- ./inp_files/72763.got.cif
#   From: 2010.06.25/outbox.cif.g09.slc.cpg/sg11_37_cif.got.tgz:72763.got - 2010.06.27 23:14:04.
