data_PCOD8069271
_publ_section_title
;
Structure prediction by ZEFSAII (Michael W. Deem and Ramdas Pophale) SiO2 
 PCOD8069271
Probable space group: P 21/M
;
_chemical_formula_sum "Si O2"
_cell_formula_units_Z 32
_cell_length_a 29.702167
_cell_length_b 13.737813
_cell_length_c 10.019750
_cell_angle_alpha 90.000000
_cell_angle_beta 28.465117
_cell_angle_gamma 90.000000
_cell_volume 1948.669508
_symmetry_space_group_name_H-M "P 21/M"
_symmetry_group_IT_number 11
_symmetry_cell_setting 'monoclinic'
loop_
_space_group_symop_operation_xyz
x,y,z
-x,1/2+y,-z
-x,-y,-z
x,1/2-y,z
loop_
_atom_site_type_symbol
_atom_site_label
_atom_site_fract_x
_atom_site_fract_y
_atom_site_fract_z
Si Si1 0.133216 0.973731 0.256900
Si Si2 0.846846 0.136028 0.242677
Si Si3 0.017390 0.863660 0.345303
Si Si4 0.831906 0.361318 0.575049
Si Si5 0.350893 0.978077 0.630926
Si Si6 0.500568 0.863586 0.753540
Si Si7 0.614997 0.360187 0.202186
Si Si8 0.346562 0.864955 0.373630
O O1 0.092817 0.893633 0.260733
O O2 0.121519 0.929220 0.434540
O O3 0.240599 0.996217 0.941064
O O4 0.078321 0.075564 0.389825
O O5 0.827525 0.250000 0.305964
O O6 0.865405 0.096795 0.344020
O O7 0.752338 0.090853 0.423379
O O8 0.937660 0.112752 0.915970
O O9 0.993474 0.750000 0.423378
O O10 0.865223 0.250000 0.511816
O O11 0.719359 0.368143 0.870354
O O12 0.398598 0.926455 0.633295
O O13 0.370318 0.911669 0.453055
O O14 0.400946 0.081573 0.480362
O O15 0.523196 0.750000 0.700151
O O16 0.456993 0.893858 0.724695
O O17 0.428146 0.893687 0.058024
O O18 0.593871 0.250000 0.301229
O O19 0.339166 0.750000 0.414404
#
# Coordination Sequence:
#
# PCOD8069271 Si02
#       8
#     4   4   4   4   4   4   4   4
#     4  10  21  32  49  75  97 125 161 196 241 287
#     4   9  16  29  51  72  93 122 153 196 246 278
#     4  10  20  35  51  70  97 126 159 200 242 286
#     4   9  16  29  50  75  99 121 153 198 240 280
#     4  11  20  31  49  74  99 126 160 198 238 282
#     4  10  20  33  48  69 100 133 162 191 232 286
#     4   9  17  30  48  72  99 125 156 197 238 277
#     4  10  18  31  50  74  97 121 158 202 243 280
#
# _framework density 16.421461000000001
#
# number of rings (size 3 to 8) (size 9 to 14) (size 15 to 20)
#    0.000    2.250    2.500    1.500    0.000    2.000 
#    0.000    0.000    0.000    0.000    0.000    0.875 
#    0.000    0.000    0.000    0.000    0.000    0.000 
#
# Total GULP energy -396808.625889 kJ/mol
# GULP energy per Si atom -12400.269559 kJ/mol
# Density = 1.638409 g / cm^3
# Si number density = 16.421461 Si / 1000 Ang^3
#
#
#
# Elastic Constant Matrix: (Units=GPa)
#
#
# Indices 1 2 3 4 5 6 
#
# 1 94.7681 38.4574 51.4044 0.0000 13.8816 0.0000
# 2 38.4574 64.7947 47.7288 0.0000 1.7979 0.0000
# 3 51.4044 47.7288 78.1435 0.0000 7.3863 0.0000
# 4 0.0000 0.0000 0.0000 21.0344 0.0000 0.2124
# 5 13.8816 1.7979 7.3863 0.0000 27.8042 0.0000
# 6 0.0000 0.0000 0.0000 0.2124 0.0000 14.2863
#
#
#
# Elastic Compliance Matrix: (Units=1/GPa)
#
#
# Indices 1 2 3 4 5 6 
#
# 1 0.017807 -0.004009 -0.008667 0.000000 -0.006329 0.000000
# 2 -0.004009 0.029174 -0.015584 0.000000 0.004255 0.000000
# 3 -0.008667 -0.015584 0.028221 0.000000 -0.002162 0.000000
# 4 0.000000 0.000000 0.000000 0.047548 0.000000 -0.000707
# 5 -0.006329 0.004255 -0.002162 0.000000 0.039425 0.000000
# 6 0.000000 0.000000 0.000000 -0.000707 0.000000 0.070008
#
#
# Mechanical properties :
#
#
# Convention : Reuss Voigt Hill
#
# Bulk Modulus (GPa) = 53.52693 56.98750 55.25721
# Shear Modulus (GPa) = 16.95309 19.29936 18.12623
#
# Velocity S-wave (km/s) = 3.21654 3.43191 3.32597
# Velocity P-wave (km/s) = 6.81626 7.10510 6.96218
#
# Compressibility (1/GPa) = 0.01868219
#
# Stress axis : x y z
#
# Youngs Moduli (GPa) = 56.15681 34.27671 35.43442
#
# Poissons Ratio (x) = 0.13742 0.30711
# Poissons Ratio (y) = 0.22515 0.55221
# Poissons Ratio (z) = 0.48671 0.53417
#
# Static dielectric constant tensor:
#      x y z
#    x 3.207470 0.000000 0.167790 
#    y 0.000000 2.845690 0.000000 
#    z 0.167790 0.000000 3.005030 
# 
# 
# High freq. dielectric constant tensor:
#      x y z
#    x 1.642650 0.000000 0.013540 
#    y 0.000000 1.609690 0.000000 
#    z 0.013540 0.000000 1.627290 
# 
# From -- ./inp_files/21841.got.cif
#   From: 2010.06.25/outbox.cif.g09.slc.cpg/sg11_11_cif.got.tgz:21841.got - 2010.06.27 23:14:04.
