data_PCOD8069220
_publ_section_title
;
Structure prediction by ZEFSAII (Michael W. Deem and Ramdas Pophale) SiO2 
 PCOD8069220
Probable space group: P 21/M
;
_chemical_formula_sum "Si O2"
_cell_formula_units_Z 28
_cell_length_a 13.362001
_cell_length_b 8.849153
_cell_length_c 21.656684
_cell_angle_alpha 90.000000
_cell_angle_beta 139.469993
_cell_angle_gamma 90.000000
_cell_volume 1664.085924
_symmetry_space_group_name_H-M "P 21/M"
_symmetry_group_IT_number 11
_symmetry_cell_setting 'monoclinic'
loop_
_space_group_symop_operation_xyz
x,y,z
-x,1/2+y,-z
-x,-y,-z
x,1/2-y,z
loop_
_atom_site_type_symbol
_atom_site_label
_atom_site_fract_x
_atom_site_fract_y
_atom_site_fract_z
Si Si1 0.228466 0.572666 0.595346
Si Si2 0.470630 0.922588 0.899268
Si Si3 0.448689 0.080368 0.205169
Si Si4 0.150048 0.070998 0.781333
Si Si5 0.002072 0.573073 0.598779
Si Si6 0.216999 0.929047 0.932774
Si Si7 0.853582 0.073146 0.962302
O O1 0.207858 0.750000 0.572798
O O2 0.407920 0.527009 0.685417
O O3 0.139580 0.528853 0.616586
O O4 0.160308 0.478495 0.506353
O O5 0.458929 0.750000 0.917869
O O6 0.494946 0.925921 0.838052
O O7 0.315788 0.011079 0.839529
O O8 0.611064 0.007594 0.998881
O O9 0.399414 0.250000 0.199940
O O10 0.301236 0.974213 0.146783
O O11 0.148412 0.250000 0.783849
O O12 0.024029 0.014778 0.673208
O O13 0.108188 0.002171 0.829184
O O14 0.999494 0.750000 0.611561
O O15 0.219029 0.750000 0.927894
O O16 0.155631 0.981285 0.970893
O O17 0.871295 0.250000 0.965956
O O18 0.000000 0.000000 0.000000
#
# Coordination Sequence:
#
# PCOD8069220 Si02
#       7
#     4   4   4   4   4   4   4
#     4   9  17  31  47  69  97 131 169 205 245 284
#     4  10  18  31  47  67  96 131 166 201 239 284
#     4   9  17  31  51  72  99 131 164 202 244 288
#     4  12  22  31  45  67  96 134 170 203 241 285
#     4  10  19  31  46  67  97 134 171 208 243 280
#     4  10  21  35  49  69  95 126 163 201 241 293
#     4  10  21  36  55  77  99 124 158 201 250 297
#
# _framework density 16.826053000000002
#
# number of rings (size 3 to 8) (size 9 to 14) (size 15 to 20)
#    0.000    2.000    1.429    3.429    0.000    3.429 
#    0.000    0.000    0.000    0.000    0.000    1.000 
#    0.000    0.000    0.000    0.000    0.000    0.000 
#
# Total GULP energy -347222.887681 kJ/mol
# GULP energy per Si atom -12400.817417 kJ/mol
# Density = 1.678776 g / cm^3
# Si number density = 16.826053 Si / 1000 Ang^3
#
#
#
# Elastic Constant Matrix: (Units=GPa)
#
#
# Indices 1 2 3 4 5 6 
#
# 1 60.6305 29.9687 43.4560 0.0000 9.5311 0.0000
# 2 29.9687 87.1640 53.3704 0.0000 -3.0164 0.0000
# 3 43.4560 53.3704 124.8918 0.0000 -2.2857 0.0000
# 4 0.0000 0.0000 0.0000 33.6796 0.0000 0.9061
# 5 9.5311 -3.0164 -2.2857 0.0000 16.9998 0.0000
# 6 0.0000 0.0000 0.0000 0.9061 0.0000 22.5728
#
#
#
# Elastic Compliance Matrix: (Units=1/GPa)
#
#
# Indices 1 2 3 4 5 6 
#
# 1 0.027226 -0.005368 -0.007495 0.000000 -0.017225 0.000000
# 2 -0.005368 0.016656 -0.005153 0.000000 0.005272 0.000000
# 3 -0.007495 -0.005153 0.012909 0.000000 0.005023 0.000000
# 4 0.000000 0.000000 0.000000 0.029724 0.000000 -0.001193
# 5 -0.017225 0.005272 0.005023 0.000000 0.070093 0.000000
# 6 0.000000 0.000000 0.000000 -0.001193 0.000000 0.044349
#
#
# Mechanical properties :
#
#
# Convention : Reuss Voigt Hill
#
# Bulk Modulus (GPa) = 48.17200 58.47517 53.32358
# Shear Modulus (GPa) = 20.49953 24.37652 22.43802
#
# Velocity S-wave (km/s) = 3.49423 3.81036 3.65571
# Velocity P-wave (km/s) = 6.70605 7.36116 7.04123
#
# Compressibility (1/GPa) = 0.02075895
#
# Stress axis : x y z
#
# Youngs Moduli (GPa) = 36.72947 60.03790 77.46632
#
# Poissons Ratio (x) = 0.32229 0.58058
# Poissons Ratio (y) = 0.19716 0.39922
# Poissons Ratio (z) = 0.27527 0.30940
#
# Static dielectric constant tensor:
#      x y z
#    x 2.897300 0.000000 -0.126810 
#    y 0.000000 3.293860 0.000000 
#    z -0.126810 0.000000 3.435320 
# 
# 
# High freq. dielectric constant tensor:
#      x y z
#    x 1.601520 0.000000 -0.008430 
#    y 0.000000 1.660550 0.000000 
#    z -0.008430 0.000000 1.654270 
# 
# From -- ./inp_files/64275.got.cif
#   From: 2010.06.25/outbox.cif.g09.slc.cpg/sg11_33_cif.got.tgz:64275.got - 2010.06.27 23:14:04.
