data_PCOD8069966
_publ_section_title
;
Structure prediction by ZEFSAII (Michael W. Deem and Ramdas Pophale) SiO2 
 PCOD8069966
Probable space group: P 21/M
;
_chemical_formula_sum "Si O2"
_cell_formula_units_Z 32
_cell_length_a 18.353015
_cell_length_b 8.991445
_cell_length_c 26.295924
_cell_angle_alpha 90.000000
_cell_angle_beta 28.293847
_cell_angle_gamma 90.000000
_cell_volume 2056.827512
_symmetry_space_group_name_H-M "P 21/M"
_symmetry_group_IT_number 11
_symmetry_cell_setting 'monoclinic'
loop_
_space_group_symop_operation_xyz
x,y,z
-x,1/2+y,-z
-x,-y,-z
x,1/2-y,z
loop_
_atom_site_type_symbol
_atom_site_label
_atom_site_fract_x
_atom_site_fract_y
_atom_site_fract_z
Si Si1 0.533877 0.419553 0.547043
Si Si2 0.132662 0.077196 0.481368
Si Si3 0.256107 0.419356 0.658638
Si Si4 0.213295 0.923775 0.332321
Si Si5 0.988436 0.421254 0.247753
Si Si6 0.719372 0.422750 0.894731
Si Si7 0.616953 0.577158 0.859182
Si Si8 0.774340 0.417455 0.476466
O O1 0.576597 0.250000 0.502759
O O2 0.347892 0.442048 0.656216
O O3 0.617526 0.542285 0.461515
O O4 0.597904 0.438414 0.565264
O O5 0.161868 0.250000 0.453558
O O6 0.952691 0.038047 0.589286
O O7 0.225426 0.985629 0.381973
O O8 0.195001 0.034182 0.498185
O O9 0.201614 0.250000 0.685415
O O10 0.106582 0.523107 0.743532
O O11 0.247631 0.750000 0.312078
O O12 0.342169 0.003662 0.219526
O O13 0.029905 0.250000 0.214710
O O14 0.888510 0.450472 0.359514
O O15 0.145074 0.513536 0.154025
O O16 0.746100 0.250000 0.867490
O O17 0.719119 0.504647 0.840722
O O18 0.562256 0.452694 0.021338
O O19 0.657845 0.750000 0.832701
O O20 0.800963 0.250000 0.480585
#
# Coordination Sequence:
#
# PCOD8069966 Si02
#       8
#     4   4   4   4   4   4   4   4
#     4   8  15  26  38  55  81 113 145 175 210 253
#     4  10  20  31  44  64  86 109 142 180 215 252
#     4   9  15  24  39  57  80 111 145 178 211 251
#     4  10  20  33  48  63  83 113 145 177 214 256
#     4  10  19  29  42  61  87 117 147 181 217 252
#     4  10  20  32  46  65  87 113 146 178 211 254
#     4  10  20  33  48  65  87 113 141 178 218 253
#     4   9  17  28  41  59  85 115 145 176 212 252
#
# _framework density 15.55794
#
# number of rings (size 3 to 8) (size 9 to 14) (size 15 to 20)
#    0.000    2.500    0.000    3.750    0.000    8.000 
#    0.000    0.000    0.000    0.000    0.000    0.000 
#    0.000    1.000    0.000    3.000    0.000    4.250 
#
# Total GULP energy -396701.491243 kJ/mol
# GULP energy per Si atom -12396.921601 kJ/mol
# Density = 1.552253 g / cm^3
# Si number density = 15.557940 Si / 1000 Ang^3
#
#
#
# Elastic Constant Matrix: (Units=GPa)
#
#
# Indices 1 2 3 4 5 6 
#
# 1 86.6122 34.8732 24.9928 0.0000 -15.5103 0.0000
# 2 34.8732 81.2643 34.3310 0.0000 -2.2262 0.0000
# 3 24.9928 34.3310 47.2769 0.0000 -1.6470 0.0000
# 4 0.0000 0.0000 0.0000 23.1043 0.0000 -0.5032
# 5 -15.5103 -2.2262 -1.6470 0.0000 21.3625 0.0000
# 6 0.0000 0.0000 0.0000 -0.5032 0.0000 27.8416
#
#
#
# Elastic Compliance Matrix: (Units=1/GPa)
#
#
# Indices 1 2 3 4 5 6 
#
# 1 0.017012 -0.004841 -0.005079 0.000000 0.011455 0.000000
# 2 -0.004841 0.019144 -0.011427 0.000000 -0.002401 0.000000
# 3 -0.005079 -0.011427 0.032051 0.000000 -0.002407 0.000000
# 4 0.000000 0.000000 0.000000 0.043299 0.000000 0.000783
# 5 0.011455 -0.002401 -0.002407 0.000000 0.054693 0.000000
# 6 0.000000 0.000000 0.000000 0.000783 0.000000 0.035932
#
#
# Mechanical properties :
#
#
# Convention : Reuss Voigt Hill
#
# Bulk Modulus (GPa) = 39.19383 44.83861 42.01622
# Shear Modulus (GPa) = 19.73730 22.52543 21.13136
#
# Velocity S-wave (km/s) = 3.56565 3.80918 3.68942
# Velocity P-wave (km/s) = 6.49605 6.94474 6.72414
#
# Compressibility (1/GPa) = 0.02551422
#
# Stress axis : x y z
#
# Youngs Moduli (GPa) = 58.78279 52.23449 31.20062
#
# Poissons Ratio (x) = 0.25286 0.15846
# Poissons Ratio (y) = 0.28456 0.35652
# Poissons Ratio (z) = 0.29855 0.59686
#
# Static dielectric constant tensor:
#      x y z
#    x 3.134450 0.000000 -0.210320 
#    y 0.000000 3.079710 0.000000 
#    z -0.210320 0.000000 2.662460 
# 
# 
# High freq. dielectric constant tensor:
#      x y z
#    x 1.594430 0.000000 -0.020280 
#    y 0.000000 1.615280 0.000000 
#    z -0.020280 0.000000 1.547840 
# 
# From -- ./inp_files/52959.got.cif
#   From: 2010.06.25/outbox.cif.g09.slc.cpg/sg11_27_cif.got.tgz:52959.got - 2010.06.27 23:14:04.
