data_PCOD8069579
_publ_section_title
;
Structure prediction by ZEFSAII (Michael W. Deem and Ramdas Pophale) SiO2 
 PCOD8069579
Probable space group: P 21/M
;
_chemical_formula_sum "Si O2"
_cell_formula_units_Z 20
_cell_length_a 9.202300
_cell_length_b 8.834037
_cell_length_c 19.939653
_cell_angle_alpha 90.000000
_cell_angle_beta 133.809743
_cell_angle_gamma 90.000000
_cell_volume 1169.756083
_symmetry_space_group_name_H-M "P 21/M"
_symmetry_group_IT_number 11
_symmetry_cell_setting 'monoclinic'
loop_
_space_group_symop_operation_xyz
x,y,z
-x,1/2+y,-z
-x,-y,-z
x,1/2-y,z
loop_
_atom_site_type_symbol
_atom_site_label
_atom_site_fract_x
_atom_site_fract_y
_atom_site_fract_z
Si Si1 0.151400 0.070513 0.100936
Si Si2 0.709313 0.926061 0.585801
Si Si3 0.951913 0.073938 0.414200
Si Si4 0.778374 0.421542 0.745601
Si Si5 0.541566 0.578458 0.254401
O O1 0.142331 0.250000 0.094892
O O2 0.090674 0.011292 0.156302
O O3 0.378226 0.011290 0.156304
O O4 0.000000 0.000000 0.000000
O O5 0.673787 0.750000 0.586689
O O6 0.863729 0.958705 0.575820
O O7 0.500000 0.000000 0.500000
O O8 0.800364 0.997093 0.682001
O O9 0.913736 0.250000 0.413315
O O10 0.754355 0.002910 0.318002
O O11 0.000000 0.000000 0.500000
O O12 0.859001 0.250000 0.765144
O O13 0.544021 0.421402 0.696011
O O14 0.563568 0.750000 0.234859
#
# Coordination Sequence:
#
# PCOD8069579 Si02
#       5
#     4   4   4   4   4
#     4  10  18  32  56  84 112 142 178 224 271 318
#     4  11  23  36  52  76 107 144 185 225 270 324
#     4  11  23  36  52  76 107 144 185 225 270 324
#     4   9  19  34  53  79 107 137 179 222 266 320
#     4   9  19  34  53  79 107 137 179 222 266 320
#
# _framework density 17.097583
#
# number of rings (size 3 to 8) (size 9 to 14) (size 15 to 20)
#    1.200    0.800    0.000    4.800    0.000    8.000 
#    0.000    0.000    0.000    1.200    0.000    0.000 
#    0.000    0.000    0.000    0.000    0.000    0.000 
#
# Total GULP energy -247889.984105 kJ/mol
# GULP energy per Si atom -12394.499205 kJ/mol
# Density = 1.705867 g / cm^3
# Si number density = 17.097583 Si / 1000 Ang^3
#
#
#
# Elastic Constant Matrix: (Units=GPa)
#
#
# Indices 1 2 3 4 5 6 
#
# 1 50.8629 71.7891 45.4997 0.0000 -4.9693 0.0000
# 2 71.7891 179.9379 89.3746 0.0000 -1.6671 0.0000
# 3 45.4997 89.3746 148.7367 0.0000 -4.2961 0.0000
# 4 0.0000 0.0000 0.0000 37.3583 0.0000 -0.9492
# 5 -4.9693 -1.6671 -4.2961 0.0000 28.8700 0.0000
# 6 0.0000 0.0000 0.0000 -0.9492 0.0000 27.3339
#
#
#
# Elastic Compliance Matrix: (Units=1/GPa)
#
#
# Indices 1 2 3 4 5 6 
#
# 1 0.048210 -0.017024 -0.004326 0.000000 0.006671 0.000000
# 2 -0.017024 0.013935 -0.003241 0.000000 -0.002608 0.000000
# 3 -0.004326 -0.003241 0.010010 0.000000 0.000558 0.000000
# 4 0.000000 0.000000 0.000000 0.026791 0.000000 0.000930
# 5 0.006671 -0.002608 0.000558 0.000000 0.035719 0.000000
# 6 0.000000 0.000000 0.000000 0.000930 0.000000 0.036617
#
#
# Mechanical properties :
#
#
# Convention : Reuss Voigt Hill
#
# Bulk Modulus (GPa) = 43.52737 88.09605 65.81171
# Shear Modulus (GPa) = 21.91822 30.23736 26.07779
#
# Velocity S-wave (km/s) = 3.58431 4.20994 3.90966
# Velocity P-wave (km/s) = 6.53018 8.67575 7.67828
#
# Compressibility (1/GPa) = 0.02297405
#
# Stress axis : x y z
#
# Youngs Moduli (GPa) = 20.74276 71.76169 99.89818
#
# Poissons Ratio (x) = 1.22165 0.43212
# Poissons Ratio (y) = 0.35312 0.32378
# Poissons Ratio (z) = 0.08973 0.23259
#
# Static dielectric constant tensor:
#      x y z
#    x 3.230330 0.000000 0.015000 
#    y 0.000000 3.311990 0.000000 
#    z 0.015000 0.000000 3.072100 
# 
# 
# High freq. dielectric constant tensor:
#      x y z
#    x 1.633570 0.000000 -0.001830 
#    y 0.000000 1.684500 0.000000 
#    z -0.001830 0.000000 1.652840 
# 
# From -- ./inp_files/63116.got.cif
#   From: 2010.06.25/outbox.cif.g09.slc.cpg/sg11_32_cif.got.tgz:63116.got - 2010.06.27 23:14:04.
