data_PCOD8069863
_publ_section_title
;
Structure prediction by ZEFSAII (Michael W. Deem and Ramdas Pophale) SiO2 
 PCOD8069863
Probable space group: P 21/M
;
_chemical_formula_sum "Si O2"
_cell_formula_units_Z 32
_cell_length_a 15.093114
_cell_length_b 17.165849
_cell_length_c 12.140239
_cell_angle_alpha 90.000000
_cell_angle_beta 29.596722
_cell_angle_gamma 90.000000
_cell_volume 1553.472159
_symmetry_space_group_name_H-M "P 21/M"
_symmetry_group_IT_number 11
_symmetry_cell_setting 'monoclinic'
loop_
_space_group_symop_operation_xyz
x,y,z
-x,1/2+y,-z
-x,-y,-z
x,1/2-y,z
loop_
_atom_site_type_symbol
_atom_site_label
_atom_site_fract_x
_atom_site_fract_y
_atom_site_fract_z
Si Si1 0.823267 0.591988 0.763656
Si Si2 0.423031 0.478675 0.698401
Si Si3 0.901489 0.338005 0.149808
Si Si4 0.773413 0.663496 0.042934
Si Si5 0.562823 0.417702 0.889360
Si Si6 0.147933 0.594170 0.262964
Si Si7 0.746802 0.465170 0.476194
Si Si8 0.920383 0.078334 0.900037
O O1 0.834308 0.499186 0.760003
O O2 0.967613 0.622346 0.519594
O O3 0.873805 0.627053 0.828025
O O4 0.621835 0.623957 0.949821
O O5 0.500000 0.500000 0.500000
O O6 0.402444 0.385504 0.734488
O O7 0.559557 0.507801 0.645302
O O8 0.227210 0.513241 0.920764
O O9 0.820269 0.250000 0.240771
O O10 0.778808 0.399116 0.348616
O O11 0.927877 0.363215 0.994335
O O12 0.095294 0.337844 0.995356
O O13 0.708065 0.750000 0.085810
O O14 0.673155 0.373098 0.867781
O O15 0.714681 0.427124 0.630162
O O16 0.500000 0.500000 0.000000
O O17 0.131036 0.625765 0.155902
O O18 0.894731 0.532244 0.318510
#
# Coordination Sequence:
#
# PCOD8069863 Si02
#       8
#     4   4   4   4   4   4   4   4
#     4  10  18  36  55  89 117 146 192 243 295 354
#     4  12  22  37  59  90 117 156 202 248 299 364
#     4  11  24  40  59  85 121 162 202 248 305 365
#     4  11  22  40  61  87 125 157 193 253 318 364
#     4  10  19  32  55  91 118 144 188 246 293 350
#     4  10  19  32  61  83 118 153 191 242 291 341
#     4  12  21  36  65  88 119 155 200 253 305 355
#     4  12  22  40  60  89 122 157 204 254 295 355
#
# _framework density 20.599018999999998
#
# number of rings (size 3 to 8) (size 9 to 14) (size 15 to 20)
#    0.000    1.000    5.000    4.875    0.000    0.500 
#    0.000    0.625    0.000    1.500    0.000    0.000 
#    0.000    1.000    0.000    0.000    0.000    0.000 
#
# Total GULP energy -396618.826265 kJ/mol
# GULP energy per Si atom -12394.338321 kJ/mol
# Density = 2.055213 g / cm^3
# Si number density = 20.599019 Si / 1000 Ang^3
#
#
#
# Elastic Constant Matrix: (Units=GPa)
#
#
# Indices 1 2 3 4 5 6 
#
# 1 151.4003 27.4496 48.0037 0.0000 14.4273 0.0000
# 2 27.4496 50.1775 28.3899 0.0000 5.2675 0.0000
# 3 48.0037 28.3899 103.3228 0.0000 10.1679 0.0000
# 4 0.0000 0.0000 0.0000 12.7887 0.0000 0.9924
# 5 14.4273 5.2675 10.1679 0.0000 48.2056 0.0000
# 6 0.0000 0.0000 0.0000 0.9924 0.0000 13.8329
#
#
#
# Elastic Compliance Matrix: (Units=1/GPa)
#
#
# Indices 1 2 3 4 5 6 
#
# 1 0.008155 -0.002654 -0.002908 0.000000 -0.001537 0.000000
# 2 -0.002654 0.024534 -0.005435 0.000000 -0.000740 0.000000
# 3 -0.002908 -0.005435 0.012641 0.000000 -0.001202 0.000000
# 4 0.000000 0.000000 0.000000 0.078632 0.000000 -0.005641
# 5 -0.001537 -0.000740 -0.001202 0.000000 0.021539 0.000000
# 6 0.000000 0.000000 0.000000 -0.005641 0.000000 0.072696
#
#
# Mechanical properties :
#
#
# Convention : Reuss Voigt Hill
#
# Bulk Modulus (GPa) = 42.85427 56.95412 49.90419
# Shear Modulus (GPa) = 20.16366 28.36926 24.26646
#
# Velocity S-wave (km/s) = 3.13208 3.71511 3.43598
# Velocity P-wave (km/s) = 5.82487 6.79056 6.32617
#
# Compressibility (1/GPa) = 0.02333490
#
# Stress axis : x y z
#
# Youngs Moduli (GPa) = 122.62734 40.75950 79.10618
#
# Poissons Ratio (x) = 0.10819 0.23005
# Poissons Ratio (y) = 0.32549 0.42996
# Poissons Ratio (z) = 0.35661 0.22154
#
# Static dielectric constant tensor:
#      x y z
#    x 4.338460 0.000000 -0.194420 
#    y 0.000000 3.346070 0.000000 
#    z -0.194420 0.000000 3.823140 
# 
# 
# High freq. dielectric constant tensor:
#      x y z
#    x 1.834960 0.000000 -0.002510 
#    y 0.000000 1.743550 0.000000 
#    z -0.002510 0.000000 1.814990 
# 
# From -- ./inp_files/39985.got.cif
#   From: 2010.06.25/outbox.cif.g09.slc.cpg/sg11_20_cif.got.tgz:39985.got - 2010.06.27 23:14:04.
