data_PCOD8069523
_publ_section_title
;
Structure prediction by ZEFSAII (Michael W. Deem and Ramdas Pophale) SiO2 
 PCOD8069523
Probable space group: P 21/M
;
_chemical_formula_sum "Si O2"
_cell_formula_units_Z 32
_cell_length_a 12.109636
_cell_length_b 8.820262
_cell_length_c 21.291601
_cell_angle_alpha 90.000000
_cell_angle_beta 128.077734
_cell_angle_gamma 90.000000
_cell_volume 1790.160828
_symmetry_space_group_name_H-M "P 21/M"
_symmetry_group_IT_number 11
_symmetry_cell_setting 'monoclinic'
loop_
_space_group_symop_operation_xyz
x,y,z
-x,1/2+y,-z
-x,-y,-z
x,1/2-y,z
loop_
_atom_site_type_symbol
_atom_site_label
_atom_site_fract_x
_atom_site_fract_y
_atom_site_fract_z
Si Si1 0.364913 0.570639 0.233825
Si Si2 0.260579 0.925772 0.827719
Si Si3 0.978068 0.070358 0.704327
Si Si4 0.554110 0.925353 0.865734
Si Si5 0.490625 0.071443 0.399195
Si Si6 0.068529 0.928443 0.171456
Si Si7 0.238713 0.429215 0.952671
Si Si8 0.714222 0.571595 0.560740
O O1 0.370344 0.750000 0.244223
O O2 0.425697 0.526077 0.188284
O O3 0.459796 0.496258 0.320472
O O4 0.204718 0.506500 0.183303
O O5 0.222449 0.750000 0.820486
O O6 0.398053 0.952498 0.834930
O O7 0.135401 0.011451 0.747408
O O8 0.289235 0.991019 0.906894
O O9 0.974655 0.250000 0.695923
O O10 0.932628 0.013014 0.757465
O O11 0.870851 0.996041 0.617493
O O12 0.582278 0.750000 0.859588
O O13 0.663617 0.983563 0.956437
O O14 0.508155 0.250000 0.400060
O O15 0.366911 0.025784 0.403864
O O16 0.636619 0.001281 0.474050
O O17 0.079826 0.750000 0.176449
O O18 0.922133 0.977311 0.087189
O O19 0.250560 0.250000 0.945193
O O20 0.720818 0.750000 0.553556
#
# Coordination Sequence:
#
# PCOD8069523 Si02
#       8
#     4   4   4   4   4   4   4   4
#     4  11  21  34  52  74 106 143 181 218 255 312
#     4  10  20  34  53  78 105 133 175 227 269 310
#     4  10  18  32  54  78 108 139 171 215 265 314
#     4  10  22  37  52  73 104 141 179 221 268 315
#     4  10  20  33  51  77 110 144 174 209 256 309
#     4   8  16  30  49  74 103 134 169 212 261 307
#     4   9  18  35  56  76 101 135 174 221 273 317
#     4  10  19  31  52  82 111 138 173 213 255 306
#
# _framework density 17.875489999999999
#
# number of rings (size 3 to 8) (size 9 to 14) (size 15 to 20)
#    0.000    2.250    1.250    3.000    0.000    3.000 
#    0.000    0.625    0.000    0.750    0.000    0.000 
#    0.000    0.000    0.000    0.000    0.000    0.000 
#
# Total GULP energy -396819.908642 kJ/mol
# GULP energy per Si atom -12400.622145 kJ/mol
# Density = 1.783480 g / cm^3
# Si number density = 17.875490 Si / 1000 Ang^3
#
#
#
# Elastic Constant Matrix: (Units=GPa)
#
#
# Indices 1 2 3 4 5 6 
#
# 1 79.7542 34.6648 54.6793 0.0000 8.7117 0.0000
# 2 34.6648 72.7777 40.9598 0.0000 7.8816 0.0000
# 3 54.6793 40.9598 91.7095 0.0000 34.9428 0.0000
# 4 0.0000 0.0000 0.0000 29.2619 0.0000 1.5515
# 5 8.7117 7.8816 34.9428 0.0000 19.3576 0.0000
# 6 0.0000 0.0000 0.0000 1.5515 0.0000 23.9034
#
#
#
# Elastic Compliance Matrix: (Units=1/GPa)
#
#
# Indices 1 2 3 4 5 6 
#
# 1 0.044999 0.005295 -0.066162 0.000000 0.097022 0.000000
# 2 0.005295 0.023039 -0.028713 0.000000 0.040068 0.000000
# 3 -0.066162 -0.028713 0.151738 0.000000 -0.232439 0.000000
# 4 0.000000 0.000000 0.000000 0.034292 0.000000 -0.002226
# 5 0.097022 0.040068 -0.232439 0.000000 0.411263 0.000000
# 6 0.000000 0.000000 0.000000 -0.002226 0.000000 0.041980
#
#
# Mechanical properties :
#
#
# Convention : Reuss Voigt Hill
#
# Bulk Modulus (GPa) = 24.61994 56.09436 40.35715
# Shear Modulus (GPa) = 5.55550 22.10041 13.82795
#
# Velocity S-wave (km/s) = 1.76483 3.52000 2.78433
# Velocity P-wave (km/s) = 4.23742 6.92598 5.74130
#
# Compressibility (1/GPa) = 0.04061748
#
# Stress axis : x y z
#
# Youngs Moduli (GPa) = 22.22260 43.40433 6.59029
#
# Poissons Ratio (x) = -0.22984 0.43602
# Poissons Ratio (y) = -0.11768 0.18923
# Poissons Ratio (z) = 1.47028 1.24629
#
# Static dielectric constant tensor:
#      x y z
#    x 3.223080 0.000000 0.268580 
#    y 0.000000 3.230010 0.000000 
#    z 0.268580 0.000000 3.386810 
# 
# 
# High freq. dielectric constant tensor:
#      x y z
#    x 1.669380 0.000000 0.021770 
#    y 0.000000 1.691730 0.000000 
#    z 0.021770 0.000000 1.695500 
# 
# From -- ./inp_files/64344.got.cif
#   From: 2010.06.25/outbox.cif.g09.slc.cpg/sg11_33_cif.got.tgz:64344.got - 2010.06.27 23:14:04.
