data_PCOD8069107
_publ_section_title
;
Structure prediction by ZEFSAII (Michael W. Deem and Ramdas Pophale) SiO2 
 PCOD8069107
Probable space group: P 21/M
;
_chemical_formula_sum "Si O2"
_cell_formula_units_Z 32
_cell_length_a 16.388118
_cell_length_b 8.624093
_cell_length_c 25.178159
_cell_angle_alpha 90.000000
_cell_angle_beta 153.230735
_cell_angle_gamma 90.000000
_cell_volume 1602.741874
_symmetry_space_group_name_H-M "P 21/M"
_symmetry_group_IT_number 11
_symmetry_cell_setting 'monoclinic'
loop_
_space_group_symop_operation_xyz
x,y,z
-x,1/2+y,-z
-x,-y,-z
x,1/2-y,z
loop_
_atom_site_type_symbol
_atom_site_label
_atom_site_fract_x
_atom_site_fract_y
_atom_site_fract_z
Si Si1 0.036383 0.931997 0.331056
Si Si2 0.157702 0.919524 0.621266
Si Si3 0.517408 0.582035 0.772197
Si Si4 0.412658 0.566218 0.598310
Si Si5 0.345814 0.433158 0.038569
Si Si6 0.388717 0.933052 0.386451
Si Si7 0.031321 0.068340 0.215739
Si Si8 0.312715 0.428475 0.809663
O O1 0.033108 0.750000 0.315255
O O2 0.195237 0.966284 0.466657
O O3 0.835291 0.986362 0.233044
O O4 0.085496 0.028878 0.307398
O O5 0.105348 0.750000 0.615413
O O6 0.311533 0.890915 0.668022
O O7 0.216322 0.044856 0.698144
O O8 0.000000 0.000000 0.500000
O O9 0.612150 0.750000 0.818917
O O10 0.500928 0.499046 0.704793
O O11 0.617702 0.494991 0.880415
O O12 0.447438 0.750000 0.613680
O O13 0.514623 0.474589 0.611837
O O14 0.365408 0.250000 0.055052
O O15 0.494151 0.483119 0.080025
O O16 0.151176 0.480954 0.905703
O O17 0.372065 0.750000 0.383608
O O18 0.500000 0.000000 0.500000
O O19 0.189473 0.008560 0.269223
O O20 0.003313 0.250000 0.191997
O O21 0.357345 0.250000 0.844783
#
# Coordination Sequence:
#
# PCOD8069107 Si02
#       8
#     4   4   4   4   4   4   4   4
#     4  10  21  36  58  87 122 159 195 242 300 355
#     4  10  18  30  49  76 111 155 200 245 294 346
#     4   8  17  34  57  83 113 153 195 237 290 346
#     4  10  19  36  62  90 120 153 192 243 298 351
#     4  10  21  40  62  85 119 162 203 244 291 347
#     4  12  24  41  63  91 121 152 189 236 297 359
#     4  12  25  41  63  88 115 153 200 249 296 352
#     4  10  20  35  55  83 117 157 200 243 293 351
#
# _framework density 19.965786000000001
#
# number of rings (size 3 to 8) (size 9 to 14) (size 15 to 20)
#    0.000    1.750    1.250    4.875    0.000    3.500 
#    0.000    5.625    0.000    0.000    0.000    0.000 
#    0.000    0.000    0.000    0.000    0.000    0.000 
#
# Total GULP energy -396483.806533 kJ/mol
# GULP energy per Si atom -12390.118954 kJ/mol
# Density = 1.992034 g / cm^3
# Si number density = 19.965786 Si / 1000 Ang^3
#
#
#
# Elastic Constant Matrix: (Units=GPa)
#
#
# Indices 1 2 3 4 5 6 
#
# 1 90.0759 22.8998 21.8551 0.0000 4.3453 0.0000
# 2 22.8998 46.8538 9.3759 0.0000 9.1546 0.0000
# 3 21.8551 9.3759 78.8297 0.0000 18.7954 0.0000
# 4 0.0000 0.0000 0.0000 21.2304 0.0000 2.4286
# 5 4.3453 9.1546 18.7954 0.0000 30.6435 0.0000
# 6 0.0000 0.0000 0.0000 2.4286 0.0000 29.8351
#
#
#
# Elastic Compliance Matrix: (Units=1/GPa)
#
#
# Indices 1 2 3 4 5 6 
#
# 1 0.013443 -0.006285 -0.003482 0.000000 0.002107 0.000000
# 2 -0.006285 0.025713 0.000355 0.000000 -0.007008 0.000000
# 3 -0.003482 0.000355 0.015831 0.000000 -0.009323 0.000000
# 4 0.000000 0.000000 0.000000 0.047545 0.000000 -0.003870
# 5 0.002107 -0.007008 -0.009323 0.000000 0.040146 0.000000
# 6 0.000000 0.000000 0.000000 -0.003870 0.000000 0.033833
#
#
# Mechanical properties :
#
#
# Convention : Reuss Voigt Hill
#
# Bulk Modulus (GPa) = 27.65179 36.00233 31.82706
# Shear Modulus (GPa) = 24.10926 27.11704 25.61315
#
# Velocity S-wave (km/s) = 3.47872 3.68934 3.58558
# Velocity P-wave (km/s) = 5.47859 6.01826 5.75476
#
# Compressibility (1/GPa) = 0.03616402
#
# Stress axis : x y z
#
# Youngs Moduli (GPa) = 74.38975 38.89074 63.16545
#
# Poissons Ratio (x) = 0.24443 0.21993
# Poissons Ratio (y) = 0.46754 -0.02244
# Poissons Ratio (z) = 0.25901 -0.01381
#
# Static dielectric constant tensor:
#      x y z
#    x 3.780690 0.000000 -0.003860 
#    y 0.000000 3.532600 0.000000 
#    z -0.003860 0.000000 3.530600 
# 
# 
# High freq. dielectric constant tensor:
#      x y z
#    x 1.774340 0.000000 -0.000830 
#    y 0.000000 1.767420 0.000000 
#    z -0.000830 0.000000 1.779000 
# 
# From -- ./inp_files/69077.got.cif
#   From: 2010.06.25/outbox.cif.g09.slc.cpg/sg11_35_cif.got.tgz:69077.got - 2010.06.27 23:14:04.
