data_PCOD8069891
_publ_section_title
;
Structure prediction by ZEFSAII (Michael W. Deem and Ramdas Pophale) SiO2 
 PCOD8069891
Probable space group: P 21/M
;
_chemical_formula_sum "Si O2"
_cell_formula_units_Z 32
_cell_length_a 9.340417
_cell_length_b 17.660689
_cell_length_c 14.820914
_cell_angle_alpha 90.000000
_cell_angle_beta 139.449938
_cell_angle_gamma 90.000000
_cell_volume 1589.414656
_symmetry_space_group_name_H-M "P 21/M"
_symmetry_group_IT_number 11
_symmetry_cell_setting 'monoclinic'
loop_
_space_group_symop_operation_xyz
x,y,z
-x,1/2+y,-z
-x,-y,-z
x,1/2-y,z
loop_
_atom_site_type_symbol
_atom_site_label
_atom_site_fract_x
_atom_site_fract_y
_atom_site_fract_z
Si Si1 0.355018 0.507689 0.660438
Si Si2 0.190810 0.439917 0.080276
Si Si3 0.811440 0.334978 0.213968
Si Si4 0.430298 0.578441 0.510735
Si Si5 0.163440 0.160332 0.244355
Si Si6 0.987118 0.336499 0.672835
Si Si7 0.024607 0.110054 0.486232
Si Si8 0.317942 0.161403 0.983295
O O1 0.587623 0.508770 0.822888
O O2 0.388942 0.564556 0.595190
O O3 0.273518 0.423317 0.592594
O O4 0.151920 0.542704 0.619959
O O5 0.180087 0.383088 0.158772
O O6 0.171320 0.387453 0.982623
O O7 0.000000 0.500000 0.000000
O O8 0.763260 0.250000 0.161589
O O9 0.952016 0.370963 0.199148
O O10 0.959776 0.331761 0.376364
O O11 0.568189 0.371764 0.106861
O O12 0.500000 0.500000 0.500000
O O13 0.623121 0.640196 0.592618
O O14 0.199290 0.613140 0.365274
O O15 0.155501 0.250000 0.223630
O O16 0.912391 0.250000 0.646587
O O17 0.014090 0.353744 0.580014
O O18 0.217211 0.350877 0.835021
O O19 0.308724 0.250000 0.007216
#
# Coordination Sequence:
#
# PCOD8069891 Si02
#       8
#     4   4   4   4   4   4   4   4
#     4   9  20  34  54  85 112 153 196 239 302 357
#     4  11  23  40  60  88 122 161 205 249 307 375
#     4  10  20  37  63  89 114 155 206 249 298 360
#     4  10  20  35  59  85 122 157 196 253 306 360
#     4  10  22  39  62  91 121 160 207 256 303 364
#     4  10  22  37  59  88 119 161 204 247 303 367
#     4  10  18  37  59  84 120 149 196 253 295 355
#     4  10  22  41  62  85 119 160 203 248 301 367
#
# _framework density 20.133196999999999
#
# number of rings (size 3 to 8) (size 9 to 14) (size 15 to 20)
#    0.000    2.000    1.250    1.875    3.500    1.000 
#    0.000    1.250    0.000    1.500    0.000    0.000 
#    0.000    0.000    0.000    0.000    0.000    0.000 
#
# Total GULP energy -396468.331856 kJ/mol
# GULP energy per Si atom -12389.635371 kJ/mol
# Density = 2.008737 g / cm^3
# Si number density = 20.133197 Si / 1000 Ang^3
#
#
#
# Elastic Constant Matrix: (Units=GPa)
#
#
# Indices 1 2 3 4 5 6 
#
# 1 92.5810 36.0809 43.8048 0.0000 9.0289 0.0000
# 2 36.0809 84.6278 47.2847 0.0000 15.4210 0.0000
# 3 43.8048 47.2847 116.1513 0.0000 7.1145 0.0000
# 4 0.0000 0.0000 0.0000 27.8786 0.0000 10.3217
# 5 9.0289 15.4210 7.1145 0.0000 31.1957 0.0000
# 6 0.0000 0.0000 0.0000 10.3217 0.0000 29.5390
#
#
#
# Elastic Compliance Matrix: (Units=1/GPa)
#
#
# Indices 1 2 3 4 5 6 
#
# 1 0.014148 -0.003677 -0.003752 0.000000 -0.001422 0.000000
# 2 -0.003677 0.017545 -0.005365 0.000000 -0.006385 0.000000
# 3 -0.003752 -0.005365 0.012149 0.000000 0.000967 0.000000
# 4 0.000000 0.000000 0.000000 0.041200 0.000000 -0.014396
# 5 -0.001422 -0.006385 0.000967 0.000000 0.035403 0.000000
# 6 0.000000 0.000000 0.000000 -0.014396 0.000000 0.038884
#
#
# Mechanical properties :
#
#
# Convention : Reuss Voigt Hill
#
# Bulk Modulus (GPa) = 54.77760 60.85564 57.81662
# Shear Modulus (GPa) = 26.17785 28.80197 27.48991
#
# Velocity S-wave (km/s) = 3.60979 3.78639 3.69914
# Velocity P-wave (km/s) = 6.68137 7.02907 6.85743
#
# Compressibility (1/GPa) = 0.01825564
#
# Stress axis : x y z
#
# Youngs Moduli (GPa) = 70.68090 56.99611 82.30988
#
# Poissons Ratio (x) = 0.20955 0.30882
# Poissons Ratio (y) = 0.25987 0.44158
# Poissons Ratio (z) = 0.26519 0.30577
#
# Static dielectric constant tensor:
#      x y z
#    x 3.961030 0.000000 0.346500 
#    y 0.000000 3.462720 0.000000 
#    z 0.346500 0.000000 3.810790 
# 
# 
# High freq. dielectric constant tensor:
#      x y z
#    x 1.784140 0.000000 0.011190 
#    y 0.000000 1.776570 0.000000 
#    z 0.011190 0.000000 1.783210 
# 
# From -- ./inp_files/48279.got.cif
#   From: 2010.06.25/outbox.cif.g09.slc.cpg/sg11_25_cif.got.tgz:48279.got - 2010.06.27 23:14:04.
