data_PCOD8069476
_publ_section_title
;
Structure prediction by ZEFSAII (Michael W. Deem and Ramdas Pophale) SiO2 
 PCOD8069476
Probable space group: P 21/M
;
_chemical_formula_sum "Si O2"
_cell_formula_units_Z 32
_cell_length_a 26.747597
_cell_length_b 13.509240
_cell_length_c 9.362391
_cell_angle_alpha 90.000000
_cell_angle_beta 30.510690
_cell_angle_gamma 90.000000
_cell_volume 1717.547940
_symmetry_space_group_name_H-M "P 21/M"
_symmetry_group_IT_number 11
_symmetry_cell_setting 'monoclinic'
loop_
_space_group_symop_operation_xyz
x,y,z
-x,1/2+y,-z
-x,-y,-z
x,1/2-y,z
loop_
_atom_site_type_symbol
_atom_site_label
_atom_site_fract_x
_atom_site_fract_y
_atom_site_fract_z
Si Si1 0.486791 0.862456 0.202905
Si Si2 0.568092 0.362212 0.985802
Si Si3 0.769554 0.865088 0.951537
Si Si4 0.308250 0.455293 0.304372
Si Si5 0.123302 0.448160 0.566010
Si Si6 0.003348 0.863989 0.881823
Si Si7 0.185707 0.136990 0.835028
Si Si8 0.433077 0.471052 0.529969
O O1 0.461862 0.750000 0.303916
O O2 0.474715 0.884141 0.065322
O O3 0.416442 0.931816 0.471935
O O4 0.599121 0.887650 0.965687
O O5 0.602381 0.250000 0.919561
O O6 0.664109 0.429255 0.771735
O O7 0.485056 0.386355 0.307139
O O8 0.744946 0.750000 0.986205
O O9 0.859653 0.901018 0.630860
O O10 0.811973 0.884369 0.003909
O O11 0.671964 0.929794 0.160461
O O12 0.225141 0.431590 0.395794
O O13 0.269356 0.430869 0.558243
O O14 0.095593 0.564360 0.622894
O O15 0.037976 0.387752 0.858136
O O16 0.038321 0.750000 0.789035
O O17 0.921728 0.888136 0.962740
O O18 0.212816 0.250000 0.731823
O O19 0.500000 0.500000 0.500000
#
# Coordination Sequence:
#
# PCOD8069476 Si02
#       8
#     4   4   4   4   4   4   4   4
#     4  10  20  34  53  74 101 140 181 218 252 291
#     4  10  20  34  52  73 101 141 183 217 250 292
#     4  11  21  34  53  78 104 131 169 212 251 295
#     4  10  18  32  52  75 102 133 174 213 246 293
#     4  10  21  34  54  80 101 130 166 204 254 307
#     4   9  19  38  57  75 101 129 161 204 255 309
#     4   9  18  32  55  80 101 130 166 208 256 301
#     4  11  22  34  49  74 108 141 170 209 260 303
#
# _framework density 18.631212999999999
#
# number of rings (size 3 to 8) (size 9 to 14) (size 15 to 20)
#    0.000    2.000    0.000    5.625    0.000    6.500 
#    0.000    0.625    0.000    0.750    0.000    0.000 
#    0.000    0.000    0.000    0.000    0.000    0.000 
#
# Total GULP energy -396846.043958 kJ/mol
# GULP energy per Si atom -12401.438874 kJ/mol
# Density = 1.858881 g / cm^3
# Si number density = 18.631213 Si / 1000 Ang^3
#
#
#
# Elastic Constant Matrix: (Units=GPa)
#
#
# Indices 1 2 3 4 5 6 
#
# 1 53.8176 17.8127 26.4119 0.0000 19.3536 0.0000
# 2 17.8127 92.0150 32.2058 0.0000 18.4522 0.0000
# 3 26.4119 32.2058 82.5525 0.0000 18.2555 0.0000
# 4 0.0000 0.0000 0.0000 27.0024 0.0000 -1.4277
# 5 19.3536 18.4522 18.2555 0.0000 23.0989 0.0000
# 6 0.0000 0.0000 0.0000 -1.4277 0.0000 25.7175
#
#
#
# Elastic Compliance Matrix: (Units=1/GPa)
#
#
# Indices 1 2 3 4 5 6 
#
# 1 0.027945 0.000201 -0.004612 0.000000 -0.019930 0.000000
# 2 0.000201 0.013754 -0.003591 0.000000 -0.008318 0.000000
# 3 -0.004612 -0.003591 0.016360 0.000000 -0.006197 0.000000
# 4 0.000000 0.000000 0.000000 0.037143 0.000000 0.002062
# 5 -0.019930 -0.008318 -0.006197 0.000000 0.071533 0.000000
# 6 0.000000 0.000000 0.000000 0.002062 0.000000 0.038998
#
#
# Mechanical properties :
#
#
# Convention : Reuss Voigt Hill
#
# Bulk Modulus (GPa) = 23.77785 42.36065 33.06925
# Shear Modulus (GPa) = 21.20848 25.29407 23.25128
#
# Velocity S-wave (km/s) = 3.37758 3.68858 3.53650
# Velocity P-wave (km/s) = 5.29158 6.39739 5.87058
#
# Compressibility (1/GPa) = 0.04205594
#
# Stress axis : x y z
#
# Youngs Moduli (GPa) = 35.78429 72.70843 61.12338
#
# Poissons Ratio (x) = -0.01462 0.28190
# Poissons Ratio (y) = -0.00719 0.21947
# Poissons Ratio (z) = 0.16504 0.26107
#
# Static dielectric constant tensor:
#      x y z
#    x 3.406370 0.000000 0.159650 
#    y 0.000000 3.520870 0.000000 
#    z 0.159650 0.000000 3.373710 
# 
# 
# High freq. dielectric constant tensor:
#      x y z
#    x 1.723870 0.000000 0.012920 
#    y 0.000000 1.727460 0.000000 
#    z 0.012920 0.000000 1.709200 
# 
# From -- ./inp_files/28854.got.cif
#   From: 2010.06.25/outbox.cif.g09.slc.cpg/sg11_15_cif.got.tgz:28854.got - 2010.06.27 23:14:04.
