data_PCOD8069269
_publ_section_title
;
Structure prediction by ZEFSAII (Michael W. Deem and Ramdas Pophale) SiO2 
 PCOD8069269
Probable space group: P 21/M
;
_chemical_formula_sum "Si O2"
_cell_formula_units_Z 24
_cell_length_a 16.432877
_cell_length_b 8.574311
_cell_length_c 18.477237
_cell_angle_alpha 90.000000
_cell_angle_beta 149.967370
_cell_angle_gamma 90.000000
_cell_volume 1303.010690
_symmetry_space_group_name_H-M "P 21/M"
_symmetry_group_IT_number 11
_symmetry_cell_setting 'monoclinic'
loop_
_space_group_symop_operation_xyz
x,y,z
-x,1/2+y,-z
-x,-y,-z
x,1/2-y,z
loop_
_atom_site_type_symbol
_atom_site_label
_atom_site_fract_x
_atom_site_fract_y
_atom_site_fract_z
Si Si1 0.844637 0.935636 0.921874
Si Si2 0.333253 0.564907 0.340911
Si Si3 0.841804 0.567345 0.415167
Si Si4 0.665463 0.066421 0.156748
Si Si5 0.976894 0.433298 0.309991
Si Si6 0.022214 0.064002 0.183618
O O1 0.841779 0.750000 0.920817
O O2 0.688010 0.000745 0.757956
O O3 0.000000 0.000000 0.000000
O O4 0.862401 0.003353 0.016886
O O5 0.500000 0.500000 0.500000
O O6 0.336475 0.750000 0.341901
O O7 0.187198 0.506594 0.278872
O O8 0.830029 0.750000 0.392621
O O9 0.687223 0.486600 0.257671
O O10 0.000000 0.500000 0.500000
O O11 0.862971 0.529510 0.517274
O O12 0.660314 0.250000 0.150013
O O13 0.813292 0.998662 0.221388
O O14 0.500000 0.000000 0.000000
O O15 0.952622 0.250000 0.284868
O O16 0.003516 0.502079 0.250628
O O17 0.032294 0.250000 0.187511
#
# Coordination Sequence:
#
# PCOD8069269 Si02
#       6
#     4   4   4   4   4   4
#     4  10  18  31  50  74 100 131 166 203 242 292
#     4  11  21  35  53  76 101 130 165 206 248 295
#     4   9  16  30  50  73  98 131 168 204 242 294
#     4  10  19  33  51  75 101 132 169 208 248 294
#     4   8  17  32  52  74 100 131 167 202 245 299
#     4  10  18  33  54  76 100 133 168 203 244 294
#
# _framework density 18.418882
#
# number of rings (size 3 to 8) (size 9 to 14) (size 15 to 20)
#    0.000    2.333    0.000    7.500    0.000    0.000 
#    0.000   11.667    0.000    4.000    0.000    0.000 
#    0.000    0.000    0.000    0.000    0.000    0.000 
#
# Total GULP energy -297393.062236 kJ/mol
# GULP energy per Si atom -12391.377593 kJ/mol
# Density = 1.837696 g / cm^3
# Si number density = 18.418882 Si / 1000 Ang^3
#
#
#
# Elastic Constant Matrix: (Units=GPa)
#
#
# Indices 1 2 3 4 5 6 
#
# 1 77.3680 31.0179 66.1221 0.0000 -27.7110 0.0000
# 2 31.0179 117.5145 58.6520 0.0000 -11.6656 0.0000
# 3 66.1221 58.6520 200.1444 0.0000 -29.4913 0.0000
# 4 0.0000 0.0000 0.0000 37.7457 0.0000 -1.9781
# 5 -27.7110 -11.6656 -29.4913 0.0000 33.8276 0.0000
# 6 0.0000 0.0000 0.0000 -1.9781 0.0000 19.0097
#
#
#
# Elastic Compliance Matrix: (Units=1/GPa)
#
#
# Indices 1 2 3 4 5 6 
#
# 1 0.022929 -0.002246 -0.004892 0.000000 0.013744 0.000000
# 2 -0.002246 0.010218 -0.002300 0.000000 -0.000321 0.000000
# 3 -0.004892 -0.002300 0.007549 0.000000 0.001781 0.000000
# 4 0.000000 0.000000 0.000000 0.026638 0.000000 0.002772
# 5 0.013744 -0.000321 0.001781 0.000000 0.042262 0.000000
# 6 0.000000 0.000000 0.000000 0.002772 0.000000 0.052893
#
#
# Mechanical properties :
#
#
# Convention : Reuss Voigt Hill
#
# Bulk Modulus (GPa) = 45.82756 78.51234 62.16995
# Shear Modulus (GPa) = 26.50562 34.06559 30.28560
#
# Velocity S-wave (km/s) = 3.79759 4.30524 4.05936
# Velocity P-wave (km/s) = 6.64558 8.21170 7.46980
#
# Compressibility (1/GPa) = 0.02182093
#
# Stress axis : x y z
#
# Youngs Moduli (GPa) = 43.61259 97.86256 132.47123
#
# Poissons Ratio (x) = 0.21983 0.64801
# Poissons Ratio (y) = 0.09797 0.30464
# Poissons Ratio (z) = 0.21334 0.22505
#
# Static dielectric constant tensor:
#      x y z
#    x 2.634290 0.000000 -0.462550 
#    y 0.000000 3.632650 0.000000 
#    z -0.462550 0.000000 4.163010 
# 
# 
# High freq. dielectric constant tensor:
#      x y z
#    x 1.672950 0.000000 -0.029740 
#    y 0.000000 1.719230 0.000000 
#    z -0.029740 0.000000 1.734190 
# 
# From -- ./inp_files/27324.got.cif
#   From: 2010.06.25/outbox.cif.g09.slc.cpg/sg11_14_cif.got.tgz:27324.got - 2010.06.27 23:14:04.
