data_PCOD8069725
_publ_section_title
;
Structure prediction by ZEFSAII (Michael W. Deem and Ramdas Pophale) SiO2 
 PCOD8069725
Probable space group: P 21/M
;
_chemical_formula_sum "Si O2"
_cell_formula_units_Z 28
_cell_length_a 15.816372
_cell_length_b 13.517785
_cell_length_c 9.579129
_cell_angle_alpha 90.000000
_cell_angle_beta 135.707493
_cell_angle_gamma 90.000000
_cell_volume 1430.190717
_symmetry_space_group_name_H-M "P 21/M"
_symmetry_group_IT_number 11
_symmetry_cell_setting 'monoclinic'
loop_
_space_group_symop_operation_xyz
x,y,z
-x,1/2+y,-z
-x,-y,-z
x,1/2-y,z
loop_
_atom_site_type_symbol
_atom_site_label
_atom_site_fract_x
_atom_site_fract_y
_atom_site_fract_z
Si Si1 0.321728 0.044324 0.382315
Si Si2 0.243466 0.450330 0.594088
Si Si3 0.016510 0.862447 0.662299
Si Si4 0.328876 0.365327 0.964073
Si Si5 0.869729 0.544922 0.071689
Si Si6 0.486041 0.637570 0.582324
Si Si7 0.901566 0.137537 0.554912
O O1 0.370779 0.932425 0.428284
O O2 0.304441 0.078740 0.520244
O O3 0.416350 0.119531 0.424574
O O4 0.192051 0.048333 0.152767
O O5 0.338439 0.422440 0.828026
O O6 0.215254 0.567909 0.562472
O O7 0.122737 0.386873 0.474082
O O8 0.044263 0.750000 0.737792
O O9 0.042265 0.881230 0.530435
O O10 0.104021 0.931294 0.857127
O O11 0.306652 0.250000 0.911477
O O12 0.215538 0.406947 0.913971
O O13 0.452145 0.384510 0.194899
O O14 0.994548 0.607071 0.211367
O O15 0.440807 0.750000 0.518567
O O16 0.859790 0.250000 0.529841
#
# Coordination Sequence:
#
# PCOD8069725 Si02
#       7
#     4   4   4   4   4   4   4
#     4  10  23  37  57  82 110 140 179 227 279 321
#     4  11  20  34  54  85 113 139 177 230 267 311
#     4  10  19  32  53  83 113 145 183 221 258 312
#     4  10  18  33  60  81 101 143 187 222 266 319
#     4  10  18  35  54  78 110 151 181 213 262 328
#     4   9  21  42  60  76 103 143 185 224 275 333
#     4  10  19  33  54  82 113 149 184 215 257 319
#
# _framework density 19.577808000000001
#
# number of rings (size 3 to 8) (size 9 to 14) (size 15 to 20)
#    0.000    2.000    2.857    1.714    0.000    5.714 
#    0.000    1.429    0.000    0.000    0.000    0.000 
#    0.000    0.000    0.000    0.000    0.000    0.000 
#
# Total GULP energy -347272.010553 kJ/mol
# GULP energy per Si atom -12402.571805 kJ/mol
# Density = 1.953325 g / cm^3
# Si number density = 19.577808 Si / 1000 Ang^3
#
#
#
# Elastic Constant Matrix: (Units=GPa)
#
#
# Indices 1 2 3 4 5 6 
#
# 1 58.4461 5.1110 34.0901 0.0000 -24.0807 0.0000
# 2 5.1110 90.3960 33.1467 0.0000 -8.8641 0.0000
# 3 34.0901 33.1467 72.3883 0.0000 -27.0822 0.0000
# 4 0.0000 0.0000 0.0000 27.9522 0.0000 0.5676
# 5 -24.0807 -8.8641 -27.0822 0.0000 24.6491 0.0000
# 6 0.0000 0.0000 0.0000 0.5676 0.0000 7.6926
#
#
#
# Elastic Compliance Matrix: (Units=1/GPa)
#
#
# Indices 1 2 3 4 5 6 
#
# 1 0.030536 0.003178 -0.007212 0.000000 0.023051 0.000000
# 2 0.003178 0.013780 -0.008135 0.000000 -0.000877 0.000000
# 3 -0.007212 -0.008135 0.029214 0.000000 0.022126 0.000000
# 4 0.000000 0.000000 0.000000 0.035829 0.000000 -0.002644
# 5 0.023051 -0.000877 0.022126 0.000000 0.087084 0.000000
# 6 0.000000 0.000000 0.000000 -0.002644 0.000000 0.130189
#
#
# Mechanical properties :
#
#
# Convention : Reuss Voigt Hill
#
# Bulk Modulus (GPa) = 20.32833 40.65845 30.49339
# Shear Modulus (GPa) = 13.61047 21.98430 17.79739
#
# Velocity S-wave (km/s) = 2.63952 3.35463 3.01833
# Velocity P-wave (km/s) = 4.43794 5.98477 5.26843
#
# Compressibility (1/GPa) = 0.04919242
#
# Stress axis : x y z
#
# Youngs Moduli (GPa) = 32.74868 72.57134 34.23073
#
# Poissons Ratio (x) = -0.23065 0.24686
# Poissons Ratio (y) = -0.10408 0.27846
# Poissons Ratio (z) = 0.23617 0.59034
#
# Static dielectric constant tensor:
#      x y z
#    x 3.270810 0.000000 -0.096520 
#    y 0.000000 3.651850 0.000000 
#    z -0.096520 0.000000 3.656610 
# 
# 
# High freq. dielectric constant tensor:
#      x y z
#    x 1.739160 0.000000 -0.006260 
#    y 0.000000 1.769280 0.000000 
#    z -0.006260 0.000000 1.759440 
# 
# From -- ./inp_files/21960.got.cif
#   From: 2010.06.25/outbox.cif.g09.slc.cpg/sg11_11_cif.got.tgz:21960.got - 2010.06.27 23:14:04.
