data_PCOD8069857
_publ_section_title
;
Structure prediction by ZEFSAII (Michael W. Deem and Ramdas Pophale) SiO2 
 PCOD8069857
Probable space group: P 21/M
;
_chemical_formula_sum "Si O2"
_cell_formula_units_Z 28
_cell_length_a 15.658956
_cell_length_b 8.862010
_cell_length_c 17.437448
_cell_angle_alpha 90.000000
_cell_angle_beta 37.154778
_cell_angle_gamma 90.000000
_cell_volume 1461.482132
_symmetry_space_group_name_H-M "P 21/M"
_symmetry_group_IT_number 11
_symmetry_cell_setting 'monoclinic'
loop_
_space_group_symop_operation_xyz
x,y,z
-x,1/2+y,-z
-x,-y,-z
x,1/2-y,z
loop_
_atom_site_type_symbol
_atom_site_label
_atom_site_fract_x
_atom_site_fract_y
_atom_site_fract_z
Si Si1 0.136084 0.923086 0.436409
Si Si2 0.677306 0.071614 0.561144
Si Si3 0.675108 0.582411 0.808914
Si Si4 0.634402 0.923888 0.169603
Si Si5 0.151088 0.572700 0.873582
Si Si6 0.401571 0.081384 0.975516
Si Si7 0.652984 0.428656 0.406078
O O1 0.100068 0.750000 0.474333
O O2 0.198444 0.992528 0.471833
O O3 0.251103 0.947513 0.288572
O O4 0.000000 0.000000 0.500000
O O5 0.678960 0.250000 0.568435
O O6 0.523889 0.015409 0.700036
O O7 0.704360 0.020731 0.454191
O O8 0.714781 0.750000 0.749427
O O9 0.509596 0.554026 0.914197
O O10 0.711937 0.573736 0.873555
O O11 0.651541 0.750000 0.184434
O O12 0.673208 0.943179 0.052480
O O13 0.743421 0.030520 0.134280
O O14 0.127126 0.750000 0.887454
O O15 0.226017 0.516834 0.740460
O O16 0.000000 0.500000 0.000000
O O17 0.472081 0.250000 0.925101
O O18 0.500000 0.500000 0.500000
O O19 0.632385 0.250000 0.415911
#
# Coordination Sequence:
#
# PCOD8069857 Si02
#       7
#     4   4   4   4   4   4   4
#     4  11  22  39  58  79 112 152 195 241 292 349
#     4   9  18  35  61  85 110 147 192 236 287 351
#     4  10  19  32  53  80 110 143 182 229 279 331
#     4  10  18  35  62  85 110 149 192 235 287 348
#     4  11  24  40  59  86 121 156 192 240 297 355
#     4   9  18  33  54  81 109 143 184 226 275 334
#     4  10  20  37  62  91 116 149 195 242 291 351
#
# _framework density 19.158632999999998
#
# number of rings (size 3 to 8) (size 9 to 14) (size 15 to 20)
#    0.000    2.000    2.857    1.286    0.000    1.714 
#    2.571    1.429    0.000    0.000    0.000    0.000 
#    0.000    0.000    0.000    0.000    0.000    0.000 
#
# Total GULP energy -346954.619994 kJ/mol
# GULP energy per Si atom -12391.236428 kJ/mol
# Density = 1.911503 g / cm^3
# Si number density = 19.158633 Si / 1000 Ang^3
#
#
#
# Elastic Constant Matrix: (Units=GPa)
#
#
# Indices 1 2 3 4 5 6 
#
# 1 163.2879 34.8967 77.7346 0.0000 11.1309 0.0000
# 2 34.8967 43.7400 29.9046 0.0000 2.1155 0.0000
# 3 77.7346 29.9046 107.5328 0.0000 11.1336 0.0000
# 4 0.0000 0.0000 0.0000 29.5780 0.0000 -3.0801
# 5 11.1309 2.1155 11.1336 0.0000 37.7337 0.0000
# 6 0.0000 0.0000 0.0000 -3.0801 0.0000 29.7327
#
#
#
# Elastic Compliance Matrix: (Units=1/GPa)
#
#
# Indices 1 2 3 4 5 6 
#
# 1 0.009824 -0.003708 -0.005974 0.000000 -0.000927 0.000000
# 2 -0.003708 0.029651 -0.005680 0.000000 0.001107 0.000000
# 3 -0.005974 -0.005680 0.015455 0.000000 -0.002479 0.000000
# 4 0.000000 0.000000 0.000000 0.034178 0.000000 0.003541
# 5 -0.000927 0.001107 -0.002479 0.000000 0.027444 0.000000
# 6 0.000000 0.000000 0.000000 0.003541 0.000000 0.034000
#
#
# Mechanical properties :
#
#
# Convention : Reuss Voigt Hill
#
# Bulk Modulus (GPa) = 41.31507 66.62583 53.97045
# Shear Modulus (GPa) = 26.40695 30.87719 28.64207
#
# Velocity S-wave (km/s) = 3.71662 4.01890 3.87071
# Velocity P-wave (km/s) = 6.32686 7.50912 6.94320
#
# Compressibility (1/GPa) = 0.02420424
#
# Stress axis : x y z
#
# Youngs Moduli (GPa) = 101.79085 33.72619 64.70579
#
# Poissons Ratio (x) = 0.12507 0.38658
# Poissons Ratio (y) = 0.37747 0.36751
# Poissons Ratio (z) = 0.60814 0.19155
#
# Static dielectric constant tensor:
#      x y z
#    x 3.745130 0.000000 0.257760 
#    y 0.000000 3.357350 0.000000 
#    z 0.257760 0.000000 3.186760 
# 
# 
# High freq. dielectric constant tensor:
#      x y z
#    x 1.747030 0.000000 0.021920 
#    y 0.000000 1.729870 0.000000 
#    z 0.021920 0.000000 1.736570 
# 
# From -- ./inp_files/60067.got.cif
#   From: 2010.06.25/outbox.cif.g09.slc.cpg/sg11_31_cif.got.tgz:60067.got - 2010.06.27 23:14:04.
