data_PCOD8069485
_publ_section_title
;
Structure prediction by ZEFSAII (Michael W. Deem and Ramdas Pophale) SiO2 
 PCOD8069485
Probable space group: P 21/M
;
_chemical_formula_sum "Si O2"
_cell_formula_units_Z 32
_cell_length_a 23.030496
_cell_length_b 13.533111
_cell_length_c 20.155479
_cell_angle_alpha 90.000000
_cell_angle_beta 17.178685
_cell_angle_gamma 90.000000
_cell_volume 1855.388800
_symmetry_space_group_name_H-M "P 21/M"
_symmetry_group_IT_number 11
_symmetry_cell_setting 'monoclinic'
loop_
_space_group_symop_operation_xyz
x,y,z
-x,1/2+y,-z
-x,-y,-z
x,1/2-y,z
loop_
_atom_site_type_symbol
_atom_site_label
_atom_site_fract_x
_atom_site_fract_y
_atom_site_fract_z
Si Si1 0.002576 0.637522 0.591111
Si Si2 0.050024 0.136320 0.882491
Si Si3 0.760544 0.366076 0.536945
Si Si4 0.402064 0.862647 0.079820
Si Si5 0.404731 0.056109 0.004374
Si Si6 0.328506 0.864999 0.621994
Si Si7 0.750033 0.866966 0.202384
Si Si8 0.110735 0.953559 0.739839
O O1 0.930054 0.750000 0.665622
O O2 0.079299 0.613845 0.581054
O O3 0.180369 0.618194 0.346392
O O4 0.820377 0.567840 0.772405
O O5 0.088284 0.250000 0.822503
O O6 0.189655 0.097342 0.789787
O O7 0.093096 0.071942 0.770048
O O8 0.827492 0.116411 0.149156
O O9 0.747178 0.250000 0.534076
O O10 0.546208 0.404578 0.792204
O O11 0.825380 0.430795 0.403980
O O12 0.429919 0.750000 0.024387
O O13 0.555304 0.881769 0.972259
O O14 0.444451 0.939308 0.974009
O O15 0.346306 0.750000 0.587336
O O16 0.535277 0.908824 0.420801
O O17 0.273271 0.913534 0.612849
O O18 0.760518 0.750000 0.190095
O O19 0.900026 0.904607 0.983167
#
# Coordination Sequence:
#
# PCOD8069485 Si02
#       8
#     4   4   4   4   4   4   4   4
#     4   9  17  31  51  73  99 128 156 191 234 278
#     4   9  19  33  47  66  92 122 158 200 241 282
#     4  10  21  34  47  70 100 126 159 196 229 279
#     4   9  18  31  51  80 103 121 157 202 233 268
#     4  10  18  32  53  73 100 134 159 186 234 282
#     4   9  17  30  50  74  95 116 149 197 248 292
#     4   9  17  30  49  73  97 118 148 195 247 292
#     4  11  20  31  48  68  95 127 159 195 234 280
#
# _framework density 17.247057999999999
#
# number of rings (size 3 to 8) (size 9 to 14) (size 15 to 20)
#    0.000    2.500    0.000    5.625    0.000    3.000 
#    0.000    1.875    0.000    0.750    0.000    0.000 
#    0.000    0.000    0.000    0.000    0.000    0.000 
#
# Total GULP energy -396789.113344 kJ/mol
# GULP energy per Si atom -12399.659792 kJ/mol
# Density = 1.720780 g / cm^3
# Si number density = 17.247058 Si / 1000 Ang^3
#
#
#
# Elastic Constant Matrix: (Units=GPa)
#
#
# Indices 1 2 3 4 5 6 
#
# 1 58.5150 30.9263 46.0292 0.0000 -3.4171 0.0000
# 2 30.9263 65.3921 28.3745 0.0000 3.2580 0.0000
# 3 46.0292 28.3745 76.9690 0.0000 -19.2098 0.0000
# 4 0.0000 0.0000 0.0000 18.4343 0.0000 10.7334
# 5 -3.4171 3.2580 -19.2098 0.0000 34.1690 0.0000
# 6 0.0000 0.0000 0.0000 10.7334 0.0000 18.9189
#
#
#
# Elastic Compliance Matrix: (Units=1/GPa)
#
#
# Indices 1 2 3 4 5 6 
#
# 1 0.037934 -0.008222 -0.021533 0.000000 -0.007529 0.000000
# 2 -0.008222 0.021278 -0.004233 0.000000 -0.005231 0.000000
# 3 -0.021533 -0.004233 0.031399 0.000000 0.015903 0.000000
# 4 0.000000 0.000000 0.000000 0.081005 0.000000 -0.045957
# 5 -0.007529 -0.005231 0.015903 0.000000 0.037953 0.000000
# 6 0.000000 0.000000 0.000000 -0.045957 0.000000 0.078930
#
#
# Mechanical properties :
#
#
# Convention : Reuss Voigt Hill
#
# Bulk Modulus (GPa) = 44.17894 45.72625 44.95260
# Shear Modulus (GPa) = 13.73550 20.67418 17.20484
#
# Velocity S-wave (km/s) = 2.82511 3.46599 3.16183
# Velocity P-wave (km/s) = 6.02600 6.52591 6.28093
#
# Compressibility (1/GPa) = 0.02263522
#
# Stress axis : x y z
#
# Youngs Moduli (GPa) = 26.36160 46.99689 31.84799
#
# Poissons Ratio (x) = 0.38639 0.68580
# Poissons Ratio (y) = 0.21674 0.13481
# Poissons Ratio (z) = 0.56766 0.19893
#
# Static dielectric constant tensor:
#      x y z
#    x 3.080020 0.000000 -0.254740 
#    y 0.000000 3.270220 0.000000 
#    z -0.254740 0.000000 3.218070 
# 
# 
# High freq. dielectric constant tensor:
#      x y z
#    x 1.643750 0.000000 -0.021910 
#    y 0.000000 1.672810 0.000000 
#    z -0.021910 0.000000 1.658120 
# 
# From -- ./inp_files/61594.got.cif
#   From: 2010.06.25/outbox.cif.g09.slc.cpg/sg11_31_cif.got.tgz:61594.got - 2010.06.27 23:14:04.
