data_PCOD8069039
_publ_section_title
;
Structure prediction by ZEFSAII (Michael W. Deem and Ramdas Pophale) SiO2 
 PCOD8069039
Probable space group: P 21/M
;
_chemical_formula_sum "Si O2"
_cell_formula_units_Z 32
_cell_length_a 20.722136
_cell_length_b 9.368489
_cell_length_c 26.160024
_cell_angle_alpha 90.000000
_cell_angle_beta 158.845850
_cell_angle_gamma 90.000000
_cell_volume 1832.749335
_symmetry_space_group_name_H-M "P 21/M"
_symmetry_group_IT_number 11
_symmetry_cell_setting 'monoclinic'
loop_
_space_group_symop_operation_xyz
x,y,z
-x,1/2+y,-z
-x,-y,-z
x,1/2-y,z
loop_
_atom_site_type_symbol
_atom_site_label
_atom_site_fract_x
_atom_site_fract_y
_atom_site_fract_z
Si Si1 0.394498 0.916552 0.821900
Si Si2 0.801160 0.918567 0.137975
Si Si3 0.888416 0.088603 0.300042
Si Si4 0.253911 0.086190 0.207088
Si Si5 0.583503 0.416142 0.514697
Si Si6 0.043594 0.083432 0.955824
Si Si7 0.014612 0.581301 0.198910
Si Si8 0.854451 0.914551 0.423930
O O1 0.379957 0.750000 0.797025
O O2 0.269880 0.955726 0.777985
O O3 0.334295 0.008113 0.727448
O O4 0.594536 0.963101 0.983044
O O5 0.823438 0.750000 0.158334
O O6 0.901266 0.982633 0.162115
O O7 0.891646 0.984765 0.254542
O O8 0.854951 0.250000 0.256639
O O9 0.083651 0.076026 0.471227
O O10 0.200900 0.250000 0.177830
O O11 0.461612 0.059363 0.373996
O O12 0.213299 0.046174 0.117612
O O13 0.134211 0.992672 0.156065
O O14 0.500000 0.500000 0.500000
O O15 0.590735 0.250000 0.535266
O O16 0.781190 0.475237 0.648295
O O17 0.999101 0.250000 0.923905
O O18 0.079830 0.034220 0.924249
O O19 0.013967 0.750000 0.203852
O O20 0.847296 0.750000 0.400733
O O21 0.000000 0.000000 0.500000
#
# Coordination Sequence:
#
# PCOD8069039 Si02
#       8
#     4   4   4   4   4   4   4   4
#     4   9  18  32  50  74 101 129 168 211 247 291
#     4  10  20  33  49  71  99 132 169 206 245 296
#     4   9  18  32  49  72 100 128 162 206 251 292
#     4   9  17  27  45  72  93 113 151 193 228 277
#     4  10  18  30  48  71  96 121 154 194 236 285
#     4   9  16  29  47  66  92 122 148 187 240 283
#     4   9  18  32  48  67  96 129 159 196 244 290
#     4   9  17  30  50  75 101 127 160 204 250 294
#
# _framework density 17.460106
#
# number of rings (size 3 to 8) (size 9 to 14) (size 15 to 20)
#    0.000    2.750    1.250    1.500    0.000    3.000 
#    0.000    2.500    0.000    4.500    0.000    3.500 
#    0.000    0.000    0.000    0.000    0.000    0.000 
#
# Total GULP energy -396615.422715 kJ/mol
# GULP energy per Si atom -12394.231960 kJ/mol
# Density = 1.742037 g / cm^3
# Si number density = 17.460106 Si / 1000 Ang^3
#
#
#
# Elastic Constant Matrix: (Units=GPa)
#
#
# Indices 1 2 3 4 5 6 
#
# 1 111.3380 31.6512 58.3944 0.0000 -14.7222 0.0000
# 2 31.6512 47.7244 30.3402 0.0000 -11.4552 0.0000
# 3 58.3944 30.3402 84.0752 0.0000 -26.6092 0.0000
# 4 0.0000 0.0000 0.0000 24.8590 0.0000 -6.5849
# 5 -14.7222 -11.4552 -26.6092 0.0000 22.6835 0.0000
# 6 0.0000 0.0000 0.0000 -6.5849 0.0000 22.3263
#
#
#
# Elastic Compliance Matrix: (Units=1/GPa)
#
#
# Indices 1 2 3 4 5 6 
#
# 1 0.015052 -0.004559 -0.010252 0.000000 -0.004560 0.000000
# 2 -0.004559 0.028752 -0.005647 0.000000 0.004937 0.000000
# 3 -0.010252 -0.005647 0.028699 0.000000 0.024160 0.000000
# 4 0.000000 0.000000 0.000000 0.043636 0.000000 0.012870
# 5 -0.004560 0.004937 0.024160 0.000000 0.071960 0.000000
# 6 0.000000 0.000000 0.000000 0.012870 0.000000 0.048586
#
#
# Mechanical properties :
#
#
# Convention : Reuss Voigt Hill
#
# Bulk Modulus (GPa) = 31.65862 53.76768 42.71315
# Shear Modulus (GPa) = 17.35329 22.15725 19.75527
#
# Velocity S-wave (km/s) = 3.15601 3.56620 3.36736
# Velocity P-wave (km/s) = 5.60820 6.91509 6.29565
#
# Compressibility (1/GPa) = 0.03158697
#
# Stress axis : x y z
#
# Youngs Moduli (GPa) = 66.43718 34.77993 34.84460
#
# Poissons Ratio (x) = 0.15857 0.35723
# Poissons Ratio (y) = 0.30291 0.19675
# Poissons Ratio (z) = 0.68112 0.19639
#
# Static dielectric constant tensor:
#      x y z
#    x 3.213790 0.000000 -0.258730 
#    y 0.000000 3.189280 0.000000 
#    z -0.258730 0.000000 3.677500 
# 
# 
# High freq. dielectric constant tensor:
#      x y z
#    x 1.648100 0.000000 -0.024890 
#    y 0.000000 1.662030 0.000000 
#    z -0.024890 0.000000 1.682150 
# 
# From -- ./inp_files/68303.got.cif
#   From: 2010.06.25/outbox.cif.g09.slc.cpg/sg11_35_cif.got.tgz:68303.got - 2010.06.27 23:14:04.
