data_PCOD8069835
_publ_section_title
;
Structure prediction by ZEFSAII (Michael W. Deem and Ramdas Pophale) SiO2 
 PCOD8069835
Probable space group: P 21/M
;
_chemical_formula_sum "Si O2"
_cell_formula_units_Z 28
_cell_length_a 8.644814
_cell_length_b 18.719913
_cell_length_c 12.614559
_cell_angle_alpha 90.000000
_cell_angle_beta 135.545531
_cell_angle_gamma 90.000000
_cell_volume 1429.689993
_symmetry_space_group_name_H-M "P 21/M"
_symmetry_group_IT_number 11
_symmetry_cell_setting 'monoclinic'
loop_
_space_group_symop_operation_xyz
x,y,z
-x,1/2+y,-z
-x,-y,-z
x,1/2-y,z
loop_
_atom_site_type_symbol
_atom_site_label
_atom_site_fract_x
_atom_site_fract_y
_atom_site_fract_z
Si Si1 0.797093 0.581727 0.586315
Si Si2 0.704301 0.545025 0.305860
Si Si3 0.779088 0.331469 0.157781
Si Si4 0.647226 0.333778 0.632086
Si Si5 0.012150 0.555510 0.260985
Si Si6 0.607589 0.170373 0.853143
Si Si7 0.437218 0.057065 0.057462
O O1 0.783845 0.546935 0.464174
O O2 0.582986 0.628250 0.511388
O O3 0.835880 0.515259 0.687144
O O4 0.004083 0.634345 0.687279
O O5 0.593403 0.619207 0.217697
O O6 0.528527 0.478885 0.210579
O O7 0.907288 0.537973 0.324218
O O8 0.767595 0.250000 0.189240
O O9 0.558206 0.368015 0.095871
O O10 0.791200 0.338395 0.035092
O O11 0.637849 0.250000 0.596886
O O12 0.840607 0.373016 0.661761
O O13 0.705809 0.345718 0.784848
O O14 0.828385 0.565884 0.078125
O O15 0.507992 0.250000 0.805949
O O16 0.500000 0.000000 0.000000
#
# Coordination Sequence:
#
# PCOD8069835 Si02
#       7
#     4   4   4   4   4   4   4
#     4  11  21  37  59  84 114 155 193 228 278 348
#     4  10  19  35  61  84 113 145 184 239 281 337
#     4  11  20  34  60  84 110 147 191 236 281 334
#     4  10  23  39  54  80 117 152 190 233 284 343
#     4  11  20  35  60  85 113 146 187 241 287 332
#     4   9  18  35  56  80 107 147 194 229 276 338
#     4  10  18  35  57  86 114 137 185 239 286 324
#
# _framework density 19.584665999999999
#
# number of rings (size 3 to 8) (size 9 to 14) (size 15 to 20)
#    0.000    1.714    5.714    1.286    0.000    1.714 
#    0.000    7.857    0.000    0.000    0.000    0.000 
#    0.000    0.000    0.000    0.000    0.000    0.000 
#
# Total GULP energy -347034.315609 kJ/mol
# GULP energy per Si atom -12394.082700 kJ/mol
# Density = 1.954009 g / cm^3
# Si number density = 19.584666 Si / 1000 Ang^3
#
#
#
# Elastic Constant Matrix: (Units=GPa)
#
#
# Indices 1 2 3 4 5 6 
#
# 1 36.1454 35.1012 34.9288 0.0000 17.1711 0.0000
# 2 35.1012 143.6280 62.9225 0.0000 20.6716 0.0000
# 3 34.9288 62.9225 133.3602 0.0000 20.8177 0.0000
# 4 0.0000 0.0000 0.0000 33.9204 0.0000 5.8189
# 5 17.1711 20.6716 20.8177 0.0000 23.1865 0.0000
# 6 0.0000 0.0000 0.0000 5.8189 0.0000 27.0774
#
#
#
# Elastic Compliance Matrix: (Units=1/GPa)
#
#
# Indices 1 2 3 4 5 6 
#
# 1 0.053415 -0.006054 -0.006747 0.000000 -0.028103 0.000000
# 2 -0.006054 0.009942 -0.002816 0.000000 -0.001852 0.000000
# 3 -0.006747 -0.002816 0.010958 0.000000 -0.002331 0.000000
# 4 0.000000 0.000000 0.000000 0.030609 0.000000 -0.006578
# 5 -0.028103 -0.001852 -0.002331 0.000000 0.067685 0.000000
# 6 0.000000 0.000000 0.000000 -0.006578 0.000000 0.038345
#
#
# Mechanical properties :
#
#
# Convention : Reuss Voigt Hill
#
# Bulk Modulus (GPa) = 23.21173 64.33763 43.77468
# Shear Modulus (GPa) = 19.48946 28.84893 24.16920
#
# Velocity S-wave (km/s) = 3.15800 3.84218 3.51677
# Velocity P-wave (km/s) = 5.01747 7.25296 6.23621
#
# Compressibility (1/GPa) = 0.04308166
#
# Stress axis : x y z
#
# Youngs Moduli (GPa) = 18.72136 100.58076 91.25449
#
# Poissons Ratio (x) = 0.60887 0.61570
# Poissons Ratio (y) = 0.11333 0.25700
# Poissons Ratio (z) = 0.12631 0.28327
#
# Static dielectric constant tensor:
#      x y z
#    x 3.121280 0.000000 -0.008580 
#    y 0.000000 3.814530 0.000000 
#    z -0.008580 0.000000 4.105190 
# 
# 
# High freq. dielectric constant tensor:
#      x y z
#    x 1.713020 0.000000 0.003520 
#    y 0.000000 1.777780 0.000000 
#    z 0.003520 0.000000 1.777770 
# 
# From -- ./inp_files/48025.got.cif
#   From: 2010.06.25/outbox.cif.g09.slc.cpg/sg11_25_cif.got.tgz:48025.got - 2010.06.27 23:14:04.
