data_PCOD8069644
_publ_section_title
;
Structure prediction by ZEFSAII (Michael W. Deem and Ramdas Pophale) SiO2 
 PCOD8069644
Probable space group: P 21/M
;
_chemical_formula_sum "Si O2"
_cell_formula_units_Z 32
_cell_length_a 12.463826
_cell_length_b 9.436001
_cell_length_c 29.046370
_cell_angle_alpha 90.000000
_cell_angle_beta 29.722540
_cell_angle_gamma 90.000000
_cell_volume 1693.706084
_symmetry_space_group_name_H-M "P 21/M"
_symmetry_group_IT_number 11
_symmetry_cell_setting 'monoclinic'
loop_
_space_group_symop_operation_xyz
x,y,z
-x,1/2+y,-z
-x,-y,-z
x,1/2-y,z
loop_
_atom_site_type_symbol
_atom_site_label
_atom_site_fract_x
_atom_site_fract_y
_atom_site_fract_z
Si Si1 0.751002 0.085802 0.216931
Si Si2 0.582936 0.906973 0.732021
Si Si3 0.269805 0.586252 0.672817
Si Si4 0.669410 0.083065 0.498293
Si Si5 0.068110 0.084979 0.020144
Si Si6 0.046823 0.905691 0.525399
Si Si7 0.448104 0.586395 0.170056
Si Si8 0.042174 0.412701 0.289754
O O1 0.798817 0.250000 0.206654
O O2 0.516125 0.056757 0.281357
O O3 0.756389 0.017708 0.266210
O O4 0.932685 0.024982 0.114325
O O5 0.497999 0.750000 0.778516
O O6 0.840715 0.905864 0.635660
O O7 0.509501 0.025521 0.794923
O O8 0.344113 0.750000 0.647361
O O9 0.447784 0.503542 0.575768
O O10 0.041036 0.571924 0.731716
O O11 0.624650 0.250000 0.508940
O O12 0.849668 0.032407 0.394651
O O13 0.752732 0.043943 0.518566
O O14 0.014407 0.250000 0.030788
O O15 0.319627 0.067035 0.940961
O O16 0.000000 0.000000 0.000000
O O17 0.091767 0.750000 0.488972
O O18 0.000000 0.000000 0.500000
O O19 0.379306 0.750000 0.199127
O O20 0.260204 0.503430 0.213271
O O21 0.099427 0.250000 0.280461
#
# Coordination Sequence:
#
# PCOD8069644 Si02
#       8
#     4   4   4   4   4   4   4   4
#     4   9  18  34  57  82 110 144 179 221 273 325
#     4  10  18  33  55  75 107 149 178 213 270 328
#     4  10  21  37  59  83 105 142 192 228 263 325
#     4  10  20  35  54  78 110 145 180 227 279 319
#     4  10  20  35  57  84 113 143 177 221 272 328
#     4  10  20  32  48  74 109 146 183 219 267 326
#     4  11  22  34  54  85 111 136 180 231 272 315
#     4  10  21  39  59  78 108 149 189 223 267 328
#
# _framework density 18.893478999999999
#
# number of rings (size 3 to 8) (size 9 to 14) (size 15 to 20)
#    0.000    2.000    2.500    1.500    0.000    3.500 
#    0.000    1.875    0.000    0.000    0.000    0.000 
#    0.000    0.000    0.000    0.000    0.000    0.000 
#
# Total GULP energy -396673.529366 kJ/mol
# GULP energy per Si atom -12396.047793 kJ/mol
# Density = 1.885048 g / cm^3
# Si number density = 18.893479 Si / 1000 Ang^3
#
#
#
# Elastic Constant Matrix: (Units=GPa)
#
#
# Indices 1 2 3 4 5 6 
#
# 1 94.5038 35.0049 33.0231 0.0000 -7.1721 0.0000
# 2 35.0049 62.7102 29.6132 0.0000 -9.5563 0.0000
# 3 33.0231 29.6132 82.0478 0.0000 -11.2231 0.0000
# 4 0.0000 0.0000 0.0000 23.2613 0.0000 -2.2710
# 5 -7.1721 -9.5563 -11.2231 0.0000 26.6712 0.0000
# 6 0.0000 0.0000 0.0000 -2.2710 0.0000 25.0528
#
#
#
# Elastic Compliance Matrix: (Units=1/GPa)
#
#
# Indices 1 2 3 4 5 6 
#
# 1 0.014091 -0.006241 -0.003403 0.000000 0.000121 0.000000
# 2 -0.006241 0.022442 -0.005006 0.000000 0.004256 0.000000
# 3 -0.003403 -0.005006 0.015910 0.000000 0.003986 0.000000
# 4 0.000000 0.000000 0.000000 0.043374 0.000000 0.003932
# 5 0.000121 0.004256 0.003986 0.000000 0.040729 0.000000
# 6 0.000000 0.000000 0.000000 0.003932 0.000000 0.040272
#
#
# Mechanical properties :
#
#
# Convention : Reuss Voigt Hill
#
# Bulk Modulus (GPa) = 43.20597 48.28271 45.74434
# Shear Modulus (GPa) = 23.38292 24.43843 23.91067
#
# Velocity S-wave (km/s) = 3.52180 3.60041 3.56132
# Velocity P-wave (km/s) = 6.28134 6.54940 6.41677
#
# Compressibility (1/GPa) = 0.02314495
#
# Stress axis : x y z
#
# Youngs Moduli (GPa) = 70.96564 44.55833 62.85516
#
# Poissons Ratio (x) = 0.27807 0.21387
# Poissons Ratio (y) = 0.44286 0.31466
# Poissons Ratio (z) = 0.24147 0.22307
#
# Static dielectric constant tensor:
#      x y z
#    x 3.507920 0.000000 -0.043380 
#    y 0.000000 3.329150 0.000000 
#    z -0.043380 0.000000 3.605650 
# 
# 
# High freq. dielectric constant tensor:
#      x y z
#    x 1.737730 0.000000 -0.010160 
#    y 0.000000 1.714760 0.000000 
#    z -0.010160 0.000000 1.726850 
# 
# From -- ./inp_files/38148.got.cif
#   From: 2010.06.25/outbox.cif.g09.slc.cpg/sg11_20_cif.got.tgz:38148.got - 2010.06.27 23:14:04.
