data_PCOD8069312
_publ_section_title
;
Structure prediction by ZEFSAII (Michael W. Deem and Ramdas Pophale) SiO2 
 PCOD8069312
Probable space group: P 21/M
;
_chemical_formula_sum "Si O2"
_cell_formula_units_Z 32
_cell_length_a 20.241494
_cell_length_b 9.005204
_cell_length_c 25.109161
_cell_angle_alpha 90.000000
_cell_angle_beta 22.898502
_cell_angle_gamma 90.000000
_cell_volume 1780.858452
_symmetry_space_group_name_H-M "P 21/M"
_symmetry_group_IT_number 11
_symmetry_cell_setting 'monoclinic'
loop_
_space_group_symop_operation_xyz
x,y,z
-x,1/2+y,-z
-x,-y,-z
x,1/2-y,z
loop_
_atom_site_type_symbol
_atom_site_label
_atom_site_fract_x
_atom_site_fract_y
_atom_site_fract_z
Si Si1 0.138365 0.424258 0.360358
Si Si2 0.646730 0.922673 0.704545
Si Si3 0.644152 0.423269 0.359073
Si Si4 0.032394 0.073475 0.601566
Si Si5 0.837124 0.074844 0.395116
Si Si6 0.314215 0.922888 0.897287
Si Si7 0.480296 0.921615 0.663413
Si Si8 0.034410 0.924099 0.816282
O O1 0.100297 0.250000 0.382542
O O2 0.317014 0.450124 0.259257
O O3 0.000000 0.500000 0.500000
O O4 0.131589 0.504329 0.307769
O O5 0.639048 0.750000 0.696739
O O6 0.799153 0.984493 0.554391
O O7 0.466205 0.991331 0.821105
O O8 0.500000 0.500000 0.500000
O O9 0.625476 0.250000 0.384179
O O10 0.624520 0.462884 0.311646
O O11 0.828456 0.478660 0.241829
O O12 0.013875 0.250000 0.616785
O O13 0.037422 0.007950 0.657069
O O14 0.847622 0.250000 0.396530
O O15 0.898264 0.027220 0.291392
O O16 0.644942 0.023068 0.546273
O O17 0.289828 0.750000 0.926666
O O18 0.355706 0.954572 0.804884
O O19 0.142828 0.001652 0.040148
O O20 0.539795 0.750000 0.619123
O O21 0.006571 0.750000 0.839981
#
# Coordination Sequence:
#
# PCOD8069312 Si02
#       8
#     4   4   4   4   4   4   4   4
#     4   9  16  27  45  74 109 143 177 219 273 322
#     4   8  15  29  49  73 106 140 171 217 265 310
#     4  10  20  36  57  80 109 141 177 223 273 320
#     4  10  18  31  51  77 109 139 176 228 272 317
#     4  11  21  34  54  79 108 141 179 224 274 324
#     4  10  20  36  55  79 108 144 184 219 263 323
#     4  10  20  35  58  82 106 139 181 225 268 319
#     4  10  23  39  52  77 113 143 176 225 274 321
#
# _framework density 17.968862999999999
#
# number of rings (size 3 to 8) (size 9 to 14) (size 15 to 20)
#    0.000    2.250    2.500    1.875    0.000    2.500 
#    0.000    1.250    0.000    0.750    0.000    0.000 
#    0.000    0.000    0.000    0.000    0.000    0.000 
#
# Total GULP energy -396690.607122 kJ/mol
# GULP energy per Si atom -12396.581473 kJ/mol
# Density = 1.792796 g / cm^3
# Si number density = 17.968863 Si / 1000 Ang^3
#
#
#
# Elastic Constant Matrix: (Units=GPa)
#
#
# Indices 1 2 3 4 5 6 
#
# 1 150.4729 46.9316 31.9180 0.0000 -21.0820 0.0000
# 2 46.9316 57.2161 22.4736 0.0000 -1.8089 0.0000
# 3 31.9180 22.4736 66.7715 0.0000 -9.1126 0.0000
# 4 0.0000 0.0000 0.0000 27.7462 0.0000 -2.4512
# 5 -21.0820 -1.8089 -9.1126 0.0000 23.9304 0.0000
# 6 0.0000 0.0000 0.0000 -2.4512 0.0000 28.4855
#
#
#
# Elastic Compliance Matrix: (Units=1/GPa)
#
#
# Indices 1 2 3 4 5 6 
#
# 1 0.010515 -0.007872 -0.001260 0.000000 0.008189 0.000000
# 2 -0.007872 0.026061 -0.005998 0.000000 -0.007249 0.000000
# 3 -0.001260 -0.005998 0.018337 0.000000 0.005420 0.000000
# 4 0.000000 0.000000 0.000000 0.036317 0.000000 0.003125
# 5 0.008189 -0.007249 0.005420 0.000000 0.050518 0.000000
# 6 0.000000 0.000000 0.000000 0.003125 0.000000 0.035374
#
#
# Mechanical properties :
#
#
# Convention : Reuss Voigt Hill
#
# Bulk Modulus (GPa) = 40.55959 53.01187 46.78573
# Shear Modulus (GPa) = 23.19119 27.57491 25.38305
#
# Velocity S-wave (km/s) = 3.59643 3.92164 3.76255
# Velocity P-wave (km/s) = 6.31403 7.07614 6.70592
#
# Compressibility (1/GPa) = 0.02465508
#
# Stress axis : x y z
#
# Youngs Moduli (GPa) = 95.09955 38.37155 54.53474
#
# Poissons Ratio (x) = 0.30204 0.06869
# Poissons Ratio (y) = 0.74858 0.32710
# Poissons Ratio (z) = 0.11978 0.23015
#
# Static dielectric constant tensor:
#      x y z
#    x 3.857840 0.000000 -0.243190 
#    y 0.000000 3.316110 0.000000 
#    z -0.243190 0.000000 3.121690 
# 
# 
# High freq. dielectric constant tensor:
#      x y z
#    x 1.720320 0.000000 -0.014610 
#    y 0.000000 1.687490 0.000000 
#    z -0.014610 0.000000 1.657930 
# 
# From -- ./inp_files/72045.got.cif
#   From: 2010.06.25/outbox.cif.g09.slc.cpg/sg11_37_cif.got.tgz:72045.got - 2010.06.27 23:14:04.
