data_PCOD8069030
_publ_section_title
;
Structure prediction by ZEFSAII (Michael W. Deem and Ramdas Pophale) SiO2 
 PCOD8069030
Probable space group: P 21/M
;
_chemical_formula_sum "Si O2"
_cell_formula_units_Z 32
_cell_length_a 21.285781
_cell_length_b 8.624279
_cell_length_c 12.840533
_cell_angle_alpha 90.000000
_cell_angle_beta 127.264489
_cell_angle_gamma 90.000000
_cell_volume 1875.970758
_symmetry_space_group_name_H-M "P 21/M"
_symmetry_group_IT_number 11
_symmetry_cell_setting 'monoclinic'
loop_
_space_group_symop_operation_xyz
x,y,z
-x,1/2+y,-z
-x,-y,-z
x,1/2-y,z
loop_
_atom_site_type_symbol
_atom_site_label
_atom_site_fract_x
_atom_site_fract_y
_atom_site_fract_z
Si Si1 0.839109 0.568429 0.447557
Si Si2 0.311748 0.570632 0.612202
Si Si3 0.413979 0.433435 0.300896
Si Si4 0.413652 0.570003 0.916918
Si Si5 0.592144 0.066569 0.489829
Si Si6 0.997841 0.433777 0.613529
Si Si7 0.684262 0.933162 0.995121
Si Si8 0.841854 0.067177 0.221546
O O1 0.847421 0.750000 0.435956
O O2 0.765550 0.532422 0.447611
O O3 0.825875 0.485962 0.323604
O O4 0.918220 0.504016 0.584618
O O5 0.286457 0.750000 0.579994
O O6 0.375726 0.545792 0.766235
O O7 0.350471 0.509867 0.544269
O O8 0.412218 0.250000 0.302827
O O9 0.376315 0.498664 0.369541
O O10 0.503580 0.495276 0.378162
O O11 0.363408 0.494689 0.152865
O O12 0.416561 0.750000 0.951184
O O13 0.500000 0.500000 0.000000
O O14 0.362441 0.477024 0.948287
O O15 0.591611 0.250000 0.495319
O O16 0.993727 0.250000 0.610543
O O17 0.078703 0.491877 0.748574
O O18 0.000000 0.500000 0.500000
O O19 0.696429 0.750000 0.005035
O O20 0.769183 0.015076 0.077221
O O21 0.850815 0.250000 0.229324
#
# Coordination Sequence:
#
# PCOD8069030 Si02
#       8
#     4   4   4   4   4   4   4   4
#     4  11  20  31  48  72 101 134 169 206 247 297
#     4  10  20  34  50  71 101 135 168 208 253 297
#     4   9  19  35  53  73  98 128 166 217 260 297
#     4  11  22  34  49  69 100 136 169 204 249 302
#     4   9  18  34  54  73  96 129 169 213 257 300
#     4  10  18  30  48  69  97 133 168 203 245 294
#     4  11  21  34  51  73 101 133 170 208 253 301
#     4  11  20  32  48  71 102 134 168 206 248 297
#
# _framework density 17.057836000000002
#
# number of rings (size 3 to 8) (size 9 to 14) (size 15 to 20)
#    0.000    1.750    1.250    6.375    0.000    4.000 
#    0.000    2.500    0.000    0.000    0.000    0.875 
#    0.000    0.000    0.000    0.000    0.000    0.000 
#
# Total GULP energy -396828.767227 kJ/mol
# GULP energy per Si atom -12400.898976 kJ/mol
# Density = 1.701901 g / cm^3
# Si number density = 17.057836 Si / 1000 Ang^3
#
#
#
# Elastic Constant Matrix: (Units=GPa)
#
#
# Indices 1 2 3 4 5 6 
#
# 1 91.8804 29.5332 33.8119 0.0000 13.9857 0.0000
# 2 29.5332 83.0211 19.8917 0.0000 7.0119 0.0000
# 3 33.8119 19.8917 56.4828 0.0000 3.2820 0.0000
# 4 0.0000 0.0000 0.0000 24.5416 0.0000 3.4300
# 5 13.9857 7.0119 3.2820 0.0000 30.7558 0.0000
# 6 0.0000 0.0000 0.0000 3.4300 0.0000 29.2047
#
#
#
# Elastic Compliance Matrix: (Units=1/GPa)
#
#
# Indices 1 2 3 4 5 6 
#
# 1 0.015680 -0.003208 -0.007934 0.000000 -0.005552 0.000000
# 2 -0.003208 0.014009 -0.002930 0.000000 -0.001422 0.000000
# 3 -0.007934 -0.002930 0.023382 0.000000 0.001781 0.000000
# 4 0.000000 0.000000 0.000000 0.041427 0.000000 -0.004866
# 5 -0.005552 -0.001422 0.001781 0.000000 0.035173 0.000000
# 6 0.000000 0.000000 0.000000 -0.004866 0.000000 0.034812
#
#
# Mechanical properties :
#
#
# Convention : Reuss Voigt Hill
#
# Bulk Modulus (GPa) = 40.11841 44.20644 42.16242
# Shear Modulus (GPa) = 24.88351 26.77693 25.83022
#
# Velocity S-wave (km/s) = 3.82353 3.96633 3.89559
# Velocity P-wave (km/s) = 6.56221 6.85183 6.70859
#
# Compressibility (1/GPa) = 0.02492621
#
# Stress axis : x y z
#
# Youngs Moduli (GPa) = 63.77732 71.38501 42.76719
#
# Poissons Ratio (x) = 0.22899 0.33931
# Poissons Ratio (y) = 0.20459 0.12533
# Poissons Ratio (z) = 0.50600 0.20919
#
# Static dielectric constant tensor:
#      x y z
#    x 3.490710 0.000000 0.345870 
#    y 0.000000 3.222930 0.000000 
#    z 0.345870 0.000000 3.255830 
# 
# 
# High freq. dielectric constant tensor:
#      x y z
#    x 1.654060 0.000000 0.023490 
#    y 0.000000 1.668990 0.000000 
#    z 0.023490 0.000000 1.632990 
# 
# From -- ./inp_files/42562.got.cif
#   From: 2010.06.25/outbox.cif.g09.slc.cpg/sg11_22_cif.got.tgz:42562.got - 2010.06.27 23:14:04.
