data_PCOD8069167
_publ_section_title
;
Structure prediction by ZEFSAII (Michael W. Deem and Ramdas Pophale) SiO2 
 PCOD8069167
Probable space group: P 21/M
;
_chemical_formula_sum "Si O2"
_cell_formula_units_Z 32
_cell_length_a 11.249463
_cell_length_b 8.809313
_cell_length_c 23.434776
_cell_angle_alpha 90.000000
_cell_angle_beta 54.130813
_cell_angle_gamma 90.000000
_cell_volume 1881.962460
_symmetry_space_group_name_H-M "P 21/M"
_symmetry_group_IT_number 11
_symmetry_cell_setting 'monoclinic'
loop_
_space_group_symop_operation_xyz
x,y,z
-x,1/2+y,-z
-x,-y,-z
x,1/2-y,z
loop_
_atom_site_type_symbol
_atom_site_label
_atom_site_fract_x
_atom_site_fract_y
_atom_site_fract_z
Si Si1 0.539758 0.929911 0.928708
Si Si2 0.582081 0.077830 0.617233
Si Si3 0.268425 0.421875 0.678998
Si Si4 0.757293 0.078801 0.792311
Si Si5 0.042331 0.929338 0.660215
Si Si6 0.555554 0.921457 0.151604
Si Si7 0.622488 0.071548 0.246444
Si Si8 0.108601 0.570201 0.514886
O O1 0.536725 0.750000 0.932841
O O2 0.702777 0.988351 0.864380
O O3 0.420929 0.989826 0.915161
O O4 0.500000 0.000000 0.000000
O O5 0.607370 0.250000 0.632043
O O6 0.442078 0.074397 0.613105
O O7 0.726185 0.014632 0.545494
O O8 0.540028 0.973209 0.683736
O O9 0.207625 0.250000 0.697380
O O10 0.179778 0.520336 0.659086
O O11 0.254835 0.494976 0.746608
O O12 0.802221 0.250000 0.796882
O O13 0.620487 0.080420 0.786282
O O14 0.892830 0.996285 0.725783
O O15 0.031952 0.750000 0.664529
O O16 0.066732 0.990179 0.589258
O O17 0.616334 0.750000 0.129288
O O18 0.641629 0.007435 0.177437
O O19 0.644177 0.250000 0.239513
O O20 0.097206 0.750000 0.515345
O O21 0.000000 0.500000 0.500000
#
# Coordination Sequence:
#
# PCOD8069167 Si02
#       8
#     4   4   4   4   4   4   4   4
#     4  10  18  31  50  77 109 139 171 206 246 296
#     4   8  18  36  52  68  96 130 167 212 259 306
#     4   9  19  35  54  71  94 130 171 212 259 309
#     4   9  20  34  51  73 103 140 170 203 251 303
#     4  11  22  35  51  75 102 128 169 217 259 305
#     4   9  18  31  49  74 103 136 168 203 248 299
#     4  10  18  30  51  76  99 125 165 214 258 298
#     4  10  23  38  51  71  99 131 167 210 260 314
#
# _framework density 17.003527999999999
#
# number of rings (size 3 to 8) (size 9 to 14) (size 15 to 20)
#    1.500    1.000    0.000    3.000    1.750    2.000 
#    0.000    0.000    0.000    0.000    0.000    0.875 
#    0.000    0.000    0.000    0.000    0.000    0.000 
#
# Total GULP energy -396443.261643 kJ/mol
# GULP energy per Si atom -12388.851926 kJ/mol
# Density = 1.696483 g / cm^3
# Si number density = 17.003528 Si / 1000 Ang^3
#
#
#
# Elastic Constant Matrix: (Units=GPa)
#
#
# Indices 1 2 3 4 5 6 
#
# 1 63.3781 20.6810 26.6850 0.0000 25.6412 0.0000
# 2 20.6810 109.7680 37.7228 0.0000 16.5786 0.0000
# 3 26.6850 37.7228 89.8475 0.0000 32.6185 0.0000
# 4 0.0000 0.0000 0.0000 27.5240 0.0000 3.3793
# 5 25.6412 16.5786 32.6185 0.0000 21.9606 0.0000
# 6 0.0000 0.0000 0.0000 3.3793 0.0000 29.1947
#
#
#
# Elastic Compliance Matrix: (Units=1/GPa)
#
#
# Indices 1 2 3 4 5 6 
#
# 1 0.033290 -0.001763 0.009726 0.000000 -0.051985 0.000000
# 2 -0.001763 0.010834 -0.003913 0.000000 -0.000308 0.000000
# 3 0.009726 -0.003913 0.028072 0.000000 -0.050097 0.000000
# 4 0.000000 0.000000 0.000000 0.036856 0.000000 -0.004266
# 5 -0.051985 -0.000308 -0.050097 0.000000 0.180877 0.000000
# 6 0.000000 0.000000 0.000000 -0.004266 0.000000 0.034747
#
#
# Mechanical properties :
#
#
# Convention : Reuss Voigt Hill
#
# Bulk Modulus (GPa) = 12.45412 48.13013 30.29212
# Shear Modulus (GPa) = 14.56278 27.59617 21.07947
#
# Velocity S-wave (km/s) = 2.92970 4.03298 3.52477
# Velocity P-wave (km/s) = 4.33411 7.07488 5.86679
#
# Compressibility (1/GPa) = 0.08029470
#
# Stress axis : x y z
#
# Youngs Moduli (GPa) = 30.03864 92.30579 35.62278
#
# Poissons Ratio (x) = 0.16274 -0.34645
# Poissons Ratio (y) = 0.05296 0.13940
# Poissons Ratio (z) = -0.29214 0.36121
#
# Static dielectric constant tensor:
#      x y z
#    x 2.960980 0.000000 0.108970 
#    y 0.000000 3.229700 0.000000 
#    z 0.108970 0.000000 3.043590 
# 
# 
# High freq. dielectric constant tensor:
#      x y z
#    x 1.633050 0.000000 0.015050 
#    y 0.000000 1.669510 0.000000 
#    z 0.015050 0.000000 1.632900 
# 
# From -- ./inp_files/64178.got.cif
#   From: 2010.06.25/outbox.cif.g09.slc.cpg/sg11_33_cif.got.tgz:64178.got - 2010.06.27 23:14:04.
