data_PCOD8069585
_publ_section_title
;
Structure prediction by ZEFSAII (Michael W. Deem and Ramdas Pophale) SiO2 
 PCOD8069585
Probable space group: P 21/M
;
_chemical_formula_sum "Si O2"
_cell_formula_units_Z 24
_cell_length_a 19.304765
_cell_length_b 8.601806
_cell_length_c 7.665330
_cell_angle_alpha 90.000000
_cell_angle_beta 117.255461
_cell_angle_gamma 90.000000
_cell_volume 1131.550217
_symmetry_space_group_name_H-M "P 21/M"
_symmetry_group_IT_number 11
_symmetry_cell_setting 'monoclinic'
loop_
_space_group_symop_operation_xyz
x,y,z
-x,1/2+y,-z
-x,-y,-z
x,1/2-y,z
loop_
_atom_site_type_symbol
_atom_site_label
_atom_site_fract_x
_atom_site_fract_y
_atom_site_fract_z
Si Si1 0.825410 0.068075 0.160236
Si Si2 0.083417 0.433568 0.050667
Si Si3 0.504090 0.930212 0.693019
Si Si4 0.814247 0.569141 0.501284
Si Si5 0.671294 0.567757 0.843377
Si Si6 0.338473 0.932275 0.548709
O O1 0.813517 0.250000 0.124296
O O2 0.853880 0.025429 0.388045
O O3 0.889293 0.009797 0.097665
O O4 0.743495 0.980324 0.044255
O O5 0.079333 0.250000 0.021991
O O6 0.143546 0.481222 0.271731
O O7 0.000000 0.500000 0.000000
O O8 0.491644 0.750000 0.653907
O O9 0.591480 0.967558 0.864198
O O10 0.426921 0.985957 0.711458
O O11 0.500000 0.000000 0.500000
O O12 0.825174 0.750000 0.476105
O O13 0.722803 0.528650 0.408278
O O14 0.676912 0.750000 0.801574
O O15 0.673197 0.469216 0.668688
O O16 0.323246 0.750000 0.562850
#
# Coordination Sequence:
#
# PCOD8069585 Si02
#       6
#     4   4   4   4   4   4
#     4  12  25  41  65  95 128 165 209 259 310 367
#     4  11  25  46  72  98 127 161 201 249 309 376
#     4   8  16  28  48  80 117 159 207 257 305 359
#     4  11  24  42  65  93 127 167 208 253 309 370
#     4  10  18  33  56  84 122 166 210 256 310 367
#     4  10  18  32  56  87 122 162 210 259 309 364
#
# _framework density 21.20984
#
# number of rings (size 3 to 8) (size 9 to 14) (size 15 to 20)
#    0.000    1.667    1.667    3.500    0.000    4.000 
#    0.000    0.833    0.000    0.000    0.000    0.000 
#    0.000    0.000    0.000    0.000    0.000    0.000 
#
# Total GULP energy -297452.120827 kJ/mol
# GULP energy per Si atom -12393.838368 kJ/mol
# Density = 2.116157 g / cm^3
# Si number density = 21.209840 Si / 1000 Ang^3
#
#
#
# Elastic Constant Matrix: (Units=GPa)
#
#
# Indices 1 2 3 4 5 6 
#
# 1 160.6419 39.7128 46.7310 0.0000 4.6691 0.0000
# 2 39.7128 48.3944 13.1720 0.0000 3.9758 0.0000
# 3 46.7310 13.1720 27.8131 0.0000 -11.7908 0.0000
# 4 0.0000 0.0000 0.0000 26.8208 0.0000 -1.3490
# 5 4.6691 3.9758 -11.7908 0.0000 33.3596 0.0000
# 6 0.0000 0.0000 0.0000 -1.3490 0.0000 36.5180
#
#
#
# Elastic Compliance Matrix: (Units=1/GPa)
#
#
# Indices 1 2 3 4 5 6 
#
# 1 0.017018 -0.004078 -0.032307 0.000000 -0.013315 0.000000
# 2 -0.004078 0.026662 -0.008092 0.000000 -0.005467 0.000000
# 3 -0.032307 -0.008092 0.113383 0.000000 0.045561 0.000000
# 4 0.000000 0.000000 0.000000 0.037354 0.000000 0.001380
# 5 -0.013315 -0.005467 0.045561 0.000000 0.048595 0.000000
# 6 0.000000 0.000000 0.000000 0.001380 0.000000 0.027435
#
#
# Mechanical properties :
#
#
# Convention : Reuss Voigt Hill
#
# Bulk Modulus (GPa) = 14.68254 48.45345 31.56799
# Shear Modulus (GPa) = 13.08546 28.48858 20.78702
#
# Velocity S-wave (km/s) = 2.48655 3.66891 3.13400
# Velocity P-wave (km/s) = 3.89634 6.39080 5.29262
#
# Compressibility (1/GPa) = 0.06810813
#
# Stress axis : x y z
#
# Youngs Moduli (GPa) = 58.76003 37.50678 8.81969
#
# Poissons Ratio (x) = 0.15296 0.28494
# Poissons Ratio (y) = 0.23964 0.07137
# Poissons Ratio (z) = 1.89836 0.30351
#
# Static dielectric constant tensor:
#      x y z
#    x 4.217650 0.000000 0.282660 
#    y 0.000000 3.803490 0.000000 
#    z 0.282660 0.000000 3.735000 
# 
# 
# High freq. dielectric constant tensor:
#      x y z
#    x 1.846930 0.000000 0.010070 
#    y 0.000000 1.836830 0.000000 
#    z 0.010070 0.000000 1.806900 
# 
# From -- ./inp_files/25604.got.cif
#   From: 2010.06.25/outbox.cif.g09.slc.cpg/sg11_13_cif.got.tgz:25604.got - 2010.06.27 23:14:04.
