data_PCOD8069119
_publ_section_title
;
Structure prediction by ZEFSAII (Michael W. Deem and Ramdas Pophale) SiO2 
 PCOD8069119
Probable space group: P 21/M
;
_chemical_formula_sum "Si O2"
_cell_formula_units_Z 28
_cell_length_a 14.220199
_cell_length_b 9.114307
_cell_length_c 28.435547
_cell_angle_alpha 90.000000
_cell_angle_beta 152.482580
_cell_angle_gamma 90.000000
_cell_volume 1702.746784
_symmetry_space_group_name_H-M "P 21/M"
_symmetry_group_IT_number 11
_symmetry_cell_setting 'monoclinic'
loop_
_space_group_symop_operation_xyz
x,y,z
-x,1/2+y,-z
-x,-y,-z
x,1/2-y,z
loop_
_atom_site_type_symbol
_atom_site_label
_atom_site_fract_x
_atom_site_fract_y
_atom_site_fract_z
Si Si1 0.313968 0.080685 0.256179
Si Si2 0.711551 0.915518 0.413871
Si Si3 0.377565 0.083675 0.729458
Si Si4 0.176634 0.577011 0.106793
Si Si5 0.669240 0.581462 0.630944
Si Si6 0.212913 0.921883 0.405717
Si Si7 0.057169 0.918948 0.640379
O O1 0.299064 0.250000 0.234447
O O2 0.237597 0.058086 0.275802
O O3 0.548488 0.032973 0.359041
O O4 0.177137 0.984305 0.160308
O O5 0.628414 0.750000 0.386565
O O6 0.749492 0.934912 0.375162
O O7 0.919170 0.944158 0.533312
O O8 0.367133 0.250000 0.743022
O O9 0.610773 0.036696 0.823982
O O10 0.279668 0.982078 0.726282
O O11 0.139846 0.750000 0.092431
O O12 0.000000 0.500000 0.000000
O O13 0.688654 0.750000 0.623295
O O14 0.796601 0.480492 0.651943
O O15 0.430926 0.535912 0.524863
O O16 0.172223 0.750000 0.387750
O O17 0.034251 0.997774 0.355634
O O18 0.079649 0.750000 0.663999
#
# Coordination Sequence:
#
# PCOD8069119 Si02
#       7
#     4   4   4   4   4   4   4
#     4  10  18  30  50  73  98 128 162 201 244 289
#     4   9  18  30  43  64  95 130 165 200 234 278
#     4   9  19  33  47  66  94 125 160 198 238 287
#     4  10  21  37  55  76  99 124 157 200 247 293
#     4   9  18  31  45  67  95 128 168 205 241 281
#     4  10  19  30  45  65  94 133 170 205 241 278
#     4  11  20  29  44  67  96 131 167 201 238 281
#
# _framework density 16.444018
#
# number of rings (size 3 to 8) (size 9 to 14) (size 15 to 20)
#    0.000    2.286    1.429    3.000    0.000    5.143 
#    0.000    0.000    0.000    0.000    0.000    1.000 
#    0.000    0.000    0.000    0.000    0.000    0.000 
#
# Total GULP energy -347202.425714 kJ/mol
# GULP energy per Si atom -12400.086633 kJ/mol
# Density = 1.640659 g / cm^3
# Si number density = 16.444018 Si / 1000 Ang^3
#
#
#
# Elastic Constant Matrix: (Units=GPa)
#
#
# Indices 1 2 3 4 5 6 
#
# 1 112.3094 67.2247 42.1892 0.0000 -0.4206 0.0000
# 2 67.2247 104.0577 42.8075 0.0000 -1.6768 0.0000
# 3 42.1892 42.8075 64.9597 0.0000 -4.8119 0.0000
# 4 0.0000 0.0000 0.0000 23.5838 0.0000 -0.0089
# 5 -0.4206 -1.6768 -4.8119 0.0000 13.8609 0.0000
# 6 0.0000 0.0000 0.0000 -0.0089 0.0000 33.6788
#
#
#
# Elastic Compliance Matrix: (Units=1/GPa)
#
#
# Indices 1 2 3 4 5 6 
#
# 1 0.015590 -0.008059 -0.004980 0.000000 -0.002231 0.000000
# 2 -0.008059 0.017379 -0.006241 0.000000 -0.000309 0.000000
# 3 -0.004980 -0.006241 0.023273 0.000000 0.007173 0.000000
# 4 0.000000 0.000000 0.000000 0.042402 0.000000 0.000011
# 5 -0.002231 -0.000309 0.007173 0.000000 0.074531 0.000000
# 6 0.000000 0.000000 0.000000 0.000011 0.000000 0.029692
#
#
# Mechanical properties :
#
#
# Convention : Reuss Voigt Hill
#
# Bulk Modulus (GPa) = 56.55600 65.08554 60.82077
# Shear Modulus (GPa) = 20.21664 22.83171 21.52417
#
# Velocity S-wave (km/s) = 3.51012 3.73023 3.62185
# Velocity P-wave (km/s) = 7.13412 7.63013 7.38629
#
# Compressibility (1/GPa) = 0.01768159
#
# Stress axis : x y z
#
# Youngs Moduli (GPa) = 64.14283 57.54028 42.96898
#
# Poissons Ratio (x) = 0.46373 0.21397
# Poissons Ratio (y) = 0.51694 0.26818
# Poissons Ratio (z) = 0.31941 0.35913
#
# Static dielectric constant tensor:
#      x y z
#    x 3.027410 0.000000 -0.097750 
#    y 0.000000 3.179520 0.000000 
#    z -0.097750 0.000000 2.765990 
# 
# 
# High freq. dielectric constant tensor:
#      x y z
#    x 1.628500 0.000000 -0.007220 
#    y 0.000000 1.647480 0.000000 
#    z -0.007220 0.000000 1.586330 
# 
# From -- ./inp_files/51017.got.cif
#   From: 2010.06.25/outbox.cif.g09.slc.cpg/sg11_26_cif.got.tgz:51017.got - 2010.06.27 23:14:04.
