data_PCOD8069589
_publ_section_title
;
Structure prediction by ZEFSAII (Michael W. Deem and Ramdas Pophale) SiO2 
 PCOD8069589
Probable space group: P 21/M
;
_chemical_formula_sum "Si O2"
_cell_formula_units_Z 32
_cell_length_a 14.782295
_cell_length_b 13.877678
_cell_length_c 8.506261
_cell_angle_alpha 90.000000
_cell_angle_beta 122.724746
_cell_angle_gamma 90.000000
_cell_volume 1468.035590
_symmetry_space_group_name_H-M "P 21/M"
_symmetry_group_IT_number 11
_symmetry_cell_setting 'monoclinic'
loop_
_space_group_symop_operation_xyz
x,y,z
-x,1/2+y,-z
-x,-y,-z
x,1/2-y,z
loop_
_atom_site_type_symbol
_atom_site_label
_atom_site_fract_x
_atom_site_fract_y
_atom_site_fract_z
Si Si1 0.411265 0.356084 0.640164
Si Si2 0.641554 0.991268 0.145714
Si Si3 0.165905 0.145386 0.347397
Si Si4 0.644831 0.362240 0.429218
Si Si5 0.447418 0.475133 0.268811
Si Si6 0.864834 0.478916 0.206552
Si Si7 0.969979 0.640126 0.474110
Si Si8 0.774479 0.016592 0.795810
O O1 0.465832 0.250000 0.695141
O O2 0.390900 0.393223 0.797460
O O3 0.294268 0.351454 0.455899
O O4 0.485010 0.430441 0.605860
O O5 0.653161 0.083003 0.271328
O O6 0.756848 0.979613 0.176695
O O7 0.556875 0.001209 0.922631
O O8 0.120387 0.250000 0.248687
O O9 0.120989 0.122828 0.478030
O O10 0.140826 0.057518 0.206133
O O11 0.666107 0.250000 0.425422
O O12 0.521932 0.381385 0.371504
O O13 0.734544 0.401238 0.637322
O O14 0.331666 0.462321 0.236951
O O15 0.947009 0.569830 0.304017
O O16 0.913906 0.386724 0.342932
O O17 0.843710 0.443414 0.007569
O O18 0.972623 0.750000 0.417230
#
# Coordination Sequence:
#
# PCOD8069589 Si02
#       8
#     4   4   4   4   4   4   4   4
#     4  10  18  32  57  81 110 151 192 233 279 322
#     4  10  20  38  57  84 116 149 199 238 277 338
#     4  10  20  36  61  84 110 150 192 237 286 338
#     4  11  22  36  55  80 119 161 194 229 278 340
#     4  10  22  36  55  83 117 155 196 239 276 329
#     4  10  22  38  64  88 113 150 184 242 299 338
#     4  10  21  41  63  86 112 144 193 242 291 350
#     4  11  22  39  57  85 122 151 191 236 286 347
#
# _framework density 21.797836
#
# number of rings (size 3 to 8) (size 9 to 14) (size 15 to 20)
#    0.000    1.750    3.750    1.875    0.000    5.000 
#    0.000    5.000    0.000    0.000    0.000    0.000 
#    0.000    0.000    0.000    0.000    0.000    0.000 
#
# Total GULP energy -396434.637558 kJ/mol
# GULP energy per Si atom -12388.582424 kJ/mol
# Density = 2.174822 g / cm^3
# Si number density = 21.797836 Si / 1000 Ang^3
#
#
#
# Elastic Constant Matrix: (Units=GPa)
#
#
# Indices 1 2 3 4 5 6 
#
# 1 21.0787 4.2232 -0.3330 0.0000 1.7969 0.0000
# 2 4.2232 117.1363 24.5428 0.0000 3.8825 0.0000
# 3 -0.3330 24.5428 122.8551 0.0000 7.5269 0.0000
# 4 0.0000 0.0000 0.0000 11.0428 0.0000 0.6501
# 5 1.7969 3.8825 7.5269 0.0000 24.6652 0.0000
# 6 0.0000 0.0000 0.0000 0.6501 0.0000 19.2483
#
#
#
# Elastic Compliance Matrix: (Units=1/GPa)
#
#
# Indices 1 2 3 4 5 6 
#
# 1 0.048099 -0.001766 0.000694 0.000000 -0.003438 0.000000
# 2 -0.001766 0.008993 -0.001755 0.000000 -0.000751 0.000000
# 3 0.000694 -0.001755 0.008640 0.000000 -0.002411 0.000000
# 4 0.000000 0.000000 0.000000 0.090737 0.000000 -0.003065
# 5 -0.003438 -0.000751 -0.002411 0.000000 0.041647 0.000000
# 6 0.000000 0.000000 0.000000 -0.003065 0.000000 0.052056
#
#
# Mechanical properties :
#
#
# Convention : Reuss Voigt Hill
#
# Bulk Modulus (GPa) = 16.64506 35.32624 25.98565
# Shear Modulus (GPa) = 18.12558 26.50040 22.31299
#
# Velocity S-wave (km/s) = 2.88676 3.49052 3.20290
# Velocity P-wave (km/s) = 4.33172 5.69969 5.06213
#
# Compressibility (1/GPa) = 0.06007789
#
# Stress axis : x y z
#
# Youngs Moduli (GPa) = 20.79047 111.19250 115.74180
#
# Poissons Ratio (x) = 0.19632 -0.08029
# Poissons Ratio (y) = 0.03671 0.20317
# Poissons Ratio (z) = -0.01442 0.19518
#
# Static dielectric constant tensor:
#      x y z
#    x 3.919520 0.000000 -0.080000 
#    y 0.000000 3.941950 0.000000 
#    z -0.080000 0.000000 4.273140 
# 
# 
# High freq. dielectric constant tensor:
#      x y z
#    x 1.855230 0.000000 -0.002690 
#    y 0.000000 1.833890 0.000000 
#    z -0.002690 0.000000 1.860870 
# 
# From -- ./inp_files/22249.got.cif
#   From: 2010.06.25/outbox.cif.g09.slc.cpg/sg11_12_cif.got.tgz:22249.got - 2010.06.27 23:14:04.
