data_PCOD8069384
_publ_section_title
;
Structure prediction by ZEFSAII (Michael W. Deem and Ramdas Pophale) SiO2 
 PCOD8069384
Probable space group: P 21/M
;
_chemical_formula_sum "Si O2"
_cell_formula_units_Z 32
_cell_length_a 13.693583
_cell_length_b 13.911736
_cell_length_c 20.221180
_cell_angle_alpha 90.000000
_cell_angle_beta 26.214610
_cell_angle_gamma 90.000000
_cell_volume 1701.634849
_symmetry_space_group_name_H-M "P 21/M"
_symmetry_group_IT_number 11
_symmetry_cell_setting 'monoclinic'
loop_
_space_group_symop_operation_xyz
x,y,z
-x,1/2+y,-z
-x,-y,-z
x,1/2-y,z
loop_
_atom_site_type_symbol
_atom_site_label
_atom_site_fract_x
_atom_site_fract_y
_atom_site_fract_z
Si Si1 0.010194 0.054007 0.645489
Si Si2 0.296038 0.361402 0.578186
Si Si3 0.294112 0.637910 0.860313
Si Si4 0.218818 0.859138 0.752788
Si Si5 0.372654 0.580182 0.038024
Si Si6 0.039496 0.539200 0.126314
Si Si7 0.221564 0.360693 0.397011
Si Si8 0.175885 0.145086 0.272921
O O1 0.228996 0.076175 0.554532
O O2 0.044210 0.081666 0.548878
O O3 0.813625 0.119081 0.797715
O O4 0.948581 0.940316 0.690365
O O5 0.235831 0.250000 0.602807
O O6 0.559300 0.373975 0.425607
O O7 0.168839 0.399414 0.720176
O O8 0.269876 0.750000 0.891562
O O9 0.267377 0.616246 0.799439
O O10 0.532657 0.599258 0.739261
O O11 0.105343 0.582082 0.015389
O O12 0.132539 0.750000 0.798081
O O13 0.029801 0.928351 0.839678
O O14 0.247755 0.541246 0.048927
O O15 0.500000 0.500000 0.000000
O O16 0.560701 0.655299 0.902271
O O17 0.213475 0.250000 0.423620
O O18 0.147105 0.376730 0.367617
O O19 0.072688 0.250000 0.317725
#
# Coordination Sequence:
#
# PCOD8069384 Si02
#       8
#     4   4   4   4   4   4   4   4
#     4  10  19  33  54  80 107 143 180 224 271 318
#     4  10  20  35  56  83 110 139 181 227 265 317
#     4  10  19  33  55  84 108 138 184 228 270 318
#     4  10  21  37  56  81 113 143 178 223 273 329
#     4   9  20  35  51  77 106 139 181 219 266 320
#     4  11  20  34  58  83 107 142 182 225 273 318
#     4  10  18  31  53  80 106 139 184 230 270 313
#     4  10  20  34  53  79 110 143 182 225 270 322
#
# _framework density 18.805444000000001
#
# number of rings (size 3 to 8) (size 9 to 14) (size 15 to 20)
#    0.000    2.000    2.500    1.875    0.000    2.500 
#    0.000    5.625    0.000    3.750    0.000    0.000 
#    0.000    0.000    0.000    0.000    0.000    0.000 
#
# Total GULP energy -396656.193614 kJ/mol
# GULP energy per Si atom -12395.506050 kJ/mol
# Density = 1.876264 g / cm^3
# Si number density = 18.805444 Si / 1000 Ang^3
#
#
#
# Elastic Constant Matrix: (Units=GPa)
#
#
# Indices 1 2 3 4 5 6 
#
# 1 36.6569 28.5582 17.1769 0.0000 0.8500 0.0000
# 2 28.5582 97.5442 38.7321 0.0000 -3.8656 0.0000
# 3 17.1769 38.7321 94.0963 0.0000 19.8323 0.0000
# 4 0.0000 0.0000 0.0000 28.4037 0.0000 -2.1735
# 5 0.8500 -3.8656 19.8323 0.0000 27.6268 0.0000
# 6 0.0000 0.0000 0.0000 -2.1735 0.0000 23.3445
#
#
#
# Elastic Compliance Matrix: (Units=1/GPa)
#
#
# Indices 1 2 3 4 5 6 
#
# 1 0.035899 -0.009550 -0.002483 0.000000 -0.000658 0.000000
# 2 -0.009550 0.015798 -0.006230 0.000000 0.006976 0.000000
# 3 -0.002483 -0.006230 0.016275 0.000000 -0.012479 0.000000
# 4 0.000000 0.000000 0.000000 0.035459 0.000000 0.003302
# 5 -0.000658 0.006976 -0.012479 0.000000 0.046151 0.000000
# 6 0.000000 0.000000 0.000000 0.003302 0.000000 0.043144
#
#
# Mechanical properties :
#
#
# Convention : Reuss Voigt Hill
#
# Bulk Modulus (GPa) = 31.80130 44.13687 37.96908
# Shear Modulus (GPa) = 20.85629 25.46367 23.15998
#
# Velocity S-wave (km/s) = 3.33386 3.68375 3.51316
# Velocity P-wave (km/s) = 5.63621 6.45093 6.05729
#
# Compressibility (1/GPa) = 0.03144525
#
# Stress axis : x y z
#
# Youngs Moduli (GPa) = 27.85575 63.29924 61.44337
#
# Poissons Ratio (x) = 0.60452 0.15259
# Poissons Ratio (y) = 0.26603 0.38278
# Poissons Ratio (z) = 0.06918 0.39434
#
# Static dielectric constant tensor:
#      x y z
#    x 3.218490 0.000000 0.130620 
#    y 0.000000 2.251390 0.000000 
#    z 0.130620 0.000000 4.002150 
# 
# 
# High freq. dielectric constant tensor:
#      x y z
#    x 1.713030 0.000000 0.017440 
#    y 0.000000 1.717950 0.000000 
#    z 0.017440 0.000000 1.742000 
# 
# From -- ./inp_files/59445.got.cif
#   From: 2010.06.25/outbox.cif.g09.slc.cpg/sg11_30_cif.got.tgz:59445.got - 2010.06.27 23:14:04.
