data_PCOD8069026
_publ_section_title
;
Structure prediction by ZEFSAII (Michael W. Deem and Ramdas Pophale) SiO2 
 PCOD8069026
Probable space group: P 21/M
;
_chemical_formula_sum "Si O2"
_cell_formula_units_Z 28
_cell_length_a 19.150425
_cell_length_b 8.576680
_cell_length_c 14.896301
_cell_angle_alpha 90.000000
_cell_angle_beta 142.102573
_cell_angle_gamma 90.000000
_cell_volume 1502.868773
_symmetry_space_group_name_H-M "P 21/M"
_symmetry_group_IT_number 11
_symmetry_cell_setting 'monoclinic'
loop_
_space_group_symop_operation_xyz
x,y,z
-x,1/2+y,-z
-x,-y,-z
x,1/2-y,z
loop_
_atom_site_type_symbol
_atom_site_label
_atom_site_fract_x
_atom_site_fract_y
_atom_site_fract_z
Si Si1 0.895370 0.929936 0.142902
Si Si2 0.333055 0.068057 0.175073
Si Si3 0.039491 0.067133 0.446440
Si Si4 0.257142 0.932846 0.283441
Si Si5 0.214093 0.932650 0.505654
Si Si6 0.930770 0.931410 0.799046
Si Si7 0.581582 0.432054 0.395666
O O1 0.923313 0.750000 0.190097
O O2 0.944772 0.029376 0.275318
O O3 0.760260 0.959627 0.997452
O O4 0.950618 0.981598 0.103289
O O5 0.338283 0.250000 0.206062
O O6 0.453667 0.000195 0.261291
O O7 0.300769 0.972505 0.229947
O O8 0.056144 0.250000 0.471270
O O9 0.000000 0.000000 0.500000
O O10 0.163074 0.989537 0.548897
O O11 0.243175 0.750000 0.281252
O O12 0.348419 0.000201 0.448307
O O13 0.131863 0.006092 0.174855
O O14 0.188309 0.750000 0.464755
O O15 0.349032 0.966065 0.627121
O O16 0.149790 0.034809 0.366920
O O17 0.956181 0.750000 0.835572
O O18 0.569135 0.250000 0.398178
#
# Coordination Sequence:
#
# PCOD8069026 Si02
#       7
#     4   4   4   4   4   4   4
#     4  10  20  34  51  73 102 132 162 199 247 300
#     4  10  20  33  49  70  99 135 171 206 246 292
#     4  11  21  35  57  82 105 126 155 196 242 295
#     4  10  19  31  48  70  97 130 173 219 255 287
#     4   9  16  30  52  77 103 128 159 199 244 291
#     4  10  18  30  48  68  95 130 168 209 251 296
#     4   8  16  31  50  72  99 133 170 207 245 285
#
# _framework density 18.631034
#
# number of rings (size 3 to 8) (size 9 to 14) (size 15 to 20)
#    0.000    2.286    0.000    6.857    0.000    1.714 
#    0.000    3.571    0.000    0.857    0.000    0.000 
#    0.000    0.000    0.000    0.000    0.000    0.000 
#
# Total GULP energy -346994.504453 kJ/mol
# GULP energy per Si atom -12392.660873 kJ/mol
# Density = 1.858863 g / cm^3
# Si number density = 18.631034 Si / 1000 Ang^3
#
#
#
# Elastic Constant Matrix: (Units=GPa)
#
#
# Indices 1 2 3 4 5 6 
#
# 1 137.3819 20.7079 44.3838 0.0000 9.0558 0.0000
# 2 20.7079 62.1929 16.6384 0.0000 1.5322 0.0000
# 3 44.3838 16.6384 62.8067 0.0000 17.0979 0.0000
# 4 0.0000 0.0000 0.0000 15.1168 0.0000 -4.1241
# 5 9.0558 1.5322 17.0979 0.0000 24.4592 0.0000
# 6 0.0000 0.0000 0.0000 -4.1241 0.0000 28.8428
#
#
#
# Elastic Compliance Matrix: (Units=1/GPa)
#
#
# Indices 1 2 3 4 5 6 
#
# 1 0.009588 -0.001420 -0.006740 0.000000 0.001250 0.000000
# 2 -0.001420 0.017653 -0.004341 0.000000 0.002455 0.000000
# 3 -0.006740 -0.004341 0.026036 0.000000 -0.015433 0.000000
# 4 0.000000 0.000000 0.000000 0.068837 0.000000 0.009843
# 5 0.001250 0.002455 -0.015433 0.000000 0.051056 0.000000
# 6 0.000000 0.000000 0.000000 0.009843 0.000000 0.036078
#
#
# Mechanical properties :
#
#
# Convention : Reuss Voigt Hill
#
# Bulk Modulus (GPa) = 35.36728 47.31575 41.34152
# Shear Modulus (GPa) = 20.51919 25.72719 23.12319
#
# Velocity S-wave (km/s) = 3.32225 3.72005 3.52676
# Velocity P-wave (km/s) = 5.80867 6.62594 6.23072
#
# Compressibility (1/GPa) = 0.02827472
#
# Stress axis : x y z
#
# Youngs Moduli (GPa) = 104.29664 56.64841 38.40836
#
# Poissons Ratio (x) = 0.08045 0.25886
# Poissons Ratio (y) = 0.14812 0.16673
# Poissons Ratio (z) = 0.70294 0.24591
#
# Static dielectric constant tensor:
#      x y z
#    x 3.930430 0.000000 0.493840 
#    y 0.000000 3.336850 0.000000 
#    z 0.493840 0.000000 3.354100 
# 
# 
# High freq. dielectric constant tensor:
#      x y z
#    x 1.725760 0.000000 0.027160 
#    y 0.000000 1.719840 0.000000 
#    z 0.027160 0.000000 1.689390 
# 
# From -- ./inp_files/53288.got.cif
#   From: 2010.06.25/outbox.cif.g09.slc.cpg/sg11_27_cif.got.tgz:53288.got - 2010.06.27 23:14:04.
