data_PCOD8069784
_publ_section_title
;
Structure prediction by ZEFSAII (Michael W. Deem and Ramdas Pophale) SiO2 
 PCOD8069784
Probable space group: P 21/M
;
_chemical_formula_sum "Si O2"
_cell_formula_units_Z 20
_cell_length_a 9.954734
_cell_length_b 15.338269
_cell_length_c 11.379873
_cell_angle_alpha 90.000000
_cell_angle_beta 36.496541
_cell_angle_gamma 90.000000
_cell_volume 1033.464559
_symmetry_space_group_name_H-M "P 21/M"
_symmetry_group_IT_number 11
_symmetry_cell_setting 'monoclinic'
loop_
_space_group_symop_operation_xyz
x,y,z
-x,1/2+y,-z
-x,-y,-z
x,1/2-y,z
loop_
_atom_site_type_symbol
_atom_site_label
_atom_site_fract_x
_atom_site_fract_y
_atom_site_fract_z
Si Si1 0.278206 0.573094 0.342801
Si Si2 0.612321 0.846293 0.264605
Si Si3 0.466536 0.349190 0.410111
Si Si4 0.986844 0.564185 0.336519
Si Si5 0.709665 0.483906 0.087640
O O1 0.387395 0.652520 0.340202
O O2 0.085890 0.528741 0.558829
O O3 0.478559 0.502295 0.176586
O O4 0.171201 0.606579 0.295771
O O5 0.725942 0.750000 0.174485
O O6 0.532000 0.865868 0.452361
O O7 0.779517 0.924968 0.105511
O O8 0.525338 0.250000 0.336994
O O9 0.220044 0.370025 0.531246
O O10 0.660303 0.409605 0.218643
O O11 0.091985 0.548467 0.134838
#
# Coordination Sequence:
#
# PCOD8069784 Si02
#       5
#     4   4   4   4   4
#     4   8  19  34  55  78 106 138 171 218 266 314
#     4   9  19  37  54  74 111 143 172 217 265 314
#     4  10  21  36  52  79 109 138 179 221 260 311
#     4  10  18  34  58  80 102 138 178 219 262 316
#     4   9  19  34  60  74 108 140 178 212 267 311
#
# _framework density 19.352381000000001
#
# number of rings (size 3 to 8) (size 9 to 14) (size 15 to 20)
#    1.200    1.600    0.000    1.200    0.000    2.400 
#    0.000    1.000    0.000    0.000    0.000    0.000 
#    0.000    0.000    0.000    0.000    0.000    0.000 
#
# Total GULP energy -247796.007456 kJ/mol
# GULP energy per Si atom -12389.800373 kJ/mol
# Density = 1.930833 g / cm^3
# Si number density = 19.352381 Si / 1000 Ang^3
#
#
#
# Elastic Constant Matrix: (Units=GPa)
#
#
# Indices 1 2 3 4 5 6 
#
# 1 41.8121 18.3510 -3.3654 0.0000 16.8387 0.0000
# 2 18.3510 105.1282 31.2304 0.0000 19.2770 0.0000
# 3 -3.3654 31.2304 74.8312 0.0000 14.3076 0.0000
# 4 0.0000 0.0000 0.0000 2.5330 0.0000 0.7743
# 5 16.8387 19.2770 14.3076 0.0000 23.8569 0.0000
# 6 0.0000 0.0000 0.0000 0.7743 0.0000 18.1911
#
#
#
# Elastic Compliance Matrix: (Units=1/GPa)
#
#
# Indices 1 2 3 4 5 6 
#
# 1 0.038055 -0.003974 0.008914 0.000000 -0.028995 0.000000
# 2 -0.003974 0.012361 -0.004478 0.000000 -0.004497 0.000000
# 3 0.008914 -0.004478 0.018235 0.000000 -0.013610 0.000000
# 4 0.000000 0.000000 0.000000 0.399988 0.000000 -0.017026
# 5 -0.028995 -0.004497 -0.013610 0.000000 0.074178 0.000000
# 6 0.000000 0.000000 0.000000 -0.017026 0.000000 0.055697
#
#
# Mechanical properties :
#
#
# Convention : Reuss Voigt Hill
#
# Bulk Modulus (GPa) = 14.37291 34.91149 24.64220
# Shear Modulus (GPa) = 8.05436 20.61991 14.33714
#
# Velocity S-wave (km/s) = 2.04230 3.26774 2.72480
# Velocity P-wave (km/s) = 3.60616 5.68476 4.76030
#
# Compressibility (1/GPa) = 0.06957534
#
# Stress axis : x y z
#
# Youngs Moduli (GPa) = 26.27764 80.90123 54.83914
#
# Poissons Ratio (x) = 0.32152 -0.48883
# Poissons Ratio (y) = 0.10443 0.24554
# Poissons Ratio (z) = -0.23424 0.36224
#
# Static dielectric constant tensor:
#      x y z
#    x 3.549820 0.000000 0.098070 
#    y 0.000000 3.323370 0.000000 
#    z 0.098070 0.000000 3.219640 
# 
# 
# High freq. dielectric constant tensor:
#      x y z
#    x 1.757050 0.000000 0.010170 
#    y 0.000000 1.733620 0.000000 
#    z 0.010170 0.000000 1.734300 
# 
# From -- ./inp_files/4350.got.cif
#   From: 2010.06.25/outbox.cif.g09.slc.cpg/sg11_3_cif.got.tgz:4350.got - 2010.06.27 23:14:04.
