data_PCOD8069390
_publ_section_title
;
Structure prediction by ZEFSAII (Michael W. Deem and Ramdas Pophale) SiO2 
 PCOD8069390
Probable space group: P 21/M
;
_chemical_formula_sum "Si O2"
_cell_formula_units_Z 20
_cell_length_a 9.132527
_cell_length_b 8.549109
_cell_length_c 18.894470
_cell_angle_alpha 90.000000
_cell_angle_beta 43.765157
_cell_angle_gamma 90.000000
_cell_volume 1020.391658
_symmetry_space_group_name_H-M "P 21/M"
_symmetry_group_IT_number 11
_symmetry_cell_setting 'monoclinic'
loop_
_space_group_symop_operation_xyz
x,y,z
-x,1/2+y,-z
-x,-y,-z
x,1/2-y,z
loop_
_atom_site_type_symbol
_atom_site_label
_atom_site_fract_x
_atom_site_fract_y
_atom_site_fract_z
Si Si1 0.657130 0.934217 0.289437
Si Si2 0.658551 0.934997 0.502998
Si Si3 0.559706 0.934105 0.903745
Si Si4 0.974215 0.064977 0.293929
Si Si5 0.227850 0.564447 0.901104
O O1 0.677836 0.750000 0.291548
O O2 0.421018 0.991283 0.395046
O O3 0.835671 0.014658 0.275067
O O4 0.689361 0.982810 0.198020
O O5 0.648635 0.750000 0.511523
O O6 0.500000 0.000000 0.500000
O O7 0.891260 0.990476 0.397055
O O8 0.568498 0.750000 0.907098
O O9 0.385616 0.987743 0.908086
O O10 0.788498 0.998220 0.800008
O O11 0.500000 0.000000 0.000000
O O12 0.965113 0.250000 0.304553
O O13 0.220470 0.750000 0.893236
O O14 0.000000 0.500000 0.000000
#
# Coordination Sequence:
#
# PCOD8069390 Si02
#       5
#     4   4   4   4   4
#     4  11  21  35  56  84 113 147 185 226 270 322
#     4  10  18  31  53  82 112 146 183 225 269 321
#     4  10  23  39  58  81 110 143 181 225 274 327
#     4  10  19  35  57  83 112 146 183 227 274 323
#     4  11  23  40  58  82 111 144 183 227 274 327
#
# _framework density 19.600315999999999
#
# number of rings (size 3 to 8) (size 9 to 14) (size 15 to 20)
#    0.000    1.600    0.000    8.400    0.000    6.400 
#    0.000    1.000    0.000    0.000    0.000    0.000 
#    0.000    0.000    0.000    0.000    0.000    0.000 
#
# Total GULP energy -247999.199269 kJ/mol
# GULP energy per Si atom -12399.959963 kJ/mol
# Density = 1.955570 g / cm^3
# Si number density = 19.600316 Si / 1000 Ang^3
#
#
#
# Elastic Constant Matrix: (Units=GPa)
#
#
# Indices 1 2 3 4 5 6 
#
# 1 87.1593 10.3876 67.4216 0.0000 -10.7655 0.0000
# 2 10.3876 73.0456 37.5908 0.0000 -2.8396 0.0000
# 3 67.4216 37.5908 209.1515 0.0000 -9.4810 0.0000
# 4 0.0000 0.0000 0.0000 41.6129 0.0000 2.1557
# 5 -10.7655 -2.8396 -9.4810 0.0000 33.2571 0.0000
# 6 0.0000 0.0000 0.0000 2.1557 0.0000 23.4401
#
#
#
# Elastic Compliance Matrix: (Units=1/GPa)
#
#
# Indices 1 2 3 4 5 6 
#
# 1 0.015734 0.000474 -0.004989 0.000000 0.003711 0.000000
# 2 0.000474 0.015109 -0.002840 0.000000 0.000634 0.000000
# 3 -0.004989 -0.002840 0.006905 0.000000 0.000111 0.000000
# 4 0.000000 0.000000 0.000000 0.024146 0.000000 -0.002221
# 5 0.003711 0.000634 0.000111 0.000000 0.031356 0.000000
# 6 0.000000 0.000000 0.000000 -0.002221 0.000000 0.042866
#
#
# Mechanical properties :
#
#
# Convention : Reuss Voigt Hill
#
# Bulk Modulus (GPa) = 43.40468 66.68405 55.04436
# Shear Modulus (GPa) = 31.54479 36.59244 34.06861
#
# Velocity S-wave (km/s) = 4.01609 4.32549 4.17366
# Velocity P-wave (km/s) = 6.61046 7.68389 7.16730
#
# Compressibility (1/GPa) = 0.02303899
#
# Stress axis : x y z
#
# Youngs Moduli (GPa) = 63.55486 66.18745 144.82485
#
# Poissons Ratio (x) = -0.03139 0.72255
# Poissons Ratio (y) = -0.03014 0.41124
# Poissons Ratio (z) = 0.31708 0.18795
#
# Static dielectric constant tensor:
#      x y z
#    x 3.457950 0.000000 -0.169390 
#    y 0.000000 3.664620 0.000000 
#    z -0.169390 0.000000 4.275970 
# 
# 
# High freq. dielectric constant tensor:
#      x y z
#    x 1.733350 0.000000 -0.005340 
#    y 0.000000 1.776130 0.000000 
#    z -0.005340 0.000000 1.794150 
# 
# From -- ./inp_files/25487.got.cif
#   From: 2010.06.25/outbox.cif.g09.slc.cpg/sg11_13_cif.got.tgz:25487.got - 2010.06.27 23:14:04.
