data_PCOD8069674
_publ_section_title
;
Structure prediction by ZEFSAII (Michael W. Deem and Ramdas Pophale) SiO2 
 PCOD8069674
Probable space group: P 21/M
;
_chemical_formula_sum "Si O2"
_cell_formula_units_Z 28
_cell_length_a 17.925177
_cell_length_b 13.639738
_cell_length_c 14.983805
_cell_angle_alpha 90.000000
_cell_angle_beta 23.695065
_cell_angle_gamma 90.000000
_cell_volume 1472.231140
_symmetry_space_group_name_H-M "P 21/M"
_symmetry_group_IT_number 11
_symmetry_cell_setting 'monoclinic'
loop_
_space_group_symop_operation_xyz
x,y,z
-x,1/2+y,-z
-x,-y,-z
x,1/2-y,z
loop_
_atom_site_type_symbol
_atom_site_label
_atom_site_fract_x
_atom_site_fract_y
_atom_site_fract_z
Si Si1 0.593458 0.451220 0.025377
Si Si2 0.981610 0.636329 0.218794
Si Si3 0.519794 0.861730 0.476641
Si Si4 0.026574 0.638366 0.372607
Si Si5 0.816015 0.484315 0.143563
Si Si6 0.433175 0.360494 0.368952
Si Si7 0.367907 0.360579 0.118401
O O1 0.808178 0.427886 0.770674
O O2 0.558551 0.564942 0.037890
O O3 0.545675 0.433942 0.181408
O O4 0.465593 0.381063 0.105751
O O5 0.038455 0.750000 0.142919
O O6 0.783376 0.613770 0.392301
O O7 0.972660 0.606307 0.331732
O O8 0.131265 0.568290 0.006460
O O9 0.526737 0.750000 0.435724
O O10 0.712844 0.912733 0.234740
O O11 0.493274 0.870824 0.611988
O O12 0.337552 0.916604 0.635993
O O13 0.096118 0.750000 0.295520
O O14 0.851650 0.625288 0.628635
O O15 0.000000 0.500000 0.000000
O O16 0.464257 0.250000 0.298930
O O17 0.414554 0.250000 0.036627
#
# Coordination Sequence:
#
# PCOD8069674 Si02
#       7
#     4   4   4   4   4   4   4
#     4  11  20  32  55  79 105 141 176 221 267 316
#     4  10  19  33  56  83 110 137 172 226 276 315
#     4  10  22  37  56  82 110 143 182 225 274 326
#     4  10  19  33  55  81 105 132 173 222 270 315
#     4  11  21  34  55  84 112 141 175 220 274 331
#     4  10  18  33  56  81 107 136 177 225 272 317
#     4  10  21  35  50  77 110 139 176 219 266 321
#
# _framework density 19.018751999999999
#
# number of rings (size 3 to 8) (size 9 to 14) (size 15 to 20)
#    0.000    1.714    2.857    3.000    0.000    2.857 
#    0.000    0.000    0.000    9.429    0.000    0.000 
#    0.000    0.000    0.000    0.000    0.000    0.000 
#
# Total GULP energy -347201.279035 kJ/mol
# GULP energy per Si atom -12400.045680 kJ/mol
# Density = 1.897546 g / cm^3
# Si number density = 19.018752 Si / 1000 Ang^3
#
#
#
# Elastic Constant Matrix: (Units=GPa)
#
#
# Indices 1 2 3 4 5 6 
#
# 1 33.3764 21.1489 17.3310 0.0000 -7.3744 0.0000
# 2 21.1489 117.6229 45.8645 0.0000 -1.8076 0.0000
# 3 17.3310 45.8645 87.7208 0.0000 -13.7823 0.0000
# 4 0.0000 0.0000 0.0000 34.1257 0.0000 2.8839
# 5 -7.3744 -1.8076 -13.7823 0.0000 37.8755 0.0000
# 6 0.0000 0.0000 0.0000 2.8839 0.0000 21.8550
#
#
#
# Elastic Compliance Matrix: (Units=1/GPa)
#
#
# Indices 1 2 3 4 5 6 
#
# 1 0.036253 -0.004995 -0.003690 0.000000 0.005477 0.000000
# 2 -0.004995 0.011461 -0.005380 0.000000 -0.002383 0.000000
# 3 -0.003690 -0.005380 0.015685 0.000000 0.004732 0.000000
# 4 0.000000 0.000000 0.000000 0.029634 0.000000 -0.003910
# 5 0.005477 -0.002383 0.004732 0.000000 0.029077 0.000000
# 6 0.000000 0.000000 0.000000 -0.003910 0.000000 0.046272
#
#
# Mechanical properties :
#
#
# Convention : Reuss Voigt Hill
#
# Bulk Modulus (GPa) = 28.35390 45.26766 36.81078
# Shear Modulus (GPa) = 24.00739 29.06294 26.53517
#
# Velocity S-wave (km/s) = 3.55674 3.91336 3.73930
# Velocity P-wave (km/s) = 5.63986 6.65375 6.16767
#
# Compressibility (1/GPa) = 0.03526852
#
# Stress axis : x y z
#
# Youngs Moduli (GPa) = 27.58397 87.25191 63.75414
#
# Poissons Ratio (x) = 0.43585 0.23526
# Poissons Ratio (y) = 0.13779 0.34299
# Poissons Ratio (z) = 0.10179 0.46941
#
# Static dielectric constant tensor:
#      x y z
#    x 3.254600 0.000000 -0.231510 
#    y 0.000000 3.503550 0.000000 
#    z -0.231510 0.000000 3.522970 
# 
# 
# High freq. dielectric constant tensor:
#      x y z
#    x 1.718180 0.000000 -0.024110 
#    y 0.000000 1.730590 0.000000 
#    z -0.024110 0.000000 1.747920 
# 
# From -- ./inp_files/52433.got.cif
#   From: 2010.06.25/outbox.cif.g09.slc.cpg/sg11_27_cif.got.tgz:52433.got - 2010.06.27 23:14:04.
