data_PCOD8069843
_publ_section_title
;
Structure prediction by ZEFSAII (Michael W. Deem and Ramdas Pophale) SiO2 
 PCOD8069843
Probable space group: P 21/M
;
_chemical_formula_sum "Si O2"
_cell_formula_units_Z 32
_cell_length_a 19.957723
_cell_length_b 8.823986
_cell_length_c 19.747050
_cell_angle_alpha 90.000000
_cell_angle_beta 30.301317
_cell_angle_gamma 90.000000
_cell_volume 1754.607815
_symmetry_space_group_name_H-M "P 21/M"
_symmetry_group_IT_number 11
_symmetry_cell_setting 'monoclinic'
loop_
_space_group_symop_operation_xyz
x,y,z
-x,1/2+y,-z
-x,-y,-z
x,1/2-y,z
loop_
_atom_site_type_symbol
_atom_site_label
_atom_site_fract_x
_atom_site_fract_y
_atom_site_fract_z
Si Si1 0.337423 0.423069 0.090428
Si Si2 0.620965 0.070610 0.661038
Si Si3 0.599390 0.925170 0.817074
Si Si4 0.854589 0.574392 0.857857
Si Si5 0.657971 0.428557 0.134693
Si Si6 0.855429 0.070540 0.362451
Si Si7 0.188575 0.425765 0.883545
Si Si8 0.888755 0.426499 0.182077
O O1 0.388669 0.250000 0.037846
O O2 0.316696 0.460787 0.187932
O O3 0.198839 0.446461 0.172150
O O4 0.445834 0.532814 0.962924
O O5 0.610064 0.250000 0.666067
O O6 0.734449 0.005080 0.512127
O O7 0.660144 0.023053 0.703112
O O8 0.482121 0.000233 0.761301
O O9 0.606352 0.750000 0.790613
O O10 0.847728 0.750000 0.887017
O O11 0.004785 0.511975 0.729014
O O12 0.766784 0.478948 0.985756
O O13 0.643518 0.250000 0.146257
O O14 0.700698 0.482392 0.171989
O O15 0.854714 0.250000 0.366791
O O16 0.839142 0.018312 0.298846
O O17 0.224408 0.250000 0.855950
O O18 0.192622 0.478631 0.802151
O O19 0.045249 0.461083 0.040878
O O20 0.861159 0.250000 0.193410
#
# Coordination Sequence:
#
# PCOD8069843 Si02
#       8
#     4   4   4   4   4   4   4   4
#     4   9  18  31  54  81 108 142 180 225 275 324
#     4  11  22  37  56  78 108 150 188 221 271 330
#     4  10  19  32  50  79 113 143 180 227 274 320
#     4  10  18  35  59  83 107 138 183 230 273 323
#     4  12  23  35  54  83 112 141 181 231 274 318
#     4   9  19  36  58  81 108 144 185 225 269 326
#     4  10  19  33  56  83 111 142 178 223 272 326
#     4   9  17  33  55  82 112 140 176 225 273 320
#
# _framework density 18.237693
#
# number of rings (size 3 to 8) (size 9 to 14) (size 15 to 20)
#    0.000    2.000    2.500    2.250    0.000    1.000 
#    0.000    3.750    0.000    0.000    0.000    0.000 
#    0.000    0.000    0.000    0.000    0.000    0.000 
#
# Total GULP energy -396835.009291 kJ/mol
# GULP energy per Si atom -12401.094040 kJ/mol
# Density = 1.819618 g / cm^3
# Si number density = 18.237693 Si / 1000 Ang^3
#
#
#
# Elastic Constant Matrix: (Units=GPa)
#
#
# Indices 1 2 3 4 5 6 
#
# 1 132.0680 40.8165 62.6690 0.0000 14.3325 0.0000
# 2 40.8165 72.5496 34.9659 0.0000 4.0560 0.0000
# 3 62.6690 34.9659 105.9385 0.0000 14.3688 0.0000
# 4 0.0000 0.0000 0.0000 8.2957 0.0000 7.6775
# 5 14.3325 4.0560 14.3688 0.0000 24.4054 0.0000
# 6 0.0000 0.0000 0.0000 7.6775 0.0000 29.2547
#
#
#
# Elastic Compliance Matrix: (Units=1/GPa)
#
#
# Indices 1 2 3 4 5 6 
#
# 1 0.011532 -0.003840 -0.005132 0.000000 -0.003112 0.000000
# 2 -0.003840 0.017676 -0.003771 0.000000 0.001538 0.000000
# 3 -0.005132 -0.003771 0.014374 0.000000 -0.004822 0.000000
# 4 0.000000 0.000000 0.000000 0.159216 0.000000 -0.041784
# 5 -0.003112 0.001538 -0.004822 0.000000 0.045386 0.000000
# 6 0.000000 0.000000 0.000000 -0.041784 0.000000 0.045148
#
#
# Mechanical properties :
#
#
# Convention : Reuss Voigt Hill
#
# Bulk Modulus (GPa) = 55.26372 65.27320 60.26846
# Shear Modulus (GPa) = 15.39175 23.86482 19.62829
#
# Velocity S-wave (km/s) = 2.90824 3.62130 3.28418
# Velocity P-wave (km/s) = 6.45328 7.30432 6.89195
#
# Compressibility (1/GPa) = 0.01809506
#
# Stress axis : x y z
#
# Youngs Moduli (GPa) = 86.71692 56.57505 69.57024
#
# Poissons Ratio (x) = 0.21727 0.35704
# Poissons Ratio (y) = 0.33302 0.26233
# Poissons Ratio (z) = 0.44503 0.21333
#
# Static dielectric constant tensor:
#      x y z
#    x 3.677280 0.000000 0.088100 
#    y 0.000000 3.290160 0.000000 
#    z 0.088100 0.000000 3.303160 
# 
# 
# High freq. dielectric constant tensor:
#      x y z
#    x 1.726010 0.000000 0.007610 
#    y 0.000000 1.698930 0.000000 
#    z 0.007610 0.000000 1.674190 
# 
# From -- ./inp_files/66452.got.cif
#   From: 2010.06.25/outbox.cif.g09.slc.cpg/sg11_34_cif.got.tgz:66452.got - 2010.06.27 23:14:04.
