data_PCOD8069331
_publ_section_title
;
Structure prediction by ZEFSAII (Michael W. Deem and Ramdas Pophale) SiO2 
 PCOD8069331
Probable space group: P 21/M
;
_chemical_formula_sum "Si O2"
_cell_formula_units_Z 32
_cell_length_a 24.223797
_cell_length_b 8.943807
_cell_length_c 10.149210
_cell_angle_alpha 90.000000
_cell_angle_beta 126.937314
_cell_angle_gamma 90.000000
_cell_volume 1757.531581
_symmetry_space_group_name_H-M "P 21/M"
_symmetry_group_IT_number 11
_symmetry_cell_setting 'monoclinic'
loop_
_space_group_symop_operation_xyz
x,y,z
-x,1/2+y,-z
-x,-y,-z
x,1/2-y,z
loop_
_atom_site_type_symbol
_atom_site_label
_atom_site_fract_x
_atom_site_fract_y
_atom_site_fract_z
Si Si1 0.350678 0.926321 0.551609
Si Si2 0.146951 0.927688 0.570320
Si Si3 0.507801 0.077669 0.372201
Si Si4 0.713908 0.927047 0.293506
Si Si5 0.725616 0.073893 0.817432
Si Si6 0.641885 0.577368 0.922520
Si Si7 0.988957 0.926534 0.624714
Si Si8 0.138576 0.925241 0.857824
O O1 0.349284 0.750000 0.581053
O O2 0.425922 0.981870 0.612210
O O3 0.294402 0.970099 0.359587
O O4 0.334095 0.020119 0.656885
O O5 0.145711 0.750000 0.555625
O O6 0.149381 0.987331 0.724773
O O7 0.212181 0.992954 0.586519
O O8 0.077094 0.994495 0.402069
O O9 0.519554 0.250000 0.421481
O O10 0.440310 0.050288 0.185482
O O11 0.500000 0.000000 0.500000
O O12 0.723566 0.750000 0.311976
O O13 0.677133 0.981077 0.106574
O O14 0.723688 0.250000 0.831913
O O15 0.669630 0.010981 0.837332
O O16 0.802233 0.008633 0.961094
O O17 0.659405 0.750000 0.925131
O O18 0.975976 0.750000 0.592671
O O19 0.061686 0.960217 0.805122
O O20 0.000000 0.000000 0.500000
O O21 0.148582 0.750000 0.860326
#
# Coordination Sequence:
#
# PCOD8069331 Si02
#       8
#     4   4   4   4   4   4   4   4
#     4  10  22  37  55  79 107 142 181 221 265 320
#     4  10  18  31  52  76 105 141 179 222 270 320
#     4  10  20  36  57  81 109 138 176 221 269 320
#     4  11  23  37  53  77 110 146 180 221 272 322
#     4  10  18  33  56  81 106 139 181 219 263 319
#     4  10  21  35  54  81 109 138 176 224 270 316
#     4   9  16  27  44  73 110 143 175 216 268 319
#     4   8  15  27  48  77 106 135 171 217 262 311
#
# _framework density 18.207355
#
# number of rings (size 3 to 8) (size 9 to 14) (size 15 to 20)
#    0.000    2.250    2.500    1.875    0.000    2.000 
#    0.000    0.625    0.000    0.750    0.000    0.000 
#    0.000    0.000    0.000    0.000    0.000    0.000 
#
# Total GULP energy -396671.061182 kJ/mol
# GULP energy per Si atom -12395.970662 kJ/mol
# Density = 1.816591 g / cm^3
# Si number density = 18.207355 Si / 1000 Ang^3
#
#
#
# Elastic Constant Matrix: (Units=GPa)
#
#
# Indices 1 2 3 4 5 6 
#
# 1 96.3042 34.0457 34.7065 0.0000 17.2042 0.0000
# 2 34.0457 57.6268 25.0081 0.0000 5.0769 0.0000
# 3 34.7065 25.0081 71.5494 0.0000 18.9780 0.0000
# 4 0.0000 0.0000 0.0000 19.7719 0.0000 2.1426
# 5 17.2042 5.0769 18.9780 0.0000 35.4721 0.0000
# 6 0.0000 0.0000 0.0000 2.1426 0.0000 31.2877
#
#
#
# Elastic Compliance Matrix: (Units=1/GPa)
#
#
# Indices 1 2 3 4 5 6 
#
# 1 0.014891 -0.006811 -0.003712 0.000000 -0.004261 0.000000
# 2 -0.006811 0.023604 -0.005741 0.000000 0.002997 0.000000
# 3 -0.003712 -0.005741 0.019914 0.000000 -0.008032 0.000000
# 4 0.000000 0.000000 0.000000 0.050955 0.000000 -0.003489
# 5 -0.004261 0.002997 -0.008032 0.000000 0.034126 0.000000
# 6 0.000000 0.000000 0.000000 -0.003489 0.000000 0.032200
#
#
# Mechanical properties :
#
#
# Convention : Reuss Voigt Hill
#
# Bulk Modulus (GPa) = 38.63928 45.88899 42.26413
# Shear Modulus (GPa) = 23.05775 26.08767 24.57271
#
# Velocity S-wave (km/s) = 3.56251 3.78935 3.67768
# Velocity P-wave (km/s) = 6.17979 6.66362 6.42626
#
# Compressibility (1/GPa) = 0.02588040
#
# Stress axis : x y z
#
# Youngs Moduli (GPa) = 67.15633 42.36486 50.21530
#
# Poissons Ratio (x) = 0.28854 0.18641
# Poissons Ratio (y) = 0.45740 0.28830
# Poissons Ratio (z) = 0.24930 0.24323
#
# Static dielectric constant tensor:
#      x y z
#    x 3.391380 0.000000 0.522230 
#    y 0.000000 3.277230 0.000000 
#    z 0.522230 0.000000 3.845780 
# 
# 
# High freq. dielectric constant tensor:
#      x y z
#    x 1.692560 0.000000 0.032580 
#    y 0.000000 1.696230 0.000000 
#    z 0.032580 0.000000 1.703220 
# 
# From -- ./inp_files/43816.got.cif
#   From: 2010.06.25/outbox.cif.g09.slc.cpg/sg11_22_cif.got.tgz:43816.got - 2010.06.27 23:14:04.
