data_PCOD8069451
_publ_section_title
;
Structure prediction by ZEFSAII (Michael W. Deem and Ramdas Pophale) SiO2 
 PCOD8069451
Probable space group: P 21/M
;
_chemical_formula_sum "Si O2"
_cell_formula_units_Z 28
_cell_length_a 12.057906
_cell_length_b 18.314755
_cell_length_c 7.133942
_cell_angle_alpha 90.000000
_cell_angle_beta 66.433151
_cell_angle_gamma 90.000000
_cell_volume 1444.041564
_symmetry_space_group_name_H-M "P 21/M"
_symmetry_group_IT_number 11
_symmetry_cell_setting 'monoclinic'
loop_
_space_group_symop_operation_xyz
x,y,z
-x,1/2+y,-z
-x,-y,-z
x,1/2-y,z
loop_
_atom_site_type_symbol
_atom_site_label
_atom_site_fract_x
_atom_site_fract_y
_atom_site_fract_z
Si Si1 0.614041 0.071341 0.573620
Si Si2 0.890907 0.911530 0.163815
Si Si3 0.650207 0.956820 0.233764
Si Si4 0.176918 0.831430 0.625128
Si Si5 0.115308 0.831890 0.101992
Si Si6 0.226779 0.530005 0.203623
Si Si7 0.002732 0.951242 0.715957
O O1 0.619175 0.027413 0.377405
O O2 0.682565 0.148581 0.503317
O O3 0.679776 0.024574 0.690564
O O4 0.474375 0.086274 0.724557
O O5 0.972108 0.852482 0.220973
O O6 0.744844 0.901297 0.274105
O O7 0.925268 0.907572 0.922186
O O8 0.913936 0.992030 0.229606
O O9 0.713710 0.985136 0.003754
O O10 0.151405 0.750000 0.567514
O O11 0.093129 0.889962 0.563259
O O12 0.149860 0.838501 0.861926
O O13 0.135740 0.750000 0.164306
O O14 0.201169 0.886505 0.158891
O O15 0.096985 0.491193 0.353680
#
# Coordination Sequence:
#
# PCOD8069451 Si02
#       7
#     4   4   4   4   4   4   4
#     4  11  21  31  52  77 101 137 171 206 256 298
#     4   8  13  28  51  70  99 129 164 208 247 294
#     4  10  19  35  50  73 104 131 169 215 247 299
#     4  10  18  32  50  75 106 134 166 207 261 311
#     4   9  17  31  53  76 102 136 165 208 268 307
#     4  10  19  33  54  76 104 129 173 218 252 297
#     4   8  14  28  49  74  98 127 162 209 256 294
#
# _framework density 19.390025000000001
#
# number of rings (size 3 to 8) (size 9 to 14) (size 15 to 20)
#    0.000    2.571    2.857    2.143    0.000    1.143 
#    0.000    0.714    0.000    0.857    0.000    5.000 
#    0.000    0.000    0.000    0.000    0.000    0.000 
#
# Total GULP energy -346975.533754 kJ/mol
# GULP energy per Si atom -12391.983348 kJ/mol
# Density = 1.934589 g / cm^3
# Si number density = 19.390025 Si / 1000 Ang^3
#
#
#
# Elastic Constant Matrix: (Units=GPa)
#
#
# Indices 1 2 3 4 5 6 
#
# 1 128.7972 33.0770 37.1443 0.0000 -32.3871 0.0000
# 2 33.0770 102.7960 20.3564 0.0000 -18.5743 0.0000
# 3 37.1443 20.3564 42.4397 0.0000 -21.1609 0.0000
# 4 0.0000 0.0000 0.0000 8.7798 0.0000 -9.9740
# 5 -32.3871 -18.5743 -21.1609 0.0000 38.6789 0.0000
# 6 0.0000 0.0000 0.0000 -9.9740 0.0000 18.0975
#
#
#
# Elastic Compliance Matrix: (Units=1/GPa)
#
#
# Indices 1 2 3 4 5 6 
#
# 1 0.011352 -0.001393 -0.006685 0.000000 0.005179 0.000000
# 2 -0.001393 0.011220 -0.002829 0.000000 0.002674 0.000000
# 3 -0.006685 -0.002829 0.037544 0.000000 0.013584 0.000000
# 4 0.000000 0.000000 0.000000 0.304619 0.000000 0.167884
# 5 0.005179 0.002674 0.013584 0.000000 0.038906 0.000000
# 6 0.000000 0.000000 0.000000 0.167884 0.000000 0.147782
#
#
# Mechanical properties :
#
#
# Convention : Reuss Voigt Hill
#
# Bulk Modulus (GPa) = 26.10914 50.57648 38.34281
# Shear Modulus (GPa) = 8.53236 25.34158 16.93697
#
# Velocity S-wave (km/s) = 2.09999 3.61908 2.95869
# Velocity P-wave (km/s) = 4.40163 6.60334 5.61153
#
# Compressibility (1/GPa) = 0.03830077
#
# Stress axis : x y z
#
# Youngs Moduli (GPa) = 88.08844 89.12961 26.63558
#
# Poissons Ratio (x) = 0.12417 0.17806
# Poissons Ratio (y) = 0.12272 0.07536
# Poissons Ratio (z) = 0.58888 0.25216
#
# Static dielectric constant tensor:
#      x y z
#    x 3.770280 0.000000 -0.242010 
#    y 0.000000 3.392590 0.000000 
#    z -0.242010 0.000000 3.685850 
# 
# 
# High freq. dielectric constant tensor:
#      x y z
#    x 1.753920 0.000000 0.000010 
#    y 0.000000 1.713110 0.000000 
#    z 0.000010 0.000000 1.764710 
# 
# From -- ./inp_files/18918.got.cif
#   From: 2010.06.25/outbox.cif.g09.slc.cpg/sg11_10_cif.got.tgz:18918.got - 2010.06.27 23:14:04.
