data_PCOD8069607
_publ_section_title
;
Structure prediction by ZEFSAII (Michael W. Deem and Ramdas Pophale) SiO2 
 PCOD8069607
Probable space group: P 21/M
;
_chemical_formula_sum "Si O2"
_cell_formula_units_Z 28
_cell_length_a 8.912834
_cell_length_b 27.744917
_cell_length_c 5.313138
_cell_angle_alpha 90.000000
_cell_angle_beta 98.268471
_cell_angle_gamma 90.000000
_cell_volume 1300.206277
_symmetry_space_group_name_H-M "P 21/M"
_symmetry_group_IT_number 11
_symmetry_cell_setting 'monoclinic'
loop_
_space_group_symop_operation_xyz
x,y,z
-x,1/2+y,-z
-x,-y,-z
x,1/2-y,z
loop_
_atom_site_type_symbol
_atom_site_label
_atom_site_fract_x
_atom_site_fract_y
_atom_site_fract_z
Si Si1 0.262025 0.928286 0.653345
Si Si2 0.188473 0.148354 0.454487
Si Si3 0.112821 0.851949 0.911899
Si Si4 0.938759 0.250000 0.034893
Si Si5 0.997158 0.577465 0.259410
Si Si6 0.282922 0.477907 0.927475
Si Si7 0.132089 0.250000 0.580551
Si Si8 0.412769 0.431566 0.450854
O O1 0.109672 0.949247 0.481981
O O2 0.406511 0.925739 0.505383
O O3 0.289826 0.964402 0.894464
O O4 0.225370 0.872938 0.726477
O O5 0.337833 0.121133 0.388118
O O6 0.118796 0.115813 0.654903
O O7 0.232661 0.201450 0.571509
O O8 0.063760 0.153748 0.207020
O O9 0.164609 0.798552 0.015884
O O10 0.116899 0.892909 0.122840
O O11 0.062820 0.250000 0.843554
O O12 0.002979 0.250000 0.335248
O O13 0.892984 0.538747 0.089242
O O14 0.363165 0.454353 0.703051
O O15 0.367141 0.466185 0.207669
#
# Coordination Sequence:
#
# PCOD8069607 Si02
#       8
#     4   4   4   2   4   4   2   4
#     4  11  25  37  59  92 122 166 197 253 305 359
#     4   9  19  37  57  89 113 155 200 248 295 355
#     4  10  20  37  61  86 121 150 200 247 305 354
#     4  10  20  36  61  91 114 152 194 246 300 366
#     4  10  20  37  60  88 120 156 202 253 294 352
#     4  11  24  42  61  84 124 167 211 244 292 359
#     4  10  18  32  63  87 112 146 200 248 294 350
#     4  11  24  41  60  86 124 164 205 247 298 361
#
# _framework density 21.535043000000002
#
# number of rings (size 3 to 8) (size 9 to 14) (size 15 to 20)
#    0.000    1.714    2.857    1.286    4.000    0.571 
#    0.000    0.714    0.000    0.000    0.000    0.000 
#    0.000    0.000    0.000    0.000    0.000    0.000 
#
# Total GULP energy -346974.736362 kJ/mol
# GULP energy per Si atom -12391.954870 kJ/mol
# Density = 2.148603 g / cm^3
# Si number density = 21.535043 Si / 1000 Ang^3
#
#
#
# Elastic Constant Matrix: (Units=GPa)
#
#
# Indices 1 2 3 4 5 6 
#
# 1 87.9537 41.2034 6.7865 0.0000 -12.2006 0.0000
# 2 41.2034 108.6555 -9.8190 0.0000 -17.4589 0.0000
# 3 6.7865 -9.8190 56.0663 0.0000 -11.7735 0.0000
# 4 0.0000 0.0000 0.0000 25.5457 0.0000 -5.4847
# 5 -12.2006 -17.4589 -11.7735 0.0000 13.7549 0.0000
# 6 0.0000 0.0000 0.0000 -5.4847 0.0000 16.9259
#
#
#
# Elastic Compliance Matrix: (Units=1/GPa)
#
#
# Indices 1 2 3 4 5 6 
#
# 1 0.014465 -0.004695 -0.001378 0.000000 0.005691 0.000000
# 2 -0.004695 0.015193 0.007807 0.000000 0.021801 0.000000
# 3 -0.001378 0.007807 0.025839 0.000000 0.030804 0.000000
# 4 0.000000 0.000000 0.000000 0.042073 0.000000 0.013633
# 5 0.005691 0.021801 0.030804 0.000000 0.131788 0.000000
# 6 0.000000 0.000000 0.000000 0.013633 0.000000 0.063499
#
#
# Mechanical properties :
#
#
# Convention : Reuss Voigt Hill
#
# Bulk Modulus (GPa) = 16.95959 36.55745 26.75852
# Shear Modulus (GPa) = 16.17898 25.54562 20.86230
#
# Velocity S-wave (km/s) = 2.74393 3.44791 3.11587
# Velocity P-wave (km/s) = 4.23454 5.73267 5.03958
#
# Compressibility (1/GPa) = 0.05896370
#
# Stress axis : x y z
#
# Youngs Moduli (GPa) = 69.13221 65.82171 38.70156
#
# Poissons Ratio (x) = 0.30906 0.05334
# Poissons Ratio (y) = 0.32460 -0.30215
# Poissons Ratio (z) = 0.09527 -0.51388
#
# Static dielectric constant tensor:
#      x y z
#    x 3.736010 0.000000 -0.119140 
#    y 0.000000 4.386310 0.000000 
#    z -0.119140 0.000000 3.842870 
# 
# 
# High freq. dielectric constant tensor:
#      x y z
#    x 1.808560 0.000000 -0.007500 
#    y 0.000000 1.853320 0.000000 
#    z -0.007500 0.000000 1.847840 
# 
# From -- ./inp_files/3005.got.cif
#   From: 2010.06.25/outbox.cif.g09.slc.cpg/sg11_2_cif.got.tgz:3005.got - 2010.06.27 23:14:04.
