data_PCOD8069328
_publ_section_title
;
Structure prediction by ZEFSAII (Michael W. Deem and Ramdas Pophale) SiO2 
 PCOD8069328
Probable space group: P 21/M
;
_chemical_formula_sum "Si O2"
_cell_formula_units_Z 32
_cell_length_a 22.911802
_cell_length_b 8.825114
_cell_length_c 16.755634
_cell_angle_alpha 90.000000
_cell_angle_beta 31.872528
_cell_angle_gamma 90.000000
_cell_volume 1788.957533
_symmetry_space_group_name_H-M "P 21/M"
_symmetry_group_IT_number 11
_symmetry_cell_setting 'monoclinic'
loop_
_space_group_symop_operation_xyz
x,y,z
-x,1/2+y,-z
-x,-y,-z
x,1/2-y,z
loop_
_atom_site_type_symbol
_atom_site_label
_atom_site_fract_x
_atom_site_fract_y
_atom_site_fract_z
Si Si1 0.178360 0.419798 0.311401
Si Si2 0.172457 0.927734 0.150430
Si Si3 0.621488 0.931370 0.363161
Si Si4 0.365979 0.568478 0.812351
Si Si5 0.394656 0.079604 0.157067
Si Si6 0.730912 0.073755 0.556420
Si Si7 0.931238 0.928795 0.400454
Si Si8 0.393641 0.928384 0.460160
O O1 0.141874 0.250000 0.331174
O O2 0.166591 0.521819 0.248017
O O3 0.304529 0.424069 0.192415
O O4 0.102299 0.484206 0.471460
O O5 0.180931 0.750000 0.141842
O O6 0.058687 0.974933 0.237410
O O7 0.279513 0.990685 0.979629
O O8 0.622396 0.750000 0.361365
O O9 0.500000 0.000000 0.500000
O O10 0.682118 0.998844 0.214766
O O11 0.669564 0.995584 0.390677
O O12 0.372044 0.750000 0.799172
O O13 0.486533 0.503695 0.694183
O O14 0.424805 0.250000 0.146666
O O15 0.354962 0.996966 0.282443
O O16 0.500000 0.000000 0.000000
O O17 0.736783 0.250000 0.566913
O O18 0.687224 0.037717 0.519098
O O19 0.854120 0.006408 0.423491
O O20 0.909425 0.750000 0.420278
O O21 0.411667 0.750000 0.453518
#
# Coordination Sequence:
#
# PCOD8069328 Si02
#       8
#     4   4   4   4   4   4   4   4
#     4   9  19  33  50  72  98 133 174 215 258 301
#     4  10  21  34  52  77 103 134 173 216 258 305
#     4  10  18  31  52  76 103 135 167 202 250 307
#     4  10  20  33  50  77 108 136 167 205 256 309
#     4  10  21  35  50  71 103 140 173 211 259 304
#     4  10  21  35  53  77 101 133 175 214 255 304
#     4   9  19  37  54  72 101 136 175 218 261 301
#     4  10  20  34  53  77 106 135 167 209 251 305
#
# _framework density 17.887512999999998
#
# number of rings (size 3 to 8) (size 9 to 14) (size 15 to 20)
#    0.000    2.250    0.000    5.250    1.750    6.000 
#    0.000    0.000    0.000    0.750    0.000    0.000 
#    0.000    0.000    0.000    0.000    0.000    0.000 
#
# Total GULP energy -396691.300567 kJ/mol
# GULP energy per Si atom -12396.603143 kJ/mol
# Density = 1.784680 g / cm^3
# Si number density = 17.887513 Si / 1000 Ang^3
#
#
#
# Elastic Constant Matrix: (Units=GPa)
#
#
# Indices 1 2 3 4 5 6 
#
# 1 109.5088 53.0343 42.4513 0.0000 10.4615 0.0000
# 2 53.0343 80.5727 35.2763 0.0000 2.1373 0.0000
# 3 42.4513 35.2763 67.7828 0.0000 -3.1973 0.0000
# 4 0.0000 0.0000 0.0000 22.2544 0.0000 1.6659
# 5 10.4615 2.1373 -3.1973 0.0000 14.3476 0.0000
# 6 0.0000 0.0000 0.0000 1.6659 0.0000 32.4996
#
#
#
# Elastic Compliance Matrix: (Units=1/GPa)
#
#
# Indices 1 2 3 4 5 6 
#
# 1 0.016799 -0.007578 -0.007177 0.000000 -0.012719 0.000000
# 2 -0.007578 0.019759 -0.005473 0.000000 0.001362 0.000000
# 3 -0.007177 -0.005473 0.022620 0.000000 0.011089 0.000000
# 4 0.000000 0.000000 0.000000 0.045108 0.000000 -0.002312
# 5 -0.012719 0.001362 0.011089 0.000000 0.081241 0.000000
# 6 0.000000 0.000000 0.000000 -0.002312 0.000000 0.030888
#
#
# Mechanical properties :
#
#
# Convention : Reuss Voigt Hill
#
# Bulk Modulus (GPa) = 53.41514 57.70981 55.56248
# Shear Modulus (GPa) = 19.00343 22.29382 20.64862
#
# Velocity S-wave (km/s) = 3.26296 3.53418 3.40127
# Velocity P-wave (km/s) = 6.64247 6.99904 6.82308
#
# Compressibility (1/GPa) = 0.01872128
#
# Stress axis : x y z
#
# Youngs Moduli (GPa) = 59.52822 50.60989 44.20959
#
# Poissons Ratio (x) = 0.38350 0.31730
# Poissons Ratio (y) = 0.45108 0.24197
# Poissons Ratio (z) = 0.42725 0.27700
#
# Static dielectric constant tensor:
#      x y z
#    x 3.546730 0.000000 0.224050 
#    y 0.000000 3.395930 0.000000 
#    z 0.224050 0.000000 3.511640 
# 
# 
# High freq. dielectric constant tensor:
#      x y z
#    x 1.689590 0.000000 0.005470 
#    y 0.000000 1.702120 0.000000 
#    z 0.005470 0.000000 1.676060 
# 
# From -- ./inp_files/61767.got.cif
#   From: 2010.06.25/outbox.cif.g09.slc.cpg/sg11_31_cif.got.tgz:61767.got - 2010.06.27 23:14:04.
