data_PCOD8069517
_publ_section_title
;
Structure prediction by ZEFSAII (Michael W. Deem and Ramdas Pophale) SiO2 
 PCOD8069517
Probable space group: P 21/M
;
_chemical_formula_sum "Si O2"
_cell_formula_units_Z 28
_cell_length_a 28.624470
_cell_length_b 8.923365
_cell_length_c 9.576471
_cell_angle_alpha 90.000000
_cell_angle_beta 38.502386
_cell_angle_gamma 90.000000
_cell_volume 1522.803662
_symmetry_space_group_name_H-M "P 21/M"
_symmetry_group_IT_number 11
_symmetry_cell_setting 'monoclinic'
loop_
_space_group_symop_operation_xyz
x,y,z
-x,1/2+y,-z
-x,-y,-z
x,1/2-y,z
loop_
_atom_site_type_symbol
_atom_site_label
_atom_site_fract_x
_atom_site_fract_y
_atom_site_fract_z
Si Si1 0.195365 0.923012 0.742621
Si Si2 0.547016 0.923297 0.193365
Si Si3 0.920285 0.576217 0.178892
Si Si4 0.684632 0.425273 0.763633
Si Si5 0.757467 0.426552 0.059261
Si Si6 0.400788 0.423711 0.614361
Si Si7 0.801397 0.925464 0.687667
O O1 0.174505 0.750000 0.770852
O O2 0.272630 0.959960 0.480760
O O3 0.205773 0.966314 0.878612
O O4 0.126562 0.017382 0.843149
O O5 0.534033 0.750000 0.189204
O O6 0.582300 0.948230 0.262905
O O7 0.468037 0.008231 0.364984
O O8 0.603796 0.994542 0.947396
O O9 0.933007 0.750000 0.126164
O O10 0.876886 0.542254 0.424740
O O11 0.000000 0.500000 0.000000
O O12 0.673263 0.250000 0.816536
O O13 0.731165 0.492305 0.783037
O O14 0.755561 0.250000 0.036791
O O15 0.673747 0.488691 0.251378
O O16 0.810466 0.506914 0.821064
O O17 0.391054 0.250000 0.599957
O O18 0.782626 0.750000 0.739130
#
# Coordination Sequence:
#
# PCOD8069517 Si02
#       7
#     4   4   4   4   4   4   4
#     4   9  21  38  56  81 112 144 179 219 265 320
#     4  10  19  31  49  75 106 138 182 232 273 317
#     4  10  21  38  62  87 112 141 176 218 262 314
#     4  10  18  32  54  77 104 140 182 226 270 317
#     4  11  21  35  55  80 111 145 180 221 269 319
#     4  10  20  32  49  74 107 142 180 228 274 318
#     4  10  20  34  54  82 110 140 179 219 261 315
#
# _framework density 18.387136000000002
#
# number of rings (size 3 to 8) (size 9 to 14) (size 15 to 20)
#    0.000    2.000    1.429    2.571    0.000    4.571 
#    0.000    1.429    0.000    0.000    0.000    0.000 
#    0.000    0.000    0.000    0.000    0.000    0.000 
#
# Total GULP energy -347290.070461 kJ/mol
# GULP energy per Si atom -12403.216802 kJ/mol
# Density = 1.834529 g / cm^3
# Si number density = 18.387136 Si / 1000 Ang^3
#
#
#
# Elastic Constant Matrix: (Units=GPa)
#
#
# Indices 1 2 3 4 5 6 
#
# 1 67.9419 26.3735 40.8007 0.0000 5.7033 0.0000
# 2 26.3735 57.6364 29.8893 0.0000 2.1999 0.0000
# 3 40.8007 29.8893 91.8061 0.0000 -3.1913 0.0000
# 4 0.0000 0.0000 0.0000 36.1776 0.0000 -4.4370
# 5 5.7033 2.1999 -3.1913 0.0000 29.2687 0.0000
# 6 0.0000 0.0000 0.0000 -4.4370 0.0000 26.2930
#
#
#
# Elastic Compliance Matrix: (Units=1/GPa)
#
#
# Indices 1 2 3 4 5 6 
#
# 1 0.022278 -0.005763 -0.008191 0.000000 -0.004801 0.000000
# 2 -0.005763 0.022523 -0.004810 0.000000 -0.001094 0.000000
# 3 -0.008191 -0.004810 0.016228 0.000000 0.003727 0.000000
# 4 0.000000 0.000000 0.000000 0.028226 0.000000 0.004763
# 5 -0.004801 -0.001094 0.003727 0.000000 0.035590 0.000000
# 6 0.000000 0.000000 0.000000 0.004763 0.000000 0.038837
#
#
# Mechanical properties :
#
#
# Convention : Reuss Voigt Hill
#
# Bulk Modulus (GPa) = 42.55074 45.72348 44.13711
# Shear Modulus (GPa) = 23.91848 26.36925 25.14386
#
# Velocity S-wave (km/s) = 3.61061 3.79108 3.70194
# Velocity P-wave (km/s) = 6.36976 6.63959 6.50607
#
# Compressibility (1/GPa) = 0.02350135
#
# Stress axis : x y z
#
# Youngs Moduli (GPa) = 44.88827 44.39878 61.62016
#
# Poissons Ratio (x) = 0.25586 0.50475
# Poissons Ratio (y) = 0.25868 0.29638
# Poissons Ratio (z) = 0.36770 0.21355
#
# Static dielectric constant tensor:
#      x y z
#    x 3.074650 0.000000 -0.202320 
#    y 0.000000 3.525490 0.000000 
#    z -0.202320 0.000000 2.855620 
# 
# 
# High freq. dielectric constant tensor:
#      x y z
#    x 1.683810 0.000000 -0.001760 
#    y 0.000000 1.729860 0.000000 
#    z -0.001760 0.000000 1.718720 
# 
# From -- ./inp_files/28451.got.cif
#   From: 2010.06.25/outbox.cif.g09.slc.cpg/sg11_15_cif.got.tgz:28451.got - 2010.06.27 23:14:04.
