data_PCOD8069648
_publ_section_title
;
Structure prediction by ZEFSAII (Michael W. Deem and Ramdas Pophale) SiO2 
 PCOD8069648
Probable space group: P 21/M
;
_chemical_formula_sum "Si O2"
_cell_formula_units_Z 24
_cell_length_a 11.370234
_cell_length_b 17.941506
_cell_length_c 15.790549
_cell_angle_alpha 90.000000
_cell_angle_beta 156.697696
_cell_angle_gamma 90.000000
_cell_volume 1274.273133
_symmetry_space_group_name_H-M "P 21/M"
_symmetry_group_IT_number 11
_symmetry_cell_setting 'monoclinic'
loop_
_space_group_symop_operation_xyz
x,y,z
-x,1/2+y,-z
-x,-y,-z
x,1/2-y,z
loop_
_atom_site_type_symbol
_atom_site_label
_atom_site_fract_x
_atom_site_fract_y
_atom_site_fract_z
Si Si1 0.738979 0.334909 0.854045
Si Si2 0.054850 0.334067 0.384572
Si Si3 0.124662 0.037097 0.838027
Si Si4 0.794675 0.475505 0.288253
Si Si5 0.224956 0.837110 0.316740
Si Si6 0.128439 0.395122 0.255739
O O1 0.801962 0.250000 0.921415
O O2 0.391814 0.353660 0.632644
O O3 0.842971 0.349580 0.827006
O O4 0.920701 0.387634 0.036511
O O5 0.970054 0.250000 0.353806
O O6 0.013115 0.342652 0.255848
O O7 0.841562 0.389180 0.294423
O O8 0.030321 0.121146 0.798769
O O9 0.125264 0.029402 0.736987
O O10 0.452352 0.017040 0.089596
O O11 0.888370 0.980767 0.724610
O O12 0.000000 0.500000 0.500000
O O13 0.223015 0.750000 0.339411
O O14 0.539928 0.872646 0.551087
#
# Coordination Sequence:
#
# PCOD8069648 Si02
#       6
#     4   4   4   4   4   4
#     4   9  17  30  51  78 104 132 166 206 254 305
#     4   9  18  32  52  77 102 131 172 218 258 299
#     4  10  22  36  53  76 101 136 176 211 253 303
#     4  10  21  38  54  72 102 137 176 218 254 295
#     4  10  21  35  51  78 111 135 163 206 255 309
#     4  10  18  33  55  77 104 135 168 209 256 304
#
# _framework density 18.834268000000002
#
# number of rings (size 3 to 8) (size 9 to 14) (size 15 to 20)
#    0.000    2.333    0.000    4.000    0.000    2.667 
#    0.000    0.833    0.000    0.000    0.000    0.000 
#    0.000    0.000    0.000    0.000    0.000    0.000 
#
# Total GULP energy -297656.074316 kJ/mol
# GULP energy per Si atom -12402.336430 kJ/mol
# Density = 1.879140 g / cm^3
# Si number density = 18.834268 Si / 1000 Ang^3
#
#
#
# Elastic Constant Matrix: (Units=GPa)
#
#
# Indices 1 2 3 4 5 6 
#
# 1 65.1290 43.5179 51.9605 0.0000 -2.3850 0.0000
# 2 43.5179 96.4443 42.5489 0.0000 8.8484 0.0000
# 3 51.9605 42.5489 94.6201 0.0000 -16.2520 0.0000
# 4 0.0000 0.0000 0.0000 28.4527 0.0000 4.1210
# 5 -2.3850 8.8484 -16.2520 0.0000 30.1377 0.0000
# 6 0.0000 0.0000 0.0000 4.1210 0.0000 18.8872
#
#
#
# Elastic Compliance Matrix: (Units=1/GPa)
#
#
# Indices 1 2 3 4 5 6 
#
# 1 0.032138 -0.007725 -0.014711 0.000000 -0.003122 0.000000
# 2 -0.007725 0.016614 -0.004597 0.000000 -0.007968 0.000000
# 3 -0.014711 -0.004597 0.022864 0.000000 0.012515 0.000000
# 4 0.000000 0.000000 0.000000 0.036293 0.000000 -0.007919
# 5 -0.003122 -0.007968 0.012515 0.000000 0.042022 0.000000
# 6 0.000000 0.000000 0.000000 -0.007919 0.000000 0.054674
#
#
# Mechanical properties :
#
#
# Convention : Reuss Voigt Hill
#
# Bulk Modulus (GPa) = 56.98254 59.13868 58.06061
# Shear Modulus (GPa) = 18.90208 23.37325 21.13766
#
# Velocity S-wave (km/s) = 3.17140 3.52660 3.35371
# Velocity P-wave (km/s) = 6.61293 6.93183 6.77425
#
# Compressibility (1/GPa) = 0.01754924
#
# Stress axis : x y z
#
# Youngs Moduli (GPa) = 31.11581 60.19157 43.73669
#
# Poissons Ratio (x) = 0.46497 0.64341
# Poissons Ratio (y) = 0.24037 0.20107
# Poissons Ratio (z) = 0.45774 0.27672
#
# Static dielectric constant tensor:
#      x y z
#    x 3.268800 0.000000 -0.036210 
#    y 0.000000 3.474910 0.000000 
#    z -0.036210 0.000000 3.366680 
# 
# 
# High freq. dielectric constant tensor:
#      x y z
#    x 1.716730 0.000000 -0.007650 
#    y 0.000000 1.731340 0.000000 
#    z -0.007650 0.000000 1.730930 
# 
# From -- ./inp_files/29768.got.cif
#   From: 2010.06.25/outbox.cif.g09.slc.cpg/sg11_15_cif.got.tgz:29768.got - 2010.06.27 23:14:04.
