data_PCOD8069505
_publ_section_title
;
Structure prediction by ZEFSAII (Michael W. Deem and Ramdas Pophale) SiO2 
 PCOD8069505
Probable space group: P 21/M
;
_chemical_formula_sum "Si O2"
_cell_formula_units_Z 28
_cell_length_a 14.776531
_cell_length_b 17.248325
_cell_length_c 6.299312
_cell_angle_alpha 90.000000
_cell_angle_beta 109.320137
_cell_angle_gamma 90.000000
_cell_volume 1515.093600
_symmetry_space_group_name_H-M "P 21/M"
_symmetry_group_IT_number 11
_symmetry_cell_setting 'monoclinic'
loop_
_space_group_symop_operation_xyz
x,y,z
-x,1/2+y,-z
-x,-y,-z
x,1/2-y,z
loop_
_atom_site_type_symbol
_atom_site_label
_atom_site_fract_x
_atom_site_fract_y
_atom_site_fract_z
Si Si1 0.553591 0.059253 0.192350
Si Si2 0.202320 0.933144 0.110042
Si Si3 0.551946 0.660489 0.559441
Si Si4 0.969133 0.447451 0.782445
Si Si5 0.375413 0.838616 0.110953
Si Si6 0.702532 0.949821 0.514436
Si Si7 0.859711 0.529517 0.323689
O O1 0.475696 0.109930 0.257608
O O2 0.619946 0.012586 0.405052
O O3 0.619500 0.116373 0.106492
O O4 0.500000 0.000000 0.000000
O O5 0.113683 0.893043 0.176026
O O6 0.286669 0.870626 0.178099
O O7 0.233420 0.013382 0.249390
O O8 0.172272 0.957129 0.848678
O O9 0.562811 0.750000 0.635271
O O10 0.472976 0.650101 0.316052
O O11 0.654080 0.630182 0.552140
O O12 0.920584 0.498065 0.564497
O O13 0.068322 0.412446 0.756050
O O14 0.000000 0.500000 0.000000
O O15 0.355010 0.750000 0.041712
O O16 0.765398 0.929802 0.351321
#
# Coordination Sequence:
#
# PCOD8069505 Si02
#       7
#     4   4   4   4   4   4   4
#     4  12  21  35  54  75 103 141 188 225 264 312
#     4  10  18  32  53  79 106 139 181 219 265 320
#     4  11  24  38  50  75 112 146 179 224 273 319
#     4   8  16  30  50  80 110 130 162 220 270 310
#     4  11  22  35  51  76 112 148 179 221 273 322
#     4  11  20  32  55  78 101 139 182 223 261 310
#     4   9  17  30  52  81 106 131 171 221 262 311
#
# _framework density 18.480706000000001
#
# number of rings (size 3 to 8) (size 9 to 14) (size 15 to 20)
#    0.000    1.714    4.286    1.714    0.000    0.000 
#    0.000    0.000    0.000    0.857    0.000   34.000 
#    0.000    0.000    0.000    0.000    0.000    0.000 
#
# Total GULP energy -346881.923021 kJ/mol
# GULP energy per Si atom -12388.640108 kJ/mol
# Density = 1.843864 g / cm^3
# Si number density = 18.480706 Si / 1000 Ang^3
#
#
#
# Elastic Constant Matrix: (Units=GPa)
#
#
# Indices 1 2 3 4 5 6 
#
# 1 159.2853 48.6162 17.2049 0.0000 -30.8614 0.0000
# 2 48.6162 73.6795 24.1766 0.0000 -9.2398 0.0000
# 3 17.2049 24.1766 82.0254 0.0000 -2.3642 0.0000
# 4 0.0000 0.0000 0.0000 19.2004 0.0000 -2.7437
# 5 -30.8614 -9.2398 -2.3642 0.0000 33.5478 0.0000
# 6 0.0000 0.0000 0.0000 -2.7437 0.0000 7.6403
#
#
#
# Elastic Compliance Matrix: (Units=1/GPa)
#
#
# Indices 1 2 3 4 5 6 
#
# 1 0.009240 -0.005138 -0.000220 0.000000 0.007069 0.000000
# 2 -0.005138 0.018391 -0.004342 0.000000 0.000033 0.000000
# 3 -0.000220 -0.004342 0.013504 0.000000 -0.000447 0.000000
# 4 0.000000 0.000000 0.000000 0.054900 0.000000 0.019715
# 5 0.007069 0.000033 -0.000447 0.000000 0.036289 0.000000
# 6 0.000000 0.000000 0.000000 0.019715 0.000000 0.137964
#
#
# Mechanical properties :
#
#
# Convention : Reuss Voigt Hill
#
# Bulk Modulus (GPa) = 46.00769 54.99839 50.50304
# Shear Modulus (GPa) = 16.83881 27.07721 21.95801
#
# Velocity S-wave (km/s) = 3.02181 3.83189 3.45071
# Velocity P-wave (km/s) = 6.09296 7.02868 6.57748
#
# Compressibility (1/GPa) = 0.02173550
#
# Stress axis : x y z
#
# Youngs Moduli (GPa) = 108.22977 54.37331 74.04984
#
# Poissons Ratio (x) = 0.27937 0.01628
# Poissons Ratio (y) = 0.55608 0.32153
# Poissons Ratio (z) = 0.02380 0.23610
#
# Static dielectric constant tensor:
#      x y z
#    x 4.366540 0.000000 -0.134310 
#    y 0.000000 3.039570 0.000000 
#    z -0.134310 0.000000 3.597220 
# 
# 
# High freq. dielectric constant tensor:
#      x y z
#    x 1.746780 0.000000 -0.009320 
#    y 0.000000 1.650550 0.000000 
#    z -0.009320 0.000000 1.732860 
# 
# From -- ./inp_files/6709.got.cif
#   From: 2010.06.25/outbox.cif.g09.slc.cpg/sg11_4_cif.got.tgz:6709.got - 2010.06.27 23:14:04.
