data_PCOD8069471
_publ_section_title
;
Structure prediction by ZEFSAII (Michael W. Deem and Ramdas Pophale) SiO2 
 PCOD8069471
Probable space group: P 21/M
;
_chemical_formula_sum "Si O2"
_cell_formula_units_Z 28
_cell_length_a 10.139072
_cell_length_b 10.372676
_cell_length_c 14.305342
_cell_angle_alpha 90.000000
_cell_angle_beta 111.196698
_cell_angle_gamma 90.000000
_cell_volume 1402.696597
_symmetry_space_group_name_H-M "P 21/M"
_symmetry_group_IT_number 11
_symmetry_cell_setting 'monoclinic'
loop_
_space_group_symop_operation_xyz
x,y,z
-x,1/2+y,-z
-x,-y,-z
x,1/2-y,z
loop_
_atom_site_type_symbol
_atom_site_label
_atom_site_fract_x
_atom_site_fract_y
_atom_site_fract_z
Si Si1 0.203628 0.899528 0.443773
Si Si2 0.682508 0.400379 0.905149
Si Si3 0.333313 0.483945 0.657548
Si Si4 0.365821 0.895809 0.310493
Si Si5 0.910308 0.605971 0.277855
Si Si6 0.457412 0.609762 0.858020
Si Si7 0.836197 0.392624 0.118948
O O1 0.238964 0.750000 0.466383
O O2 0.236452 0.967670 0.549196
O O3 0.299181 0.964106 0.385126
O O4 0.039448 0.924123 0.380006
O O5 0.631974 0.250000 0.893809
O O6 0.707351 0.446981 0.804225
O O7 0.558803 0.492427 0.913006
O O8 0.825588 0.418617 0.003767
O O9 0.464108 0.403354 0.649069
O O10 0.235208 0.399659 0.701372
O O11 0.399070 0.598560 0.736540
O O12 0.317371 0.750000 0.309122
O O13 0.924124 0.750000 0.238896
O O14 0.920014 0.503540 0.195234
O O15 0.533860 0.750000 0.884621
O O16 0.327559 0.607486 0.895399
O O17 0.903067 0.250000 0.156116
#
# Coordination Sequence:
#
# PCOD8069471 Si02
#       7
#     4   4   4   4   4   4   4
#     4  10  20  34  51  73 103 138 171 208 255 301
#     4   9  17  30  49  72 100 135 171 208 251 301
#     4  10  18  32  52  74 101 134 169 209 251 302
#     4   9  18  32  51  75 102 133 172 211 249 300
#     4  10  21  35  53  78 104 132 172 214 251 298
#     4   9  17  27  44  73 103 130 164 209 258 304
#     4   9  18  32  49  71 101 136 170 207 256 304
#
# _framework density 19.961551
#
# number of rings (size 3 to 8) (size 9 to 14) (size 15 to 20)
#    0.000    2.571    0.000    2.143    0.000    4.571 
#    0.000    2.143    0.000    5.143    0.000    0.000 
#    0.000    0.000    0.000    0.000    0.000    0.000 
#
# Total GULP energy -346927.703318 kJ/mol
# GULP energy per Si atom -12390.275119 kJ/mol
# Density = 1.991612 g / cm^3
# Si number density = 19.961551 Si / 1000 Ang^3
#
#
#
# Elastic Constant Matrix: (Units=GPa)
#
#
# Indices 1 2 3 4 5 6 
#
# 1 47.0271 2.0874 4.3762 0.0000 1.7180 0.0000
# 2 2.0874 92.7064 47.8618 0.0000 10.5461 0.0000
# 3 4.3762 47.8618 123.1742 0.0000 10.0130 0.0000
# 4 0.0000 0.0000 0.0000 26.3449 0.0000 6.9245
# 5 1.7180 10.5461 10.0130 0.0000 15.6269 0.0000
# 6 0.0000 0.0000 0.0000 6.9245 0.0000 15.2163
#
#
#
# Elastic Compliance Matrix: (Units=1/GPa)
#
#
# Indices 1 2 3 4 5 6 
#
# 1 0.021392 0.000068 -0.000624 0.000000 -0.001998 0.000000
# 2 0.000068 0.014061 -0.004952 0.000000 -0.006324 0.000000
# 3 -0.000624 -0.004952 0.010326 0.000000 -0.003206 0.000000
# 4 0.000000 0.000000 0.000000 0.043115 0.000000 -0.019620
# 5 -0.001998 -0.006324 -0.003206 0.000000 0.070533 0.000000
# 6 0.000000 0.000000 0.000000 -0.019620 0.000000 0.074648
#
#
# Mechanical properties :
#
#
# Convention : Reuss Voigt Hill
#
# Bulk Modulus (GPa) = 28.76662 41.28425 35.02544
# Shear Modulus (GPa) = 19.47954 25.34312 22.41133
#
# Velocity S-wave (km/s) = 3.12725 3.56701 3.35434
# Velocity P-wave (km/s) = 5.24232 6.13934 5.70848
#
# Compressibility (1/GPa) = 0.03476251
#
# Stress axis : x y z
#
# Youngs Moduli (GPa) = 46.74566 71.11751 96.84698
#
# Poissons Ratio (x) = -0.00482 0.06043
# Poissons Ratio (y) = -0.00317 0.47960
# Poissons Ratio (z) = 0.02917 0.35218
#
# Static dielectric constant tensor:
#      x y z
#    x 3.357000 0.000000 -0.177470 
#    y 0.000000 3.578840 0.000000 
#    z -0.177470 0.000000 3.793490 
# 
# 
# High freq. dielectric constant tensor:
#      x y z
#    x 1.746770 0.000000 -0.008800 
#    y 0.000000 1.762860 0.000000 
#    z -0.008800 0.000000 1.792640 
# 
# From -- ./inp_files/47007.got.cif
#   From: 2010.06.25/outbox.cif.g09.slc.cpg/sg11_24_cif.got.tgz:47007.got - 2010.06.27 23:14:04.
