data_PCOD8069319
_publ_section_title
;
Structure prediction by ZEFSAII (Michael W. Deem and Ramdas Pophale) SiO2 
 PCOD8069319
Probable space group: P 21/M
;
_chemical_formula_sum "Si O2"
_cell_formula_units_Z 32
_cell_length_a 27.468395
_cell_length_b 8.873826
_cell_length_c 19.302027
_cell_angle_alpha 90.000000
_cell_angle_beta 23.873529
_cell_angle_gamma 90.000000
_cell_volume 1904.148735
_symmetry_space_group_name_H-M "P 21/M"
_symmetry_group_IT_number 11
_symmetry_cell_setting 'monoclinic'
loop_
_space_group_symop_operation_xyz
x,y,z
-x,1/2+y,-z
-x,-y,-z
x,1/2-y,z
loop_
_atom_site_type_symbol
_atom_site_label
_atom_site_fract_x
_atom_site_fract_y
_atom_site_fract_z
Si Si1 0.733523 0.577457 0.685768
Si Si2 0.781142 0.573269 0.390376
Si Si3 0.685363 0.428160 0.891408
Si Si4 0.990661 0.078739 0.698348
Si Si5 0.964253 0.426744 0.887179
Si Si6 0.415235 0.071026 0.251800
Si Si7 0.883599 0.573924 0.118551
Si Si8 0.904301 0.572711 0.676100
O O1 0.706620 0.750000 0.742863
O O2 0.722976 0.468911 0.764800
O O3 0.640554 0.518812 0.748830
O O4 0.866215 0.563714 0.481628
O O5 0.781556 0.750000 0.404886
O O6 0.664598 0.503538 0.580875
O O7 0.775529 0.541017 0.314450
O O8 0.904223 0.507728 0.263372
O O9 0.696782 0.250000 0.886306
O O10 0.772003 0.510011 0.832960
O O11 0.551066 0.488909 0.081538
O O12 0.956023 0.250000 0.722950
O O13 0.935228 0.034839 0.845151
O O14 0.936474 0.964989 0.713100
O O15 0.959832 0.250000 0.906391
O O16 0.863007 0.502832 0.068938
O O17 0.415369 0.250000 0.253807
O O18 0.904583 0.750000 0.082945
O O19 0.000000 0.500000 0.000000
O O20 0.906944 0.750000 0.660578
O O21 0.000000 0.500000 0.500000
#
# Coordination Sequence:
#
# PCOD8069319 Si02
#       8
#     4   4   4   4   4   4   4   4
#     4  10  18  31  52  72  97 131 164 201 242 287
#     4   8  13  25  44  67  95 129 162 189 228 282
#     4  11  22  34  50  72  98 128 167 208 245 290
#     4  10  19  32  53  76  97 129 165 199 245 295
#     4   9  16  28  47  70  99 129 158 193 239 295
#     4   9  17  30  49  73  99 131 168 201 238 290
#     4   9  16  25  42  66  96 131 164 197 235 284
#     4  12  24  38  54  70  94 126 165 210 252 292
#
# _framework density 16.805409000000001
#
# number of rings (size 3 to 8) (size 9 to 14) (size 15 to 20)
#    0.000    2.250    2.500    3.000    0.000    0.500 
#    0.000    0.625    0.000    7.500    0.000    0.875 
#    0.000    0.000    0.000    0.000    0.000    0.000 
#
# Total GULP energy -396645.663025 kJ/mol
# GULP energy per Si atom -12395.176970 kJ/mol
# Density = 1.676716 g / cm^3
# Si number density = 16.805409 Si / 1000 Ang^3
#
#
#
# Elastic Constant Matrix: (Units=GPa)
#
#
# Indices 1 2 3 4 5 6 
#
# 1 101.4545 39.5143 48.8631 0.0000 7.5947 0.0000
# 2 39.5143 65.6658 24.5920 0.0000 3.7261 0.0000
# 3 48.8631 24.5920 55.9747 0.0000 4.8592 0.0000
# 4 0.0000 0.0000 0.0000 16.2231 0.0000 3.1186
# 5 7.5947 3.7261 4.8592 0.0000 32.5405 0.0000
# 6 0.0000 0.0000 0.0000 3.1186 0.0000 27.5871
#
#
#
# Elastic Compliance Matrix: (Units=1/GPa)
#
#
# Indices 1 2 3 4 5 6 
#
# 1 0.019007 -0.006204 -0.013721 0.000000 -0.001677 0.000000
# 2 -0.006204 0.020279 -0.003463 0.000000 -0.000357 0.000000
# 3 -0.013721 -0.003463 0.031460 0.000000 -0.001099 0.000000
# 4 0.000000 0.000000 0.000000 0.063010 0.000000 -0.007123
# 5 -0.001677 -0.000357 -0.001099 0.000000 0.031327 0.000000
# 6 0.000000 0.000000 0.000000 -0.007123 0.000000 0.037054
#
#
# Mechanical properties :
#
#
# Convention : Reuss Voigt Hill
#
# Bulk Modulus (GPa) = 41.71803 49.89263 45.80533
# Shear Modulus (GPa) = 19.46280 22.61186 21.03733
#
# Velocity S-wave (km/s) = 3.40682 3.67210 3.54194
# Velocity P-wave (km/s) = 6.35242 6.90883 6.63646
#
# Compressibility (1/GPa) = 0.02397045
#
# Stress axis : x y z
#
# Youngs Moduli (GPa) = 52.61336 49.31272 31.78689
#
# Poissons Ratio (x) = 0.30592 0.43614
# Poissons Ratio (y) = 0.32639 0.11007
# Poissons Ratio (z) = 0.72189 0.17076
#
# Static dielectric constant tensor:
#      x y z
#    x 3.222250 0.000000 0.245710 
#    y 0.000000 3.036260 0.000000 
#    z 0.245710 0.000000 3.422090 
# 
# 
# High freq. dielectric constant tensor:
#      x y z
#    x 1.637660 0.000000 0.024320 
#    y 0.000000 1.630280 0.000000 
#    z 0.024320 0.000000 1.630340 
# 
# From -- ./inp_files/67422.got.cif
#   From: 2010.06.25/outbox.cif.g09.slc.cpg/sg11_34_cif.got.tgz:67422.got - 2010.06.27 23:14:04.
