data_PCOD8069694
_publ_section_title
;
Structure prediction by ZEFSAII (Michael W. Deem and Ramdas Pophale) SiO2 
 PCOD8069694
Probable space group: P 21/M
;
_chemical_formula_sum "Si O2"
_cell_formula_units_Z 32
_cell_length_a 20.846915
_cell_length_b 8.744979
_cell_length_c 25.493612
_cell_angle_alpha 90.000000
_cell_angle_beta 158.009116
_cell_angle_gamma 90.000000
_cell_volume 1740.348777
_symmetry_space_group_name_H-M "P 21/M"
_symmetry_group_IT_number 11
_symmetry_cell_setting 'monoclinic'
loop_
_space_group_symop_operation_xyz
x,y,z
-x,1/2+y,-z
-x,-y,-z
x,1/2-y,z
loop_
_atom_site_type_symbol
_atom_site_label
_atom_site_fract_x
_atom_site_fract_y
_atom_site_fract_z
Si Si1 0.497771 0.070576 0.334976
Si Si2 0.845438 0.073784 0.650661
Si Si3 0.326970 0.070900 0.630649
Si Si4 0.400440 0.929584 0.080001
Si Si5 0.002542 0.070144 0.659255
Si Si6 0.858654 0.432068 0.930553
Si Si7 0.638339 0.068938 0.066448
Si Si8 0.088846 0.569730 0.911649
O O1 0.481537 0.250000 0.310377
O O2 0.644296 0.041531 0.489653
O O3 0.544087 0.983651 0.316733
O O4 0.323123 0.001316 0.225256
O O5 0.880694 0.250000 0.688839
O O6 0.948689 0.021368 0.677091
O O7 0.909513 0.979041 0.749352
O O8 0.292523 0.250000 0.597117
O O9 0.417741 0.034137 0.754940
O O10 0.148000 0.980901 0.494349
O O11 0.368670 0.750000 0.052987
O O12 0.399094 0.997107 0.020259
O O13 0.245113 0.001967 0.996231
O O14 0.029566 0.250000 0.674414
O O15 0.174381 0.983729 0.773013
O O16 0.853874 0.250000 0.922622
O O17 0.901025 0.490878 0.021322
O O18 0.000000 0.500000 0.000000
O O19 0.626167 0.250000 0.059145
O O20 0.500000 0.000000 0.000000
O O21 0.101761 0.750000 0.922465
#
# Coordination Sequence:
#
# PCOD8069694 Si02
#       8
#     4   4   4   4   4   4   4   4
#     4  10  20  35  54  82 116 147 182 227 277 326
#     4   9  19  33  53  83 114 141 178 229 275 320
#     4  10  18  33  57  84 111 143 184 230 278 326
#     4   9  18  34  56  83 111 140 183 233 274 320
#     4  10  20  35  53  82 116 146 183 228 276 328
#     4  11  23  39  58  82 113 148 186 226 276 334
#     4  11  22  38  58  81 112 150 185 226 280 334
#     4  10  19  35  57  83 110 141 185 231 271 322
#
# _framework density 18.387118000000001
#
# number of rings (size 3 to 8) (size 9 to 14) (size 15 to 20)
#    0.000    2.000    2.500    2.625    0.000    3.500 
#    0.000    3.750    0.000    0.000    0.000    0.000 
#    0.000    0.000    0.000    0.000    0.000    0.000 
#
# Total GULP energy -396849.138365 kJ/mol
# GULP energy per Si atom -12401.535574 kJ/mol
# Density = 1.834527 g / cm^3
# Si number density = 18.387118 Si / 1000 Ang^3
#
#
#
# Elastic Constant Matrix: (Units=GPa)
#
#
# Indices 1 2 3 4 5 6 
#
# 1 114.5053 31.4614 70.4317 0.0000 5.1978 0.0000
# 2 31.4614 56.8430 35.3395 0.0000 0.5168 0.0000
# 3 70.4317 35.3395 137.2079 0.0000 7.6531 0.0000
# 4 0.0000 0.0000 0.0000 32.5493 0.0000 4.5582
# 5 5.1978 0.5168 7.6531 0.0000 30.0045 0.0000
# 6 0.0000 0.0000 0.0000 4.5582 0.0000 24.3920
#
#
#
# Elastic Compliance Matrix: (Units=1/GPa)
#
#
# Indices 1 2 3 4 5 6 
#
# 1 0.013416 -0.003767 -0.005874 0.000000 -0.000761 0.000000
# 2 -0.003767 0.022035 -0.003811 0.000000 0.001245 0.000000
# 3 -0.005874 -0.003811 0.011387 0.000000 -0.001821 0.000000
# 4 0.000000 0.000000 0.000000 0.031548 0.000000 -0.005895
# 5 -0.000761 0.001245 -0.001821 0.000000 0.033903 0.000000
# 6 0.000000 0.000000 0.000000 -0.005895 0.000000 0.042099
#
#
# Mechanical properties :
#
#
# Convention : Reuss Voigt Hill
#
# Bulk Modulus (GPa) = 50.16618 64.78017 57.47317
# Shear Modulus (GPa) = 26.60473 28.81073 27.70773
#
# Velocity S-wave (km/s) = 3.80797 3.96270 3.88610
# Velocity P-wave (km/s) = 6.83204 7.49967 7.17363
#
# Compressibility (1/GPa) = 0.01993375
#
# Stress axis : x y z
#
# Youngs Moduli (GPa) = 74.53935 45.38173 87.82145
#
# Poissons Ratio (x) = 0.17093 0.51587
# Poissons Ratio (y) = 0.28075 0.33473
# Poissons Ratio (z) = 0.43785 0.17297
#
# Static dielectric constant tensor:
#      x y z
#    x 3.281200 0.000000 -0.133010 
#    y 0.000000 3.287060 0.000000 
#    z -0.133010 0.000000 3.458100 
# 
# 
# High freq. dielectric constant tensor:
#      x y z
#    x 1.685760 0.000000 -0.007640 
#    y 0.000000 1.710210 0.000000 
#    z -0.007640 0.000000 1.727090 
# 
# From -- ./inp_files/67118.got.cif
#   From: 2010.06.25/outbox.cif.g09.slc.cpg/sg11_34_cif.got.tgz:67118.got - 2010.06.27 23:14:04.
