data_PCOD8069130
_publ_section_title
;
Structure prediction by ZEFSAII (Michael W. Deem and Ramdas Pophale) SiO2 
 PCOD8069130
Probable space group: P 21/M
;
_chemical_formula_sum "Si O2"
_cell_formula_units_Z 28
_cell_length_a 15.011436
_cell_length_b 13.548597
_cell_length_c 11.951536
_cell_angle_alpha 90.000000
_cell_angle_beta 142.658572
_cell_angle_gamma 90.000000
_cell_volume 1474.403994
_symmetry_space_group_name_H-M "P 21/M"
_symmetry_group_IT_number 11
_symmetry_cell_setting 'monoclinic'
loop_
_space_group_symop_operation_xyz
x,y,z
-x,1/2+y,-z
-x,-y,-z
x,1/2-y,z
loop_
_atom_site_type_symbol
_atom_site_label
_atom_site_fract_x
_atom_site_fract_y
_atom_site_fract_z
Si Si1 0.604853 0.864026 0.118705
Si Si2 0.057340 0.362792 0.987818
Si Si3 0.042921 0.863477 0.860524
Si Si4 0.880194 0.037313 0.613283
Si Si5 0.730318 0.524348 0.921450
Si Si6 0.450175 0.971491 0.767869
Si Si7 0.116459 0.364965 0.729449
O O1 0.580566 0.750000 0.119659
O O2 0.778460 0.889137 0.271846
O O3 0.551950 0.922510 0.174316
O O4 0.508055 0.890924 0.913452
O O5 0.094571 0.250000 0.998498
O O6 0.941387 0.403558 0.781501
O O7 0.209850 0.427616 0.135162
O O8 0.986579 0.374143 0.037920
O O9 0.047304 0.750000 0.825032
O O10 0.914542 0.920555 0.664094
O O11 0.199326 0.915511 0.990144
O O12 0.708853 0.059778 0.433943
O O13 0.961868 0.075384 0.580508
O O14 0.554964 0.518962 0.762706
O O15 0.790949 0.603144 0.070632
O O16 0.080050 0.250000 0.697606
#
# Coordination Sequence:
#
# PCOD8069130 Si02
#       7
#     4   4   4   4   4   4   4
#     4   9  19  36  51  65  95 134 165 195 237 286
#     4   9  17  33  54  72  93 126 165 199 235 280
#     4   9  18  33  52  71  94 129 166 195 231 285
#     4  10  18  30  50  75 100 121 156 205 242 277
#     4   9  16  30  49  70  97 127 159 193 236 288
#     4  10  21  32  49  76 100 126 158 197 244 291
#     4   8  15  30  51  70  90 124 165 200 234 276
#
# _framework density 18.990725000000001
#
# number of rings (size 3 to 8) (size 9 to 14) (size 15 to 20)
#    0.000    3.143    0.000    3.429    0.000    3.429 
#    0.000    2.857    0.000    3.429    0.000    0.000 
#    0.000    0.000    0.000    0.000    0.000    0.000 
#
# Total GULP energy -346892.662348 kJ/mol
# GULP energy per Si atom -12389.023655 kJ/mol
# Density = 1.894750 g / cm^3
# Si number density = 18.990725 Si / 1000 Ang^3
#
#
#
# Elastic Constant Matrix: (Units=GPa)
#
#
# Indices 1 2 3 4 5 6 
#
# 1 89.8212 41.3602 48.8348 0.0000 34.6900 0.0000
# 2 41.3602 114.9957 30.8178 0.0000 14.4553 0.0000
# 3 48.8348 30.8178 66.4127 0.0000 32.1225 0.0000
# 4 0.0000 0.0000 0.0000 7.0394 0.0000 4.0213
# 5 34.6900 14.4553 32.1225 0.0000 33.2779 0.0000
# 6 0.0000 0.0000 0.0000 4.0213 0.0000 24.4697
#
#
#
# Elastic Compliance Matrix: (Units=1/GPa)
#
#
# Indices 1 2 3 4 5 6 
#
# 1 0.023027 -0.004341 -0.007915 0.000000 -0.014478 0.000000
# 2 -0.004341 0.010750 -0.003239 0.000000 0.002982 0.000000
# 3 -0.007915 -0.003239 0.033218 0.000000 -0.022407 0.000000
# 4 0.000000 0.000000 0.000000 0.156776 0.000000 -0.025764
# 5 -0.014478 0.002982 -0.022407 0.000000 0.065477 0.000000
# 6 0.000000 0.000000 0.000000 -0.025764 0.000000 0.045101
#
#
# Mechanical properties :
#
#
# Convention : Reuss Voigt Hill
#
# Bulk Modulus (GPa) = 27.77302 57.02835 42.40068
# Shear Modulus (GPa) = 13.25060 22.97186 18.11123
#
# Velocity S-wave (km/s) = 2.64434 3.48175 3.09153
# Velocity P-wave (km/s) = 4.89690 6.80134 5.92613
#
# Compressibility (1/GPa) = 0.03600617
#
# Stress axis : x y z
#
# Youngs Moduli (GPa) = 43.42680 93.01959 30.10386
#
# Poissons Ratio (x) = 0.40380 0.23828
# Poissons Ratio (y) = 0.18851 0.09750
# Poissons Ratio (z) = 0.34373 0.30126
#
# Static dielectric constant tensor:
#      x y z
#    x 4.041730 0.000000 0.271780 
#    y 0.000000 3.600620 0.000000 
#    z 0.271780 0.000000 3.052560 
# 
# 
# High freq. dielectric constant tensor:
#      x y z
#    x 1.749420 0.000000 0.011630 
#    y 0.000000 1.746580 0.000000 
#    z 0.011630 0.000000 1.689310 
# 
# From -- ./inp_files/39483.got.cif
#   From: 2010.06.25/outbox.cif.g09.slc.cpg/sg11_20_cif.got.tgz:39483.got - 2010.06.27 23:14:04.
