data_PCOD8069776
_publ_section_title
;
Structure prediction by ZEFSAII (Michael W. Deem and Ramdas Pophale) SiO2 
 PCOD8069776
Probable space group: P 21/M
;
_chemical_formula_sum "Si O2"
_cell_formula_units_Z 28
_cell_length_a 17.254388
_cell_length_b 9.256311
_cell_length_c 17.533885
_cell_angle_alpha 90.000000
_cell_angle_beta 145.657260
_cell_angle_gamma 90.000000
_cell_volume 1579.807533
_symmetry_space_group_name_H-M "P 21/M"
_symmetry_group_IT_number 11
_symmetry_cell_setting 'monoclinic'
loop_
_space_group_symop_operation_xyz
x,y,z
-x,1/2+y,-z
-x,-y,-z
x,1/2-y,z
loop_
_atom_site_type_symbol
_atom_site_label
_atom_site_fract_x
_atom_site_fract_y
_atom_site_fract_z
Si Si1 0.157015 0.419590 0.825190
Si Si2 0.880291 0.580739 0.641690
Si Si3 0.638093 0.421634 0.900284
Si Si4 0.863576 0.582438 0.366988
Si Si5 0.185821 0.582110 0.099892
Si Si6 0.671183 0.920438 0.344319
Si Si7 0.121061 0.415949 0.188001
O O1 0.154507 0.250000 0.842138
O O2 0.180089 0.448949 0.754629
O O3 0.015602 0.488988 0.737224
O O4 0.283027 0.495903 0.969083
O O5 0.915500 0.750000 0.657773
O O6 0.762087 0.523702 0.489148
O O7 0.826756 0.553564 0.684050
O O8 0.650171 0.250000 0.924431
O O9 0.700019 0.464214 0.868505
O O10 0.482702 0.481597 0.775453
O O11 0.894132 0.750000 0.406182
O O12 0.740086 0.528592 0.321153
O O13 0.000000 0.500000 0.500000
O O14 0.193260 0.750000 0.123095
O O15 0.213559 0.503508 0.202926
O O16 0.038151 0.535854 0.946223
O O17 0.661994 0.750000 0.341648
O O18 0.136667 0.250000 0.178530
#
# Coordination Sequence:
#
# PCOD8069776 Si02
#       7
#     4   4   4   4   4   4   4
#     4  11  22  33  52  82 111 138 173 221 268 311
#     4  10  18  34  57  80 103 138 183 218 256 316
#     4  10  20  37  56  77 105 143 183 215 257 319
#     4  10  20  35  55  81 108 137 177 219 263 311
#     4   9  17  30  49  74 103 135 173 215 261 310
#     4   9  19  35  58  79 103 140 181 220 258 310
#     4   9  17  29  49  77 103 131 173 218 261 309
#
# _framework density 17.723678
#
# number of rings (size 3 to 8) (size 9 to 14) (size 15 to 20)
#    0.000    2.286    2.857    0.429    0.000    2.286 
#    0.000    2.143    0.000    0.000    0.000    0.000 
#    0.000    0.000    0.000    0.000    0.000    0.000 
#
# Total GULP energy -347205.939288 kJ/mol
# GULP energy per Si atom -12400.212117 kJ/mol
# Density = 1.768334 g / cm^3
# Si number density = 17.723678 Si / 1000 Ang^3
#
#
#
# Elastic Constant Matrix: (Units=GPa)
#
#
# Indices 1 2 3 4 5 6 
#
# 1 149.7881 46.9085 69.0323 0.0000 -6.8101 0.0000
# 2 46.9085 45.3211 37.5552 0.0000 -5.5803 0.0000
# 3 69.0323 37.5552 118.2438 0.0000 -0.6434 0.0000
# 4 0.0000 0.0000 0.0000 16.3986 0.0000 -7.2562
# 5 -6.8101 -5.5803 -0.6434 0.0000 32.7237 0.0000
# 6 0.0000 0.0000 0.0000 -7.2562 0.0000 24.9062
#
#
#
# Elastic Compliance Matrix: (Units=1/GPa)
#
#
# Indices 1 2 3 4 5 6 
#
# 1 0.011036 -0.008122 -0.003859 0.000000 0.000836 0.000000
# 2 -0.008122 0.036737 -0.006902 0.000000 0.004439 0.000000
# 3 -0.003859 -0.006902 0.012893 0.000000 -0.001727 0.000000
# 4 0.000000 0.000000 0.000000 0.070005 0.000000 0.020395
# 5 0.000836 0.004439 -0.001727 0.000000 0.031456 0.000000
# 6 0.000000 0.000000 0.000000 0.020395 0.000000 0.046093
#
#
# Mechanical properties :
#
#
# Convention : Reuss Voigt Hill
#
# Bulk Modulus (GPa) = 43.66814 68.92723 56.29769
# Shear Modulus (GPa) = 19.71459 25.46285 22.58872
#
# Velocity S-wave (km/s) = 3.33878 3.79444 3.57388
# Velocity P-wave (km/s) = 6.28928 7.62701 6.99022
#
# Compressibility (1/GPa) = 0.02289999
#
# Stress axis : x y z
#
# Youngs Moduli (GPa) = 90.61223 27.22030 77.56329
#
# Poissons Ratio (x) = 0.22109 0.29930
# Poissons Ratio (y) = 0.73596 0.53535
# Poissons Ratio (z) = 0.34965 0.18788
#
# Static dielectric constant tensor:
#      x y z
#    x 3.537290 0.000000 -0.113680 
#    y 0.000000 3.156630 0.000000 
#    z -0.113680 0.000000 3.416220 
# 
# 
# High freq. dielectric constant tensor:
#      x y z
#    x 1.696570 0.000000 -0.013470 
#    y 0.000000 1.668180 0.000000 
#    z -0.013470 0.000000 1.673730 
# 
# From -- ./inp_files/60088.got.cif
#   From: 2010.06.25/outbox.cif.g09.slc.cpg/sg11_31_cif.got.tgz:60088.got - 2010.06.27 23:14:04.
