data_PCOD8069480
_publ_section_title
;
Structure prediction by ZEFSAII (Michael W. Deem and Ramdas Pophale) SiO2 
 PCOD8069480
Probable space group: P 21/M
;
_chemical_formula_sum "Si O2"
_cell_formula_units_Z 24
_cell_length_a 12.586538
_cell_length_b 8.997680
_cell_length_c 18.188479
_cell_angle_alpha 90.000000
_cell_angle_beta 140.475318
_cell_angle_gamma 90.000000
_cell_volume 1310.903121
_symmetry_space_group_name_H-M "P 21/M"
_symmetry_group_IT_number 11
_symmetry_cell_setting 'monoclinic'
loop_
_space_group_symop_operation_xyz
x,y,z
-x,1/2+y,-z
-x,-y,-z
x,1/2-y,z
loop_
_atom_site_type_symbol
_atom_site_label
_atom_site_fract_x
_atom_site_fract_y
_atom_site_fract_z
Si Si1 0.662374 0.417090 0.229838
Si Si2 0.739693 0.078846 0.602807
Si Si3 0.109433 0.076525 0.757073
Si Si4 0.305168 0.082387 0.002399
Si Si5 0.593249 0.922874 0.658718
Si Si6 0.421071 0.925709 0.197072
O O1 0.712118 0.250000 0.279735
O O2 0.821094 0.493418 0.277229
O O3 0.603031 0.506628 0.271317
O O4 0.503911 0.415934 0.088865
O O5 0.731328 0.250000 0.623941
O O6 0.595489 0.042870 0.467350
O O7 0.913915 0.041749 0.656789
O O8 0.721395 0.976076 0.664535
O O9 0.148710 0.250000 0.769106
O O10 0.200041 0.015081 0.878881
O O11 0.243093 0.250000 0.986839
O O12 0.281853 0.980898 0.063168
O O13 0.622051 0.750000 0.689879
O O14 0.632616 0.015169 0.752455
O O15 0.430830 0.750000 0.203061
#
# Coordination Sequence:
#
# PCOD8069480 Si02
#       6
#     4   4   4   4   4   4
#     4   9  18  31  49  76 106 136 166 199 245 296
#     4   9  20  35  55  78  99 129 166 207 250 297
#     4  10  18  32  52  77 106 132 165 204 246 296
#     4   8  17  31  49  75 105 135 163 200 246 294
#     4  10  19  36  56  74  99 129 167 210 253 297
#     4  10  19  32  53  75  98 133 173 207 244 295
#
# _framework density 18.307988999999999
#
# number of rings (size 3 to 8) (size 9 to 14) (size 15 to 20)
#    1.000    1.667    0.000    2.500    0.000    2.000 
#    0.000    1.667    0.000    0.000    0.000    0.000 
#    0.000    0.000    0.000    0.000    0.000    0.000 
#
# Total GULP energy -297464.594522 kJ/mol
# GULP energy per Si atom -12394.358105 kJ/mol
# Density = 1.826632 g / cm^3
# Si number density = 18.307989 Si / 1000 Ang^3
#
#
#
# Elastic Constant Matrix: (Units=GPa)
#
#
# Indices 1 2 3 4 5 6 
#
# 1 27.5024 16.7883 -3.6727 0.0000 -4.8461 0.0000
# 2 16.7883 94.9814 2.6292 0.0000 -11.8457 0.0000
# 3 -3.6727 2.6292 9.3189 0.0000 -2.2148 0.0000
# 4 0.0000 0.0000 0.0000 17.2313 0.0000 -3.6644
# 5 -4.8461 -11.8457 -2.2148 0.0000 26.0724 0.0000
# 6 0.0000 0.0000 0.0000 -3.6644 0.0000 34.7359
#
#
#
# Elastic Compliance Matrix: (Units=1/GPa)
#
#
# Indices 1 2 3 4 5 6 
#
# 1 0.045148 -0.007741 0.021572 0.000000 0.006707 0.000000
# 2 -0.007741 0.012524 -0.005689 0.000000 0.003768 0.000000
# 3 0.021572 -0.005689 0.120181 0.000000 0.011634 0.000000
# 4 0.000000 0.000000 0.000000 0.059366 0.000000 0.006263
# 5 0.006707 0.003768 0.011634 0.000000 0.042302 0.000000
# 6 0.000000 0.000000 0.000000 0.006263 0.000000 0.029449
#
#
# Mechanical properties :
#
#
# Convention : Reuss Voigt Hill
#
# Bulk Modulus (GPa) = 5.15100 18.14360 11.64730
# Shear Modulus (GPa) = 13.99001 23.34511 18.66756
#
# Velocity S-wave (km/s) = 2.76732 3.57477 3.19664
# Velocity P-wave (km/s) = 3.60976 5.19330 4.47218
#
# Compressibility (1/GPa) = 0.19413713
#
# Stress axis : x y z
#
# Youngs Moduli (GPa) = 22.14925 79.84677 8.32081
#
# Poissons Ratio (x) = 0.61807 -0.17949
# Poissons Ratio (y) = 0.17145 0.04733
# Poissons Ratio (z) = -0.47779 0.45422
#
# Static dielectric constant tensor:
#      x y z
#    x 3.148760 0.000000 0.000480 
#    y 0.000000 3.333250 0.000000 
#    z 0.000480 0.000000 3.144010 
# 
# 
# High freq. dielectric constant tensor:
#      x y z
#    x 1.695010 0.000000 -0.006970 
#    y 0.000000 1.712910 0.000000 
#    z -0.006970 0.000000 1.682850 
# 
# From -- ./inp_files/40509.got.cif
#   From: 2010.06.25/outbox.cif.g09.slc.cpg/sg11_21_cif.got.tgz:40509.got - 2010.06.27 23:14:04.
