data_PCOD8069571
_publ_section_title
;
Structure prediction by ZEFSAII (Michael W. Deem and Ramdas Pophale) SiO2 
 PCOD8069571
Probable space group: P 21/M
;
_chemical_formula_sum "Si O2"
_cell_formula_units_Z 24
_cell_length_a 9.444092
_cell_length_b 21.555595
_cell_length_c 7.545694
_cell_angle_alpha 90.000000
_cell_angle_beta 62.233942
_cell_angle_gamma 90.000000
_cell_volume 1359.228766
_symmetry_space_group_name_H-M "P 21/M"
_symmetry_group_IT_number 11
_symmetry_cell_setting 'monoclinic'
loop_
_space_group_symop_operation_xyz
x,y,z
-x,1/2+y,-z
-x,-y,-z
x,1/2-y,z
loop_
_atom_site_type_symbol
_atom_site_label
_atom_site_fract_x
_atom_site_fract_y
_atom_site_fract_z
Si Si1 0.120564 0.022966 0.781438
Si Si2 0.715479 0.321740 0.145560
Si Si3 0.133431 0.606157 0.228518
Si Si4 0.755401 0.398369 0.459182
Si Si5 0.563722 0.946365 0.216209
Si Si6 0.540174 0.425051 0.091413
O O1 0.268287 0.059560 0.782895
O O2 0.034399 0.071727 0.701925
O O3 0.177008 0.964745 0.635524
O O4 0.000000 0.000000 0.000000
O O5 0.673171 0.250000 0.185843
O O6 0.783440 0.347276 0.291334
O O7 0.848525 0.334148 0.913872
O O8 0.551629 0.359700 0.190560
O O9 0.148852 0.626286 0.424526
O O10 0.282063 0.559968 0.094676
O O11 0.566096 0.404596 0.607171
O O12 0.583626 0.922314 0.000454
O O13 0.503034 0.018500 0.247437
#
# Coordination Sequence:
#
# PCOD8069571 Si02
#       6
#     4   4   4   4   4   4
#     4  12  18  32  54  86 117 138 172 226 280 337
#     4  10  20  37  58  77 108 144 190 228 259 329
#     4   9  20  35  51  83 110 140 181 221 269 320
#     4  11  21  34  55  86 107 144 182 220 284 322
#     4  10  18  32  56  81 116 136 175 230 281 325
#     4   8  17  34  52  79 106 141 178 219 279 313
#
# _framework density 17.657071999999999
#
# number of rings (size 3 to 8) (size 9 to 14) (size 15 to 20)
#    1.000    1.000    5.000    1.000    0.000    0.667 
#    0.000    0.000    0.000    2.000    0.000    0.000 
#    0.000    0.000    0.000    0.000    0.000    0.000 
#
# Total GULP energy -297385.075823 kJ/mol
# GULP energy per Si atom -12391.044826 kJ/mol
# Density = 1.761688 g / cm^3
# Si number density = 17.657072 Si / 1000 Ang^3
#
#
#
# Elastic Constant Matrix: (Units=GPa)
#
#
# Indices 1 2 3 4 5 6 
#
# 1 125.3148 45.6879 46.2422 0.0000 25.3429 0.0000
# 2 45.6879 98.3214 19.8723 0.0000 21.4575 0.0000
# 3 46.2422 19.8723 64.4751 0.0000 23.5672 0.0000
# 4 0.0000 0.0000 0.0000 9.9552 0.0000 -2.0720
# 5 25.3429 21.4575 23.5672 0.0000 31.0704 0.0000
# 6 0.0000 0.0000 0.0000 -2.0720 0.0000 17.6399
#
#
#
# Elastic Compliance Matrix: (Units=1/GPa)
#
#
# Indices 1 2 3 4 5 6 
#
# 1 0.012378 -0.003882 -0.006877 0.000000 -0.002199 0.000000
# 2 -0.003882 0.013233 0.001229 0.000000 -0.006905 0.000000
# 3 -0.006877 0.001229 0.025352 0.000000 -0.014470 0.000000
# 4 0.000000 0.000000 0.000000 0.102968 0.000000 0.012095
# 5 -0.002199 -0.006905 -0.014470 0.000000 0.049723 0.000000
# 6 0.000000 0.000000 0.000000 0.012095 0.000000 0.058110
#
#
# Mechanical properties :
#
#
# Convention : Reuss Voigt Hill
#
# Bulk Modulus (GPa) = 31.34428 56.85735 44.10082
# Shear Modulus (GPa) = 17.15519 23.48700 20.32110
#
# Velocity S-wave (km/s) = 3.12039 3.65111 3.39614
# Velocity P-wave (km/s) = 5.54731 7.07425 6.35679
#
# Compressibility (1/GPa) = 0.03190374
#
# Stress axis : x y z
#
# Youngs Moduli (GPa) = 80.79160 75.56872 39.44410
#
# Poissons Ratio (x) = 0.29334 0.27127
# Poissons Ratio (y) = 0.31361 -0.04849
# Poissons Ratio (z) = 0.55562 -0.09290
#
# Static dielectric constant tensor:
#      x y z
#    x 3.376780 0.000000 0.218850 
#    y 0.000000 2.834310 0.000000 
#    z 0.218850 0.000000 3.358980 
# 
# 
# High freq. dielectric constant tensor:
#      x y z
#    x 1.681970 0.000000 0.029700 
#    y 0.000000 1.633850 0.000000 
#    z 0.029700 0.000000 1.677360 
# 
# From -- ./inp_files/14629.got.cif
#   From: 2010.06.25/outbox.cif.g09.slc.cpg/sg11_8_cif.got.tgz:14629.got - 2010.06.27 23:14:04.
