data_PCOD8069439
_publ_section_title
;
Structure prediction by ZEFSAII (Michael W. Deem and Ramdas Pophale) SiO2 
 PCOD8069439
Probable space group: P 21/M
;
_chemical_formula_sum "Si O2"
_cell_formula_units_Z 32
_cell_length_a 14.932744
_cell_length_b 9.113832
_cell_length_c 14.977444
_cell_angle_alpha 90.000000
_cell_angle_beta 79.397048
_cell_angle_gamma 90.000000
_cell_volume 2003.545035
_symmetry_space_group_name_H-M "P 21/M"
_symmetry_group_IT_number 11
_symmetry_cell_setting 'monoclinic'
loop_
_space_group_symop_operation_xyz
x,y,z
-x,1/2+y,-z
-x,-y,-z
x,1/2-y,z
loop_
_atom_site_type_symbol
_atom_site_label
_atom_site_fract_x
_atom_site_fract_y
_atom_site_fract_z
Si Si1 0.930677 0.418669 0.390094
Si Si2 0.239975 0.422186 0.248340
Si Si3 0.384303 0.921110 0.938294
Si Si4 0.587495 0.920241 0.884089
Si Si5 0.213004 0.418623 0.916681
Si Si6 0.067942 0.079243 0.794075
Si Si7 0.888482 0.575865 0.886090
Si Si8 0.129849 0.081123 0.431731
O O1 0.904353 0.250000 0.379725
O O2 0.910648 0.508156 0.304793
O O3 0.867637 0.483167 0.480225
O O4 0.035884 0.436842 0.395700
O O5 0.223216 0.250000 0.253649
O O6 0.346009 0.461374 0.210767
O O7 0.177358 0.484267 0.180022
O O8 0.208351 0.481723 0.350944
O O9 0.365864 0.750000 0.949049
O O10 0.483341 0.954734 0.876262
O O11 0.306976 0.991839 0.890739
O O12 0.380193 0.986785 0.037747
O O13 0.599702 0.750000 0.908211
O O14 0.239278 0.250000 0.925733
O O15 0.157619 0.444648 0.836673
O O16 0.154405 0.473109 0.012031
O O17 0.044907 0.250000 0.785971
O O18 0.985185 0.001744 0.859566
O O19 0.903614 0.750000 0.878236
O O20 0.145550 0.250000 0.456581
#
# Coordination Sequence:
#
# PCOD8069439 Si02
#       8
#     4   4   4   4   4   4   4   4
#     4  10  19  32  48  68  93 124 156 192 237 280
#     4   9  15  28  50  70  92 127 159 184 228 287
#     4  10  19  29  46  72  95 122 162 202 235 271
#     4   9  17  31  49  68  96 128 156 192 240 287
#     4  10  21  35  49  64  93 134 166 194 236 279
#     4  11  22  33  47  69  94 126 165 202 234 272
#     4  10  18  32  49  66  93 131 165 192 228 276
#     4   9  17  30  48  69  91 120 157 191 230 281
#
# _framework density 15.971689
#
# number of rings (size 3 to 8) (size 9 to 14) (size 15 to 20)
#    0.000    2.250    2.500    1.500    0.000    2.500 
#    0.000    0.625    0.000    0.000    0.000    0.875 
#    0.000    0.000    0.000    0.000    0.000    0.000 
#
# Total GULP energy -396778.488395 kJ/mol
# GULP energy per Si atom -12399.327762 kJ/mol
# Density = 1.593534 g / cm^3
# Si number density = 15.971689 Si / 1000 Ang^3
#
#
#
# Elastic Constant Matrix: (Units=GPa)
#
#
# Indices 1 2 3 4 5 6 
#
# 1 93.1487 44.7894 48.3421 0.0000 -11.6025 0.0000
# 2 44.7894 64.3293 38.6920 0.0000 -1.8408 0.0000
# 3 48.3421 38.6920 101.3096 0.0000 -12.3637 0.0000
# 4 0.0000 0.0000 0.0000 22.4996 0.0000 0.5797
# 5 -11.6025 -1.8408 -12.3637 0.0000 24.0927 0.0000
# 6 0.0000 0.0000 0.0000 0.5797 0.0000 24.3745
#
#
#
# Elastic Compliance Matrix: (Units=1/GPa)
#
#
# Indices 1 2 3 4 5 6 
#
# 1 0.018601 -0.010232 -0.004236 0.000000 0.006003 0.000000
# 2 -0.010232 0.025960 -0.005752 0.000000 -0.005896 0.000000
# 3 -0.004236 -0.005752 0.014707 0.000000 0.005068 0.000000
# 4 0.000000 0.000000 0.000000 0.044472 0.000000 -0.001058
# 5 0.006003 -0.005896 0.005068 0.000000 0.046547 0.000000
# 6 0.000000 0.000000 0.000000 -0.001058 0.000000 0.041052
#
#
# Mechanical properties :
#
#
# Convention : Reuss Voigt Hill
#
# Bulk Modulus (GPa) = 53.10771 58.04827 55.57799
# Shear Modulus (GPa) = 21.00362 22.65763 21.83062
#
# Velocity S-wave (km/s) = 3.63030 3.77053 3.70108
# Velocity P-wave (km/s) = 7.13410 7.44172 7.28954
#
# Compressibility (1/GPa) = 0.01882966
#
# Stress axis : x y z
#
# Youngs Moduli (GPa) = 53.75975 38.52144 67.99459
#
# Poissons Ratio (x) = 0.39414 0.28801
# Poissons Ratio (y) = 0.55005 0.39108
# Poissons Ratio (z) = 0.22771 0.22156
#
# Static dielectric constant tensor:
#      x y z
#    x 3.003910 0.000000 -0.167000 
#    y 0.000000 3.013740 0.000000 
#    z -0.167000 0.000000 3.055670 
# 
# 
# High freq. dielectric constant tensor:
#      x y z
#    x 1.596820 0.000000 -0.013770 
#    y 0.000000 1.610030 0.000000 
#    z -0.013770 0.000000 1.602480 
# 
# From -- ./inp_files/51198.got.cif
#   From: 2010.06.25/outbox.cif.g09.slc.cpg/sg11_26_cif.got.tgz:51198.got - 2010.06.27 23:14:04.
