data_PCOD8069154
_publ_section_title
;
Structure prediction by ZEFSAII (Michael W. Deem and Ramdas Pophale) SiO2 
 PCOD8069154
Probable space group: P 21/M
;
_chemical_formula_sum "Si O2"
_cell_formula_units_Z 32
_cell_length_a 12.818673
_cell_length_b 19.224759
_cell_length_c 8.683736
_cell_angle_alpha 90.000000
_cell_angle_beta 128.056719
_cell_angle_gamma 90.000000
_cell_volume 1685.025563
_symmetry_space_group_name_H-M "P 21/M"
_symmetry_group_IT_number 11
_symmetry_cell_setting 'monoclinic'
loop_
_space_group_symop_operation_xyz
x,y,z
-x,1/2+y,-z
-x,-y,-z
x,1/2-y,z
loop_
_atom_site_type_symbol
_atom_site_label
_atom_site_fract_x
_atom_site_fract_y
_atom_site_fract_z
Si Si1 0.673755 0.960497 0.590301
Si Si2 0.108682 0.576813 0.680922
Si Si3 0.470887 0.905079 0.614367
Si Si4 0.662758 0.327731 0.024230
Si Si5 0.182557 0.057974 0.583269
Si Si6 0.451925 0.078658 0.978933
Si Si7 0.878717 0.039774 0.961101
Si Si8 0.250777 0.672271 0.242367
O O1 0.585769 0.899658 0.588179
O O2 0.776586 0.930687 0.558310
O O3 0.579115 0.015407 0.418573
O O4 0.744963 0.999878 0.795485
O O5 0.205450 0.642923 0.770692
O O6 0.158002 0.524151 0.593142
O O7 0.955464 0.599269 0.511221
O O8 0.112944 0.537325 0.848039
O O9 0.528628 0.888773 0.834537
O O10 0.353731 0.851270 0.468141
O O11 0.642233 0.250000 0.068702
O O12 0.535138 0.374298 0.938375
O O13 0.675598 0.328365 0.853216
O O14 0.296977 0.086963 0.797955
O O15 0.500000 0.000000 0.000000
O O16 0.872121 0.118267 0.883862
O O17 0.000000 0.000000 0.000000
O O18 0.198328 0.750000 0.233964
#
# Coordination Sequence:
#
# PCOD8069154 Si02
#       8
#     4   4   4   4   4   4   4   4
#     4  10  18  30  50  82 106 143 182 243 286 334
#     4  10  20  34  53  82 116 152 183 244 288 349
#     4  10  20  31  53  79 112 145 184 233 294 337
#     4  10  21  39  60  82 112 152 193 234 293 357
#     4  11  20  32  53  83 119 142 192 241 294 332
#     4  12  21  34  56  87 117 150 193 246 284 342
#     4  10  18  31  53  80 110 142 194 237 287 340
#     4   9  20  36  56  80 111 147 189 237 286 349
#
# _framework density 18.99081
#
# number of rings (size 3 to 8) (size 9 to 14) (size 15 to 20)
#    0.000    1.750    3.750    1.500    3.500    0.500 
#    0.000    0.625    0.000    1.500    0.000    0.875 
#    0.000    0.000    0.000    0.000    0.000    0.000 
#
# Total GULP energy -396754.898275 kJ/mol
# GULP energy per Si atom -12398.590571 kJ/mol
# Density = 1.894759 g / cm^3
# Si number density = 18.990810 Si / 1000 Ang^3
#
#
#
# Elastic Constant Matrix: (Units=GPa)
#
#
# Indices 1 2 3 4 5 6 
#
# 1 81.9037 30.4900 25.0066 0.0000 12.2881 0.0000
# 2 30.4900 92.8208 23.0572 0.0000 10.0642 0.0000
# 3 25.0066 23.0572 110.2945 0.0000 13.0279 0.0000
# 4 0.0000 0.0000 0.0000 19.6346 0.0000 3.0683
# 5 12.2881 10.0642 13.0279 0.0000 35.1089 0.0000
# 6 0.0000 0.0000 0.0000 3.0683 0.0000 23.9385
#
#
#
# Elastic Compliance Matrix: (Units=1/GPa)
#
#
# Indices 1 2 3 4 5 6 
#
# 1 0.014837 -0.003988 -0.002146 0.000000 -0.003254 0.000000
# 2 -0.003988 0.012647 -0.001544 0.000000 -0.001656 0.000000
# 3 -0.002146 -0.001544 0.010181 0.000000 -0.002584 0.000000
# 4 0.000000 0.000000 0.000000 0.051971 0.000000 -0.006661
# 5 -0.003254 -0.001656 -0.002584 0.000000 0.031055 0.000000
# 6 0.000000 0.000000 0.000000 -0.006661 0.000000 0.042627
#
#
# Mechanical properties :
#
#
# Convention : Reuss Voigt Hill
#
# Bulk Modulus (GPa) = 44.82430 49.12516 46.97473
# Shear Modulus (GPa) = 26.86560 29.50077 28.18318
#
# Velocity S-wave (km/s) = 3.76528 3.94562 3.85651
# Velocity P-wave (km/s) = 6.52361 6.83237 6.67978
#
# Compressibility (1/GPa) = 0.02230933
#
# Stress axis : x y z
#
# Youngs Moduli (GPa) = 67.39724 79.07292 98.22022
#
# Poissons Ratio (x) = 0.31534 0.21078
# Poissons Ratio (y) = 0.26878 0.15165
# Poissons Ratio (z) = 0.14464 0.12208
#
# Static dielectric constant tensor:
#      x y z
#    x 3.496670 0.000000 0.061390 
#    y 0.000000 3.307000 0.000000 
#    z 0.061390 0.000000 3.755740 
# 
# 
# High freq. dielectric constant tensor:
#      x y z
#    x 1.735870 0.000000 -0.001840 
#    y 0.000000 1.692090 0.000000 
#    z -0.001840 0.000000 1.751790 
# 
# From -- ./inp_files/19430.got.cif
#   From: 2010.06.25/outbox.cif.g09.slc.cpg/sg11_10_cif.got.tgz:19430.got - 2010.06.27 23:14:04.
