data_PCOD8069942
_publ_section_title
;
Structure prediction by ZEFSAII (Michael W. Deem and Ramdas Pophale) SiO2 
 PCOD8069942
Probable space group: P 21/M
;
_chemical_formula_sum "Si O2"
_cell_formula_units_Z 32
_cell_length_a 14.077508
_cell_length_b 9.646612
_cell_length_c 22.700654
_cell_angle_alpha 90.000000
_cell_angle_beta 148.236463
_cell_angle_gamma 90.000000
_cell_volume 1622.807733
_symmetry_space_group_name_H-M "P 21/M"
_symmetry_group_IT_number 11
_symmetry_cell_setting 'monoclinic'
loop_
_space_group_symop_operation_xyz
x,y,z
-x,1/2+y,-z
-x,-y,-z
x,1/2-y,z
loop_
_atom_site_type_symbol
_atom_site_label
_atom_site_fract_x
_atom_site_fract_y
_atom_site_fract_z
Si Si1 0.629642 0.913027 0.442601
Si Si2 0.224062 0.594681 0.237957
Si Si3 0.581530 0.094978 0.307660
Si Si4 0.674090 0.086488 0.070572
Si Si5 0.909955 0.093972 0.089154
Si Si6 0.009156 0.912434 0.679683
Si Si7 0.736872 0.403100 0.875994
Si Si8 0.909841 0.404299 0.405243
O O1 0.627365 0.750000 0.425241
O O2 0.430217 0.955960 0.360528
O O3 0.793738 0.947292 0.574976
O O4 0.671970 0.999102 0.405638
O O5 0.198744 0.750000 0.248365
O O6 0.177452 0.586589 0.143796
O O7 0.081792 0.499542 0.197728
O O8 0.545889 0.250000 0.314232
O O9 0.701031 0.104355 0.312250
O O10 0.399775 0.028061 0.188189
O O11 0.634696 0.250000 0.060539
O O12 0.728181 0.056581 0.030699
O O13 0.853613 0.029218 0.199199
O O14 0.500000 0.000000 0.000000
O O15 0.965831 0.250000 0.135652
O O16 0.881236 0.078541 0.004070
O O17 0.037191 0.750000 0.694687
O O18 0.070704 0.971867 0.648848
O O19 0.645504 0.250000 0.834076
O O20 0.997545 0.250000 0.452685
O O21 0.000000 0.500000 0.500000
#
# Coordination Sequence:
#
# PCOD8069942 Si02
#       8
#     4   4   4   4   4   4   4   4
#     4   9  17  33  55  77 106 144 176 208 262 330
#     4   9  18  32  54  83 109 139 179 220 269 329
#     4  10  19  28  44  78 112 137 174 220 266 317
#     4  10  23  42  61  81 106 143 189 230 270 315
#     4  10  21  37  56  79 108 144 185 229 274 316
#     4   9  18  35  57  75 103 145 183 217 262 324
#     4   9  19  34  52  76 110 148 182 213 264 332
#     4  10  19  30  48  76 106 139 177 216 264 323
#
# _framework density 19.718910000000001
#
# number of rings (size 3 to 8) (size 9 to 14) (size 15 to 20)
#    0.000    2.500    1.250    1.500    1.750    3.500 
#    0.000    1.875    0.000    0.000    0.000    0.000 
#    0.000    0.000    0.000    0.000    0.000    0.000 
#
# Total GULP energy -396418.179424 kJ/mol
# GULP energy per Si atom -12388.068107 kJ/mol
# Density = 1.967403 g / cm^3
# Si number density = 19.718910 Si / 1000 Ang^3
#
#
#
# Elastic Constant Matrix: (Units=GPa)
#
#
# Indices 1 2 3 4 5 6 
#
# 1 59.0099 28.3305 33.7495 0.0000 21.4864 0.0000
# 2 28.3305 76.0354 36.6604 0.0000 15.7209 0.0000
# 3 33.7495 36.6604 103.5696 0.0000 15.7204 0.0000
# 4 0.0000 0.0000 0.0000 26.8451 0.0000 9.0395
# 5 21.4864 15.7209 15.7204 0.0000 30.8412 0.0000
# 6 0.0000 0.0000 0.0000 9.0395 0.0000 25.5792
#
#
#
# Elastic Compliance Matrix: (Units=1/GPa)
#
#
# Indices 1 2 3 4 5 6 
#
# 1 0.027225 -0.004830 -0.005047 0.000000 -0.013932 0.000000
# 2 -0.004830 0.017682 -0.004149 0.000000 -0.003534 0.000000
# 3 -0.005047 -0.004149 0.012913 0.000000 -0.000951 0.000000
# 4 0.000000 0.000000 0.000000 0.042282 0.000000 -0.014942
# 5 -0.013932 -0.003534 -0.000951 0.000000 0.044417 0.000000
# 6 0.000000 0.000000 0.000000 -0.014942 0.000000 0.044375
#
#
# Mechanical properties :
#
#
# Convention : Reuss Voigt Hill
#
# Bulk Modulus (GPa) = 33.59260 48.45507 41.02384
# Shear Modulus (GPa) = 22.03930 25.97806 24.00868
#
# Velocity S-wave (km/s) = 3.34679 3.63356 3.49312
# Velocity P-wave (km/s) = 5.65751 6.49846 6.09251
#
# Compressibility (1/GPa) = 0.02976846
#
# Stress axis : x y z
#
# Youngs Moduli (GPa) = 36.73148 56.55388 77.44191
#
# Poissons Ratio (x) = 0.27314 0.39087
# Poissons Ratio (y) = 0.17740 0.32129
# Poissons Ratio (z) = 0.18539 0.23463
#
# Static dielectric constant tensor:
#      x y z
#    x 3.599880 0.000000 0.019000 
#    y 0.000000 3.539310 0.000000 
#    z 0.019000 0.000000 3.651430 
# 
# 
# High freq. dielectric constant tensor:
#      x y z
#    x 1.752990 0.000000 0.012130 
#    y 0.000000 1.755550 0.000000 
#    z 0.012130 0.000000 1.760280 
# 
# From -- ./inp_files/69094.got.cif
#   From: 2010.06.25/outbox.cif.g09.slc.cpg/sg11_35_cif.got.tgz:69094.got - 2010.06.27 23:14:04.
