data_PCOD8069793
_publ_section_title
;
Structure prediction by ZEFSAII (Michael W. Deem and Ramdas Pophale) SiO2 
 PCOD8069793
Probable space group: P 21/M
;
_chemical_formula_sum "Si O2"
_cell_formula_units_Z 28
_cell_length_a 10.220117
_cell_length_b 9.286140
_cell_length_c 29.860654
_cell_angle_alpha 90.000000
_cell_angle_beta 146.462145
_cell_angle_gamma 90.000000
_cell_volume 1565.716430
_symmetry_space_group_name_H-M "P 21/M"
_symmetry_group_IT_number 11
_symmetry_cell_setting 'monoclinic'
loop_
_space_group_symop_operation_xyz
x,y,z
-x,1/2+y,-z
-x,-y,-z
x,1/2-y,z
loop_
_atom_site_type_symbol
_atom_site_label
_atom_site_fract_x
_atom_site_fract_y
_atom_site_fract_z
Si Si1 0.916920 0.580387 0.762313
Si Si2 0.206240 0.579422 0.183466
Si Si3 0.370562 0.918152 0.838874
Si Si4 0.110645 0.083211 0.990582
Si Si5 0.567510 0.583604 0.584518
Si Si6 0.365464 0.580463 0.736461
Si Si7 0.171043 0.083452 0.430158
O O1 0.938651 0.750000 0.779893
O O2 0.893961 0.487455 0.800022
O O3 0.689536 0.549501 0.666539
O O4 0.150391 0.519362 0.803875
O O5 0.237865 0.750000 0.197534
O O6 0.457068 0.508059 0.243929
O O7 0.015990 0.538080 0.091238
O O8 0.322715 0.750000 0.819539
O O9 0.384815 0.980920 0.792612
O O10 0.611080 0.954219 0.934205
O O11 0.074326 0.250000 0.990926
O O12 0.000000 0.000000 0.000000
O O13 0.506456 0.750000 0.562682
O O14 0.745362 0.535308 0.595569
O O15 0.319189 0.499762 0.510386
O O16 0.427356 0.750000 0.751809
O O17 0.104926 0.548372 0.643096
O O18 0.221478 0.250000 0.451980
#
# Coordination Sequence:
#
# PCOD8069793 Si02
#       7
#     4   4   4   4   4   4   4
#     4  10  20  37  58  79 106 147 188 217 259 325
#     4  11  24  37  51  80 117 144 174 224 278 320
#     4   9  17  33  59  82 103 137 184 227 258 308
#     4  10  20  35  56  81 109 140 178 224 270 316
#     4   9  17  31  52  80 110 138 173 219 268 318
#     4  10  18  34  59  82 104 141 187 221 259 322
#     4   9  17  30  53  84 109 133 175 224 267 315
#
# _framework density 17.883188000000001
#
# number of rings (size 3 to 8) (size 9 to 14) (size 15 to 20)
#    0.000    2.286    2.857    0.429    0.000    2.286 
#    0.000    2.143    0.000    0.000    0.000    0.000 
#    0.000    0.000    0.000    0.000    0.000    0.000 
#
# Total GULP energy -347217.443809 kJ/mol
# GULP energy per Si atom -12400.622993 kJ/mol
# Density = 1.784248 g / cm^3
# Si number density = 17.883188 Si / 1000 Ang^3
#
#
#
# Elastic Constant Matrix: (Units=GPa)
#
#
# Indices 1 2 3 4 5 6 
#
# 1 102.7528 36.7637 43.2615 0.0000 0.9735 0.0000
# 2 36.7637 50.8914 46.7347 0.0000 -0.0345 0.0000
# 3 43.2615 46.7347 118.4891 0.0000 5.0660 0.0000
# 4 0.0000 0.0000 0.0000 27.8024 0.0000 -2.1774
# 5 0.9735 -0.0345 5.0660 0.0000 26.3280 0.0000
# 6 0.0000 0.0000 0.0000 -2.1774 0.0000 26.0344
#
#
#
# Elastic Compliance Matrix: (Units=1/GPa)
#
#
# Indices 1 2 3 4 5 6 
#
# 1 0.013334 -0.008105 -0.001664 0.000000 -0.000183 0.000000
# 2 -0.008105 0.035886 -0.011303 0.000000 0.002522 0.000000
# 3 -0.001664 -0.011303 0.013615 0.000000 -0.002573 0.000000
# 4 0.000000 0.000000 0.000000 0.036205 0.000000 0.003028
# 5 -0.000183 0.002522 -0.002573 0.000000 0.038488 0.000000
# 6 0.000000 0.000000 0.000000 0.003028 0.000000 0.038664
#
#
# Mechanical properties :
#
#
# Convention : Reuss Voigt Hill
#
# Bulk Modulus (GPa) = 48.32713 58.40590 53.36651
# Shear Modulus (GPa) = 22.19931 25.72453 23.96192
#
# Velocity S-wave (km/s) = 3.52710 3.79684 3.66445
# Velocity P-wave (km/s) = 6.60831 7.20777 6.91454
#
# Compressibility (1/GPa) = 0.02069231
#
# Stress axis : x y z
#
# Youngs Moduli (GPa) = 74.99549 27.86616 73.44712
#
# Poissons Ratio (x) = 0.22584 0.12221
# Poissons Ratio (y) = 0.60781 0.83016
# Poissons Ratio (z) = 0.12479 0.31497
#
# Static dielectric constant tensor:
#      x y z
#    x 3.255860 0.000000 0.094250 
#    y 0.000000 3.138460 0.000000 
#    z 0.094250 0.000000 3.519100 
# 
# 
# High freq. dielectric constant tensor:
#      x y z
#    x 1.679540 0.000000 0.007470 
#    y 0.000000 1.673000 0.000000 
#    z 0.007470 0.000000 1.705120 
# 
# From -- ./inp_files/28531.got.cif
#   From: 2010.06.25/outbox.cif.g09.slc.cpg/sg11_15_cif.got.tgz:28531.got - 2010.06.27 23:14:04.
