data_PCOD8069510
_publ_section_title
;
Structure prediction by ZEFSAII (Michael W. Deem and Ramdas Pophale) SiO2 
 PCOD8069510
Probable space group: P 21/M
;
_chemical_formula_sum "Si O2"
_cell_formula_units_Z 32
_cell_length_a 12.301801
_cell_length_b 9.315166
_cell_length_c 15.235656
_cell_angle_alpha 90.000000
_cell_angle_beta 93.295365
_cell_angle_gamma 90.000000
_cell_volume 1743.017474
_symmetry_space_group_name_H-M "P 21/M"
_symmetry_group_IT_number 11
_symmetry_cell_setting 'monoclinic'
loop_
_space_group_symop_operation_xyz
x,y,z
-x,1/2+y,-z
-x,-y,-z
x,1/2-y,z
loop_
_atom_site_type_symbol
_atom_site_label
_atom_site_fract_x
_atom_site_fract_y
_atom_site_fract_z
Si Si1 0.668716 0.583049 0.493320
Si Si2 0.963816 0.414486 0.913203
Si Si3 0.098468 0.082836 0.757514
Si Si4 0.301622 0.082628 0.878187
Si Si5 0.540658 0.418049 0.627346
Si Si6 0.468588 0.579037 0.176417
Si Si7 0.726526 0.413728 0.950771
Si Si8 0.091495 0.421086 0.560389
O O1 0.666788 0.750000 0.516940
O O2 0.636045 0.496099 0.578419
O O3 0.580364 0.547665 0.413836
O O4 0.788447 0.535259 0.467780
O O5 0.003465 0.250000 0.926878
O O6 0.834106 0.423414 0.896237
O O7 0.016616 0.482309 0.827232
O O8 0.000000 0.500000 0.000000
O O9 0.074881 0.250000 0.749557
O O10 0.222351 0.052831 0.792573
O O11 0.079724 0.019011 0.659600
O O12 0.307157 0.250000 0.900971
O O13 0.419246 0.019666 0.858692
O O14 0.255015 0.003758 0.960827
O O15 0.565636 0.250000 0.624114
O O16 0.546539 0.479524 0.726097
O O17 0.471188 0.750000 0.179944
O O18 0.371720 0.520825 0.110874
O O19 0.701400 0.250000 0.976382
O O20 0.075304 0.250000 0.553957
O O21 0.000000 0.500000 0.500000
#
# Coordination Sequence:
#
# PCOD8069510 Si02
#       8
#     4   4   4   4   4   4   4   4
#     4   9  18  33  53  77 105 132 166 216 265 302
#     4  10  19  33  52  73  99 131 170 212 251 295
#     4   9  18  33  55  77  96 131 177 212 250 303
#     4  10  18  32  54  74  97 132 173 207 243 303
#     4   9  17  32  55  78 100 134 174 209 252 312
#     4   9  18  31  49  75 103 131 167 206 247 300
#     4  10  20  32  47  72 105 133 160 208 260 294
#     4  10  21  37  55  77 107 139 174 219 265 311
#
# _framework density 18.358965999999999
#
# number of rings (size 3 to 8) (size 9 to 14) (size 15 to 20)
#    0.000    2.500    1.250    1.125    0.000    4.500 
#    0.000    5.000    0.000    1.500    0.000    0.000 
#    0.000    0.000    0.000    0.000    0.000    0.000 
#
# Total GULP energy -396765.247430 kJ/mol
# GULP energy per Si atom -12398.913982 kJ/mol
# Density = 1.831718 g / cm^3
# Si number density = 18.358966 Si / 1000 Ang^3
#
#
#
# Elastic Constant Matrix: (Units=GPa)
#
#
# Indices 1 2 3 4 5 6 
#
# 1 128.2388 31.6095 68.8161 0.0000 -9.7942 0.0000
# 2 31.6095 33.8644 34.0664 0.0000 -1.8859 0.0000
# 3 68.8161 34.0664 127.9612 0.0000 -6.4680 0.0000
# 4 0.0000 0.0000 0.0000 25.6957 0.0000 -1.4510
# 5 -9.7942 -1.8859 -6.4680 0.0000 30.2846 0.0000
# 6 0.0000 0.0000 0.0000 -1.4510 0.0000 23.3970
#
#
#
# Elastic Compliance Matrix: (Units=1/GPa)
#
#
# Indices 1 2 3 4 5 6 
#
# 1 0.012075 -0.006455 -0.004649 0.000000 0.002510 0.000000
# 2 -0.006455 0.043783 -0.008241 0.000000 -0.001121 0.000000
# 3 -0.004649 -0.008241 0.012542 0.000000 0.000662 0.000000
# 4 0.000000 0.000000 0.000000 0.039054 0.000000 0.002422
# 5 0.002510 -0.001121 0.000662 0.000000 0.033904 0.000000
# 6 0.000000 0.000000 0.000000 0.002422 0.000000 0.042891
#
#
# Mechanical properties :
#
#
# Convention : Reuss Voigt Hill
#
# Bulk Modulus (GPa) = 33.65806 62.11648 47.88727
# Shear Modulus (GPa) = 21.47377 26.24694 23.86035
#
# Velocity S-wave (km/s) = 3.42374 3.78518 3.60899
# Velocity P-wave (km/s) = 5.83116 7.28088 6.59597
#
# Compressibility (1/GPa) = 0.02971057
#
# Stress axis : x y z
#
# Youngs Moduli (GPa) = 82.81328 22.83998 79.73021
#
# Poissons Ratio (x) = 0.14744 0.37063
# Poissons Ratio (y) = 0.53458 0.65707
# Poissons Ratio (z) = 0.38496 0.18823
#
# Static dielectric constant tensor:
#      x y z
#    x 3.585720 0.000000 -0.113380 
#    y 0.000000 3.062940 0.000000 
#    z -0.113380 0.000000 3.527850 
# 
# 
# High freq. dielectric constant tensor:
#      x y z
#    x 1.724050 0.000000 -0.005980 
#    y 0.000000 1.674520 0.000000 
#    z -0.005980 0.000000 1.716260 
# 
# From -- ./inp_files/41209.got.cif
#   From: 2010.06.25/outbox.cif.g09.slc.cpg/sg11_21_cif.got.tgz:41209.got - 2010.06.27 23:14:04.
