data_PCOD8069820
_publ_section_title
;
Structure prediction by ZEFSAII (Michael W. Deem and Ramdas Pophale) SiO2 
 PCOD8069820
Probable space group: P 21/M
;
_chemical_formula_sum "Si O2"
_cell_formula_units_Z 24
_cell_length_a 9.506249
_cell_length_b 17.976662
_cell_length_c 9.797345
_cell_angle_alpha 90.000000
_cell_angle_beta 45.922245
_cell_angle_gamma 90.000000
_cell_volume 1202.792762
_symmetry_space_group_name_H-M "P 21/M"
_symmetry_group_IT_number 11
_symmetry_cell_setting 'monoclinic'
loop_
_space_group_symop_operation_xyz
x,y,z
-x,1/2+y,-z
-x,-y,-z
x,1/2-y,z
loop_
_atom_site_type_symbol
_atom_site_label
_atom_site_fract_x
_atom_site_fract_y
_atom_site_fract_z
Si Si1 0.602997 0.405354 0.300607
Si Si2 0.571115 0.918791 0.297866
Si Si3 0.024173 0.426193 0.070072
Si Si4 0.752246 0.082491 0.700619
Si Si5 0.140385 0.077842 0.294045
Si Si6 0.484292 0.663530 0.921424
O O1 0.473081 0.389038 0.521574
O O2 0.589370 0.492311 0.275456
O O3 0.518343 0.356009 0.236348
O O4 0.826606 0.378994 0.179278
O O5 0.402222 0.891962 0.309569
O O6 0.779871 0.883313 0.111833
O O7 0.040846 0.445613 0.218900
O O8 0.000000 0.500000 0.000000
O O9 0.970993 0.107603 0.510026
O O10 0.749191 0.993360 0.717444
O O11 0.692197 0.120607 0.883402
O O12 0.303346 0.141031 0.162355
O O13 0.452500 0.750000 0.966659
#
# Coordination Sequence:
#
# PCOD8069820 Si02
#       6
#     4   4   4   4   4   4
#     4  10  21  36  57  93 123 157 201 257 315 368
#     4  10  18  34  64  92 123 150 202 264 312 362
#     4  10  19  32  60  94 122 154 196 259 319 363
#     4  11  21  38  67  97 121 159 212 266 314 364
#     4  11  22  38  67  99 123 158 211 269 312 365
#     4  12  26  43  61  88 131 176 208 252 318 387
#
# _framework density 19.953562999999999
#
# number of rings (size 3 to 8) (size 9 to 14) (size 15 to 20)
#    0.000    1.333    5.000    2.500    0.000    2.000 
#    0.000    1.667    0.000    0.000    0.000    0.000 
#    0.000    0.000    0.000    0.000    0.000    0.000 
#
# Total GULP energy -297607.534125 kJ/mol
# GULP energy per Si atom -12400.313922 kJ/mol
# Density = 1.990815 g / cm^3
# Si number density = 19.953563 Si / 1000 Ang^3
#
#
#
# Elastic Constant Matrix: (Units=GPa)
#
#
# Indices 1 2 3 4 5 6 
#
# 1 100.1275 20.0477 40.9106 0.0000 1.6686 0.0000
# 2 20.0477 47.9617 38.1214 0.0000 -9.9021 0.0000
# 3 40.9106 38.1214 151.4940 0.0000 -11.9725 0.0000
# 4 0.0000 0.0000 0.0000 10.8274 0.0000 1.9364
# 5 1.6686 -9.9021 -11.9725 0.0000 41.3327 0.0000
# 6 0.0000 0.0000 0.0000 1.9364 0.0000 15.8353
#
#
#
# Elastic Compliance Matrix: (Units=1/GPa)
#
#
# Indices 1 2 3 4 5 6 
#
# 1 0.011700 -0.003331 -0.002478 0.000000 -0.001988 0.000000
# 2 -0.003331 0.027835 -0.005697 0.000000 0.005152 0.000000
# 3 -0.002478 -0.005697 0.008806 0.000000 0.001286 0.000000
# 4 0.000000 0.000000 0.000000 0.094423 0.000000 -0.011546
# 5 -0.001988 0.005152 0.001286 0.000000 0.025881 0.000000
# 6 0.000000 0.000000 0.000000 -0.011546 0.000000 0.064562
#
#
# Mechanical properties :
#
#
# Convention : Reuss Voigt Hill
#
# Bulk Modulus (GPa) = 39.48486 55.30473 47.39480
# Shear Modulus (GPa) = 18.89201 26.96598 22.92900
#
# Velocity S-wave (km/s) = 3.08035 3.68018 3.39354
# Velocity P-wave (km/s) = 5.69936 6.77017 6.25771
#
# Compressibility (1/GPa) = 0.02532616
#
# Stress axis : x y z
#
# Youngs Moduli (GPa) = 85.46992 35.92648 113.56511
#
# Poissons Ratio (x) = 0.11967 0.28147
# Poissons Ratio (y) = 0.28471 0.64703
# Poissons Ratio (z) = 0.21184 0.20469
#
# Static dielectric constant tensor:
#      x y z
#    x 3.863770 0.000000 -0.249240 
#    y 0.000000 2.972810 0.000000 
#    z -0.249240 0.000000 4.057690 
# 
# 
# High freq. dielectric constant tensor:
#      x y z
#    x 1.793530 0.000000 -0.003320 
#    y 0.000000 1.703760 0.000000 
#    z -0.003320 0.000000 1.804730 
# 
# From -- ./inp_files/14214.got.cif
#   From: 2010.06.25/outbox.cif.g09.slc.cpg/sg11_8_cif.got.tgz:14214.got - 2010.06.27 23:14:04.
