data_PCOD8069456
_publ_section_title
;
Structure prediction by ZEFSAII (Michael W. Deem and Ramdas Pophale) SiO2 
 PCOD8069456
Probable space group: P 21/M
;
_chemical_formula_sum "Si O2"
_cell_formula_units_Z 32
_cell_length_a 15.929249
_cell_length_b 8.944753
_cell_length_c 12.078519
_cell_angle_alpha 90.000000
_cell_angle_beta 79.393515
_cell_angle_gamma 90.000000
_cell_volume 1691.582144
_symmetry_space_group_name_H-M "P 21/M"
_symmetry_group_IT_number 11
_symmetry_cell_setting 'monoclinic'
loop_
_space_group_symop_operation_xyz
x,y,z
-x,1/2+y,-z
-x,-y,-z
x,1/2-y,z
loop_
_atom_site_type_symbol
_atom_site_label
_atom_site_fract_x
_atom_site_fract_y
_atom_site_fract_z
Si Si1 0.757112 0.426869 0.679456
Si Si2 0.092493 0.426014 0.482568
Si Si3 0.783026 0.073331 0.915118
Si Si4 0.972566 0.425195 0.894661
Si Si5 0.133560 0.077416 0.719611
Si Si6 0.727375 0.424687 0.162930
Si Si7 0.612851 0.576862 0.572136
Si Si8 0.419536 0.577925 0.644206
O O1 0.768622 0.250000 0.663764
O O2 0.846130 0.503104 0.624180
O O3 0.736696 0.473418 0.812028
O O4 0.678326 0.480422 0.626103
O O5 0.082006 0.250000 0.465144
O O6 0.138221 0.459131 0.588745
O O7 0.000000 0.500000 0.500000
O O8 0.782890 0.250000 0.925073
O O9 0.879794 0.012869 0.884045
O O10 0.737160 0.005812 0.036557
O O11 0.969489 0.250000 0.916056
O O12 0.038748 0.468112 0.782238
O O13 0.000000 0.500000 0.000000
O O14 0.151853 0.250000 0.739508
O O15 0.203765 0.985663 0.768178
O O16 0.744320 0.250000 0.152858
O O17 0.632546 0.460318 0.231439
O O18 0.639120 0.750000 0.572552
O O19 0.518796 0.546386 0.644529
O O20 0.615950 0.527471 0.443908
O O21 0.406331 0.750000 0.610810
#
# Coordination Sequence:
#
# PCOD8069456 Si02
#       8
#     4   4   4   4   4   4   4   4
#     4  11  22  38  58  79 109 149 188 222 266 327
#     4  11  23  39  57  80 111 146 183 226 274 321
#     4   9  19  35  54  75 105 144 183 224 269 320
#     4  10  18  32  51  73 101 136 175 214 258 308
#     4  10  21  34  51  77 110 140 172 221 276 321
#     4  10  19  34  56  80 104 136 181 225 270 324
#     4  10  20  36  57  83 113 142 177 224 277 330
#     4   9  19  35  58  85 110 138 177 227 278 331
#
# _framework density 18.917202
#
# number of rings (size 3 to 8) (size 9 to 14) (size 15 to 20)
#    0.000    2.000    1.250    2.625    0.000    6.000 
#    0.000    4.375    0.000    0.000    0.000    0.000 
#    0.000    0.000    0.000    0.000    0.000    0.000 
#
# Total GULP energy -396771.352353 kJ/mol
# GULP energy per Si atom -12399.104761 kJ/mol
# Density = 1.887415 g / cm^3
# Si number density = 18.917202 Si / 1000 Ang^3
#
#
#
# Elastic Constant Matrix: (Units=GPa)
#
#
# Indices 1 2 3 4 5 6 
#
# 1 103.8418 37.0337 56.5707 0.0000 -8.6078 0.0000
# 2 37.0337 62.4479 42.6194 0.0000 -1.8159 0.0000
# 3 56.5707 42.6194 119.6652 0.0000 -13.1442 0.0000
# 4 0.0000 0.0000 0.0000 23.8463 0.0000 1.1670
# 5 -8.6078 -1.8159 -13.1442 0.0000 31.7913 0.0000
# 6 0.0000 0.0000 0.0000 1.1670 0.0000 29.2822
#
#
#
# Elastic Compliance Matrix: (Units=1/GPa)
#
#
# Indices 1 2 3 4 5 6 
#
# 1 0.014148 -0.005151 -0.004678 0.000000 0.001602 0.000000
# 2 -0.005151 0.023153 -0.006096 0.000000 -0.002592 0.000000
# 3 -0.004678 -0.006096 0.013159 0.000000 0.003826 0.000000
# 4 0.000000 0.000000 0.000000 0.042017 0.000000 -0.001674
# 5 0.001602 -0.002592 0.003826 0.000000 0.033323 0.000000
# 6 0.000000 0.000000 0.000000 -0.001674 0.000000 0.034217
#
#
# Mechanical properties :
#
#
# Convention : Reuss Voigt Hill
#
# Bulk Modulus (GPa) = 53.73120 62.04471 57.88796
# Shear Modulus (GPa) = 25.24347 26.96603 26.10475
#
# Velocity S-wave (km/s) = 3.65693 3.77964 3.71880
# Velocity P-wave (km/s) = 6.80411 7.20534 7.00759
#
# Compressibility (1/GPa) = 0.01861116
#
# Stress axis : x y z
#
# Youngs Moduli (GPa) = 70.67934 43.19101 75.99203
#
# Poissons Ratio (x) = 0.22249 0.35548
# Poissons Ratio (y) = 0.36409 0.46321
# Poissons Ratio (z) = 0.33063 0.26327
#
# Static dielectric constant tensor:
#      x y z
#    x 3.291090 0.000000 -0.123690 
#    y 0.000000 3.345460 0.000000 
#    z -0.123690 0.000000 3.715690 
# 
# 
# High freq. dielectric constant tensor:
#      x y z
#    x 1.733510 0.000000 -0.008980 
#    y 0.000000 1.723680 0.000000 
#    z -0.008980 0.000000 1.741720 
# 
# From -- ./inp_files/38086.got.cif
#   From: 2010.06.25/outbox.cif.g09.slc.cpg/sg11_20_cif.got.tgz:38086.got - 2010.06.27 23:14:04.
