data_PCOD8069433
_publ_section_title
;
Structure prediction by ZEFSAII (Michael W. Deem and Ramdas Pophale) SiO2 
 PCOD8069433
Probable space group: P 21/M
;
_chemical_formula_sum "Si O2"
_cell_formula_units_Z 32
_cell_length_a 15.550866
_cell_length_b 9.093092
_cell_length_c 14.152540
_cell_angle_alpha 90.000000
_cell_angle_beta 89.514773
_cell_angle_gamma 90.000000
_cell_volume 2001.174596
_symmetry_space_group_name_H-M "P 21/M"
_symmetry_group_IT_number 11
_symmetry_cell_setting 'monoclinic'
loop_
_space_group_symop_operation_xyz
x,y,z
-x,1/2+y,-z
-x,-y,-z
x,1/2-y,z
loop_
_atom_site_type_symbol
_atom_site_label
_atom_site_fract_x
_atom_site_fract_y
_atom_site_fract_z
Si Si1 0.495860 0.421929 0.400264
Si Si2 0.005558 0.421980 0.400580
Si Si3 0.684449 0.420470 0.405304
Si Si4 0.916767 0.582153 0.897825
Si Si5 0.176827 0.080647 0.287831
Si Si6 0.668896 0.075535 0.619312
Si Si7 0.907742 0.579954 0.110431
Si Si8 0.840871 0.424071 0.282581
O O1 0.500000 0.500000 0.500000
O O2 0.475103 0.250000 0.412119
O O3 0.591523 0.444919 0.355366
O O4 0.419928 0.500828 0.341713
O O5 0.999564 0.250000 0.419019
O O6 0.926631 0.473720 0.336344
O O7 0.000000 0.500000 0.500000
O O8 0.093575 0.466183 0.348527
O O9 0.705575 0.250000 0.415471
O O10 0.686702 0.483598 0.512427
O O11 0.759034 0.490937 0.340059
O O12 0.950938 0.750000 0.888848
O O13 0.841594 0.554441 0.822853
O O14 0.995786 0.476535 0.874417
O O15 0.878870 0.551705 0.002400
O O16 0.201378 0.250000 0.307568
O O17 0.254632 0.974799 0.313953
O O18 0.658174 0.250000 0.623711
O O19 0.905551 0.750000 0.137120
O O20 0.841407 0.494904 0.178538
O O21 0.834553 0.250000 0.270621
#
# Coordination Sequence:
#
# PCOD8069433 Si02
#       8
#     4   4   4   4   4   4   4   4
#     4   9  16  29  47  69  94 122 157 194 232 274
#     4  10  20  31  44  62  91 128 161 186 222 268
#     4   8  16  29  47  67  91 125 158 184 221 273
#     4   9  18  34  50  64  89 121 153 191 239 283
#     4  10  19  32  47  65  89 124 159 187 227 279
#     4  10  19  31  47  69  94 123 158 196 234 272
#     4  10  19  30  48  71  90 114 153 199 236 272
#     4  10  18  32  48  64  92 128 156 185 227 277
#
# _framework density 15.990608999999999
#
# number of rings (size 3 to 8) (size 9 to 14) (size 15 to 20)
#    0.000    2.500    1.250    2.625    0.000    3.000 
#    0.000    3.750    0.000    0.000    0.000    0.875 
#    0.000    0.000    0.000    0.000    0.000    0.000 
#
# Total GULP energy -396687.845765 kJ/mol
# GULP energy per Si atom -12396.495180 kJ/mol
# Density = 1.595421 g / cm^3
# Si number density = 15.990609 Si / 1000 Ang^3
#
#
#
# Elastic Constant Matrix: (Units=GPa)
#
#
# Indices 1 2 3 4 5 6 
#
# 1 109.2736 41.9927 43.9585 0.0000 11.0372 0.0000
# 2 41.9927 59.5074 34.0469 0.0000 4.1000 0.0000
# 3 43.9585 34.0469 90.3012 0.0000 4.7348 0.0000
# 4 0.0000 0.0000 0.0000 24.8057 0.0000 1.4709
# 5 11.0372 4.1000 4.7348 0.0000 12.7339 0.0000
# 6 0.0000 0.0000 0.0000 1.4709 0.0000 23.3570
#
#
#
# Elastic Compliance Matrix: (Units=1/GPa)
#
#
# Indices 1 2 3 4 5 6 
#
# 1 0.014385 -0.007404 -0.003756 0.000000 -0.008688 0.000000
# 2 -0.007404 0.025436 -0.006011 0.000000 0.000462 0.000000
# 3 -0.003756 -0.006011 0.015192 0.000000 -0.000459 0.000000
# 4 0.000000 0.000000 0.000000 0.040464 0.000000 -0.002548
# 5 -0.008688 0.000462 -0.000459 0.000000 0.086083 0.000000
# 6 0.000000 0.000000 0.000000 -0.002548 0.000000 0.042974
#
#
# Mechanical properties :
#
#
# Convention : Reuss Voigt Hill
#
# Bulk Modulus (GPa) = 48.36973 55.45315 51.91144
# Shear Modulus (GPa) = 18.81358 21.45160 20.13259
#
# Velocity S-wave (km/s) = 3.43379 3.66664 3.55212
# Velocity P-wave (km/s) = 6.78496 7.25807 7.02550
#
# Compressibility (1/GPa) = 0.02067409
#
# Stress axis : x y z
#
# Youngs Moduli (GPa) = 69.51802 39.31398 65.82206
#
# Poissons Ratio (x) = 0.29107 0.24719
# Poissons Ratio (y) = 0.51469 0.39563
# Poissons Ratio (z) = 0.26108 0.23630
#
# Static dielectric constant tensor:
#      x y z
#    x 2.194430 0.000000 -0.597220 
#    y 0.000000 3.021810 0.000000 
#    z -0.597220 0.000000 2.733630 
# 
# 
# High freq. dielectric constant tensor:
#      x y z
#    x 1.605700 0.000000 0.001220 
#    y 0.000000 1.612020 0.000000 
#    z 0.001220 0.000000 1.593490 
# 
# From -- ./inp_files/51313.got.cif
#   From: 2010.06.25/outbox.cif.g09.slc.cpg/sg11_26_cif.got.tgz:51313.got - 2010.06.27 23:14:04.
