data_PCOD8069808
_publ_section_title
;
Structure prediction by ZEFSAII (Michael W. Deem and Ramdas Pophale) SiO2 
 PCOD8069808
Probable space group: P 21/M
;
_chemical_formula_sum "Si O2"
_cell_formula_units_Z 28
_cell_length_a 20.077271
_cell_length_b 8.561958
_cell_length_c 22.948323
_cell_angle_alpha 90.000000
_cell_angle_beta 20.228210
_cell_angle_gamma 90.000000
_cell_volume 1363.966701
_symmetry_space_group_name_H-M "P 21/M"
_symmetry_group_IT_number 11
_symmetry_cell_setting 'monoclinic'
loop_
_space_group_symop_operation_xyz
x,y,z
-x,1/2+y,-z
-x,-y,-z
x,1/2-y,z
loop_
_atom_site_type_symbol
_atom_site_label
_atom_site_fract_x
_atom_site_fract_y
_atom_site_fract_z
Si Si1 0.056403 0.936272 0.098818
Si Si2 0.380532 0.063971 0.544674
Si Si3 0.239131 0.072012 0.458382
Si Si4 0.127474 0.927979 0.166419
Si Si5 0.821344 0.067735 0.611924
Si Si6 0.568709 0.435121 0.270921
Si Si7 0.535769 0.432115 0.033509
O O1 0.049080 0.750000 0.108319
O O2 0.133238 0.004772 0.097500
O O3 0.839194 0.998619 0.266682
O O4 0.209329 0.990476 0.923168
O O5 0.383719 0.250000 0.541552
O O6 0.481513 0.996544 0.402748
O O7 0.500000 0.000000 0.500000
O O8 0.254274 0.250000 0.422537
O O9 0.440713 0.012471 0.320179
O O10 0.090156 0.061240 0.633496
O O11 0.161813 0.959835 0.470933
O O12 0.197102 0.750000 0.103390
O O13 0.274361 0.007810 0.091878
O O14 0.800317 0.250000 0.643295
O O15 0.638081 0.970330 0.781589
O O16 0.000000 0.000000 0.500000
O O17 0.558853 0.250000 0.283189
O O18 0.561742 0.250000 0.003038
O O19 0.500000 0.500000 0.000000
#
# Coordination Sequence:
#
# PCOD8069808 Si02
#       7
#     4   4   4   4   4   4   4
#     4   9  16  30  53  82 111 142 187 236 279 335
#     4  10  20  35  55  81 113 149 190 235 285 344
#     4  10  18  34  60  87 111 140 184 239 294 350
#     4   9  17  31  56  85 109 138 182 234 285 343
#     4  12  25  40  56  79 112 152 197 244 296 355
#     4   9  17  31  56  85 112 146 189 234 284 347
#     4  11  22  37  57  83 115 151 192 241 297 355
#
# _framework density 20.528362000000001
#
# number of rings (size 3 to 8) (size 9 to 14) (size 15 to 20)
#    0.000    2.000    1.429    3.429    0.000    4.000 
#    0.000    1.429    0.000    4.286    0.000    0.000 
#    0.000    0.000    0.000    0.000    0.000    0.000 
#
# Total GULP energy -347061.531635 kJ/mol
# GULP energy per Si atom -12395.054701 kJ/mol
# Density = 2.048164 g / cm^3
# Si number density = 20.528362 Si / 1000 Ang^3
#
#
#
# Elastic Constant Matrix: (Units=GPa)
#
#
# Indices 1 2 3 4 5 6 
#
# 1 148.2927 19.5621 73.7037 0.0000 -12.7708 0.0000
# 2 19.5621 24.9686 14.8692 0.0000 -2.4392 0.0000
# 3 73.7037 14.8692 156.2929 0.0000 -12.0610 0.0000
# 4 0.0000 0.0000 0.0000 16.5936 0.0000 -0.4395
# 5 -12.7708 -2.4392 -12.0610 0.0000 35.3571 0.0000
# 6 0.0000 0.0000 0.0000 -0.4395 0.0000 28.8234
#
#
#
# Elastic Compliance Matrix: (Units=1/GPa)
#
#
# Indices 1 2 3 4 5 6 
#
# 1 0.009464 -0.004946 -0.003857 0.000000 0.001762 0.000000
# 2 -0.004946 0.045128 -0.001909 0.000000 0.000676 0.000000
# 3 -0.003857 -0.001909 0.008505 0.000000 0.001376 0.000000
# 4 0.000000 0.000000 0.000000 0.060288 0.000000 0.000919
# 5 0.001762 0.000676 0.001376 0.000000 0.029435 0.000000
# 6 0.000000 0.000000 0.000000 0.000919 0.000000 0.034708
#
#
# Mechanical properties :
#
#
# Convention : Reuss Voigt Hill
#
# Bulk Modulus (GPa) = 23.99565 60.64713 42.32139
# Shear Modulus (GPa) = 22.43722 30.91611 26.67667
#
# Velocity S-wave (km/s) = 3.30962 3.88496 3.60877
# Velocity P-wave (km/s) = 5.13022 7.05203 6.16645
#
# Compressibility (1/GPa) = 0.04167421
#
# Stress axis : x y z
#
# Youngs Moduli (GPa) = 105.65859 22.15906 117.58131
#
# Poissons Ratio (x) = 0.10961 0.45347
# Poissons Ratio (y) = 0.52262 0.22442
# Poissons Ratio (z) = 0.40749 0.04229
#
# Static dielectric constant tensor:
#      x y z
#    x 3.802770 0.000000 -0.068350 
#    y 0.000000 3.191260 0.000000 
#    z -0.068350 0.000000 3.973690 
# 
# 
# High freq. dielectric constant tensor:
#      x y z
#    x 1.811350 0.000000 -0.002100 
#    y 0.000000 1.743900 0.000000 
#    z -0.002100 0.000000 1.820170 
# 
# From -- ./inp_files/66681.got.cif
#   From: 2010.06.25/outbox.cif.g09.slc.cpg/sg11_34_cif.got.tgz:66681.got - 2010.06.27 23:14:04.
