data_PCOD8069772
_publ_section_title
;
Structure prediction by ZEFSAII (Michael W. Deem and Ramdas Pophale) SiO2 
 PCOD8069772
Probable space group: P 21/M
;
_chemical_formula_sum "Si O2"
_cell_formula_units_Z 32
_cell_length_a 9.361772
_cell_length_b 19.092563
_cell_length_c 11.677433
_cell_angle_alpha 90.000000
_cell_angle_beta 54.979086
_cell_angle_gamma 90.000000
_cell_volume 1709.319126
_symmetry_space_group_name_H-M "P 21/M"
_symmetry_group_IT_number 11
_symmetry_cell_setting 'monoclinic'
loop_
_space_group_symop_operation_xyz
x,y,z
-x,1/2+y,-z
-x,-y,-z
x,1/2-y,z
loop_
_atom_site_type_symbol
_atom_site_label
_atom_site_fract_x
_atom_site_fract_y
_atom_site_fract_z
Si Si1 0.894014 0.930083 0.182422
Si Si2 0.880419 0.922067 0.673560
Si Si3 0.350278 0.830840 0.158325
Si Si4 0.969140 0.168661 0.205689
Si Si5 0.975076 0.082672 0.636423
Si Si6 0.284576 0.171529 0.893540
Si Si7 0.788196 0.070709 0.131159
Si Si8 0.505695 0.067118 0.082381
O O1 0.749008 0.880410 0.194638
O O2 0.908853 0.903276 0.305268
O O3 0.830494 0.009622 0.201957
O O4 0.079758 0.924713 0.035493
O O5 0.017488 0.875523 0.683071
O O6 0.685294 0.904153 0.801902
O O7 0.905554 0.904198 0.528774
O O8 0.906597 0.004024 0.680541
O O9 0.311847 0.750000 0.148688
O O10 0.186780 0.864396 0.298603
O O11 0.518241 0.840984 0.160062
O O12 0.383793 0.870295 0.024098
O O13 0.935514 0.250000 0.249051
O O14 0.809673 0.141098 0.198381
O O15 0.153336 0.155453 0.057918
O O16 0.254560 0.250000 0.862943
O O17 0.599977 0.054111 0.161595
O O18 0.500000 0.000000 0.000000
#
# Coordination Sequence:
#
# PCOD8069772 Si02
#       8
#     4   4   4   4   4   4   4   4
#     4  10  18  34  56  83 119 151 190 240 298 357
#     4  11  23  39  62  86 120 158 202 242 301 363
#     4  11  22  37  59  90 121 153 198 245 296 354
#     4  10  20  37  58  84 118 156 196 247 305 353
#     4  11  23  40  57  88 123 158 196 245 297 366
#     4   9  19  33  56  87 115 147 195 247 293 348
#     4  10  20  32  57  88 116 147 197 249 299 350
#     4  12  21  37  63  92 120 155 200 256 300 344
#
# _framework density 18.720904999999998
#
# number of rings (size 3 to 8) (size 9 to 14) (size 15 to 20)
#    0.000    1.500    5.000    0.750    1.750    1.500 
#    0.000    1.875    0.000    0.000    0.000    0.000 
#    0.000    0.000    0.000    0.000    0.000    0.000 
#
# Total GULP energy -396784.441176 kJ/mol
# GULP energy per Si atom -12399.513787 kJ/mol
# Density = 1.867830 g / cm^3
# Si number density = 18.720905 Si / 1000 Ang^3
#
#
#
# Elastic Constant Matrix: (Units=GPa)
#
#
# Indices 1 2 3 4 5 6 
#
# 1 97.7737 42.1457 29.7843 0.0000 19.0560 0.0000
# 2 42.1457 113.6056 34.4092 0.0000 12.5328 0.0000
# 3 29.7843 34.4092 68.6399 0.0000 10.9870 0.0000
# 4 0.0000 0.0000 0.0000 14.2400 0.0000 1.8922
# 5 19.0560 12.5328 10.9870 0.0000 27.6626 0.0000
# 6 0.0000 0.0000 0.0000 1.8922 0.0000 32.0857
#
#
#
# Elastic Compliance Matrix: (Units=1/GPa)
#
#
# Indices 1 2 3 4 5 6 
#
# 1 0.014045 -0.003471 -0.003265 0.000000 -0.006806 0.000000
# 2 -0.003471 0.011445 -0.004041 0.000000 -0.001189 0.000000
# 3 -0.003265 -0.004041 0.018537 0.000000 -0.003282 0.000000
# 4 0.000000 0.000000 0.000000 0.070779 0.000000 -0.004174
# 5 -0.006806 -0.001189 -0.003282 0.000000 0.042681 0.000000
# 6 0.000000 0.000000 0.000000 -0.004174 0.000000 0.031413
#
#
# Mechanical properties :
#
#
# Convention : Reuss Voigt Hill
#
# Bulk Modulus (GPa) = 44.49771 54.74417 49.62094
# Shear Modulus (GPa) = 22.94166 26.37632 24.65899
#
# Velocity S-wave (km/s) = 3.50445 3.75764 3.63325
# Velocity P-wave (km/s) = 6.33999 6.93774 6.64559
#
# Compressibility (1/GPa) = 0.02247306
#
# Stress axis : x y z
#
# Youngs Moduli (GPa) = 71.20064 87.37353 53.94677
#
# Poissons Ratio (x) = 0.30324 0.17614
# Poissons Ratio (y) = 0.24711 0.21800
# Poissons Ratio (z) = 0.23248 0.35308
#
# Static dielectric constant tensor:
#      x y z
#    x 3.476930 0.000000 0.105840 
#    y 0.000000 3.579550 0.000000 
#    z 0.105840 0.000000 3.178770 
# 
# 
# High freq. dielectric constant tensor:
#      x y z
#    x 1.732660 0.000000 0.012900 
#    y 0.000000 1.732060 0.000000 
#    z 0.012900 0.000000 1.693830 
# 
# From -- ./inp_files/19208.got.cif
#   From: 2010.06.25/outbox.cif.g09.slc.cpg/sg11_10_cif.got.tgz:19208.got - 2010.06.27 23:14:04.
