data_PCOD8069403
_publ_section_title
;
Structure prediction by ZEFSAII (Michael W. Deem and Ramdas Pophale) SiO2 
 PCOD8069403
Probable space group: P 21/M
;
_chemical_formula_sum "Si O2"
_cell_formula_units_Z 32
_cell_length_a 28.443294
_cell_length_b 9.365746
_cell_length_c 11.953963
_cell_angle_alpha 90.000000
_cell_angle_beta 32.801333
_cell_angle_gamma 90.000000
_cell_volume 1725.103947
_symmetry_space_group_name_H-M "P 21/M"
_symmetry_group_IT_number 11
_symmetry_cell_setting 'monoclinic'
loop_
_space_group_symop_operation_xyz
x,y,z
-x,1/2+y,-z
-x,-y,-z
x,1/2-y,z
loop_
_atom_site_type_symbol
_atom_site_label
_atom_site_fract_x
_atom_site_fract_y
_atom_site_fract_z
Si Si1 0.649104 0.915346 0.695985
Si Si2 0.750002 0.418202 0.131635
Si Si3 0.602303 0.583892 0.032269
Si Si4 0.908596 0.415672 0.969094
Si Si5 0.749997 0.920174 0.900087
Si Si6 0.102308 0.416109 0.558514
Si Si7 0.149104 0.084654 0.707604
Si Si8 0.408592 0.915671 0.396521
O O1 0.622352 0.750000 0.741845
O O2 0.625087 0.981437 0.865134
O O3 0.750000 0.938129 0.470077
O O4 0.594988 0.999517 0.711810
O O5 0.750001 0.250000 0.106396
O O6 0.665013 0.465962 0.370276
O O7 0.834994 0.465964 0.030305
O O8 0.749999 0.505072 0.018541
O O9 0.623470 0.750000 0.980179
O O10 0.665120 0.523282 0.002988
O O11 0.502391 0.553842 0.264781
O O12 0.896767 0.250000 0.022267
O O13 0.002398 0.446166 0.725639
O O14 0.905010 0.500477 0.091762
O O15 0.749998 0.750000 0.917747
O O16 0.834870 0.976721 0.663479
O O17 0.123470 0.250000 0.525946
O O18 0.125088 0.481433 0.634521
O O19 0.122353 0.250000 0.768750
O O20 0.396761 0.750000 0.390665
#
# Coordination Sequence:
#
# PCOD8069403 Si02
#       8
#     4   4   4   4   4   4   4   4
#     4  10  18  31  54  81 108 134 167 212 256 301
#     4  10  22  37  50  72 106 139 171 214 261 304
#     4   9  18  34  56  79 103 135 172 212 258 305
#     4  10  20  35  54  76 107 142 170 202 256 317
#     4  10  20  37  58  76  96 133 183 222 253 298
#     4   9  18  34  56  79 103 135 172 212 258 305
#     4  10  18  31  54  81 108 134 167 212 256 301
#     4  10  20  35  54  76 107 142 170 202 256 317
#
# _framework density 18.549607999999999
#
# number of rings (size 3 to 8) (size 9 to 14) (size 15 to 20)
#    0.000    2.250    2.500    0.750    0.000    2.000 
#    0.000    2.500    0.000    0.000    0.000    0.000 
#    0.000    0.000    0.000    0.000    0.000    0.000 
#
# Total GULP energy -396804.306063 kJ/mol
# GULP energy per Si atom -12400.134564 kJ/mol
# Density = 1.850739 g / cm^3
# Si number density = 18.549608 Si / 1000 Ang^3
#
#
#
# Elastic Constant Matrix: (Units=GPa)
#
#
# Indices 1 2 3 4 5 6 
#
# 1 126.0646 36.0136 80.2751 0.0000 10.7576 0.0000
# 2 36.0136 33.0256 31.1907 0.0000 5.8048 0.0000
# 3 80.2751 31.1907 118.3536 0.0000 -1.5105 0.0000
# 4 0.0000 0.0000 0.0000 17.9089 0.0000 7.5210
# 5 10.7576 5.8048 -1.5105 0.0000 33.1843 0.0000
# 6 0.0000 0.0000 0.0000 7.5210 0.0000 24.1568
#
#
#
# Elastic Compliance Matrix: (Units=1/GPa)
#
#
# Indices 1 2 3 4 5 6 
#
# 1 0.016486 -0.008823 -0.008910 0.000000 -0.004207 0.000000
# 2 -0.008823 0.047013 -0.006478 0.000000 -0.005658 0.000000
# 3 -0.008910 -0.006478 0.016261 0.000000 0.004762 0.000000
# 4 0.000000 0.000000 0.000000 0.064237 0.000000 -0.020000
# 5 -0.004207 -0.005658 0.004762 0.000000 0.032705 0.000000
# 6 0.000000 0.000000 0.000000 -0.020000 0.000000 0.047623
#
#
# Mechanical properties :
#
#
# Convention : Reuss Voigt Hill
#
# Bulk Modulus (GPa) = 31.91033 63.60028 47.75530
# Shear Modulus (GPa) = 17.65589 23.71429 20.68509
#
# Velocity S-wave (km/s) = 3.08850 3.57939 3.34297
# Velocity P-wave (km/s) = 5.47344 7.17243 6.37974
#
# Compressibility (1/GPa) = 0.03133781
#
# Stress axis : x y z
#
# Youngs Moduli (GPa) = 60.65890 21.27079 61.49813
#
# Poissons Ratio (x) = 0.18766 0.54796
# Poissons Ratio (y) = 0.53517 0.39837
# Poissons Ratio (z) = 0.54048 0.13779
#
# Static dielectric constant tensor:
#      x y z
#    x 3.438140 0.000000 -0.136520 
#    y 0.000000 3.068910 0.000000 
#    z -0.136520 0.000000 3.551540 
# 
# 
# High freq. dielectric constant tensor:
#      x y z
#    x 1.723440 0.000000 -0.010020 
#    y 0.000000 1.683340 0.000000 
#    z -0.010020 0.000000 1.731750 
# 
# From -- ./inp_files/42893.got.cif
#   From: 2010.06.25/outbox.cif.g09.slc.cpg/sg11_22_cif.got.tgz:42893.got - 2010.06.27 23:14:04.
