data_PCOD8069371
_publ_section_title
;
Structure prediction by ZEFSAII (Michael W. Deem and Ramdas Pophale) SiO2 
 PCOD8069371
Probable space group: P 21/M
;
_chemical_formula_sum "Si O2"
_cell_formula_units_Z 32
_cell_length_a 20.558103
_cell_length_b 8.798203
_cell_length_c 26.172812
_cell_angle_alpha 90.000000
_cell_angle_beta 20.323779
_cell_angle_gamma 90.000000
_cell_volume 1644.232690
_symmetry_space_group_name_H-M "P 21/M"
_symmetry_group_IT_number 11
_symmetry_cell_setting 'monoclinic'
loop_
_space_group_symop_operation_xyz
x,y,z
-x,1/2+y,-z
-x,-y,-z
x,1/2-y,z
loop_
_atom_site_type_symbol
_atom_site_label
_atom_site_fract_x
_atom_site_fract_y
_atom_site_fract_z
Si Si1 0.432494 0.078442 0.897084
Si Si2 0.399471 0.078143 0.802659
Si Si3 0.819612 0.429913 0.482666
Si Si4 0.157306 0.931980 0.419720
Si Si5 0.956656 0.931173 0.780395
Si Si6 0.398816 0.425385 0.636854
Si Si7 0.217851 0.423349 0.670185
Si Si8 0.190044 0.927427 0.876762
O O1 0.451917 0.250000 0.902017
O O2 0.374662 0.071422 0.881073
O O3 0.639930 0.003548 0.749727
O O4 0.258360 0.004083 0.057166
O O5 0.365829 0.250000 0.808085
O O6 0.604686 0.019961 0.633660
O O7 0.241712 0.963658 0.897354
O O8 0.832577 0.250000 0.471842
O O9 0.885119 0.486359 0.490754
O O10 0.947488 0.497089 0.342198
O O11 0.159018 0.750000 0.416388
O O12 0.000000 0.000000 0.500000
O O13 0.952640 0.750000 0.782214
O O14 0.071489 0.975546 0.746703
O O15 0.464542 0.250000 0.589376
O O16 0.216546 0.445236 0.733195
O O17 0.568910 0.534065 0.497778
O O18 0.348528 0.481720 0.729782
O O19 0.178829 0.250000 0.683334
O O20 0.188733 0.750000 0.866204
O O21 0.000000 0.000000 0.000000
#
# Coordination Sequence:
#
# PCOD8069371 Si02
#       8
#     4   4   4   4   4   4   4   4
#     4   8  17  32  53  79 106 136 176 218 263 318
#     4   9  17  34  54  73  98 135 176 221 269 323
#     4   8  16  31  54  78 103 134 172 211 256 314
#     4   9  17  34  56  79 107 140 174 210 252 310
#     4  10  18  31  53  78 101 136 179 218 263 318
#     4  10  21  38  54  72 100 137 181 223 272 330
#     4  10  21  35  53  77 105 136 171 222 276 323
#     4  12  25  37  51  73 102 137 179 230 281 328
#
# _framework density 19.461966
#
# number of rings (size 3 to 8) (size 9 to 14) (size 15 to 20)
#    0.000    2.500    0.000    4.125    1.750    2.500 
#    0.000    4.375    0.000    0.000    0.000    0.000 
#    0.000    0.000    0.000    0.000    0.000    0.000 
#
# Total GULP energy -396437.816970 kJ/mol
# GULP energy per Si atom -12388.681780 kJ/mol
# Density = 1.941767 g / cm^3
# Si number density = 19.461966 Si / 1000 Ang^3
#
#
#
# Elastic Constant Matrix: (Units=GPa)
#
#
# Indices 1 2 3 4 5 6 
#
# 1 85.1822 24.9418 44.1243 0.0000 -23.5012 0.0000
# 2 24.9418 36.5197 17.8858 0.0000 0.9851 0.0000
# 3 44.1243 17.8858 112.8541 0.0000 -8.6002 0.0000
# 4 0.0000 0.0000 0.0000 18.8175 0.0000 -6.6361
# 5 -23.5012 0.9851 -8.6002 0.0000 26.7915 0.0000
# 6 0.0000 0.0000 0.0000 -6.6361 0.0000 29.7486
#
#
#
# Elastic Compliance Matrix: (Units=1/GPa)
#
#
# Indices 1 2 3 4 5 6 
#
# 1 0.024539 -0.014484 -0.005759 0.000000 0.020210 0.000000
# 2 -0.014484 0.038423 -0.001540 0.000000 -0.014612 0.000000
# 3 -0.005759 -0.001540 0.011251 0.000000 -0.001383 0.000000
# 4 0.000000 0.000000 0.000000 0.057680 0.000000 0.012867
# 5 0.020210 -0.014612 -0.001383 0.000000 0.055146 0.000000
# 6 0.000000 0.000000 0.000000 0.012867 0.000000 0.036485
#
#
# Mechanical properties :
#
#
# Convention : Reuss Voigt Hill
#
# Bulk Modulus (GPa) = 32.62904 45.38441 39.00673
# Shear Modulus (GPa) = 18.03060 24.91181 21.47120
#
# Velocity S-wave (km/s) = 3.04707 3.58163 3.32511
# Velocity P-wave (km/s) = 5.40199 6.36194 5.90151
#
# Compressibility (1/GPa) = 0.03064755
#
# Stress axis : x y z
#
# Youngs Moduli (GPa) = 40.75086 26.02604 88.87874
#
# Poissons Ratio (x) = 0.37697 0.51184
# Poissons Ratio (y) = 0.59024 0.13687
# Poissons Ratio (z) = 0.23468 0.04008
#
# Static dielectric constant tensor:
#      x y z
#    x 3.867730 0.000000 0.186530 
#    y 0.000000 3.210850 0.000000 
#    z 0.186530 0.000000 3.854080 
# 
# 
# High freq. dielectric constant tensor:
#      x y z
#    x 1.750020 0.000000 0.004970 
#    y 0.000000 1.723460 0.000000 
#    z 0.004970 0.000000 1.761590 
# 
# From -- ./inp_files/72020.got.cif
#   From: 2010.06.25/outbox.cif.g09.slc.cpg/sg11_37_cif.got.tgz:72020.got - 2010.06.27 23:14:04.
