data_PCOD8069886
_publ_section_title
;
Structure prediction by ZEFSAII (Michael W. Deem and Ramdas Pophale) SiO2 
 PCOD8069886
Probable space group: P 21/M
;
_chemical_formula_sum "Si O2"
_cell_formula_units_Z 28
_cell_length_a 9.787702
_cell_length_b 26.247478
_cell_length_c 9.240564
_cell_angle_alpha 90.000000
_cell_angle_beta 34.239244
_cell_angle_gamma 90.000000
_cell_volume 1335.687690
_symmetry_space_group_name_H-M "P 21/M"
_symmetry_group_IT_number 11
_symmetry_cell_setting 'monoclinic'
loop_
_space_group_symop_operation_xyz
x,y,z
-x,1/2+y,-z
-x,-y,-z
x,1/2-y,z
loop_
_atom_site_type_symbol
_atom_site_label
_atom_site_fract_x
_atom_site_fract_y
_atom_site_fract_z
Si Si1 0.869529 0.404244 0.051383
Si Si2 0.140934 0.095665 0.316161
Si Si3 0.876409 0.306477 0.513470
Si Si4 0.321619 0.061551 0.458758
Si Si5 0.022180 0.306969 0.053102
Si Si6 0.213408 0.947408 0.586996
Si Si7 0.447788 0.136089 0.799312
O O1 0.592715 0.416801 0.246350
O O2 0.944747 0.437249 0.128566
O O3 0.086194 0.414799 0.746597
O O4 0.865762 0.343506 0.086341
O O5 0.273442 0.068637 0.331254
O O6 0.049465 0.152612 0.441725
O O7 0.924320 0.059882 0.445465
O O8 0.312459 0.099412 0.028317
O O9 0.913404 0.250000 0.548002
O O10 0.600264 0.325262 0.768359
O O11 0.921427 0.306960 0.303063
O O12 0.337710 0.002129 0.482642
O O13 0.025035 0.250000 0.984932
O O14 0.291818 0.330050 0.825761
O O15 0.408396 0.902043 0.430881
#
# Coordination Sequence:
#
# PCOD8069886 Si02
#       7
#     4   4   4   4   4   4   4
#     4  12  25  45  64  99 135 170 223 270 324 397
#     4  10  23  41  64  94 132 168 223 273 319 401
#     4   9  18  35  65  95 121 162 222 278 323 374
#     4  12  29  42  66  96 142 179 210 270 340 385
#     4  10  20  38  65  96 124 168 218 275 326 382
#     4  11  23  43  68  94 126 181 228 269 316 387
#     4  10  18  36  68  95 128 155 231 278 312 376
#
# _framework density 20.962983999999999
#
# number of rings (size 3 to 8) (size 9 to 14) (size 15 to 20)
#    0.000    1.429    4.286    2.571    6.000    1.143 
#    0.000    1.429    0.000    0.000    0.000    0.000 
#    0.000    0.000    0.000    0.000    0.000    0.000 
#
# Total GULP energy -346930.651031 kJ/mol
# GULP energy per Si atom -12390.380394 kJ/mol
# Density = 2.091527 g / cm^3
# Si number density = 20.962984 Si / 1000 Ang^3
#
#
#
# Elastic Constant Matrix: (Units=GPa)
#
#
# Indices 1 2 3 4 5 6 
#
# 1 99.1428 34.6366 30.2187 0.0000 -9.0177 0.0000
# 2 34.6366 119.7475 21.1455 0.0000 -9.3539 0.0000
# 3 30.2187 21.1455 63.6764 0.0000 -22.2385 0.0000
# 4 0.0000 0.0000 0.0000 18.1525 0.0000 -3.7353
# 5 -9.0177 -9.3539 -22.2385 0.0000 24.7318 0.0000
# 6 0.0000 0.0000 0.0000 -3.7353 0.0000 20.0623
#
#
#
# Elastic Compliance Matrix: (Units=1/GPa)
#
#
# Indices 1 2 3 4 5 6 
#
# 1 0.012626 -0.002781 -0.005580 0.000000 -0.001466 0.000000
# 2 -0.002781 0.009502 -0.001362 0.000000 0.001355 0.000000
# 3 -0.005580 -0.001362 0.026116 0.000000 0.020933 0.000000
# 4 0.000000 0.000000 0.000000 0.057284 0.000000 0.010665
# 5 -0.001466 0.001355 0.020933 0.000000 0.059234 0.000000
# 6 0.000000 0.000000 0.000000 0.010665 0.000000 0.051830
#
#
# Mechanical properties :
#
#
# Convention : Reuss Voigt Hill
#
# Bulk Modulus (GPa) = 34.72736 50.50758 42.61747
# Shear Modulus (GPa) = 20.35527 25.69372 23.02449
#
# Velocity S-wave (km/s) = 3.11948 3.50476 3.31772
# Velocity P-wave (km/s) = 5.43847 6.36583 5.92033
#
# Compressibility (1/GPa) = 0.02879574
#
# Stress axis : x y z
#
# Youngs Moduli (GPa) = 79.20463 105.24425 38.29131
#
# Poissons Ratio (x) = 0.29269 0.21367
# Poissons Ratio (y) = 0.22027 0.05217
# Poissons Ratio (z) = 0.44197 0.14339
#
# Static dielectric constant tensor:
#      x y z
#    x 3.588870 0.000000 -0.220590 
#    y 0.000000 4.100940 0.000000 
#    z -0.220590 0.000000 3.910260 
# 
# 
# High freq. dielectric constant tensor:
#      x y z
#    x 1.796570 0.000000 -0.016700 
#    y 0.000000 1.828040 0.000000 
#    z -0.016700 0.000000 1.821810 
# 
# From -- ./inp_files/15253.got.cif
#   From: 2010.06.25/outbox.cif.g09.slc.cpg/sg11_8_cif.got.tgz:15253.got - 2010.06.27 23:14:04.
