data_PCOD8069576
_publ_section_title
;
Structure prediction by ZEFSAII (Michael W. Deem and Ramdas Pophale) SiO2 
 PCOD8069576
Probable space group: P 21/M
;
_chemical_formula_sum "Si O2"
_cell_formula_units_Z 32
_cell_length_a 20.732792
_cell_length_b 8.846351
_cell_length_c 25.451985
_cell_angle_alpha 90.000000
_cell_angle_beta 158.017666
_cell_angle_gamma 90.000000
_cell_volume 1747.380389
_symmetry_space_group_name_H-M "P 21/M"
_symmetry_group_IT_number 11
_symmetry_cell_setting 'monoclinic'
loop_
_space_group_symop_operation_xyz
x,y,z
-x,1/2+y,-z
-x,-y,-z
x,1/2-y,z
loop_
_atom_site_type_symbol
_atom_site_label
_atom_site_fract_x
_atom_site_fract_y
_atom_site_fract_z
Si Si1 0.503794 0.076712 0.330704
Si Si2 0.837585 0.077030 0.640957
Si Si3 0.324931 0.074086 0.635210
Si Si4 0.389281 0.927479 0.070096
Si Si5 0.999677 0.074014 0.651331
Si Si6 0.888949 0.574326 0.961158
Si Si7 0.644479 0.070747 0.073058
Si Si8 0.070694 0.571896 0.896702
O O1 0.527760 0.250000 0.329272
O O2 0.634415 0.046676 0.477759
O O3 0.310792 0.044071 0.203772
O O4 0.546615 0.966073 0.315198
O O5 0.871774 0.250000 0.682826
O O6 0.940635 0.035914 0.665733
O O7 0.899571 0.969080 0.734536
O O8 0.278324 0.250000 0.596413
O O9 0.424925 0.034384 0.764608
O O10 0.150137 0.977588 0.501812
O O11 0.357634 0.750000 0.043611
O O12 0.382194 0.994276 0.006071
O O13 0.235570 0.995448 0.989773
O O14 0.035687 0.250000 0.670148
O O15 0.169928 0.980947 0.765769
O O16 0.931320 0.750000 0.995369
O O17 0.940794 0.504130 0.055651
O O18 0.000000 0.500000 0.000000
O O19 0.630052 0.250000 0.064257
O O20 0.500000 0.000000 0.000000
O O21 0.082094 0.750000 0.913378
#
# Coordination Sequence:
#
# PCOD8069576 Si02
#       8
#     4   4   4   4   4   4   4   4
#     4   9  19  35  54  80 113 145 181 228 279 327
#     4   9  18  33  54  82 112 141 179 228 277 325
#     4  10  18  32  56  84 110 142 181 228 278 328
#     4   9  19  34  55  83 114 142 182 233 277 326
#     4  10  20  35  54  82 115 148 184 229 278 329
#     4  11  23  39  58  82 114 152 187 230 281 336
#     4  11  22  39  58  82 114 151 189 231 283 338
#     4  11  20  35  57  85 113 144 186 232 277 327
#
# _framework density 18.313127000000001
#
# number of rings (size 3 to 8) (size 9 to 14) (size 15 to 20)
#    0.000    2.000    2.500    2.625    0.000    2.500 
#    0.000    3.750    0.000    0.000    0.000    0.000 
#    0.000    0.000    0.000    0.000    0.000    0.000 
#
# Total GULP energy -396861.860057 kJ/mol
# GULP energy per Si atom -12401.933127 kJ/mol
# Density = 1.827145 g / cm^3
# Si number density = 18.313127 Si / 1000 Ang^3
#
#
#
# Elastic Constant Matrix: (Units=GPa)
#
#
# Indices 1 2 3 4 5 6 
#
# 1 95.6937 33.9505 52.0320 0.0000 1.3537 0.0000
# 2 33.9505 73.9952 41.3052 0.0000 0.3618 0.0000
# 3 52.0320 41.3052 123.7340 0.0000 -0.4483 0.0000
# 4 0.0000 0.0000 0.0000 31.3510 0.0000 0.7144
# 5 1.3537 0.3618 -0.4483 0.0000 25.7028 0.0000
# 6 0.0000 0.0000 0.0000 0.7144 0.0000 28.2296
#
#
#
# Elastic Compliance Matrix: (Units=1/GPa)
#
#
# Indices 1 2 3 4 5 6 
#
# 1 0.014457 -0.003975 -0.004755 0.000000 -0.000788 0.000000
# 2 -0.003975 0.017705 -0.004239 0.000000 -0.000114 0.000000
# 3 -0.004755 -0.004239 0.011499 0.000000 0.000511 0.000000
# 4 0.000000 0.000000 0.000000 0.031915 0.000000 -0.000808
# 5 -0.000788 -0.000114 0.000511 0.000000 0.038958 0.000000
# 6 0.000000 0.000000 0.000000 -0.000808 0.000000 0.035444
#
#
# Mechanical properties :
#
#
# Convention : Reuss Voigt Hill
#
# Bulk Modulus (GPa) = 56.42787 60.88871 58.65829
# Shear Modulus (GPa) = 27.49901 28.13237 27.81569
#
# Velocity S-wave (km/s) = 3.87925 3.92367 3.90153
# Velocity P-wave (km/s) = 7.13754 7.33811 7.23852
#
# Compressibility (1/GPa) = 0.01772174
#
# Stress axis : x y z
#
# Youngs Moduli (GPa) = 69.17058 56.48089 86.96718
#
# Poissons Ratio (x) = 0.22450 0.41356
# Poissons Ratio (y) = 0.27494 0.36868
# Poissons Ratio (z) = 0.32893 0.23944
#
# Static dielectric constant tensor:
#      x y z
#    x 3.231730 0.000000 -0.129790 
#    y 0.000000 3.333400 0.000000 
#    z -0.129790 0.000000 3.588230 
# 
# 
# High freq. dielectric constant tensor:
#      x y z
#    x 1.680920 0.000000 -0.008960 
#    y 0.000000 1.709610 0.000000 
#    z -0.008960 0.000000 1.724400 
# 
# From -- ./inp_files/67124.got.cif
#   From: 2010.06.25/outbox.cif.g09.slc.cpg/sg11_34_cif.got.tgz:67124.got - 2010.06.27 23:14:04.
