data_PCOD8069754
_publ_section_title
;
Structure prediction by ZEFSAII (Michael W. Deem and Ramdas Pophale) SiO2 
 PCOD8069754
Probable space group: P 21/M
;
_chemical_formula_sum "Si O2"
_cell_formula_units_Z 28
_cell_length_a 31.677801
_cell_length_b 8.899910
_cell_length_c 9.650447
_cell_angle_alpha 90.000000
_cell_angle_beta 34.332360
_cell_angle_gamma 90.000000
_cell_volume 1534.480673
_symmetry_space_group_name_H-M "P 21/M"
_symmetry_group_IT_number 11
_symmetry_cell_setting 'monoclinic'
loop_
_space_group_symop_operation_xyz
x,y,z
-x,1/2+y,-z
-x,-y,-z
x,1/2-y,z
loop_
_atom_site_type_symbol
_atom_site_label
_atom_site_fract_x
_atom_site_fract_y
_atom_site_fract_z
Si Si1 0.919757 0.425851 0.212498
Si Si2 0.404059 0.926326 0.374892
Si Si3 0.690987 0.427652 0.827569
Si Si4 0.763971 0.071670 0.109991
Si Si5 0.547818 0.074189 0.057537
Si Si6 0.202590 0.071977 0.261250
Si Si7 0.806853 0.076150 0.289887
O O1 0.925266 0.250000 0.231381
O O2 0.866898 0.501804 0.468786
O O3 0.886612 0.452356 0.147599
O O4 0.000000 0.500000 0.000000
O O5 0.412154 0.750000 0.361147
O O6 0.322932 0.976425 0.647586
O O7 0.416050 0.983179 0.184843
O O8 0.467929 0.996340 0.301022
O O9 0.703714 0.250000 0.815351
O O10 0.604556 0.466018 0.029067
O O11 0.718265 0.513082 0.891438
O O12 0.741051 0.490413 0.564515
O O13 0.773396 0.250000 0.062129
O O14 0.804580 0.011281 0.140357
O O15 0.803742 0.982340 0.879243
O O16 0.534153 0.250000 0.087330
O O17 0.198211 0.250000 0.281914
O O18 0.787572 0.250000 0.326254
#
# Coordination Sequence:
#
# PCOD8069754 Si02
#       7
#     4   4   4   4   4   4   4
#     4  10  20  38  63  87 110 138 170 209 254 308
#     4   9  17  28  47  74 104 136 173 219 269 316
#     4   9  16  32  54  75  99 137 183 223 264 315
#     4  10  18  34  55  76 104 141 180 216 261 316
#     4   9  16  28  48  74 103 134 175 223 270 316
#     4  11  23  36  52  79 111 140 173 216 263 312
#     4   8  15  30  56  81 101 132 176 216 254 304
#
# _framework density 18.247216000000002
#
# number of rings (size 3 to 8) (size 9 to 14) (size 15 to 20)
#    0.000    2.571    1.429    2.571    0.000    1.143 
#    0.000    5.000    0.000    0.000    0.000    0.000 
#    0.000    0.000    0.000    0.000    0.000    0.000 
#
# Total GULP energy -347100.215142 kJ/mol
# GULP energy per Si atom -12396.436255 kJ/mol
# Density = 1.820568 g / cm^3
# Si number density = 18.247216 Si / 1000 Ang^3
#
#
#
# Elastic Constant Matrix: (Units=GPa)
#
#
# Indices 1 2 3 4 5 6 
#
# 1 122.4465 49.3356 55.9534 0.0000 -0.5113 0.0000
# 2 49.3356 73.9775 40.8855 0.0000 -3.7365 0.0000
# 3 55.9534 40.8855 76.0067 0.0000 -2.3432 0.0000
# 4 0.0000 0.0000 0.0000 27.0038 0.0000 -5.7849
# 5 -0.5113 -3.7365 -2.3432 0.0000 33.3915 0.0000
# 6 0.0000 0.0000 0.0000 -5.7849 0.0000 24.3371
#
#
#
# Elastic Compliance Matrix: (Units=1/GPa)
#
#
# Indices 1 2 3 4 5 6 
#
# 1 0.013513 -0.005042 -0.007263 0.000000 -0.000867 0.000000
# 2 -0.005042 0.021186 -0.007630 0.000000 0.001758 0.000000
# 3 -0.007263 -0.007630 0.022627 0.000000 0.000623 0.000000
# 4 0.000000 0.000000 0.000000 0.039019 0.000000 0.009275
# 5 -0.000867 0.001758 0.000623 0.000000 0.030175 0.000000
# 6 0.000000 0.000000 0.000000 0.009275 0.000000 0.043294
#
#
# Mechanical properties :
#
#
# Convention : Reuss Voigt Hill
#
# Bulk Modulus (GPa) = 57.28588 62.75329 60.01958
# Shear Modulus (GPa) = 23.20148 25.36354 24.28251
#
# Velocity S-wave (km/s) = 3.56969 3.73231 3.65190
# Velocity P-wave (km/s) = 6.96080 7.28277 7.12360
#
# Compressibility (1/GPa) = 0.01745631
#
# Stress axis : x y z
#
# Youngs Moduli (GPa) = 74.00010 47.20071 44.19496
#
# Poissons Ratio (x) = 0.23799 0.32097
# Poissons Ratio (y) = 0.37311 0.33723
# Poissons Ratio (z) = 0.53744 0.36016
#
# Static dielectric constant tensor:
#      x y z
#    x 3.736290 0.000000 -0.012850 
#    y 0.000000 3.144220 0.000000 
#    z -0.012850 0.000000 3.170430 
# 
# 
# High freq. dielectric constant tensor:
#      x y z
#    x 1.714030 0.000000 -0.004970 
#    y 0.000000 1.686670 0.000000 
#    z -0.004970 0.000000 1.682710 
# 
# From -- ./inp_files/29024.got.cif
#   From: 2010.06.25/outbox.cif.g09.slc.cpg/sg11_15_cif.got.tgz:29024.got - 2010.06.27 23:14:04.
