data_PCOD8069287
_publ_section_title
;
Structure prediction by ZEFSAII (Michael W. Deem and Ramdas Pophale) SiO2 
 PCOD8069287
Probable space group: P 21/M
;
_chemical_formula_sum "Si O2"
_cell_formula_units_Z 24
_cell_length_a 18.126987
_cell_length_b 8.742538
_cell_length_c 24.346850
_cell_angle_alpha 90.000000
_cell_angle_beta 19.684697
_cell_angle_gamma 90.000000
_cell_volume 1299.674143
_symmetry_space_group_name_H-M "P 21/M"
_symmetry_group_IT_number 11
_symmetry_cell_setting 'monoclinic'
loop_
_space_group_symop_operation_xyz
x,y,z
-x,1/2+y,-z
-x,-y,-z
x,1/2-y,z
loop_
_atom_site_type_symbol
_atom_site_label
_atom_site_fract_x
_atom_site_fract_y
_atom_site_fract_z
Si Si1 0.492658 0.928773 0.832308
Si Si2 0.997018 0.568058 0.170752
Si Si3 0.836022 0.074062 0.657127
Si Si4 0.646938 0.432240 0.348652
Si Si5 0.806399 0.573656 0.512011
Si Si6 0.704422 0.070210 0.470588
O O1 0.493868 0.750000 0.840710
O O2 0.633685 0.974682 0.680084
O O3 0.596763 0.999978 0.815270
O O4 0.246703 0.989318 0.997331
O O5 0.976819 0.750000 0.181554
O O6 0.891484 0.494089 0.189388
O O7 0.878537 0.509660 0.308557
O O8 0.816816 0.250000 0.656005
O O9 0.942310 0.050547 0.643045
O O10 0.000000 0.000000 0.500000
O O11 0.500000 0.500000 0.500000
O O12 0.643413 0.250000 0.349994
O O13 0.539916 0.499622 0.367918
O O14 0.768314 0.750000 0.521357
O O15 0.772695 0.461892 0.484838
O O16 0.701804 0.250000 0.460669
#
# Coordination Sequence:
#
# PCOD8069287 Si02
#       6
#     4   4   4   4   4   4
#     4   9  19  34  54  77 102 131 166 206 251 297
#     4  10  19  34  54  76 102 132 164 205 251 297
#     4   9  17  30  51  74 100 132 168 205 245 295
#     4  10  18  31  51  73  98 131 167 204 244 295
#     4   9  18  34  52  74 101 131 165 205 249 293
#     4  11  21  33  51  76 101 131 169 207 246 295
#
# _framework density 18.466168
#
# number of rings (size 3 to 8) (size 9 to 14) (size 15 to 20)
#    0.000    2.333    0.000    7.000    0.000    4.667 
#    0.000    1.667    0.000    0.000    0.000    0.000 
#    0.000    0.000    0.000    0.000    0.000    0.000 
#
# Total GULP energy -297453.703147 kJ/mol
# GULP energy per Si atom -12393.904298 kJ/mol
# Density = 1.842414 g / cm^3
# Si number density = 18.466168 Si / 1000 Ang^3
#
#
#
# Elastic Constant Matrix: (Units=GPa)
#
#
# Indices 1 2 3 4 5 6 
#
# 1 96.5696 40.2132 30.7144 0.0000 -21.6024 0.0000
# 2 40.2132 92.8772 26.6141 0.0000 -15.9915 0.0000
# 3 30.7144 26.6141 70.5660 0.0000 -26.2387 0.0000
# 4 0.0000 0.0000 0.0000 23.1402 0.0000 -7.9373
# 5 -21.6024 -15.9915 -26.2387 0.0000 28.5571 0.0000
# 6 0.0000 0.0000 0.0000 -7.9373 0.0000 35.7973
#
#
#
# Elastic Compliance Matrix: (Units=1/GPa)
#
#
# Indices 1 2 3 4 5 6 
#
# 1 0.014336 -0.004490 -0.002201 0.000000 0.006308 0.000000
# 2 -0.004490 0.013773 -0.002484 0.000000 0.002034 0.000000
# 3 -0.002201 -0.002484 0.022677 0.000000 0.017780 0.000000
# 4 0.000000 0.000000 0.000000 0.046772 0.000000 0.010371
# 5 0.006308 0.002034 0.017780 0.000000 0.057265 0.000000
# 6 0.000000 0.000000 0.000000 0.010371 0.000000 0.030235
#
#
# Mechanical properties :
#
#
# Convention : Reuss Voigt Hill
#
# Bulk Modulus (GPa) = 30.82979 50.56625 40.69802
# Shear Modulus (GPa) = 23.34045 28.33033 25.83539
#
# Velocity S-wave (km/s) = 3.55907 3.92110 3.74447
# Velocity P-wave (km/s) = 5.79835 6.92407 6.38606
#
# Compressibility (1/GPa) = 0.03243616
#
# Stress axis : x y z
#
# Youngs Moduli (GPa) = 69.75352 72.60565 44.09722
#
# Poissons Ratio (x) = 0.32603 0.09705
# Poissons Ratio (y) = 0.31322 0.10953
# Poissons Ratio (z) = 0.15352 0.18034
#
# Static dielectric constant tensor:
#      x y z
#    x 3.906080 0.000000 -0.677770 
#    y 0.000000 3.518640 0.000000 
#    z -0.677770 0.000000 3.507490 
# 
# 
# High freq. dielectric constant tensor:
#      x y z
#    x 1.720300 0.000000 -0.038400 
#    y 0.000000 1.726360 0.000000 
#    z -0.038400 0.000000 1.684820 
# 
# From -- ./inp_files/69501.got.cif
#   From: 2010.06.25/outbox.cif.g09.slc.cpg/sg11_35_cif.got.tgz:69501.got - 2010.06.27 23:14:04.
