data_PCOD8069082
_publ_section_title
;
Structure prediction by ZEFSAII (Michael W. Deem and Ramdas Pophale) SiO2 
 PCOD8069082
Probable space group: P 21/M
;
_chemical_formula_sum "Si O2"
_cell_formula_units_Z 20
_cell_length_a 16.224226
_cell_length_b 8.666525
_cell_length_c 27.456744
_cell_angle_alpha 90.000000
_cell_angle_beta 163.407463
_cell_angle_gamma 90.000000
_cell_volume 1102.454749
_symmetry_space_group_name_H-M "P 21/M"
_symmetry_group_IT_number 11
_symmetry_cell_setting 'monoclinic'
loop_
_space_group_symop_operation_xyz
x,y,z
-x,1/2+y,-z
-x,-y,-z
x,1/2-y,z
loop_
_atom_site_type_symbol
_atom_site_label
_atom_site_fract_x
_atom_site_fract_y
_atom_site_fract_z
Si Si1 0.399545 0.068088 0.258105
Si Si2 0.157543 0.432018 0.019289
Si Si3 0.996789 0.433015 0.641749
Si Si4 0.410625 0.066798 0.060751
Si Si5 0.200815 0.933472 0.849734
O O1 0.374647 0.250000 0.247123
O O2 0.716762 0.012782 0.453261
O O3 0.338200 0.008634 0.168458
O O4 0.165087 0.999058 0.162393
O O5 0.132489 0.250000 0.005235
O O6 0.320350 0.489531 0.063232
O O7 0.027594 0.250000 0.662114
O O8 0.272444 0.501526 0.770254
O O9 0.961840 0.501090 0.676905
O O10 0.416887 0.250000 0.059139
O O11 0.169791 0.997949 0.887091
O O12 0.197826 0.750000 0.848017
O O13 0.500000 0.000000 0.000000
#
# Coordination Sequence:
#
# PCOD8069082 Si02
#       5
#     4   4   4   4   4
#     4   9  19  35  53  73  99 131 165 202 245 292
#     4   9  19  35  53  73  99 131 165 202 245 292
#     4  10  19  32  51  75 102 130 163 202 244 290
#     4  10  19  32  51  75 102 130 163 202 244 290
#     4  10  18  30  49  72  99 130 164 200 244 292
#
# _framework density 18.141335000000002
#
# number of rings (size 3 to 8) (size 9 to 14) (size 15 to 20)
#    0.000    2.400    0.000    5.400    0.000    4.000 
#    0.000    1.000    0.000    0.000    0.000    0.000 
#    0.000    0.000    0.000    0.000    0.000    0.000 
#
# Total GULP energy -247940.238974 kJ/mol
# GULP energy per Si atom -12397.011949 kJ/mol
# Density = 1.810004 g / cm^3
# Si number density = 18.141335 Si / 1000 Ang^3
#
#
#
# Elastic Constant Matrix: (Units=GPa)
#
#
# Indices 1 2 3 4 5 6 
#
# 1 127.4820 44.2147 96.8197 0.0000 -12.7449 0.0000
# 2 44.2147 78.1321 39.2774 0.0000 -6.3747 0.0000
# 3 96.8197 39.2774 100.5978 0.0000 -11.4656 0.0000
# 4 0.0000 0.0000 0.0000 26.8356 0.0000 0.4481
# 5 -12.7449 -6.3747 -11.4656 0.0000 20.2870 0.0000
# 6 0.0000 0.0000 0.0000 0.4481 0.0000 26.8247
#
#
#
# Elastic Compliance Matrix: (Units=1/GPa)
#
#
# Indices 1 2 3 4 5 6 
#
# 1 0.029831 -0.002974 -0.027277 0.000000 0.002390 0.000000
# 2 -0.002974 0.016269 -0.003335 0.000000 0.001359 0.000000
# 3 -0.027277 -0.003335 0.037862 0.000000 0.003214 0.000000
# 4 0.000000 0.000000 0.000000 0.037274 0.000000 -0.000623
# 5 0.002390 0.001359 0.003214 0.000000 0.053038 0.000000
# 6 0.000000 0.000000 0.000000 -0.000623 0.000000 0.037289
#
#
# Mechanical properties :
#
#
# Convention : Reuss Voigt Hill
#
# Bulk Modulus (GPa) = 59.56000 74.09281 66.82641
# Shear Modulus (GPa) = 17.58507 23.18281 20.38394
#
# Velocity S-wave (km/s) = 3.11680 3.57865 3.35568
# Velocity P-wave (km/s) = 6.77163 7.61619 7.20629
#
# Compressibility (1/GPa) = 0.01678979
#
# Stress axis : x y z
#
# Youngs Moduli (GPa) = 33.52217 61.46595 26.41190
#
# Poissons Ratio (x) = 0.18279 0.72044
# Poissons Ratio (y) = 0.09969 0.08808
# Poissons Ratio (z) = 0.91439 0.20499
#
# Static dielectric constant tensor:
#      x y z
#    x 3.769770 0.000000 -0.535950 
#    y 0.000000 3.323230 0.000000 
#    z -0.535950 0.000000 3.715930 
# 
# 
# High freq. dielectric constant tensor:
#      x y z
#    x 1.697160 0.000000 -0.023350 
#    y 0.000000 1.709860 0.000000 
#    z -0.023350 0.000000 1.695410 
# 
# From -- ./inp_files/20227.got.cif
#   From: 2010.06.25/outbox.cif.g09.slc.cpg/sg11_11_cif.got.tgz:20227.got - 2010.06.27 23:14:04.
