data_PCOD8069417
_publ_section_title
;
Structure prediction by ZEFSAII (Michael W. Deem and Ramdas Pophale) SiO2 
 PCOD8069417
Probable space group: P 21/M
;
_chemical_formula_sum "Si O2"
_cell_formula_units_Z 20
_cell_length_a 9.309025
_cell_length_b 8.693146
_cell_length_c 19.967620
_cell_angle_alpha 90.000000
_cell_angle_beta 133.891332
_cell_angle_gamma 90.000000
_cell_volume 1164.489248
_symmetry_space_group_name_H-M "P 21/M"
_symmetry_group_IT_number 11
_symmetry_cell_setting 'monoclinic'
loop_
_space_group_symop_operation_xyz
x,y,z
-x,1/2+y,-z
-x,-y,-z
x,1/2-y,z
loop_
_atom_site_type_symbol
_atom_site_label
_atom_site_fract_x
_atom_site_fract_y
_atom_site_fract_z
Si Si1 0.471773 0.076763 0.748855
Si Si2 0.774253 0.076370 0.740162
Si Si3 0.141688 0.430236 0.101159
Si Si4 0.715814 0.568874 0.582165
Si Si5 0.968447 0.567188 0.417097
O O1 0.482032 0.250000 0.781059
O O2 0.546338 0.076634 0.694901
O O3 0.247918 0.012175 0.679935
O O4 0.626027 0.971139 0.841390
O O5 0.843984 0.250000 0.745471
O O6 0.913648 0.005527 0.844359
O O7 0.791240 0.970651 0.680726
O O8 0.110263 0.250000 0.094430
O O9 0.000000 0.500000 0.000000
O O10 0.500000 0.500000 0.500000
O O11 0.707727 0.750000 0.569473
O O12 0.865802 0.495942 0.578281
O O13 0.978677 0.750000 0.424143
O O14 0.000000 0.500000 0.500000
#
# Coordination Sequence:
#
# PCOD8069417 Si02
#       5
#     4   4   4   4   4
#     4   8  18  34  53  77 107 140 179 223 270 322
#     4   9  18  35  55  79 108 139 180 226 272 323
#     4  10  18  31  55  84 112 143 181 227 274 323
#     4  12  24  37  54  78 109 147 188 228 275 329
#     4  11  22  37  56  78 110 147 185 228 275 328
#
# _framework density 17.174913
#
# number of rings (size 3 to 8) (size 9 to 14) (size 15 to 20)
#    1.200    0.800    0.000    5.400    0.000    3.200 
#    0.000    0.000    0.000    1.200    0.000    0.000 
#    0.000    0.000    0.000    0.000    0.000    0.000 
#
# Total GULP energy -247845.169397 kJ/mol
# GULP energy per Si atom -12392.258470 kJ/mol
# Density = 1.713582 g / cm^3
# Si number density = 17.174913 Si / 1000 Ang^3
#
#
#
# Elastic Constant Matrix: (Units=GPa)
#
#
# Indices 1 2 3 4 5 6 
#
# 1 99.2221 33.1284 59.2768 0.0000 5.9727 0.0000
# 2 33.1284 104.3767 51.1110 0.0000 9.8509 0.0000
# 3 59.2768 51.1110 135.4992 0.0000 2.8426 0.0000
# 4 0.0000 0.0000 0.0000 34.3227 0.0000 -2.0148
# 5 5.9727 9.8509 2.8426 0.0000 25.1503 0.0000
# 6 0.0000 0.0000 0.0000 -2.0148 0.0000 28.4689
#
#
#
# Elastic Compliance Matrix: (Units=1/GPa)
#
#
# Indices 1 2 3 4 5 6 
#
# 1 0.014008 -0.001557 -0.005497 0.000000 -0.002096 0.000000
# 2 -0.001557 0.012364 -0.003898 0.000000 -0.004033 0.000000
# 3 -0.005497 -0.003898 0.011223 0.000000 0.001564 0.000000
# 4 0.000000 0.000000 0.000000 0.029257 0.000000 0.002071
# 5 -0.002096 -0.004033 0.001564 0.000000 0.041661 0.000000
# 6 0.000000 0.000000 0.000000 0.002071 0.000000 0.035273
#
#
# Mechanical properties :
#
#
# Convention : Reuss Voigt Hill
#
# Bulk Modulus (GPa) = 63.72998 69.57005 66.65001
# Shear Modulus (GPa) = 29.25343 30.62717 29.94030
#
# Velocity S-wave (km/s) = 4.13154 4.22744 4.17976
# Velocity P-wave (km/s) = 7.74251 8.02639 7.88573
#
# Compressibility (1/GPa) = 0.01569120
#
# Stress axis : x y z
#
# Youngs Moduli (GPa) = 71.38626 80.87850 89.10594
#
# Poissons Ratio (x) = 0.12589 0.48983
# Poissons Ratio (y) = 0.11111 0.34736
# Poissons Ratio (z) = 0.39242 0.31529
#
# Static dielectric constant tensor:
#      x y z
#    x 3.207900 0.000000 0.069720 
#    y 0.000000 3.346610 0.000000 
#    z 0.069720 0.000000 3.203340 
# 
# 
# High freq. dielectric constant tensor:
#      x y z
#    x 1.639970 0.000000 0.001260 
#    y 0.000000 1.678440 0.000000 
#    z 0.001260 0.000000 1.655670 
# 
# From -- ./inp_files/57569.got.cif
#   From: 2010.06.25/outbox.cif.g09.slc.cpg/sg11_29_cif.got.tgz:57569.got - 2010.06.27 23:14:04.
