data_PCOD8069771
_publ_section_title
;
Structure prediction by ZEFSAII (Michael W. Deem and Ramdas Pophale) SiO2 
 PCOD8069771
Probable space group: P 21/M
;
_chemical_formula_sum "Si O2"
_cell_formula_units_Z 32
_cell_length_a 15.392003
_cell_length_b 8.719875
_cell_length_c 22.644019
_cell_angle_alpha 90.000000
_cell_angle_beta 147.600954
_cell_angle_gamma 90.000000
_cell_volume 1628.440677
_symmetry_space_group_name_H-M "P 21/M"
_symmetry_group_IT_number 11
_symmetry_cell_setting 'monoclinic'
loop_
_space_group_symop_operation_xyz
x,y,z
-x,1/2+y,-z
-x,-y,-z
x,1/2-y,z
loop_
_atom_site_type_symbol
_atom_site_label
_atom_site_fract_x
_atom_site_fract_y
_atom_site_fract_z
Si Si1 0.341103 0.930911 0.743057
Si Si2 0.011818 0.427671 0.136821
Si Si3 0.070959 0.066972 0.303605
Si Si4 0.163233 0.424165 0.533419
Si Si5 0.882956 0.569443 0.298929
Si Si6 0.666911 0.428826 0.886023
Si Si7 0.709948 0.432192 0.777617
Si Si8 0.622141 0.922085 0.453600
O O1 0.327051 0.750000 0.732289
O O2 0.215546 0.004749 0.625084
O O3 0.285388 0.993187 0.775363
O O4 0.524369 0.979121 0.835650
O O5 0.054483 0.250000 0.155238
O O6 0.048380 0.486655 0.223694
O O7 0.121931 0.516498 0.153580
O O8 0.825739 0.460834 0.015933
O O9 0.064522 0.250000 0.308130
O O10 0.244904 0.999337 0.426834
O O11 0.925964 0.996280 0.259018
O O12 0.100160 0.250000 0.506012
O O13 0.318427 0.424904 0.579826
O O14 0.023142 0.527313 0.425588
O O15 0.860738 0.750000 0.281965
O O16 0.620554 0.250000 0.858405
O O17 0.698692 0.492274 0.838316
O O18 0.701607 0.250000 0.773374
O O19 0.557175 0.499381 0.651350
O O20 0.602227 0.750000 0.465592
#
# Coordination Sequence:
#
# PCOD8069771 Si02
#       8
#     4   4   4   4   4   4   4   4
#     4  12  23  35  55  85 115 147 189 234 283 339
#     4  10  22  38  58  82 110 148 192 240 286 337
#     4   9  19  38  58  79 112 151 192 234 283 334
#     4  10  18  34  56  81 119 156 186 225 280 337
#     4  11  22  36  56  84 115 149 190 231 278 337
#     4  10  21  39  58  80 113 150 189 235 290 336
#     4  10  19  34  57  83 112 147 187 230 284 345
#     4   8  15  30  54  80 110 148 180 219 277 332
#
# _framework density 19.650701999999999
#
# number of rings (size 3 to 8) (size 9 to 14) (size 15 to 20)
#    0.000    2.000    1.250    4.125    0.000    2.000 
#    0.000    1.250    0.000    0.000    0.000    0.000 
#    0.000    0.000    0.000    0.000    0.000    0.000 
#
# Total GULP energy -396751.316612 kJ/mol
# GULP energy per Si atom -12398.478644 kJ/mol
# Density = 1.960598 g / cm^3
# Si number density = 19.650702 Si / 1000 Ang^3
#
#
#
# Elastic Constant Matrix: (Units=GPa)
#
#
# Indices 1 2 3 4 5 6 
#
# 1 71.9743 21.5149 40.8399 0.0000 8.1543 0.0000
# 2 21.5149 53.5272 21.5772 0.0000 3.2732 0.0000
# 3 40.8399 21.5772 66.0531 0.0000 -5.3778 0.0000
# 4 0.0000 0.0000 0.0000 21.3298 0.0000 5.6943
# 5 8.1543 3.2732 -5.3778 0.0000 29.2289 0.0000
# 6 0.0000 0.0000 0.0000 5.6943 0.0000 29.2593
#
#
#
# Elastic Compliance Matrix: (Units=1/GPa)
#
#
# Indices 1 2 3 4 5 6 
#
# 1 0.024206 -0.003274 -0.014636 0.000000 -0.009079 0.000000
# 2 -0.003274 0.022373 -0.005496 0.000000 -0.002603 0.000000
# 3 -0.014636 -0.005496 0.026767 0.000000 0.009623 0.000000
# 4 0.000000 0.000000 0.000000 0.049452 0.000000 -0.009624
# 5 -0.009079 -0.002603 0.009623 0.000000 0.038808 0.000000
# 6 0.000000 0.000000 0.000000 -0.009624 0.000000 0.036050
#
#
# Mechanical properties :
#
#
# Convention : Reuss Voigt Hill
#
# Bulk Modulus (GPa) = 37.68755 39.93539 38.81147
# Shear Modulus (GPa) = 19.73843 23.13842 21.43842
#
# Velocity S-wave (km/s) = 3.17277 3.43517 3.30657
# Velocity P-wave (km/s) = 5.71334 6.00838 5.86272
#
# Compressibility (1/GPa) = 0.02653396
#
# Stress axis : x y z
#
# Youngs Moduli (GPa) = 41.31205 44.69711 37.35902
#
# Poissons Ratio (x) = 0.14636 0.54678
# Poissons Ratio (y) = 0.13527 0.20532
# Poissons Ratio (z) = 0.60464 0.24565
#
# Static dielectric constant tensor:
#      x y z
#    x 3.654880 0.000000 0.067810 
#    y 0.000000 3.349680 0.000000 
#    z 0.067810 0.000000 3.632310 
# 
# 
# High freq. dielectric constant tensor:
#      x y z
#    x 1.768500 0.000000 0.010580 
#    y 0.000000 1.745560 0.000000 
#    z 0.010580 0.000000 1.760030 
# 
# From -- ./inp_files/51733.got.cif
#   From: 2010.06.25/outbox.cif.g09.slc.cpg/sg11_26_cif.got.tgz:51733.got - 2010.06.27 23:14:04.
