data_PCOD8069205
_publ_section_title
;
Structure prediction by ZEFSAII (Michael W. Deem and Ramdas Pophale) SiO2 
 PCOD8069205
Probable space group: P 21/M
;
_chemical_formula_sum "Si O2"
_cell_formula_units_Z 32
_cell_length_a 11.870421
_cell_length_b 19.563119
_cell_length_c 9.715622
_cell_angle_alpha 90.000000
_cell_angle_beta 124.012449
_cell_angle_gamma 90.000000
_cell_volume 1870.188487
_symmetry_space_group_name_H-M "P 21/M"
_symmetry_group_IT_number 11
_symmetry_cell_setting 'monoclinic'
loop_
_space_group_symop_operation_xyz
x,y,z
-x,1/2+y,-z
-x,-y,-z
x,1/2-y,z
loop_
_atom_site_type_symbol
_atom_site_label
_atom_site_fract_x
_atom_site_fract_y
_atom_site_fract_z
Si Si1 0.145430 0.927601 0.193004
Si Si2 0.643881 0.413741 0.114292
Si Si3 0.132853 0.410441 0.572339
Si Si4 0.895219 0.671078 0.710772
Si Si5 0.202022 0.829187 0.994519
Si Si6 0.665390 0.931690 0.053292
Si Si7 0.846717 0.434062 0.490514
Si Si8 0.834325 0.926459 0.907057
O O1 0.191209 0.913366 0.380236
O O2 0.202429 0.000288 0.182136
O O3 0.212067 0.868537 0.146051
O O4 0.982601 0.927718 0.076346
O O5 0.685238 0.355512 0.034673
O O6 0.674528 0.486407 0.065494
O O7 0.727537 0.406064 0.312228
O O8 0.486764 0.404089 0.041964
O O9 0.158082 0.354127 0.472704
O O10 0.250737 0.399484 0.763902
O O11 0.137825 0.484427 0.505207
O O12 0.987468 0.398469 0.543890
O O13 0.859510 0.750000 0.705076
O O14 0.819714 0.630876 0.780595
O O15 0.055852 0.656435 0.826997
O O16 0.227436 0.750000 0.042235
O O17 0.726867 0.907275 0.951148
#
# Coordination Sequence:
#
# PCOD8069205 Si02
#       8
#     4   4   4   4   4   4   4   4
#     4  10  18  30  54  82 106 138 180 228 266 315
#     4  10  20  35  53  80 113 141 177 222 266 325
#     4  10  18  31  53  82 106 134 179 226 266 316
#     4  10  20  34  53  81 111 141 178 226 277 324
#     4  10  20  35  54  78 110 147 180 217 274 330
#     4  10  20  34  55  82 110 139 177 226 273 310
#     4  10  18  30  55  82 105 134 182 227 264 306
#     4  10  18  31  53  80 109 140 175 225 275 317
#
# _framework density 17.110575000000001
#
# number of rings (size 3 to 8) (size 9 to 14) (size 15 to 20)
#    0.000    2.000    5.000    0.000    0.000    0.000 
#    0.000    5.000    0.000    0.000    0.000    0.000 
#    0.000    0.000    0.000    0.000    0.000    0.000 
#
# Total GULP energy -396931.541833 kJ/mol
# GULP energy per Si atom -12404.110682 kJ/mol
# Density = 1.707163 g / cm^3
# Si number density = 17.110575 Si / 1000 Ang^3
#
#
#
# Elastic Constant Matrix: (Units=GPa)
#
#
# Indices 1 2 3 4 5 6 
#
# 1 113.1377 54.7789 71.7008 0.0000 -16.6919 0.0000
# 2 54.7789 94.6228 49.1444 0.0000 -15.9860 0.0000
# 3 71.7008 49.1444 122.8342 0.0000 -17.4100 0.0000
# 4 0.0000 0.0000 0.0000 21.1884 0.0000 -7.5867
# 5 -16.6919 -15.9860 -17.4100 0.0000 34.3375 0.0000
# 6 0.0000 0.0000 0.0000 -7.5867 0.0000 20.9831
#
#
#
# Elastic Compliance Matrix: (Units=1/GPa)
#
#
# Indices 1 2 3 4 5 6 
#
# 1 0.016174 -0.005415 -0.007022 0.000000 0.001781 0.000000
# 2 -0.005415 0.015624 -0.002620 0.000000 0.003313 0.000000
# 3 -0.007022 -0.002620 0.013610 0.000000 0.002267 0.000000
# 4 0.000000 0.000000 0.000000 0.054214 0.000000 0.019602
# 5 0.001781 0.003313 0.002267 0.000000 0.032680 0.000000
# 6 0.000000 0.000000 0.000000 0.019602 0.000000 0.054745
#
#
# Mechanical properties :
#
#
# Convention : Reuss Voigt Hill
#
# Bulk Modulus (GPa) = 65.39388 75.76033 70.57711
# Shear Modulus (GPa) = 22.49632 25.63318 24.06475
#
# Velocity S-wave (km/s) = 3.62990 3.87472 3.75430
# Velocity P-wave (km/s) = 7.47460 8.02440 7.75437
#
# Compressibility (1/GPa) = 0.01529195
#
# Stress axis : x y z
#
# Youngs Moduli (GPa) = 61.82909 64.00423 73.47805
#
# Poissons Ratio (x) = 0.34661 0.51595
# Poissons Ratio (y) = 0.33483 0.19254
# Poissons Ratio (z) = 0.43415 0.16771
#
# Static dielectric constant tensor:
#      x y z
#    x 3.048400 0.000000 -0.099410 
#    y 0.000000 2.969870 0.000000 
#    z -0.099410 0.000000 3.144590 
# 
# 
# High freq. dielectric constant tensor:
#      x y z
#    x 1.651230 0.000000 -0.018220 
#    y 0.000000 1.637850 0.000000 
#    z -0.018220 0.000000 1.659600 
# 
# From -- ./inp_files/19162.got.cif
#   From: 2010.06.25/outbox.cif.g09.slc.cpg/sg11_10_cif.got.tgz:19162.got - 2010.06.27 23:14:04.
