data_PCOD8069851
_publ_section_title
;
Structure prediction by ZEFSAII (Michael W. Deem and Ramdas Pophale) SiO2 
 PCOD8069851
Probable space group: P 21/M
;
_chemical_formula_sum "Si O2"
_cell_formula_units_Z 32
_cell_length_a 14.855105
_cell_length_b 15.332390
_cell_length_c 21.935678
_cell_angle_alpha 90.000000
_cell_angle_beta 18.411556
_cell_angle_gamma 90.000000
_cell_volume 1577.990339
_symmetry_space_group_name_H-M "P 21/M"
_symmetry_group_IT_number 11
_symmetry_cell_setting 'monoclinic'
loop_
_space_group_symop_operation_xyz
x,y,z
-x,1/2+y,-z
-x,-y,-z
x,1/2-y,z
loop_
_atom_site_type_symbol
_atom_site_label
_atom_site_fract_x
_atom_site_fract_y
_atom_site_fract_z
Si Si1 0.971017 0.154728 0.034086
Si Si2 0.344075 0.149847 0.633711
Si Si3 0.356342 0.150375 0.997655
Si Si4 0.844938 0.104396 0.238842
Si Si5 0.818075 0.647430 0.751687
Si Si6 0.565105 0.148693 0.621109
Si Si7 0.833773 0.063857 0.004290
Si Si8 0.696528 0.989447 0.728065
O O1 0.984472 0.250000 0.992971
O O2 0.822850 0.167503 0.194411
O O3 0.809599 0.091305 0.090754
O O4 0.301447 0.125233 0.835383
O O5 0.414185 0.250000 0.575845
O O6 0.520724 0.094621 0.470427
O O7 0.465869 0.115077 0.619372
O O8 0.001250 0.135008 0.854213
O O9 0.460760 0.250000 0.918974
O O10 0.593932 0.083302 0.819878
O O11 0.319146 0.133979 0.093587
O O12 0.052591 0.138100 0.159134
O O13 0.954386 0.016930 0.137814
O O14 0.796102 0.750000 0.746334
O O15 0.672887 0.584318 0.795624
O O16 0.139793 0.607882 0.545725
O O17 0.635647 0.250000 0.571831
O O18 0.517564 0.045101 0.185720
O O19 0.000000 0.000000 0.500000
#
# Coordination Sequence:
#
# PCOD8069851 Si02
#       8
#     4   4   4   4   4   4   4   4
#     4  10  20  35  57  86 123 159 194 239 302 369
#     4  10  18  35  60  87 117 151 191 237 299 367
#     4  10  21  40  64  91 123 156 203 265 315 362
#     4  11  20  34  59  94 123 147 193 251 306 361
#     4  10  20  38  65  91 120 160 206 255 310 364
#     4   8  16  30  54  87 115 147 189 237 295 357
#     4  10  23  39  54  81 123 161 194 240 301 359
#     4  11  26  43  61  90 121 164 217 259 301 358
#
# _framework density 20.278959
#
# number of rings (size 3 to 8) (size 9 to 14) (size 15 to 20)
#    0.000    2.000    1.250    3.375    3.500    1.500 
#    0.000    1.250    0.000    1.500    0.000    0.000 
#    0.000    0.000    0.000    0.000    0.000    0.000 
#
# Total GULP energy -396474.813443 kJ/mol
# GULP energy per Si atom -12389.837920 kJ/mol
# Density = 2.023280 g / cm^3
# Si number density = 20.278959 Si / 1000 Ang^3
#
#
#
# Elastic Constant Matrix: (Units=GPa)
#
#
# Indices 1 2 3 4 5 6 
#
# 1 79.9912 39.9404 39.4167 0.0000 4.4370 0.0000
# 2 39.9404 81.6046 18.2259 0.0000 -0.6911 0.0000
# 3 39.4167 18.2259 114.7260 0.0000 5.2787 0.0000
# 4 0.0000 0.0000 0.0000 24.9136 0.0000 -2.1031
# 5 4.4370 -0.6911 5.2787 0.0000 32.8748 0.0000
# 6 0.0000 0.0000 0.0000 -2.1031 0.0000 25.5523
#
#
#
# Elastic Compliance Matrix: (Units=1/GPa)
#
#
# Indices 1 2 3 4 5 6 
#
# 1 0.019339 -0.008313 -0.005234 0.000000 -0.001944 0.000000
# 2 -0.008313 0.016290 0.000202 0.000000 0.001432 0.000000
# 3 -0.005234 0.000202 0.010528 0.000000 -0.000980 0.000000
# 4 0.000000 0.000000 0.000000 0.040419 0.000000 0.003327
# 5 -0.001944 0.001432 -0.000980 0.000000 0.030868 0.000000
# 6 0.000000 0.000000 0.000000 0.003327 0.000000 0.039409
#
#
# Mechanical properties :
#
#
# Convention : Reuss Voigt Hill
#
# Bulk Modulus (GPa) = 51.36886 52.38753 51.87819
# Shear Modulus (GPa) = 26.31134 28.58407 27.44770
#
# Velocity S-wave (km/s) = 3.60595 3.75846 3.68299
# Velocity P-wave (km/s) = 6.53630 6.68762 6.61239
#
# Compressibility (1/GPa) = 0.01946705
#
# Stress axis : x y z
#
# Youngs Moduli (GPa) = 51.70865 61.38838 94.98721
#
# Poissons Ratio (x) = 0.51030 0.49719
# Poissons Ratio (y) = 0.42984 -0.01921
# Poissons Ratio (z) = 0.27066 -0.01242
#
# Static dielectric constant tensor:
#      x y z
#    x 3.507680 0.000000 0.063870 
#    y 0.000000 3.810590 0.000000 
#    z 0.063870 0.000000 3.834410 
# 
# 
# High freq. dielectric constant tensor:
#      x y z
#    x 1.775770 0.000000 0.017330 
#    y 0.000000 1.796810 0.000000 
#    z 0.017330 0.000000 1.791290 
# 
# From -- ./inp_files/65726.got.cif
#   From: 2010.06.25/outbox.cif.g09.slc.cpg/sg11_33_cif.got.tgz:65726.got - 2010.06.27 23:14:04.
