data_PCOD8069212
_publ_section_title
;
Structure prediction by ZEFSAII (Michael W. Deem and Ramdas Pophale) SiO2 
 PCOD8069212
Probable space group: P 21/M
;
_chemical_formula_sum "Si O2"
_cell_formula_units_Z 32
_cell_length_a 23.314332
_cell_length_b 8.966525
_cell_length_c 33.943610
_cell_angle_alpha 90.000000
_cell_angle_beta 163.645466
_cell_angle_gamma 90.000000
_cell_volume 1998.053728
_symmetry_space_group_name_H-M "P 21/M"
_symmetry_group_IT_number 11
_symmetry_cell_setting 'monoclinic'
loop_
_space_group_symop_operation_xyz
x,y,z
-x,1/2+y,-z
-x,-y,-z
x,1/2-y,z
loop_
_atom_site_type_symbol
_atom_site_label
_atom_site_fract_x
_atom_site_fract_y
_atom_site_fract_z
Si Si1 0.590944 0.420141 0.507163
Si Si2 0.026471 0.425500 0.686955
Si Si3 0.760729 0.578325 0.091529
Si Si4 0.983253 0.573115 0.801779
Si Si5 0.621003 0.421633 0.114136
Si Si6 0.578375 0.082424 0.405743
Si Si7 0.827777 0.424603 0.860939
Si Si8 0.175605 0.926331 0.231867
O O1 0.584414 0.250000 0.518844
O O2 0.786611 0.505501 0.651325
O O3 0.604412 0.420836 0.469367
O O4 0.390773 0.508976 0.389319
O O5 0.050779 0.250000 0.698235
O O6 0.114404 0.474764 0.787498
O O7 0.154753 0.503601 0.736137
O O8 0.791016 0.474929 0.527238
O O9 0.816561 0.750000 0.119008
O O10 0.819267 0.476172 0.092971
O O11 0.516217 0.559550 0.936909
O O12 0.971153 0.750000 0.796129
O O13 0.997930 0.503852 0.855598
O O14 0.648404 0.250000 0.121390
O O15 0.500000 0.500000 0.000000
O O16 0.529898 0.250000 0.359440
O O17 0.394008 0.977490 0.270332
O O18 0.841461 0.250000 0.875949
O O19 0.862691 0.471379 0.838585
O O20 0.000000 0.500000 0.000000
O O21 0.173655 0.750000 0.236302
#
# Coordination Sequence:
#
# PCOD8069212 Si02
#       8
#     4   4   4   4   4   4   4   4
#     4  10  18  31  46  61  88 121 152 187 225 262
#     4   9  16  28  44  63  88 119 154 190 229 265
#     4   9  17  30  42  57  86 124 159 189 227 264
#     4  12  22  29  42  64  89 120 156 191 225 262
#     4   9  17  27  40  58  83 118 156 192 228 264
#     4   9  17  30  48  68  91 121 153 187 227 269
#     4  10  21  36  54  72  90 115 146 185 231 277
#     4  10  21  35  48  65  87 114 150 185 223 270
#
# _framework density 16.015585999999999
#
# number of rings (size 3 to 8) (size 9 to 14) (size 15 to 20)
#    0.000    2.250    1.250    3.750    0.000    5.000 
#    0.000    0.000    0.000    0.000    0.000    0.000 
#    0.000    1.000    0.000    3.250    0.000    4.000 
#
# Total GULP energy -396694.487013 kJ/mol
# GULP energy per Si atom -12396.702719 kJ/mol
# Density = 1.597913 g / cm^3
# Si number density = 16.015586 Si / 1000 Ang^3
#
#
#
# Elastic Constant Matrix: (Units=GPa)
#
#
# Indices 1 2 3 4 5 6 
#
# 1 76.0283 47.3657 48.0986 0.0000 26.5238 0.0000
# 2 47.3657 94.6429 42.5122 0.0000 15.8806 0.0000
# 3 48.0986 42.5122 83.4971 0.0000 18.2232 0.0000
# 4 0.0000 0.0000 0.0000 25.6655 0.0000 6.9994
# 5 26.5238 15.8806 18.2232 0.0000 24.1934 0.0000
# 6 0.0000 0.0000 0.0000 6.9994 0.0000 26.1678
#
#
#
# Elastic Compliance Matrix: (Units=1/GPa)
#
#
# Indices 1 2 3 4 5 6 
#
# 1 0.032028 -0.007976 -0.009416 0.000000 -0.022785 0.000000
# 2 -0.007976 0.016102 -0.003836 0.000000 0.001064 0.000000
# 3 -0.009416 -0.003836 0.019807 0.000000 -0.002079 0.000000
# 4 0.000000 0.000000 0.000000 0.042029 0.000000 -0.011242
# 5 -0.022785 0.001064 -0.002079 0.000000 0.067181 0.000000
# 6 0.000000 0.000000 0.000000 -0.011242 0.000000 0.041222
#
#
# Mechanical properties :
#
#
# Convention : Reuss Voigt Hill
#
# Bulk Modulus (GPa) = 39.24433 58.90234 49.07334
# Shear Modulus (GPa) = 18.56533 22.95145 20.75839
#
# Velocity S-wave (km/s) = 3.40840 3.78970 3.60410
# Velocity P-wave (km/s) = 6.32824 7.48379 6.93014
#
# Compressibility (1/GPa) = 0.02548138
#
# Stress axis : x y z
#
# Youngs Moduli (GPa) = 31.22253 62.10252 50.48665
#
# Poissons Ratio (x) = 0.49535 0.47538
# Poissons Ratio (y) = 0.24904 0.19367
# Poissons Ratio (z) = 0.29399 0.23823
#
# Static dielectric constant tensor:
#      x y z
#    x 3.248470 0.000000 0.420900 
#    y 0.000000 3.199860 0.000000 
#    z 0.420900 0.000000 2.944150 
# 
# 
# High freq. dielectric constant tensor:
#      x y z
#    x 1.600980 0.000000 0.035300 
#    y 0.000000 1.627180 0.000000 
#    z 0.035300 0.000000 1.577440 
# 
# From -- ./inp_files/73641.got.cif
#   From: 2010.06.25/outbox.cif.g09.slc.cpg/sg11_37_cif.got.tgz:73641.got - 2010.06.27 23:14:04.
