data_PCOD8069103
_publ_section_title
;
Structure prediction by ZEFSAII (Michael W. Deem and Ramdas Pophale) SiO2 
 PCOD8069103
Probable space group: P 21/M
;
_chemical_formula_sum "Si O2"
_cell_formula_units_Z 32
_cell_length_a 10.514531
_cell_length_b 16.960276
_cell_length_c 11.209373
_cell_angle_alpha 90.000000
_cell_angle_beta 115.149511
_cell_angle_gamma 90.000000
_cell_volume 1809.462544
_symmetry_space_group_name_H-M "P 21/M"
_symmetry_group_IT_number 11
_symmetry_cell_setting 'monoclinic'
loop_
_space_group_symop_operation_xyz
x,y,z
-x,1/2+y,-z
-x,-y,-z
x,1/2-y,z
loop_
_atom_site_type_symbol
_atom_site_label
_atom_site_fract_x
_atom_site_fract_y
_atom_site_fract_z
Si Si1 0.974420 0.336938 0.181816
Si Si2 0.139867 0.902723 0.091830
Si Si3 0.193990 0.972731 0.481626
Si Si4 0.327492 0.841527 0.374184
Si Si5 0.163047 0.440016 0.962826
Si Si6 0.588862 0.578600 0.539077
Si Si7 0.110083 0.983329 0.705935
Si Si8 0.281119 0.340443 0.195813
O O1 0.955786 0.250000 0.228262
O O2 0.934340 0.396960 0.268891
O O3 0.131719 0.351098 0.199900
O O4 0.871742 0.346732 0.027673
O O5 0.261464 0.869133 0.223486
O O6 0.175924 0.991067 0.065936
O O7 0.994369 0.905349 0.106807
O O8 0.267577 0.894470 0.458857
O O9 0.209697 0.973428 0.631225
O O10 0.262889 0.055266 0.462853
O O11 0.030690 0.968513 0.381265
O O12 0.293924 0.750000 0.384934
O O13 0.496856 0.855106 0.432827
O O14 0.270679 0.373603 0.055416
O O15 0.198484 0.470282 0.843699
O O16 0.500000 0.500000 0.500000
O O17 0.609188 0.609726 0.682149
O O18 0.329793 0.250000 0.209062
#
# Coordination Sequence:
#
# PCOD8069103 Si02
#       8
#     4   4   4   4   4   4   4   4
#     4   9  17  28  49  76 103 130 162 214 266 305
#     4   9  16  28  49  76 102 126 170 211 260 303
#     4  10  20  34  50  74 103 138 172 204 244 317
#     4  11  21  33  52  76 105 134 170 220 260 296
#     4   9  16  29  51  75 101 133 163 210 260 310
#     4  10  20  34  53  72  99 136 177 212 249 296
#     4  10  18  32  53  73 105 138 166 202 256 309
#     4  10  18  30  49  76 104 130 169 217 265 303
#
# _framework density 17.684809999999999
#
# number of rings (size 3 to 8) (size 9 to 14) (size 15 to 20)
#    0.000    2.250    2.500    3.000    0.000    1.000 
#    0.000    0.000    0.000   13.500    0.000    0.000 
#    0.000    0.000    0.000    0.000    0.000    0.000 
#
# Total GULP energy -396611.425113 kJ/mol
# GULP energy per Si atom -12394.107035 kJ/mol
# Density = 1.764456 g / cm^3
# Si number density = 17.684810 Si / 1000 Ang^3
#
#
#
# Elastic Constant Matrix: (Units=GPa)
#
#
# Indices 1 2 3 4 5 6 
#
# 1 33.2295 20.6352 22.3986 0.0000 -7.2181 0.0000
# 2 20.6352 104.6454 52.1116 0.0000 -5.9410 0.0000
# 3 22.3986 52.1116 117.7044 0.0000 -3.3125 0.0000
# 4 0.0000 0.0000 0.0000 25.1785 0.0000 3.9041
# 5 -7.2181 -5.9410 -3.3125 0.0000 26.9177 0.0000
# 6 0.0000 0.0000 0.0000 3.9041 0.0000 14.9485
#
#
#
# Elastic Compliance Matrix: (Units=1/GPa)
#
#
# Indices 1 2 3 4 5 6 
#
# 1 0.038162 -0.004542 -0.005009 0.000000 0.008614 0.000000
# 2 -0.004542 0.012913 -0.004823 0.000000 0.001038 0.000000
# 3 -0.005009 -0.004823 0.011557 0.000000 -0.000985 0.000000
# 4 0.000000 0.000000 0.000000 0.041393 0.000000 -0.010811
# 5 0.008614 0.001038 -0.000985 0.000000 0.039568 0.000000
# 6 0.000000 0.000000 0.000000 -0.010811 0.000000 0.069720
#
#
# Mechanical properties :
#
#
# Convention : Reuss Voigt Hill
#
# Bulk Modulus (GPa) = 29.51322 49.54115 39.52718
# Shear Modulus (GPa) = 19.73526 24.10453 21.91990
#
# Velocity S-wave (km/s) = 3.34420 3.69590 3.52444
# Velocity P-wave (km/s) = 5.62461 6.80346 6.24193
#
# Compressibility (1/GPa) = 0.03388312
#
# Stress axis : x y z
#
# Youngs Moduli (GPa) = 26.20436 77.44393 86.52990
#
# Poissons Ratio (x) = 0.35174 0.43341
# Poissons Ratio (y) = 0.11902 0.41736
# Poissons Ratio (z) = 0.13125 0.37354
#
# Static dielectric constant tensor:
#      x y z
#    x 3.088250 0.000000 0.102130 
#    y 0.000000 3.425580 0.000000 
#    z 0.102130 0.000000 3.451890 
# 
# 
# High freq. dielectric constant tensor:
#      x y z
#    x 1.630700 0.000000 0.007220 
#    y 0.000000 1.684960 0.000000 
#    z 0.007220 0.000000 1.697990 
# 
# From -- ./inp_files/35872.got.cif
#   From: 2010.06.25/outbox.cif.g09.slc.cpg/sg11_18_cif.got.tgz:35872.got - 2010.06.27 23:14:04.
