data_PCOD8069256
_publ_section_title
;
Structure prediction by ZEFSAII (Michael W. Deem and Ramdas Pophale) SiO2 
 PCOD8069256
Probable space group: P 21/M
;
_chemical_formula_sum "Si O2"
_cell_formula_units_Z 32
_cell_length_a 20.034378
_cell_length_b 9.125993
_cell_length_c 24.931697
_cell_angle_alpha 90.000000
_cell_angle_beta 157.099170
_cell_angle_gamma 90.000000
_cell_volume 1773.824669
_symmetry_space_group_name_H-M "P 21/M"
_symmetry_group_IT_number 11
_symmetry_cell_setting 'monoclinic'
loop_
_space_group_symop_operation_xyz
x,y,z
-x,1/2+y,-z
-x,-y,-z
x,1/2-y,z
loop_
_atom_site_type_symbol
_atom_site_label
_atom_site_fract_x
_atom_site_fract_y
_atom_site_fract_z
Si Si1 0.238002 0.414983 0.810343
Si Si2 0.568029 0.415685 0.129918
Si Si3 0.271486 0.077542 0.411796
Si Si4 0.253521 0.421508 0.086779
Si Si5 0.105617 0.078728 0.178535
Si Si6 0.953387 0.080417 0.244958
Si Si7 0.631702 0.420932 0.931693
Si Si8 0.610141 0.917544 0.696077
O O1 0.186246 0.250000 0.756290
O O2 0.272388 0.506507 0.781625
O O3 0.082531 0.487647 0.728155
O O4 0.406251 0.416017 0.971124
O O5 0.620148 0.250000 0.183679
O O6 0.523851 0.505923 0.150671
O O7 0.289296 0.250000 0.425549
O O8 0.209194 0.024909 0.307410
O O9 0.134418 0.027140 0.355194
O O10 0.455275 0.012990 0.560090
O O11 0.240603 0.250000 0.063927
O O12 0.360164 0.503026 0.119823
O O13 0.356853 0.451801 0.217578
O O14 0.064502 0.484901 0.952850
O O15 0.055972 0.250000 0.146686
O O16 0.218743 0.044493 0.210191
O O17 0.954180 0.250000 0.262124
O O18 0.811664 0.052184 0.094502
O O19 0.591599 0.250000 0.895189
O O20 0.558961 0.750000 0.648682
#
# Coordination Sequence:
#
# PCOD8069256 Si02
#       8
#     4   4   4   4   4   4   4   4
#     4   9  16  25  40  66  98 134 170 205 251 305
#     4   9  16  26  41  66 100 134 168 209 254 302
#     4  10  20  35  55  78 103 135 176 217 262 314
#     4  11  22  35  52  78 106 136 175 216 261 314
#     4  10  20  38  58  77 102 134 173 218 266 314
#     4   9  17  30  47  70  99 132 169 213 257 302
#     4  10  18  31  50  71 100 136 172 214 259 305
#     4  10  23  38  53  76 107 137 171 217 265 314
#
# _framework density 18.040113999999999
#
# number of rings (size 3 to 8) (size 9 to 14) (size 15 to 20)
#    0.000    2.250    1.250    2.250    0.000    6.000 
#    0.000    0.000    0.000    0.000    0.000    0.875 
#    0.000    0.000    0.000    0.000    0.000    0.000 
#
# Total GULP energy -396869.583001 kJ/mol
# GULP energy per Si atom -12402.174469 kJ/mol
# Density = 1.799905 g / cm^3
# Si number density = 18.040114 Si / 1000 Ang^3
#
#
#
# Elastic Constant Matrix: (Units=GPa)
#
#
# Indices 1 2 3 4 5 6 
#
# 1 98.8041 45.0056 5.7844 0.0000 16.6153 0.0000
# 2 45.0056 91.2756 13.4916 0.0000 5.1082 0.0000
# 3 5.7844 13.4916 19.4112 0.0000 -3.2769 0.0000
# 4 0.0000 0.0000 0.0000 23.0729 0.0000 6.1974
# 5 16.6153 5.1082 -3.2769 0.0000 8.4718 0.0000
# 6 0.0000 0.0000 0.0000 6.1974 0.0000 34.9411
#
#
#
# Elastic Compliance Matrix: (Units=1/GPa)
#
#
# Indices 1 2 3 4 5 6 
#
# 1 0.020022 -0.006560 -0.007883 0.000000 -0.038361 0.000000
# 2 -0.006560 0.015481 -0.008782 0.000000 0.000135 0.000000
# 3 -0.007883 -0.008782 0.067908 0.000000 0.047022 0.000000
# 4 0.000000 0.000000 0.000000 0.045509 0.000000 -0.008072
# 5 -0.038361 0.000135 0.047022 0.000000 0.211381 0.000000
# 6 0.000000 0.000000 0.000000 -0.008072 0.000000 0.030051
#
#
# Mechanical properties :
#
#
# Convention : Reuss Voigt Hill
#
# Bulk Modulus (GPa) = 17.55610 37.56156 27.55883
# Shear Modulus (GPa) = 10.96999 22.97777 16.97388
#
# Velocity S-wave (km/s) = 2.46862 3.57277 3.07073
# Velocity P-wave (km/s) = 4.22827 6.15515 5.28035
#
# Compressibility (1/GPa) = 0.05696027
#
# Stress axis : x y z
#
# Youngs Moduli (GPa) = 49.94596 64.59489 14.72581
#
# Poissons Ratio (x) = 0.42375 0.11608
# Poissons Ratio (y) = 0.32765 0.12933
# Poissons Ratio (z) = 0.39370 0.56730
#
# Static dielectric constant tensor:
#      x y z
#    x 3.602210 0.000000 0.134230 
#    y 0.000000 3.428260 0.000000 
#    z 0.134230 0.000000 2.894990 
# 
# 
# High freq. dielectric constant tensor:
#      x y z
#    x 1.714790 0.000000 0.016810 
#    y 0.000000 1.705840 0.000000 
#    z 0.016810 0.000000 1.651870 
# 
# From -- ./inp_files/72175.got.cif
#   From: 2010.06.25/outbox.cif.g09.slc.cpg/sg11_37_cif.got.tgz:72175.got - 2010.06.27 23:14:04.
