data_PCOD8069162
_publ_section_title
;
Structure prediction by ZEFSAII (Michael W. Deem and Ramdas Pophale) SiO2 
 PCOD8069162
Probable space group: P 21/M
;
_chemical_formula_sum "Si O2"
_cell_formula_units_Z 16
_cell_length_a 24.799226
_cell_length_b 8.813822
_cell_length_c 11.744276
_cell_angle_alpha 90.000000
_cell_angle_beta 22.414175
_cell_angle_gamma 90.000000
_cell_volume 978.801054
_symmetry_space_group_name_H-M "P 21/M"
_symmetry_group_IT_number 11
_symmetry_cell_setting 'monoclinic'
loop_
_space_group_symop_operation_xyz
x,y,z
-x,1/2+y,-z
-x,-y,-z
x,1/2-y,z
loop_
_atom_site_type_symbol
_atom_site_label
_atom_site_fract_x
_atom_site_fract_y
_atom_site_fract_z
Si Si1 0.819318 0.421465 0.658417
Si Si2 0.985418 0.571207 0.151347
Si Si3 0.870338 0.578677 0.938814
Si Si4 0.349351 0.430045 0.818965
O O1 0.764864 0.250000 0.745005
O O2 0.843530 0.503781 0.488736
O O3 0.971917 0.421262 0.425431
O O4 0.703539 0.512354 0.955820
O O5 0.973787 0.750000 0.164166
O O6 0.122935 0.523978 0.959473
O O7 0.000000 0.500000 0.000000
O O8 0.827611 0.750000 0.057050
O O9 0.757947 0.511387 0.069217
O O10 0.500000 0.500000 0.500000
O O11 0.357739 0.250000 0.805176
#
# Coordination Sequence:
#
# PCOD8069162 Si02
#       4
#     4   4   4   4
#     4   9  18  33  51  73 100 129 165 206 246 290
#     4  10  18  30  51  76 100 126 162 206 248 290
#     4   8  18  33  50  72 100 130 165 204 244 289
#     4  11  21  33  49  73 104 136 166 201 245 294
#
# _framework density 16.346529
#
# number of rings (size 3 to 8) (size 9 to 14) (size 15 to 20)
#    1.500    1.000    0.000    3.750    0.000    2.000 
#    0.000    0.000    0.000    1.500    0.000    0.000 
#    0.000    0.000    0.000    0.000    0.000    0.000 
#
# Total GULP energy -198221.652232 kJ/mol
# GULP energy per Si atom -12388.853264 kJ/mol
# Density = 1.630932 g / cm^3
# Si number density = 16.346529 Si / 1000 Ang^3
#
#
#
# Elastic Constant Matrix: (Units=GPa)
#
#
# Indices 1 2 3 4 5 6 
#
# 1 71.5569 47.7388 59.0556 0.0000 29.5181 0.0000
# 2 47.7388 123.6091 50.4195 0.0000 18.1818 0.0000
# 3 59.0556 50.4195 108.4040 0.0000 19.1257 0.0000
# 4 0.0000 0.0000 0.0000 30.3349 0.0000 4.8369
# 5 29.5181 18.1818 19.1257 0.0000 24.5862 0.0000
# 6 0.0000 0.0000 0.0000 4.8369 0.0000 26.4458
#
#
#
# Elastic Compliance Matrix: (Units=1/GPa)
#
#
# Indices 1 2 3 4 5 6 
#
# 1 0.048280 -0.005984 -0.016311 0.000000 -0.040851 0.000000
# 2 -0.005984 0.011148 -0.002015 0.000000 0.000507 0.000000
# 3 -0.016311 -0.002015 0.017768 0.000000 0.007251 0.000000
# 4 0.000000 0.000000 0.000000 0.033956 0.000000 -0.006210
# 5 -0.040851 0.000507 0.007251 0.000000 0.083703 0.000000
# 6 0.000000 0.000000 0.000000 -0.006210 0.000000 0.038949
#
#
# Mechanical properties :
#
#
# Convention : Reuss Voigt Hill
#
# Bulk Modulus (GPa) = 34.99313 68.66642 51.82978
# Shear Modulus (GPa) = 17.12617 26.03046 21.57831
#
# Velocity S-wave (km/s) = 3.24032 3.99484 3.63720
# Velocity P-wave (km/s) = 5.95425 7.96092 7.02956
#
# Compressibility (1/GPa) = 0.02857704
#
# Stress axis : x y z
#
# Youngs Moduli (GPa) = 20.71230 89.70000 56.27952
#
# Poissons Ratio (x) = 0.53678 0.91799
# Poissons Ratio (y) = 0.12395 0.11338
# Poissons Ratio (z) = 0.33784 0.18072
#
# Static dielectric constant tensor:
#      x y z
#    x 2.904110 0.000000 0.036080 
#    y 0.000000 3.148480 0.000000 
#    z 0.036080 0.000000 2.845820 
# 
# 
# High freq. dielectric constant tensor:
#      x y z
#    x 1.605640 0.000000 0.013560 
#    y 0.000000 1.644020 0.000000 
#    z 0.013560 0.000000 1.603960 
# 
# From -- ./inp_files/15594.got.cif
#   From: 2010.06.25/outbox.cif.g09.slc.cpg/sg11_8_cif.got.tgz:15594.got - 2010.06.27 23:14:04.
