data_PCOD8069625
_publ_section_title
;
Structure prediction by ZEFSAII (Michael W. Deem and Ramdas Pophale) SiO2 
 PCOD8069625
Probable space group: P 21/M
;
_chemical_formula_sum "Si O2"
_cell_formula_units_Z 32
_cell_length_a 21.569431
_cell_length_b 8.627994
_cell_length_c 12.368931
_cell_angle_alpha 90.000000
_cell_angle_beta 132.642564
_cell_angle_gamma 90.000000
_cell_volume 1693.241463
_symmetry_space_group_name_H-M "P 21/M"
_symmetry_group_IT_number 11
_symmetry_cell_setting 'monoclinic'
loop_
_space_group_symop_operation_xyz
x,y,z
-x,1/2+y,-z
-x,-y,-z
x,1/2-y,z
loop_
_atom_site_type_symbol
_atom_site_label
_atom_site_fract_x
_atom_site_fract_y
_atom_site_fract_z
Si Si1 0.699204 0.064424 0.494511
Si Si2 0.512317 0.078338 0.220356
Si Si3 0.354108 0.932258 0.949120
Si Si4 0.571791 0.922497 0.651572
Si Si5 0.265389 0.929093 0.227135
Si Si6 0.787637 0.433607 0.055490
Si Si7 0.234261 0.433248 0.637366
Si Si8 0.907569 0.066627 0.383031
O O1 0.698648 0.250000 0.496700
O O2 0.603918 0.004526 0.355597
O O3 0.732615 0.995911 0.650201
O O4 0.762733 0.998337 0.480915
O O5 0.524391 0.250000 0.183451
O O6 0.457152 0.092055 0.261230
O O7 0.453590 0.973983 0.072907
O O8 0.343548 0.750000 0.922942
O O9 0.297301 0.993532 0.983284
O O10 0.317877 0.010433 0.798013
O O11 0.595387 0.750000 0.635667
O O12 0.500000 0.000000 0.500000
O O13 0.646395 0.044500 0.727624
O O14 0.246771 0.750000 0.222606
O O15 0.202846 0.997265 0.058284
O O16 0.781087 0.250000 0.040886
O O17 0.868831 0.484402 0.221180
O O18 0.230481 0.250000 0.631285
O O19 0.148961 0.498142 0.588310
O O20 0.908967 0.250000 0.396953
O O21 0.000000 0.000000 0.500000
#
# Coordination Sequence:
#
# PCOD8069625 Si02
#       8
#     4   4   4   4   4   4   4   4
#     4  10  21  36  52  72 106 149 191 228 270 324
#     4  10  20  32  47  72 104 142 189 238 280 320
#     4  10  19  33  54  76 103 141 185 233 282 327
#     4  11  20  30  45  70 102 141 188 238 278 317
#     4  10  18  33  53  76 105 143 183 226 274 320
#     4   8  16  30  53  83 111 136 170 215 268 321
#     4  11  23  39  57  79 109 142 180 224 271 324
#     4  10  20  38  64  94 117 138 168 208 265 326
#
# _framework density 18.898662999999999
#
# number of rings (size 3 to 8) (size 9 to 14) (size 15 to 20)
#    0.000    2.000    2.500    3.000    0.000    2.000 
#    0.000    0.625    0.000    0.750    0.000    0.000 
#    0.000    0.000    0.000    0.000    0.000    0.000 
#
# Total GULP energy -396439.639762 kJ/mol
# GULP energy per Si atom -12388.738743 kJ/mol
# Density = 1.885565 g / cm^3
# Si number density = 18.898663 Si / 1000 Ang^3
#
#
#
# Elastic Constant Matrix: (Units=GPa)
#
#
# Indices 1 2 3 4 5 6 
#
# 1 87.1267 23.2819 73.0659 0.0000 -13.2556 0.0000
# 2 23.2819 35.8840 26.5196 0.0000 -4.5959 0.0000
# 3 73.0659 26.5196 137.6943 0.0000 -6.7084 0.0000
# 4 0.0000 0.0000 0.0000 19.9121 0.0000 2.9000
# 5 -13.2556 -4.5959 -6.7084 0.0000 28.6532 0.0000
# 6 0.0000 0.0000 0.0000 2.9000 0.0000 24.6038
#
#
#
# Elastic Compliance Matrix: (Units=1/GPa)
#
#
# Indices 1 2 3 4 5 6 
#
# 1 0.023316 -0.006198 -0.010825 0.000000 0.007258 0.000000
# 2 -0.006198 0.034552 -0.003273 0.000000 0.001908 0.000000
# 3 -0.010825 -0.003273 0.013522 0.000000 -0.002367 0.000000
# 4 0.000000 0.000000 0.000000 0.051098 0.000000 -0.006023
# 5 0.007258 0.001908 -0.002367 0.000000 0.038010 0.000000
# 6 0.000000 0.000000 0.000000 -0.006023 0.000000 0.041354
#
#
# Mechanical properties :
#
#
# Convention : Reuss Voigt Hill
#
# Bulk Modulus (GPa) = 32.46953 56.27109 44.37031
# Shear Modulus (GPa) = 19.78557 23.82299 21.80428
#
# Velocity S-wave (km/s) = 3.23914 3.55430 3.40037
# Velocity P-wave (km/s) = 5.58637 6.83256 6.24065
#
# Compressibility (1/GPa) = 0.03079810
#
# Stress axis : x y z
#
# Youngs Moduli (GPa) = 42.88873 28.94188 73.95520
#
# Poissons Ratio (x) = 0.17938 0.80057
# Poissons Ratio (y) = 0.26582 0.24204
# Poissons Ratio (z) = 0.46428 0.09472
#
# Static dielectric constant tensor:
#      x y z
#    x 3.245940 0.000000 -0.251190 
#    y 0.000000 3.472060 0.000000 
#    z -0.251190 0.000000 3.787480 
# 
# 
# High freq. dielectric constant tensor:
#      x y z
#    x 1.702360 0.000000 -0.021150 
#    y 0.000000 1.720190 0.000000 
#    z -0.021150 0.000000 1.740030 
# 
# From -- ./inp_files/38283.got.cif
#   From: 2010.06.25/outbox.cif.g09.slc.cpg/sg11_20_cif.got.tgz:38283.got - 2010.06.27 23:14:04.
