data_PCOD8069443
_publ_section_title
;
Structure prediction by ZEFSAII (Michael W. Deem and Ramdas Pophale) SiO2 
 PCOD8069443
Probable space group: P 21/M
;
_chemical_formula_sum "Si O2"
_cell_formula_units_Z 32
_cell_length_a 19.616913
_cell_length_b 9.214086
_cell_length_c 19.657516
_cell_angle_alpha 90.000000
_cell_angle_beta 29.735677
_cell_angle_gamma 90.000000
_cell_volume 1762.352434
_symmetry_space_group_name_H-M "P 21/M"
_symmetry_group_IT_number 11
_symmetry_cell_setting 'monoclinic'
loop_
_space_group_symop_operation_xyz
x,y,z
-x,1/2+y,-z
-x,-y,-z
x,1/2-y,z
loop_
_atom_site_type_symbol
_atom_site_label
_atom_site_fract_x
_atom_site_fract_y
_atom_site_fract_z
Si Si1 0.375246 0.079911 0.191811
Si Si2 0.759470 0.578016 0.295914
Si Si3 0.599076 0.920110 0.565163
Si Si4 0.236106 0.422721 0.449744
Si Si5 0.049900 0.922007 0.101245
Si Si6 0.942419 0.077475 0.752761
Si Si7 0.704657 0.079481 0.204550
Si Si8 0.317404 0.580082 0.106817
O O1 0.349391 0.250000 0.204926
O O2 0.300960 0.018192 0.323514
O O3 0.306731 0.000071 0.187762
O O4 0.538047 0.045779 0.055477
O O5 0.748524 0.750000 0.295426
O O6 0.662104 0.519004 0.440552
O O7 0.710334 0.501750 0.270586
O O8 0.913530 0.528090 0.180302
O O9 0.628122 0.750000 0.540583
O O10 0.675402 0.988505 0.564371
O O11 0.438478 0.956559 0.708391
O O12 0.246220 0.250000 0.441496
O O13 0.078157 0.474568 0.594319
O O14 0.055386 0.750000 0.101929
O O15 0.053985 0.987397 0.173919
O O16 0.178496 0.981133 0.946895
O O17 0.940110 0.250000 0.758659
O O18 0.805761 0.020292 0.833611
O O19 0.721242 0.250000 0.204227
O O20 0.300876 0.750000 0.135213
#
# Coordination Sequence:
#
# PCOD8069443 Si02
#       8
#     4   4   4   4   4   4   4   4
#     4   9  18  31  49  73  98 123 151 187 229 272
#     4  10  18  32  50  66  91 126 156 186 231 284
#     4   9  17  29  46  70  95 119 153 196 235 268
#     4   9  16  28  47  71  95 120 155 196 230 264
#     4   9  17  29  46  70  95 119 153 196 235 268
#     4   9  16  28  47  71  95 120 155 196 230 264
#     4  10  20  30  46  72  95 118 152 196 237 272
#     4   9  18  31  49  73  98 123 151 187 229 272
#
# _framework density 18.157547999999998
#
# number of rings (size 3 to 8) (size 9 to 14) (size 15 to 20)
#    0.000    2.750    1.250    0.750    1.750    0.500 
#    0.000    0.000    0.000    3.000    0.000    0.000 
#    0.000    0.000    0.000    0.000    0.000    0.000 
#
# Total GULP energy -396750.481089 kJ/mol
# GULP energy per Si atom -12398.452534 kJ/mol
# Density = 1.811622 g / cm^3
# Si number density = 18.157548 Si / 1000 Ang^3
#
#
#
# Elastic Constant Matrix: (Units=GPa)
#
#
# Indices 1 2 3 4 5 6 
#
# 1 92.6396 18.9334 21.8610 0.0000 7.1895 0.0000
# 2 18.9334 15.4698 12.9080 0.0000 0.7542 0.0000
# 3 21.8610 12.9080 95.3698 0.0000 15.6404 0.0000
# 4 0.0000 0.0000 0.0000 12.7658 0.0000 5.1737
# 5 7.1895 0.7542 15.6404 0.0000 35.6274 0.0000
# 6 0.0000 0.0000 0.0000 5.1737 0.0000 21.7256
#
#
#
# Elastic Compliance Matrix: (Units=1/GPa)
#
#
# Indices 1 2 3 4 5 6 
#
# 1 0.014660 -0.017295 -0.000641 0.000000 -0.002311 0.000000
# 2 -0.017295 0.093575 -0.009642 0.000000 0.005742 0.000000
# 3 -0.000641 -0.009642 0.012805 0.000000 -0.005288 0.000000
# 4 0.000000 0.000000 0.000000 0.086702 0.000000 -0.020647
# 5 -0.002311 0.005742 -0.005288 0.000000 0.030734 0.000000
# 6 0.000000 0.000000 0.000000 -0.020647 0.000000 0.050945
#
#
# Mechanical properties :
#
#
# Convention : Reuss Voigt Hill
#
# Bulk Modulus (GPa) = 15.17830 34.54267 24.86049
# Shear Modulus (GPa) = 13.64119 24.00889 18.82504
#
# Velocity S-wave (km/s) = 2.74390 3.64023 3.22337
# Velocity P-wave (km/s) = 4.29139 6.06082 5.25117
#
# Compressibility (1/GPa) = 0.06588352
#
# Stress axis : x y z
#
# Youngs Moduli (GPa) = 68.21430 10.68666 78.09703
#
# Poissons Ratio (x) = 0.18482 0.05003
# Poissons Ratio (y) = 1.17975 0.75304
# Poissons Ratio (z) = 0.04370 0.10304
#
# Static dielectric constant tensor:
#      x y z
#    x 3.492650 0.000000 0.000680 
#    y 0.000000 2.771580 0.000000 
#    z 0.000680 0.000000 3.635510 
# 
# 
# High freq. dielectric constant tensor:
#      x y z
#    x 1.713240 0.000000 -0.001600 
#    y 0.000000 1.638870 0.000000 
#    z -0.001600 0.000000 1.720560 
# 
# From -- ./inp_files/26394.got.cif
#   From: 2010.06.25/outbox.cif.g09.slc.cpg/sg11_14_cif.got.tgz:26394.got - 2010.06.27 23:14:04.
