data_PCOD8069221
_publ_section_title
;
Structure prediction by ZEFSAII (Michael W. Deem and Ramdas Pophale) SiO2 
 PCOD8069221
Probable space group: P 21/M
;
_chemical_formula_sum "Si O2"
_cell_formula_units_Z 32
_cell_length_a 17.806606
_cell_length_b 8.857942
_cell_length_c 23.874824
_cell_angle_alpha 90.000000
_cell_angle_beta 149.959452
_cell_angle_gamma 90.000000
_cell_volume 1885.194106
_symmetry_space_group_name_H-M "P 21/M"
_symmetry_group_IT_number 11
_symmetry_cell_setting 'monoclinic'
loop_
_space_group_symop_operation_xyz
x,y,z
-x,1/2+y,-z
-x,-y,-z
x,1/2-y,z
loop_
_atom_site_type_symbol
_atom_site_label
_atom_site_fract_x
_atom_site_fract_y
_atom_site_fract_z
Si Si1 0.719701 0.571651 0.410498
Si Si2 0.858010 0.923535 0.174574
Si Si3 0.831168 0.426005 0.667413
Si Si4 0.549643 0.071339 0.973955
Si Si5 0.969162 0.923222 0.370348
Si Si6 0.573728 0.428908 0.417540
Si Si7 0.389164 0.573333 0.384407
Si Si8 0.299031 0.071005 0.727605
O O1 0.700953 0.750000 0.402359
O O2 0.595343 0.493551 0.369385
O O3 0.690355 0.510358 0.328842
O O4 0.885383 0.527277 0.537261
O O5 0.829160 0.750000 0.138978
O O6 0.879883 0.938132 0.254945
O O7 0.003333 0.993499 0.236154
O O8 0.716420 0.021881 0.064433
O O9 0.841946 0.250000 0.660749
O O10 0.710753 0.489971 0.544798
O O11 0.777541 0.455233 0.697139
O O12 0.540529 0.250000 0.974193
O O13 0.439496 0.010559 0.854097
O O14 0.500000 0.000000 0.000000
O O15 0.019305 0.750000 0.412530
O O16 0.858079 0.983942 0.346963
O O17 0.563181 0.250000 0.408906
O O18 0.417243 0.493853 0.342490
O O19 0.500000 0.500000 0.500000
O O20 0.422235 0.750000 0.400540
O O21 0.299499 0.250000 0.728935
#
# Coordination Sequence:
#
# PCOD8069221 Si02
#       8
#     4   4   4   4   4   4   4   4
#     4  11  21  32  48  72  98 128 168 206 239 292
#     4  10  18  32  52  73  98 132 163 195 243 292
#     4   8  15  28  46  67  97 130 157 186 237 293
#     4  11  21  36  53  71  94 126 166 209 250 290
#     4  10  18  33  52  68  97 135 161 194 248 296
#     4  10  18  31  47  67  97 134 163 195 246 295
#     4   9  16  27  44  69  98 132 165 195 233 290
#     4   9  20  36  50  66  96 133 164 202 253 293
#
# _framework density 16.974378999999999
#
# number of rings (size 3 to 8) (size 9 to 14) (size 15 to 20)
#    0.000    2.250    2.500    2.625    0.000    0.500 
#    0.000    4.375    0.000    0.000    0.000    0.875 
#    0.000    0.000    0.000    0.000    0.000    0.000 
#
# Total GULP energy -396676.563839 kJ/mol
# GULP energy per Si atom -12396.142620 kJ/mol
# Density = 1.693574 g / cm^3
# Si number density = 16.974379 Si / 1000 Ang^3
#
#
#
# Elastic Constant Matrix: (Units=GPa)
#
#
# Indices 1 2 3 4 5 6 
#
# 1 151.9012 38.3214 28.9148 0.0000 10.3739 0.0000
# 2 38.3214 60.8179 17.6293 0.0000 0.9926 0.0000
# 3 28.9148 17.6293 46.1534 0.0000 1.7989 0.0000
# 4 0.0000 0.0000 0.0000 19.6999 0.0000 4.2343
# 5 10.3739 0.9926 1.7989 0.0000 20.9845 0.0000
# 6 0.0000 0.0000 0.0000 4.2343 0.0000 27.6619
#
#
#
# Elastic Compliance Matrix: (Units=1/GPa)
#
#
# Indices 1 2 3 4 5 6 
#
# 1 0.008615 -0.004324 -0.003600 0.000000 -0.003746 0.000000
# 2 -0.004324 0.020661 -0.005246 0.000000 0.001610 0.000000
# 3 -0.003600 -0.005246 0.025934 0.000000 -0.000195 0.000000
# 4 0.000000 0.000000 0.000000 0.052488 0.000000 -0.008035
# 5 -0.003746 0.001610 -0.000195 0.000000 0.049447 0.000000
# 6 0.000000 0.000000 0.000000 -0.008035 0.000000 0.037381
#
#
# Mechanical properties :
#
#
# Convention : Reuss Voigt Hill
#
# Bulk Modulus (GPa) = 34.63690 47.62263 41.12977
# Shear Modulus (GPa) = 21.69307 25.26972 23.48139
#
# Velocity S-wave (km/s) = 3.57878 3.86255 3.72337
# Velocity P-wave (km/s) = 6.12589 6.92885 6.53970
#
# Compressibility (1/GPa) = 0.02887094
#
# Stress axis : x y z
#
# Youngs Moduli (GPa) = 116.07590 48.39958 38.56011
#
# Poissons Ratio (x) = 0.20927 0.13881
# Poissons Ratio (y) = 0.50189 0.20229
# Poissons Ratio (z) = 0.41784 0.25390
#
# Static dielectric constant tensor:
#      x y z
#    x 3.676240 0.000000 0.152080 
#    y 0.000000 3.064660 0.000000 
#    z 0.152080 0.000000 3.031710 
# 
# 
# High freq. dielectric constant tensor:
#      x y z
#    x 1.669120 0.000000 0.014030 
#    y 0.000000 1.642340 0.000000 
#    z 0.014030 0.000000 1.612040 
# 
# From -- ./inp_files/69432.got.cif
#   From: 2010.06.25/outbox.cif.g09.slc.cpg/sg11_35_cif.got.tgz:69432.got - 2010.06.27 23:14:04.
