data_PCOD8069112
_publ_section_title
;
Structure prediction by ZEFSAII (Michael W. Deem and Ramdas Pophale) SiO2 
 PCOD8069112
Probable space group: P 21/M
;
_chemical_formula_sum "Si O2"
_cell_formula_units_Z 28
_cell_length_a 5.074015
_cell_length_b 20.033041
_cell_length_c 17.513006
_cell_angle_alpha 90.000000
_cell_angle_beta 122.780180
_cell_angle_gamma 90.000000
_cell_volume 1496.677521
_symmetry_space_group_name_H-M "P 21/M"
_symmetry_group_IT_number 11
_symmetry_cell_setting 'monoclinic'
loop_
_space_group_symop_operation_xyz
x,y,z
-x,1/2+y,-z
-x,-y,-z
x,1/2-y,z
loop_
_atom_site_type_symbol
_atom_site_label
_atom_site_fract_x
_atom_site_fract_y
_atom_site_fract_z
Si Si1 0.156612 0.094709 0.571970
Si Si2 0.967601 0.539270 0.731463
Si Si3 0.122058 0.898035 0.066961
Si Si4 0.756130 0.826489 0.134426
Si Si5 0.261703 0.941192 0.624300
Si Si6 0.139727 0.614155 0.321243
Si Si7 0.154852 0.528122 0.925564
O O1 0.494385 0.123814 0.604713
O O2 0.925682 0.106431 0.463904
O O3 0.031369 0.133072 0.626923
O O4 0.172165 0.016778 0.592160
O O5 0.627793 0.573006 0.673742
O O6 0.943405 0.459949 0.719231
O O7 0.166382 0.574207 0.696237
O O8 0.143056 0.556169 0.838219
O O9 0.469574 0.867895 0.126189
O O10 0.863356 0.850503 0.066546
O O11 0.052198 0.911959 0.966457
O O12 0.106119 0.969348 0.108037
O O13 0.654169 0.750000 0.111454
O O14 0.041883 0.835441 0.238318
O O15 0.500000 0.500000 0.000000
#
# Coordination Sequence:
#
# PCOD8069112 Si02
#       7
#     4   4   4   4   4   4   4
#     4   9  17  29  45  66 101 137 172 205 243 322
#     4  10  19  28  49  72 106 138 175 213 261 332
#     4  11  23  37  55  78 108 149 185 226 287 323
#     4  12  24  39  55  79 112 145 190 229 273 333
#     4   9  18  28  42  71 102 137 170 203 259 306
#     4  10  18  30  50  69  99 143 176 210 262 309
#     4  11  22  35  58  79 113 144 194 230 277 355
#
# _framework density 18.708106000000001
#
# number of rings (size 3 to 8) (size 9 to 14) (size 15 to 20)
#    0.000    1.714    2.857    2.143    8.000    3.429 
#    0.000    0.000    0.000    0.000    0.000    0.000 
#    0.000   22.857    0.000    0.000    0.000    0.000 
#
# Total GULP energy -347150.228083 kJ/mol
# GULP energy per Si atom -12398.222432 kJ/mol
# Density = 1.866553 g / cm^3
# Si number density = 18.708106 Si / 1000 Ang^3
#
#
#
# Elastic Constant Matrix: (Units=GPa)
#
#
# Indices 1 2 3 4 5 6 
#
# 1 97.9285 22.5868 19.8492 0.0000 -12.5591 0.0000
# 2 22.5868 46.5108 24.3271 0.0000 1.2026 0.0000
# 3 19.8492 24.3271 96.6028 0.0000 -16.9881 0.0000
# 4 0.0000 0.0000 0.0000 13.5141 0.0000 -2.3237
# 5 -12.5591 1.2026 -16.9881 0.0000 35.4928 0.0000
# 6 0.0000 0.0000 0.0000 -2.3237 0.0000 16.1068
#
#
#
# Elastic Compliance Matrix: (Units=1/GPa)
#
#
# Indices 1 2 3 4 5 6 
#
# 1 0.012186 -0.005904 -0.000244 0.000000 0.004395 0.000000
# 2 -0.005904 0.028202 -0.007015 0.000000 -0.006402 0.000000
# 3 -0.000244 -0.007015 0.013316 0.000000 0.006525 0.000000
# 4 0.000000 0.000000 0.000000 0.075879 0.000000 0.010947
# 5 0.004395 -0.006402 0.006525 0.000000 0.033070 0.000000
# 6 0.000000 0.000000 0.000000 0.010947 0.000000 0.063665
#
#
# Mechanical properties :
#
#
# Convention : Reuss Voigt Hill
#
# Bulk Modulus (GPa) = 36.52531 41.61871 39.07201
# Shear Modulus (GPa) = 19.10071 24.64132 21.87102
#
# Velocity S-wave (km/s) = 3.19875 3.63319 3.42287
# Velocity P-wave (km/s) = 5.76271 6.31623 6.04581
#
# Compressibility (1/GPa) = 0.02737827
#
# Stress axis : x y z
#
# Youngs Moduli (GPa) = 82.05841 35.45844 75.09901
#
# Poissons Ratio (x) = 0.20934 0.01835
# Poissons Ratio (y) = 0.48447 0.52680
# Poissons Ratio (z) = 0.02005 0.24873
#
# Static dielectric constant tensor:
#      x y z
#    x 3.730070 0.000000 -0.153140 
#    y 0.000000 2.868260 0.000000 
#    z -0.153140 0.000000 3.496630 
# 
# 
# High freq. dielectric constant tensor:
#      x y z
#    x 1.752830 0.000000 -0.008650 
#    y 0.000000 1.644480 0.000000 
#    z -0.008650 0.000000 1.727680 
# 
# From -- ./inp_files/57219.got.cif
#   From: 2010.06.25/outbox.cif.g09.slc.cpg/sg11_29_cif.got.tgz:57219.got - 2010.06.27 23:14:04.
