data_PCOD8069634
_publ_section_title
;
Structure prediction by ZEFSAII (Michael W. Deem and Ramdas Pophale) SiO2 
 PCOD8069634
Probable space group: P 21/M
;
_chemical_formula_sum "Si O2"
_cell_formula_units_Z 32
_cell_length_a 20.116581
_cell_length_b 9.024152
_cell_length_c 25.234912
_cell_angle_alpha 90.000000
_cell_angle_beta 157.020881
_cell_angle_gamma 90.000000
_cell_volume 1788.410933
_symmetry_space_group_name_H-M "P 21/M"
_symmetry_group_IT_number 11
_symmetry_cell_setting 'monoclinic'
loop_
_space_group_symop_operation_xyz
x,y,z
-x,1/2+y,-z
-x,-y,-z
x,1/2-y,z
loop_
_atom_site_type_symbol
_atom_site_label
_atom_site_fract_x
_atom_site_fract_y
_atom_site_fract_z
Si Si1 0.140855 0.426049 0.139944
Si Si2 0.636750 0.078369 0.136638
Si Si3 0.968539 0.423584 0.835966
Si Si4 0.365388 0.076105 0.129362
Si Si5 0.839087 0.074836 0.626794
Si Si6 0.468850 0.575545 0.101454
Si Si7 0.525876 0.574475 0.675722
Si Si8 0.862396 0.080669 0.208703
O O1 0.118558 0.250000 0.120705
O O2 0.126393 0.482197 0.189124
O O3 0.324875 0.478198 0.253918
O O4 0.000000 0.500000 0.000000
O O5 0.588892 0.250000 0.108180
O O6 0.816515 0.060983 0.237558
O O7 0.630083 0.998798 0.189093
O O8 0.500000 0.000000 0.000000
O O9 0.938867 0.250000 0.824955
O O10 0.889166 0.476965 0.722325
O O11 0.166798 0.462930 0.981385
O O12 0.395629 0.250000 0.142895
O O13 0.437988 0.017825 0.238412
O O14 0.466354 0.986788 0.158790
O O15 0.840481 0.250000 0.624059
O O16 0.653198 0.009438 0.476419
O O17 0.973446 0.017190 0.682531
O O18 0.497089 0.750000 0.122914
O O19 0.294686 0.529844 0.943758
O O20 0.520154 0.750000 0.672291
O O21 0.906719 0.250000 0.228292
#
# Coordination Sequence:
#
# PCOD8069634 Si02
#       8
#     4   4   4   4   4   4   4   4
#     4  11  21  36  57  79 105 137 173 216 264 309
#     4   9  17  29  46  73 107 141 173 212 263 308
#     4  10  20  34  54  81 104 134 176 214 256 312
#     4  10  18  33  54  75 103 138 174 214 260 309
#     4  10  20  35  55  76 103 139 177 212 253 313
#     4  10  19  30  48  78 109 135 173 220 261 304
#     4   9  20  37  54  75 104 137 173 214 262 312
#     4   9  18  31  48  74 108 138 168 213 261 305
#
# _framework density 17.892980000000001
#
# number of rings (size 3 to 8) (size 9 to 14) (size 15 to 20)
#    0.000    2.250    2.500    1.875    0.000    4.000 
#    0.000    1.875    0.000    0.750    0.000    0.000 
#    0.000    0.000    0.000    0.000    0.000    0.000 
#
# Total GULP energy -396768.500198 kJ/mol
# GULP energy per Si atom -12399.015631 kJ/mol
# Density = 1.785225 g / cm^3
# Si number density = 17.892980 Si / 1000 Ang^3
#
#
#
# Elastic Constant Matrix: (Units=GPa)
#
#
# Indices 1 2 3 4 5 6 
#
# 1 165.3395 57.2932 64.0197 0.0000 8.2323 0.0000
# 2 57.2932 63.1769 31.7879 0.0000 6.4941 0.0000
# 3 64.0197 31.7879 110.2615 0.0000 -2.5742 0.0000
# 4 0.0000 0.0000 0.0000 12.6608 0.0000 5.3082
# 5 8.2323 6.4941 -2.5742 0.0000 23.4266 0.0000
# 6 0.0000 0.0000 0.0000 5.3082 0.0000 37.3097
#
#
#
# Elastic Compliance Matrix: (Units=1/GPa)
#
#
# Indices 1 2 3 4 5 6 
#
# 1 0.010067 -0.006966 -0.003884 0.000000 -0.002033 0.000000
# 2 -0.006966 0.024136 -0.003020 0.000000 -0.004575 0.000000
# 3 -0.003884 -0.003020 0.012278 0.000000 0.003552 0.000000
# 4 0.000000 0.000000 0.000000 0.083994 0.000000 -0.011950
# 5 -0.002033 -0.004575 0.003552 0.000000 0.045060 0.000000
# 6 0.000000 0.000000 0.000000 -0.011950 0.000000 0.028503
#
#
# Mechanical properties :
#
#
# Convention : Reuss Voigt Hill
#
# Bulk Modulus (GPa) = 53.36274 71.66438 62.51356
# Shear Modulus (GPa) = 21.00602 27.05790 24.03196
#
# Velocity S-wave (km/s) = 3.43006 3.89293 3.66880
# Velocity P-wave (km/s) = 6.75093 7.76822 7.27737
#
# Compressibility (1/GPa) = 0.01873967
#
# Stress axis : x y z
#
# Youngs Moduli (GPa) = 99.33008 41.43171 81.44396
#
# Poissons Ratio (x) = 0.28863 0.31636
# Poissons Ratio (y) = 0.69197 0.24599
# Poissons Ratio (z) = 0.38584 0.12514
#
# Static dielectric constant tensor:
#      x y z
#    x 3.608740 0.000000 0.060300 
#    y 0.000000 3.207470 0.000000 
#    z 0.060300 0.000000 3.246960 
# 
# 
# High freq. dielectric constant tensor:
#      x y z
#    x 1.710280 0.000000 0.008200 
#    y 0.000000 1.683730 0.000000 
#    z 0.008200 0.000000 1.659670 
# 
# From -- ./inp_files/66443.got.cif
#   From: 2010.06.25/outbox.cif.g09.slc.cpg/sg11_34_cif.got.tgz:66443.got - 2010.06.27 23:14:04.
