data_PCOD8069710
_publ_section_title
;
Structure prediction by ZEFSAII (Michael W. Deem and Ramdas Pophale) SiO2 
 PCOD8069710
Probable space group: P 21/M
;
_chemical_formula_sum "Si O2"
_cell_formula_units_Z 26
_cell_length_a 8.468655
_cell_length_b 11.992613
_cell_length_c 13.405827
_cell_angle_alpha 90.000000
_cell_angle_beta 65.675711
_cell_angle_gamma 90.000000
_cell_volume 1240.650005
_symmetry_space_group_name_H-M "P 21/M"
_symmetry_group_IT_number 11
_symmetry_cell_setting 'monoclinic'
loop_
_space_group_symop_operation_xyz
x,y,z
-x,1/2+y,-z
-x,-y,-z
x,1/2-y,z
loop_
_atom_site_type_symbol
_atom_site_label
_atom_site_fract_x
_atom_site_fract_y
_atom_site_fract_z
Si Si1 0.158160 0.750000 0.216813
Si Si2 0.854403 0.124374 0.321551
Si Si3 0.460397 0.250000 0.901128
Si Si4 0.713963 0.971509 0.079210
Si Si5 0.485376 0.875794 0.725067
Si Si6 0.619951 0.250000 0.660857
Si Si7 0.020374 0.544723 0.146460
Si Si8 0.648199 0.028233 0.537611
O O1 0.342275 0.750000 0.108830
O O2 0.196675 0.750000 0.325866
O O3 0.045717 0.642998 0.218419
O O4 0.912157 0.250000 0.335443
O O5 0.677109 0.129025 0.306040
O O6 0.826532 0.048485 0.429011
O O7 0.002673 0.069603 0.214261
O O8 0.364068 0.363817 0.957679
O O9 0.461686 0.250000 0.779969
O O10 0.846055 0.931058 0.130205
O O11 0.563127 0.050038 0.165000
O O12 0.815999 0.041172 0.969446
O O13 0.537569 0.750000 0.744478
O O14 0.649569 0.932785 0.623874
O O15 0.595747 0.143929 0.599518
O O16 0.500000 0.000000 0.500000
#
# Coordination Sequence:
#
# PCOD8069710 Si02
#       8
#     2   4   2   4   4   2   4   4
#     4  10  23  41  58  81 128 167 192 246 298 385
#     4   9  18  32  53  80 112 153 190 246 299 350
#     4  10  21  37  61  83 115 164 199 245 298 357
#     4  10  20  36  62  88 118 155 204 264 288 354
#     4   9  17  30  50  86 120 145 189 249 311 336
#     4  10  20  38  59  82 119 157 195 239 302 356
#     4  10  22  37  57  91 121 156 205 244 306 354
#     4  10  18  33  58  86 115 153 198 253 294 347
#
# _framework density 20.956755999999999
#
# number of rings (size 3 to 8) (size 9 to 14) (size 15 to 20)
#    0.462    1.846    2.308    0.462    3.231    0.615 
#    1.385    0.769    0.000    0.923    0.000    0.000 
#    0.000    0.000    0.000    0.000    0.000    0.000 
#
# Total GULP energy -322187.610939 kJ/mol
# GULP energy per Si atom -12391.831190 kJ/mol
# Density = 2.090906 g / cm^3
# Si number density = 20.956756 Si / 1000 Ang^3
#
#
#
# Elastic Constant Matrix: (Units=GPa)
#
#
# Indices 1 2 3 4 5 6 
#
# 1 29.2848 26.5862 9.1036 0.0000 2.1921 0.0000
# 2 26.5862 150.2875 36.0906 0.0000 2.1954 0.0000
# 3 9.1036 36.0906 97.2615 0.0000 -5.5267 0.0000
# 4 0.0000 0.0000 0.0000 17.0375 0.0000 -3.6640
# 5 2.1921 2.1954 -5.5267 0.0000 15.8856 0.0000
# 6 0.0000 0.0000 0.0000 -3.6640 0.0000 13.2217
#
#
#
# Elastic Compliance Matrix: (Units=1/GPa)
#
#
# Indices 1 2 3 4 5 6 
#
# 1 0.041251 -0.006828 -0.001629 0.000000 -0.005315 0.000000
# 2 -0.006828 0.008498 -0.002578 0.000000 -0.001129 0.000000
# 3 -0.001629 -0.002578 0.011654 0.000000 0.004636 0.000000
# 4 0.000000 0.000000 0.000000 0.062414 0.000000 0.017296
# 5 -0.005315 -0.001129 0.004636 0.000000 0.065452 0.000000
# 6 0.000000 0.000000 0.000000 0.017296 0.000000 0.080426
#
#
# Mechanical properties :
#
#
# Convention : Reuss Voigt Hill
#
# Bulk Modulus (GPa) = 25.42538 46.71052 36.06795
# Shear Modulus (GPa) = 16.40004 22.89917 19.64961
#
# Velocity S-wave (km/s) = 2.80047 3.30917 3.06539
# Velocity P-wave (km/s) = 4.75558 6.07768 5.45682
#
# Compressibility (1/GPa) = 0.03933077
#
# Stress axis : x y z
#
# Youngs Moduli (GPa) = 24.24186 117.68153 85.80629
#
# Poissons Ratio (x) = 0.80359 0.13980
# Poissons Ratio (y) = 0.16553 0.22122
# Poissons Ratio (z) = 0.03950 0.30340
#
# Static dielectric constant tensor:
#      x y z
#    x 3.249500 0.000000 -0.005820 
#    y 0.000000 3.905990 0.000000 
#    z -0.005820 0.000000 3.978960 
# 
# 
# High freq. dielectric constant tensor:
#      x y z
#    x 1.768150 0.000000 0.002730 
#    y 0.000000 1.828550 0.000000 
#    z 0.002730 0.000000 1.822750 
# 
# From -- ./inp_files/46907.got.cif
#   From: 2010.06.25/outbox.cif.g09.slc.cpg/sg11_24_cif.got.tgz:46907.got - 2010.06.27 23:14:04.
