data_PCOD8069055
_publ_section_title
;
Structure prediction by ZEFSAII (Michael W. Deem and Ramdas Pophale) SiO2 
 PCOD8069055
Probable space group: P 21/M
;
_chemical_formula_sum "Si O2"
_cell_formula_units_Z 28
_cell_length_a 12.293777
_cell_length_b 19.033296
_cell_length_c 9.297395
_cell_angle_alpha 90.000000
_cell_angle_beta 129.870839
_cell_angle_gamma 90.000000
_cell_volume 1669.683678
_symmetry_space_group_name_H-M "P 21/M"
_symmetry_group_IT_number 11
_symmetry_cell_setting 'monoclinic'
loop_
_space_group_symop_operation_xyz
x,y,z
-x,1/2+y,-z
-x,-y,-z
x,1/2-y,z
loop_
_atom_site_type_symbol
_atom_site_label
_atom_site_fract_x
_atom_site_fract_y
_atom_site_fract_z
Si Si1 0.524334 0.079749 0.350828
Si Si2 0.215706 0.557309 0.610447
Si Si3 0.503435 0.418040 0.658059
Si Si4 0.592945 0.828874 0.999761
Si Si5 0.229761 0.101233 0.607686
Si Si6 0.329040 0.863976 0.948865
Si Si7 0.952264 0.327473 0.404557
O O1 0.689344 0.078327 0.446317
O O2 0.513275 0.108671 0.503436
O O3 0.432412 0.130351 0.171219
O O4 0.465269 0.000522 0.296682
O O5 0.164791 0.477222 0.562128
O O6 0.311792 0.565003 0.837229
O O7 0.085135 0.613366 0.505486
O O8 0.349799 0.396004 0.587788
O O9 0.627260 0.379583 0.851389
O O10 0.649038 0.750000 0.014189
O O11 0.449800 0.819127 0.971060
O O12 0.708609 0.872981 0.187526
O O13 0.099205 0.151209 0.451720
O O14 0.177059 0.824237 0.820773
O O15 0.968842 0.250000 0.488035
#
# Coordination Sequence:
#
# PCOD8069055 Si02
#       7
#     4   4   4   4   4   4   4
#     4   9  17  30  53  72 103 124 159 204 242 284
#     4   8  17  30  51  74  95 124 164 200 238 281
#     4   9  17  32  51  77  95 128 162 199 244 288
#     4  10  18  30  48  73  97 127 164 202 243 285
#     4  10  18  31  51  73  99 126 162 200 242 294
#     4   8  17  29  50  69  96 122 165 198 235 284
#     4  10  19  31  49  71  98 127 161 206 246 285
#
# _framework density 16.769642999999999
#
# number of rings (size 3 to 8) (size 9 to 14) (size 15 to 20)
#    0.857    2.000    0.000    2.143    0.000    3.429 
#    0.000    4.286    3.143    2.571    0.000    0.000 
#    0.000    0.000    0.000    0.000    0.000    0.000 
#
# Total GULP energy -346884.122733 kJ/mol
# GULP energy per Si atom -12388.718669 kJ/mol
# Density = 1.673147 g / cm^3
# Si number density = 16.769643 Si / 1000 Ang^3
#
#
#
# Elastic Constant Matrix: (Units=GPa)
#
#
# Indices 1 2 3 4 5 6 
#
# 1 73.8983 44.1363 51.9268 0.0000 -1.5192 0.0000
# 2 44.1363 104.1920 35.4119 0.0000 -1.2563 0.0000
# 3 51.9268 35.4119 82.6638 0.0000 -13.8037 0.0000
# 4 0.0000 0.0000 0.0000 13.4309 0.0000 1.7199
# 5 -1.5192 -1.2563 -13.8037 0.0000 31.7657 0.0000
# 6 0.0000 0.0000 0.0000 1.7199 0.0000 17.0460
#
#
#
# Elastic Compliance Matrix: (Units=1/GPa)
#
#
# Indices 1 2 3 4 5 6 
#
# 1 0.028851 -0.006784 -0.016207 0.000000 -0.005931 0.000000
# 2 -0.006784 0.012922 -0.001340 0.000000 -0.000396 0.000000
# 3 -0.016207 -0.001340 0.024491 0.000000 0.009814 0.000000
# 4 0.000000 0.000000 0.000000 0.075430 0.000000 -0.007611
# 5 -0.005931 -0.000396 0.009814 0.000000 0.035446 0.000000
# 6 0.000000 0.000000 0.000000 -0.007611 0.000000 0.059433
#
#
# Mechanical properties :
#
#
# Convention : Reuss Voigt Hill
#
# Bulk Modulus (GPa) = 56.81620 58.18933 57.50276
# Shear Modulus (GPa) = 17.17609 21.06714 19.12161
#
# Velocity S-wave (km/s) = 3.20384 3.54823 3.38042
# Velocity P-wave (km/s) = 6.90218 7.18061 7.04277
#
# Compressibility (1/GPa) = 0.01760061
#
# Stress axis : x y z
#
# Youngs Moduli (GPa) = 34.66122 77.38594 40.83147
#
# Poissons Ratio (x) = 0.52502 0.66176
# Poissons Ratio (y) = 0.23516 0.05471
# Poissons Ratio (z) = 0.56176 0.10370
#
# Static dielectric constant tensor:
#      x y z
#    x 2.993570 0.000000 0.047630 
#    y 0.000000 3.090560 0.000000 
#    z 0.047630 0.000000 2.906410 
# 
# 
# High freq. dielectric constant tensor:
#      x y z
#    x 1.628040 0.000000 0.012060 
#    y 0.000000 1.650030 0.000000 
#    z 0.012060 0.000000 1.617750 
# 
# From -- ./inp_files/19015.got.cif
#   From: 2010.06.25/outbox.cif.g09.slc.cpg/sg11_10_cif.got.tgz:19015.got - 2010.06.27 23:14:04.
