data_PCOD8069465
_publ_section_title
;
Structure prediction by ZEFSAII (Michael W. Deem and Ramdas Pophale) SiO2 
 PCOD8069465
Probable space group: P 21/M
;
_chemical_formula_sum "Si O2"
_cell_formula_units_Z 32
_cell_length_a 28.096670
_cell_length_b 8.951115
_cell_length_c 21.736770
_cell_angle_alpha 90.000000
_cell_angle_beta 18.803378
_cell_angle_gamma 90.000000
_cell_volume 1762.042104
_symmetry_space_group_name_H-M "P 21/M"
_symmetry_group_IT_number 11
_symmetry_cell_setting 'monoclinic'
loop_
_space_group_symop_operation_xyz
x,y,z
-x,1/2+y,-z
-x,-y,-z
x,1/2-y,z
loop_
_atom_site_type_symbol
_atom_site_label
_atom_site_fract_x
_atom_site_fract_y
_atom_site_fract_z
Si Si1 0.206772 0.919674 0.488154
Si Si2 0.048560 0.074039 0.503770
Si Si3 0.346764 0.425962 0.205553
Si Si4 0.332680 0.427222 0.824805
Si Si5 0.182808 0.427885 0.884325
Si Si6 0.096607 0.080313 0.208443
Si Si7 0.666693 0.427368 0.416608
Si Si8 0.147765 0.572787 0.694706
O O1 0.267270 0.750000 0.409988
O O2 0.213448 0.984340 0.549351
O O3 0.037071 0.925010 0.675877
O O4 0.307946 0.023605 0.322001
O O5 0.039492 0.250000 0.507253
O O6 0.214632 0.024365 0.320723
O O7 0.000000 0.000000 0.500000
O O8 0.932136 0.023542 0.697821
O O9 0.367009 0.250000 0.179723
O O10 0.500000 0.500000 0.000000
O O11 0.321292 0.250000 0.837973
O O12 0.267510 0.488888 0.840701
O O13 0.499257 0.483954 0.627330
O O14 0.239030 0.484321 0.998135
O O15 0.189580 0.250000 0.870781
O O16 0.258643 0.497541 0.732618
O O17 0.015948 0.488901 0.092288
O O18 0.121794 0.250000 0.200909
O O19 0.676257 0.250000 0.397472
O O20 0.747405 0.483920 0.379251
O O21 0.139882 0.750000 0.700810
#
# Coordination Sequence:
#
# PCOD8069465 Si02
#       8
#     4   4   4   4   4   4   4   4
#     4   9  16  31  55  76  97 134 177 213 252 306
#     4  10  21  37  57  83 112 142 177 217 262 315
#     4  10  21  37  57  83 112 142 177 217 262 315
#     4   9  17  31  51  72  97 131 171 209 251 306
#     4  10  18  32  52  70  93 132 175 206 245 310
#     4   9  16  31  55  76  97 134 177 213 252 306
#     4  10  20  32  46  72 103 128 161 214 265 298
#     4   9  17  31  51  72  97 131 171 209 251 306
#
# _framework density 18.160747000000001
#
# number of rings (size 3 to 8) (size 9 to 14) (size 15 to 20)
#    0.000    2.500    1.250    1.500    0.000    1.500 
#    2.250    2.500    0.000    0.000    0.000    0.000 
#    0.000    0.000    0.000    0.000    0.000    0.000 
#
# Total GULP energy -396781.527232 kJ/mol
# GULP energy per Si atom -12399.422726 kJ/mol
# Density = 1.811941 g / cm^3
# Si number density = 18.160747 Si / 1000 Ang^3
#
#
#
# Elastic Constant Matrix: (Units=GPa)
#
#
# Indices 1 2 3 4 5 6 
#
# 1 160.9430 39.5656 98.4776 0.0000 8.1732 0.0000
# 2 39.5656 43.6267 40.1938 0.0000 4.2337 0.0000
# 3 98.4776 40.1938 163.0404 0.0000 8.0095 0.0000
# 4 0.0000 0.0000 0.0000 25.4794 0.0000 9.1408
# 5 8.1732 4.2337 8.0095 0.0000 30.8172 0.0000
# 6 0.0000 0.0000 0.0000 9.1408 0.0000 24.0714
#
#
#
# Elastic Compliance Matrix: (Units=1/GPa)
#
#
# Indices 1 2 3 4 5 6 
#
# 1 0.010598 -0.004751 -0.005190 0.000000 -0.000809 0.000000
# 2 -0.004751 0.031936 -0.004912 0.000000 -0.001851 0.000000
# 3 -0.005190 -0.004912 0.010513 0.000000 -0.000681 0.000000
# 4 0.000000 0.000000 0.000000 0.045437 0.000000 -0.017254
# 5 -0.000809 -0.001851 -0.000681 0.000000 0.033095 0.000000
# 6 0.000000 0.000000 0.000000 -0.017254 0.000000 0.048095
#
#
# Mechanical properties :
#
#
# Convention : Reuss Voigt Hill
#
# Bulk Modulus (GPa) = 42.84611 80.45377 61.64994
# Shear Modulus (GPa) = 23.02412 28.69846 25.86129
#
# Velocity S-wave (km/s) = 3.56447 3.97954 3.77771
# Velocity P-wave (km/s) = 6.37060 8.09400 7.28345
#
# Compressibility (1/GPa) = 0.02333934
#
# Stress axis : x y z
#
# Youngs Moduli (GPa) = 94.35335 31.31241 95.12022
#
# Poissons Ratio (x) = 0.14878 0.49372
# Poissons Ratio (y) = 0.44830 0.46727
# Poissons Ratio (z) = 0.48974 0.15382
#
# Static dielectric constant tensor:
#      x y z
#    x 3.565680 0.000000 -0.065450 
#    y 0.000000 2.978670 0.000000 
#    z -0.065450 0.000000 3.555060 
# 
# 
# High freq. dielectric constant tensor:
#      x y z
#    x 1.708410 0.000000 0.008240 
#    y 0.000000 1.673610 0.000000 
#    z 0.008240 0.000000 1.709650 
# 
# From -- ./inp_files/61337.got.cif
#   From: 2010.06.25/outbox.cif.g09.slc.cpg/sg11_31_cif.got.tgz:61337.got - 2010.06.27 23:14:04.
