data_PCOD8069568
_publ_section_title
;
Structure prediction by ZEFSAII (Michael W. Deem and Ramdas Pophale) SiO2 
 PCOD8069568
Probable space group: P 21/M
;
_chemical_formula_sum "Si O2"
_cell_formula_units_Z 32
_cell_length_a 12.565834
_cell_length_b 9.122983
_cell_length_c 19.366804
_cell_angle_alpha 90.000000
_cell_angle_beta 48.470885
_cell_angle_gamma 90.000000
_cell_volume 1662.060910
_symmetry_space_group_name_H-M "P 21/M"
_symmetry_group_IT_number 11
_symmetry_cell_setting 'monoclinic'
loop_
_space_group_symop_operation_xyz
x,y,z
-x,1/2+y,-z
-x,-y,-z
x,1/2-y,z
loop_
_atom_site_type_symbol
_atom_site_label
_atom_site_fract_x
_atom_site_fract_y
_atom_site_fract_z
Si Si1 0.548634 0.923338 0.771922
Si Si2 0.132616 0.922804 0.157601
Si Si3 0.416523 0.922278 0.974190
Si Si4 0.556039 0.921327 0.319781
Si Si5 0.069967 0.410503 0.529033
Si Si6 0.794554 0.413886 0.726674
Si Si7 0.670258 0.925004 0.496239
Si Si8 0.182839 0.079638 0.705601
O O1 0.548483 0.750000 0.760685
O O2 0.473170 0.996291 0.738999
O O3 0.710250 0.981336 0.709688
O O4 0.469191 0.973051 0.876220
O O5 0.112579 0.750000 0.172706
O O6 0.247004 0.962347 0.048860
O O7 0.209959 0.979688 0.194224
O O8 0.974539 0.992272 0.214293
O O9 0.440417 0.750000 0.974023
O O10 0.500000 0.000000 0.000000
O O11 0.518238 0.750000 0.328844
O O12 0.722455 0.945052 0.266578
O O13 0.471711 0.988877 0.421621
O O14 0.095591 0.250000 0.487669
O O15 0.961728 0.408202 0.639319
O O16 0.000000 0.500000 0.500000
O O17 0.219557 0.471879 0.490989
O O18 0.728386 0.250000 0.750434
O O19 0.643287 0.750000 0.506049
O O20 0.733716 0.985513 0.396793
O O21 0.163128 0.250000 0.698282
#
# Coordination Sequence:
#
# PCOD8069568 Si02
#       8
#     4   4   4   4   4   4   4   4
#     4  11  23  37  53  80 116 148 178 221 276 328
#     4   9  16  32  58  84 107 136 175 221 271 325
#     4  10  20  34  58  86 111 141 177 219 272 330
#     4  11  23  37  55  80 108 146 191 230 265 316
#     4  10  20  31  47  74 106 141 177 215 264 320
#     4  10  18  32  56  80 105 139 179 220 265 323
#     4  10  19  35  57  80 108 142 179 227 279 323
#     4   9  18  35  59  83 108 141 187 230 269 319
#
# _framework density 19.253204
#
# number of rings (size 3 to 8) (size 9 to 14) (size 15 to 20)
#    0.000    2.000    2.500    1.875    0.000    3.500 
#    0.000    1.250    0.000    3.750    0.000    0.000 
#    0.000    0.000    0.000    0.000    0.000    0.000 
#
# Total GULP energy -396595.385088 kJ/mol
# GULP energy per Si atom -12393.605784 kJ/mol
# Density = 1.920938 g / cm^3
# Si number density = 19.253204 Si / 1000 Ang^3
#
#
#
# Elastic Constant Matrix: (Units=GPa)
#
#
# Indices 1 2 3 4 5 6 
#
# 1 102.5601 35.6004 31.9739 0.0000 -12.8009 0.0000
# 2 35.6004 56.5845 21.6753 0.0000 -1.4856 0.0000
# 3 31.9739 21.6753 77.8986 0.0000 -10.5813 0.0000
# 4 0.0000 0.0000 0.0000 20.5102 0.0000 0.4332
# 5 -12.8009 -1.4856 -10.5813 0.0000 25.0182 0.0000
# 6 0.0000 0.0000 0.0000 0.4332 0.0000 20.2709
#
#
#
# Elastic Compliance Matrix: (Units=1/GPa)
#
#
# Indices 1 2 3 4 5 6 
#
# 1 0.013945 -0.007524 -0.002888 0.000000 0.005467 0.000000
# 2 -0.007524 0.023876 -0.004122 0.000000 -0.004175 0.000000
# 3 -0.002888 -0.004122 0.015846 0.000000 0.004980 0.000000
# 4 0.000000 0.000000 0.000000 0.048778 0.000000 -0.001042
# 5 0.005467 -0.004175 0.004980 0.000000 0.044626 0.000000
# 6 0.000000 0.000000 0.000000 -0.001042 0.000000 0.049354
#
#
# Mechanical properties :
#
#
# Convention : Reuss Voigt Hill
#
# Bulk Modulus (GPa) = 40.65232 46.17139 43.41186
# Shear Modulus (GPa) = 21.39571 23.01276 22.20423
#
# Velocity S-wave (km/s) = 3.33720 3.46102 3.39967
# Velocity P-wave (km/s) = 6.00080 6.32493 6.16500
#
# Compressibility (1/GPa) = 0.02459884
#
# Stress axis : x y z
#
# Youngs Moduli (GPa) = 71.71274 41.88354 63.10774
#
# Poissons Ratio (x) = 0.31512 0.18223
# Poissons Ratio (y) = 0.53954 0.26016
# Poissons Ratio (z) = 0.20708 0.17266
#
# Static dielectric constant tensor:
#      x y z
#    x 3.475150 0.000000 -0.225500 
#    y 0.000000 3.253370 0.000000 
#    z -0.225500 0.000000 3.912720 
# 
# 
# High freq. dielectric constant tensor:
#      x y z
#    x 1.750500 0.000000 -0.007550 
#    y 0.000000 1.717590 0.000000 
#    z -0.007550 0.000000 1.753380 
# 
# From -- ./inp_files/42914.got.cif
#   From: 2010.06.25/outbox.cif.g09.slc.cpg/sg11_22_cif.got.tgz:42914.got - 2010.06.27 23:14:04.
