data_PCOD8069908
_publ_section_title
;
Structure prediction by ZEFSAII (Michael W. Deem and Ramdas Pophale) SiO2 
 PCOD8069908
Probable space group: P 21/M
;
_chemical_formula_sum "Si O2"
_cell_formula_units_Z 28
_cell_length_a 12.532547
_cell_length_b 20.560440
_cell_length_c 5.160949
_cell_angle_alpha 90.000000
_cell_angle_beta 86.031737
_cell_angle_gamma 90.000000
_cell_volume 1326.657628
_symmetry_space_group_name_H-M "P 21/M"
_symmetry_group_IT_number 11
_symmetry_cell_setting 'monoclinic'
loop_
_space_group_symop_operation_xyz
x,y,z
-x,1/2+y,-z
-x,-y,-z
x,1/2-y,z
loop_
_atom_site_type_symbol
_atom_site_label
_atom_site_fract_x
_atom_site_fract_y
_atom_site_fract_z
Si Si1 0.607845 0.929304 0.656971
Si Si2 0.214260 0.618613 0.354406
Si Si3 0.117961 0.825504 0.888818
Si Si4 0.225585 0.324911 0.441980
Si Si5 0.890014 0.624712 0.043677
Si Si6 0.223567 0.500447 0.053161
Si Si7 0.624999 0.442239 0.353220
O O1 0.663873 0.864246 0.540467
O O2 0.675292 0.955814 0.886437
O O3 0.484217 0.914533 0.757021
O O4 0.605469 0.982983 0.433250
O O5 0.149588 0.650941 0.598371
O O6 0.173056 0.544268 0.294043
O O7 0.338794 0.606593 0.420006
O O8 0.207003 0.664118 0.099764
O O9 0.088639 0.750000 0.873717
O O10 0.016257 0.867161 0.995837
O O11 0.256089 0.250000 0.458166
O O12 0.170975 0.338951 0.176744
O O13 0.142831 0.344572 0.678221
O O14 0.865779 0.547136 0.049631
O O15 0.271147 0.555417 0.851903
#
# Coordination Sequence:
#
# PCOD8069908 Si02
#       7
#     4   4   4   4   4   4   4
#     4   9  20  33  65  93 125 163 203 247 315 373
#     4  11  24  41  65  90 124 160 208 263 306 364
#     4  12  25  44  62  86 120 172 217 253 305 377
#     4  11  21  39  59  91 126 160 203 256 308 380
#     4  11  24  40  66  91 121 160 206 260 325 367
#     4  10  20  39  65  96 131 153 203 264 324 368
#     4  10  18  40  61  96 123 162 201 260 306 371
#
# _framework density 21.105672999999999
#
# number of rings (size 3 to 8) (size 9 to 14) (size 15 to 20)
#    0.000    1.429    2.857    3.000    0.000    1.143 
#    0.000    1.429    0.000    0.000    0.000    0.000 
#    0.000    0.000    0.000    0.000    0.000    0.000 
#
# Total GULP energy -347012.860726 kJ/mol
# GULP energy per Si atom -12393.316455 kJ/mol
# Density = 2.105764 g / cm^3
# Si number density = 21.105673 Si / 1000 Ang^3
#
#
#
# Elastic Constant Matrix: (Units=GPa)
#
#
# Indices 1 2 3 4 5 6 
#
# 1 57.1078 33.2196 10.2217 0.0000 5.7950 0.0000
# 2 33.2196 68.9898 23.8819 0.0000 1.0921 0.0000
# 3 10.2217 23.8819 81.3969 0.0000 -5.4783 0.0000
# 4 0.0000 0.0000 0.0000 33.2070 0.0000 1.0025
# 5 5.7950 1.0921 -5.4783 0.0000 26.4632 0.0000
# 6 0.0000 0.0000 0.0000 1.0025 0.0000 20.7259
#
#
#
# Elastic Compliance Matrix: (Units=1/GPa)
#
#
# Indices 1 2 3 4 5 6 
#
# 1 0.024961 -0.011954 0.000039 0.000000 -0.004965 0.000000
# 2 -0.011954 0.021931 -0.004886 0.000000 0.000701 0.000000
# 3 0.000039 -0.004886 0.013921 0.000000 0.003075 0.000000
# 4 0.000000 0.000000 0.000000 0.030158 0.000000 -0.001459
# 5 -0.004965 0.000701 0.003075 0.000000 0.039483 0.000000
# 6 0.000000 0.000000 0.000000 -0.001459 0.000000 0.048319
#
#
# Mechanical properties :
#
#
# Convention : Reuss Voigt Hill
#
# Bulk Modulus (GPa) = 36.75072 38.01567 37.38320
# Shear Modulus (GPa) = 22.57866 25.42398 24.00132
#
# Velocity S-wave (km/s) = 3.27431 3.47451 3.37589
# Velocity P-wave (km/s) = 5.63430 5.84358 5.73990
#
# Compressibility (1/GPa) = 0.02721035
#
# Stress axis : x y z
#
# Youngs Moduli (GPa) = 40.06207 45.59693 71.83259
#
# Poissons Ratio (x) = 0.54506 -0.00277
# Poissons Ratio (y) = 0.47890 0.35100
# Poissons Ratio (z) = -0.00154 0.22280
#
# Static dielectric constant tensor:
#      x y z
#    x 3.807640 0.000000 0.054510 
#    y 0.000000 3.875240 0.000000 
#    z 0.054510 0.000000 3.920210 
# 
# 
# High freq. dielectric constant tensor:
#      x y z
#    x 1.812300 0.000000 0.009480 
#    y 0.000000 1.817820 0.000000 
#    z 0.009480 0.000000 1.835240 
# 
# From -- ./inp_files/4900.got.cif
#   From: 2010.06.25/outbox.cif.g09.slc.cpg/sg11_3_cif.got.tgz:4900.got - 2010.06.27 23:14:04.
