data_PCOD8069520
_publ_section_title
;
Structure prediction by ZEFSAII (Michael W. Deem and Ramdas Pophale) SiO2 
 PCOD8069520
Probable space group: P 21/M
;
_chemical_formula_sum "Si O2"
_cell_formula_units_Z 32
_cell_length_a 14.633617
_cell_length_b 13.245448
_cell_length_c 11.396013
_cell_angle_alpha 90.000000
_cell_angle_beta 140.940881
_cell_angle_gamma 90.000000
_cell_volume 1391.861006
_symmetry_space_group_name_H-M "P 21/M"
_symmetry_group_IT_number 11
_symmetry_cell_setting 'monoclinic'
loop_
_space_group_symop_operation_xyz
x,y,z
-x,1/2+y,-z
-x,-y,-z
x,1/2-y,z
loop_
_atom_site_type_symbol
_atom_site_label
_atom_site_fract_x
_atom_site_fract_y
_atom_site_fract_z
Si Si1 0.917368 0.631378 0.848750
Si Si2 0.802746 0.137871 0.743604
Si Si3 0.378127 0.463177 0.468697
Si Si4 0.084968 0.862854 0.539763
Si Si5 0.329305 0.952078 0.917316
Si Si6 0.920177 0.940478 0.596464
Si Si7 0.360248 0.636715 0.173068
Si Si8 0.353821 0.369443 0.788109
O O1 0.931961 0.750000 0.847326
O O2 0.751908 0.603011 0.720407
O O3 0.969270 0.583131 0.777128
O O4 0.033019 0.599278 0.066337
O O5 0.799169 0.250000 0.684719
O O6 0.717903 0.134277 0.781379
O O7 0.714118 0.060194 0.570573
O O8 0.500000 0.500000 0.500000
O O9 0.470215 0.399838 0.654125
O O10 0.067567 0.750000 0.471642
O O11 0.041568 0.942135 0.394365
O O12 0.250273 0.885314 0.740198
O O13 0.992691 0.873323 0.566798
O O14 0.269013 0.932894 0.989557
O O15 0.488931 0.907926 0.087539
O O16 0.312648 0.070550 0.868279
O O17 0.750640 0.908667 0.420605
O O18 0.366275 0.750000 0.129088
O O19 0.342812 0.250000 0.799207
#
# Coordination Sequence:
#
# PCOD8069520 Si02
#       8
#     4   4   4   4   4   4   4   4
#     4  11  20  34  58  83 106 137 182 229 272 324
#     4   9  20  36  55  78 104 133 168 219 277 328
#     4  10  21  36  54  78 107 136 170 220 282 338
#     4  10  19  34  53  76 115 154 184 221 267 314
#     4  10  20  31  50  77 101 139 183 219 261 311
#     4  10  21  33  53  84 110 144 188 226 264 311
#     4  10  18  32  54  78 103 133 176 224 266 316
#     4  10  19  32  47  70 109 143 174 217 265 313
#
# _framework density 22.9908
#
# number of rings (size 3 to 8) (size 9 to 14) (size 15 to 20)
#    0.000    2.000    0.000    4.500    0.000    1.500 
#    0.000    1.250    0.000    3.000    0.000    1.750 
#    0.000    0.000    0.000    0.000    0.000    0.000 
#
# Total GULP energy -396423.702140 kJ/mol
# GULP energy per Si atom -12388.240692 kJ/mol
# Density = 2.293847 g / cm^3
# Si number density = 22.990800 Si / 1000 Ang^3
#
#
#
# Elastic Constant Matrix: (Units=GPa)
#
#
# Indices 1 2 3 4 5 6 
#
# 1 29.2410 -4.1177 -1.3524 0.0000 12.2473 0.0000
# 2 -4.1177 142.4441 17.1837 0.0000 -1.0353 0.0000
# 3 -1.3524 17.1837 60.9352 0.0000 9.2289 0.0000
# 4 0.0000 0.0000 0.0000 39.4785 0.0000 1.2193
# 5 12.2473 -1.0353 9.2289 0.0000 27.5569 0.0000
# 6 0.0000 0.0000 0.0000 1.2193 0.0000 26.3936
#
#
#
# Elastic Compliance Matrix: (Units=1/GPa)
#
#
# Indices 1 2 3 4 5 6 
#
# 1 0.043003 0.000629 0.003864 0.000000 -0.020383 0.000000
# 2 0.000629 0.007304 -0.002154 0.000000 0.000716 0.000000
# 3 0.003864 -0.002154 0.018305 0.000000 -0.007929 0.000000
# 4 0.000000 0.000000 0.000000 0.025366 0.000000 -0.001172
# 5 -0.020383 0.000716 -0.007929 0.000000 0.048030 0.000000
# 6 0.000000 0.000000 0.000000 -0.001172 0.000000 0.037942
#
#
# Mechanical properties :
#
#
# Convention : Reuss Voigt Hill
#
# Bulk Modulus (GPa) = 13.64463 28.44971 21.04717
# Shear Modulus (GPa) = 25.03737 33.41290 29.22514
#
# Velocity S-wave (km/s) = 3.30361 3.81637 3.56921
# Velocity P-wave (km/s) = 4.52763 5.64100 5.11470
#
# Compressibility (1/GPa) = 0.07328890
#
# Stress axis : x y z
#
# Youngs Moduli (GPa) = 23.25430 136.91984 54.63007
#
# Poissons Ratio (x) = -0.08610 -0.21110
# Poissons Ratio (y) = -0.01462 0.11768
# Poissons Ratio (z) = -0.08986 0.29494
#
# Static dielectric constant tensor:
#      x y z
#    x 3.944360 0.000000 0.296970 
#    y 0.000000 4.586620 0.000000 
#    z 0.296970 0.000000 4.683860 
# 
# 
# High freq. dielectric constant tensor:
#      x y z
#    x 1.889510 0.000000 0.024530 
#    y 0.000000 1.912950 0.000000 
#    z 0.024530 0.000000 1.916380 
# 
# From -- ./inp_files/53663.got.cif
#   From: 2010.06.25/outbox.cif.g09.slc.cpg/sg11_27_cif.got.tgz:53663.got - 2010.06.27 23:14:04.
