data_PCOD8069528
_publ_section_title
;
Structure prediction by ZEFSAII (Michael W. Deem and Ramdas Pophale) SiO2 
 PCOD8069528
Probable space group: P 21/M
;
_chemical_formula_sum "Si O2"
_cell_formula_units_Z 32
_cell_length_a 20.715622
_cell_length_b 8.739908
_cell_length_c 14.293489
_cell_angle_alpha 90.000000
_cell_angle_beta 43.732793
_cell_angle_gamma 90.000000
_cell_volume 1788.987014
_symmetry_space_group_name_H-M "P 21/M"
_symmetry_group_IT_number 11
_symmetry_cell_setting 'monoclinic'
loop_
_space_group_symop_operation_xyz
x,y,z
-x,1/2+y,-z
-x,-y,-z
x,1/2-y,z
loop_
_atom_site_type_symbol
_atom_site_label
_atom_site_fract_x
_atom_site_fract_y
_atom_site_fract_z
Si Si1 0.901522 0.431535 0.574564
Si Si2 0.480326 0.929477 0.419792
Si Si3 0.874659 0.073396 0.393569
Si Si4 0.055539 0.569964 0.132218
Si Si5 0.803450 0.069412 0.857205
Si Si6 0.346543 0.568923 0.846235
Si Si7 0.270402 0.926073 0.605276
Si Si8 0.797144 0.570904 0.144320
O O1 0.910154 0.250000 0.570392
O O2 0.869885 0.487970 0.505201
O O3 0.823247 0.490524 0.731272
O O4 0.000000 0.500000 0.500000
O O5 0.492486 0.750000 0.416669
O O6 0.378306 0.976373 0.489565
O O7 0.500000 0.000000 0.500000
O O8 0.552563 0.991349 0.266713
O O9 0.905627 0.250000 0.360273
O O10 0.773477 0.050512 0.452023
O O11 0.948721 0.977965 0.255788
O O12 0.063095 0.750000 0.106927
O O13 0.111275 0.515708 0.166322
O O14 0.100742 0.483693 0.996228
O O15 0.800161 0.250000 0.861471
O O16 0.705011 0.011217 0.004114
O O17 0.359275 0.750000 0.830907
O O18 0.283891 0.521809 0.823599
O O19 0.261081 0.750000 0.647250
O O20 0.212602 0.032635 0.736360
O O21 0.784398 0.750000 0.139727
#
# Coordination Sequence:
#
# PCOD8069528 Si02
#       8
#     4   4   4   4   4   4   4   4
#     4  10  18  32  54  80 105 134 175 217 259 309
#     4  11  21  34  55  78 103 136 177 222 267 314
#     4  10  21  35  53  77 105 139 180 220 260 312
#     4  10  19  33  52  74 107 144 174 211 261 312
#     4   8  16  30  50  76 105 135 166 205 260 310
#     4  10  19  33  53  78 108 137 169 215 266 316
#     4  10  22  38  52  72 106 143 175 216 269 314
#     4  11  21  33  52  77 104 138 181 218 254 310
#
# _framework density 17.887217
#
# number of rings (size 3 to 8) (size 9 to 14) (size 15 to 20)
#    0.000    2.000    2.500    3.000    0.000    1.500 
#    0.000    0.625    0.000    0.750    0.000    0.000 
#    0.000    0.000    0.000    0.000    0.000    0.625 
#
# Total GULP energy -396751.940405 kJ/mol
# GULP energy per Si atom -12398.498138 kJ/mol
# Density = 1.784650 g / cm^3
# Si number density = 17.887217 Si / 1000 Ang^3
#
#
#
# Elastic Constant Matrix: (Units=GPa)
#
#
# Indices 1 2 3 4 5 6 
#
# 1 104.2430 29.2678 71.0672 0.0000 -1.8228 0.0000
# 2 29.2678 57.5535 35.2086 0.0000 -1.7166 0.0000
# 3 71.0672 35.2086 149.5453 0.0000 -0.5719 0.0000
# 4 0.0000 0.0000 0.0000 27.8920 0.0000 -4.2307
# 5 -1.8228 -1.7166 -0.5719 0.0000 24.6118 0.0000
# 6 0.0000 0.0000 0.0000 -4.2307 0.0000 17.4645
#
#
#
# Elastic Compliance Matrix: (Units=1/GPa)
#
#
# Indices 1 2 3 4 5 6 
#
# 1 0.014875 -0.003763 -0.006180 0.000000 0.000696 0.000000
# 2 -0.003763 0.021293 -0.003221 0.000000 0.001132 0.000000
# 3 -0.006180 -0.003221 0.010381 0.000000 -0.000441 0.000000
# 4 0.000000 0.000000 0.000000 0.037220 0.000000 0.009017
# 5 0.000696 0.001132 -0.000441 0.000000 0.040751 0.000000
# 6 0.000000 0.000000 0.000000 0.009017 0.000000 0.059443
#
#
# Mechanical properties :
#
#
# Convention : Reuss Voigt Hill
#
# Bulk Modulus (GPa) = 49.45439 64.71432 57.08436
# Shear Modulus (GPa) = 23.03826 25.71357 24.37591
#
# Velocity S-wave (km/s) = 3.59273 3.79560 3.69556
# Velocity P-wave (km/s) = 6.70210 7.44758 7.08465
#
# Compressibility (1/GPa) = 0.02022065
#
# Stress axis : x y z
#
# Youngs Moduli (GPa) = 67.22672 46.96464 96.33416
#
# Poissons Ratio (x) = 0.17672 0.59538
# Poissons Ratio (y) = 0.25296 0.31025
# Poissons Ratio (z) = 0.41549 0.15125
#
# Static dielectric constant tensor:
#      x y z
#    x 3.176830 0.000000 0.123000 
#    y 0.000000 3.230030 0.000000 
#    z 0.123000 0.000000 3.783810 
# 
# 
# High freq. dielectric constant tensor:
#      x y z
#    x 1.662250 0.000000 0.001350 
#    y 0.000000 1.686670 0.000000 
#    z 0.001350 0.000000 1.700320 
# 
# From -- ./inp_files/54272.got.cif
#   From: 2010.06.25/outbox.cif.g09.slc.cpg/sg11_28_cif.got.tgz:54272.got - 2010.06.27 23:14:04.
