data_PCOD8069012
_publ_section_title
;
Structure prediction by ZEFSAII (Michael W. Deem and Ramdas Pophale) SiO2 
 PCOD8069012
Probable space group: P 21/M
;
_chemical_formula_sum "Si O2"
_cell_formula_units_Z 28
_cell_length_a 27.703000
_cell_length_b 8.430666
_cell_length_c 13.572954
_cell_angle_alpha 90.000000
_cell_angle_beta 149.459512
_cell_angle_gamma 90.000000
_cell_volume 1610.840423
_symmetry_space_group_name_H-M "P 21/M"
_symmetry_group_IT_number 11
_symmetry_cell_setting 'monoclinic'
loop_
_space_group_symop_operation_xyz
x,y,z
-x,1/2+y,-z
-x,-y,-z
x,1/2-y,z
loop_
_atom_site_type_symbol
_atom_site_label
_atom_site_fract_x
_atom_site_fract_y
_atom_site_fract_z
Si Si1 0.893290 0.434799 0.212732
Si Si2 0.602940 0.936047 0.782759
Si Si3 0.039650 0.935948 0.968396
Si Si4 0.609276 0.066739 0.580710
Si Si5 0.062300 0.565715 0.396295
Si Si6 0.210977 0.433077 0.785187
Si Si7 0.205157 0.433293 0.146154
O O1 0.899521 0.250000 0.251593
O O2 0.849564 0.533690 0.224150
O O3 0.997506 0.504157 0.372798
O O4 0.828160 0.456977 0.002411
O O5 0.607885 0.750000 0.764688
O O6 0.498144 0.983521 0.637122
O O7 0.628001 0.032281 0.728591
O O8 0.679220 0.980842 0.001246
O O9 0.056260 0.750000 0.003972
O O10 0.141592 0.019863 0.128668
O O11 0.000000 0.000000 0.000000
O O12 0.963910 0.973606 0.749381
O O13 0.626344 0.250000 0.589584
O O14 0.682850 0.968850 0.641277
O O15 0.045748 0.750000 0.347619
O O16 0.170699 0.531392 0.620737
O O17 0.202706 0.250000 0.743011
O O18 0.188768 0.250000 0.091872
#
# Coordination Sequence:
#
# PCOD8069012 Si02
#       7
#     4   4   4   4   4   4   4
#     4  11  20  31  46  68  96 132 171 209 246 293
#     4   9  19  31  46  67  98 137 175 213 251 291
#     4  11  22  39  59  80 102 127 160 205 254 303
#     4  10  18  30  47  70  98 133 175 214 251 293
#     4  11  22  35  50  71  98 131 167 205 246 298
#     4  11  20  32  47  68  99 136 172 208 248 294
#     4  11  20  32  50  74 102 135 169 207 251 299
#
# _framework density 17.38223
#
# number of rings (size 3 to 8) (size 9 to 14) (size 15 to 20)
#    0.000    1.429    1.429    8.143    0.000    1.143 
#    0.000    0.000    0.000    0.000    0.000    1.000 
#    0.000    0.000    0.000    0.000    0.000    0.000 
#
# Total GULP energy -347211.161180 kJ/mol
# GULP energy per Si atom -12400.398614 kJ/mol
# Density = 1.734267 g / cm^3
# Si number density = 17.382230 Si / 1000 Ang^3
#
#
#
# Elastic Constant Matrix: (Units=GPa)
#
#
# Indices 1 2 3 4 5 6 
#
# 1 80.2800 12.4659 44.9819 0.0000 15.1146 0.0000
# 2 12.4659 70.3248 24.4782 0.0000 12.7255 0.0000
# 3 44.9819 24.4782 110.9729 0.0000 21.7031 0.0000
# 4 0.0000 0.0000 0.0000 24.5738 0.0000 0.7287
# 5 15.1146 12.7255 21.7031 0.0000 17.7504 0.0000
# 6 0.0000 0.0000 0.0000 0.7287 0.0000 24.5414
#
#
#
# Elastic Compliance Matrix: (Units=1/GPa)
#
#
# Indices 1 2 3 4 5 6 
#
# 1 0.016929 0.000329 -0.005348 0.000000 -0.008112 0.000000
# 2 0.000329 0.016601 -0.001857 0.000000 -0.009911 0.000000
# 3 -0.005348 -0.001857 0.013718 0.000000 -0.010888 0.000000
# 4 0.000000 0.000000 0.000000 0.040730 0.000000 -0.001209
# 5 -0.008112 -0.009911 -0.010888 0.000000 0.083662 0.000000
# 6 0.000000 0.000000 0.000000 -0.001209 0.000000 0.040783
#
#
# Mechanical properties :
#
#
# Convention : Reuss Voigt Hill
#
# Bulk Modulus (GPa) = 29.85452 47.26996 38.56224
# Shear Modulus (GPa) = 21.06675 25.34990 23.20832
#
# Velocity S-wave (km/s) = 3.48511 3.82302 3.65797
# Velocity P-wave (km/s) = 5.77990 6.83672 6.33040
#
# Compressibility (1/GPa) = 0.03349577
#
# Stress axis : x y z
#
# Youngs Moduli (GPa) = 59.06929 60.23640 72.89757
#
# Poissons Ratio (x) = -0.01979 0.38987
# Poissons Ratio (y) = -0.01940 0.13535
# Poissons Ratio (z) = 0.31591 0.11184
#
# Static dielectric constant tensor:
#      x y z
#    x 3.003220 0.000000 0.281030 
#    y 0.000000 3.291780 0.000000 
#    z 0.281030 0.000000 3.505250 
# 
# 
# High freq. dielectric constant tensor:
#      x y z
#    x 1.623620 0.000000 0.021250 
#    y 0.000000 1.687690 0.000000 
#    z 0.021250 0.000000 1.671650 
# 
# From -- ./inp_files/56413.got.cif
#   From: 2010.06.25/outbox.cif.g09.slc.cpg/sg11_29_cif.got.tgz:56413.got - 2010.06.27 23:14:04.
