data_PCOD8069831
_publ_section_title
;
Structure prediction by ZEFSAII (Michael W. Deem and Ramdas Pophale) SiO2 
 PCOD8069831
Probable space group: P 21/M
;
_chemical_formula_sum "Si O2"
_cell_formula_units_Z 24
_cell_length_a 11.402933
_cell_length_b 17.682775
_cell_length_c 11.398072
_cell_angle_alpha 90.000000
_cell_angle_beta 37.721365
_cell_angle_gamma 90.000000
_cell_volume 1406.123624
_symmetry_space_group_name_H-M "P 21/M"
_symmetry_group_IT_number 11
_symmetry_cell_setting 'monoclinic'
loop_
_space_group_symop_operation_xyz
x,y,z
-x,1/2+y,-z
-x,-y,-z
x,1/2-y,z
loop_
_atom_site_type_symbol
_atom_site_label
_atom_site_fract_x
_atom_site_fract_y
_atom_site_fract_z
Si Si1 0.844192 0.047295 0.346720
Si Si2 0.110136 0.835056 0.122932
Si Si3 0.232239 0.987344 0.124583
Si Si4 0.290190 0.837033 0.732225
Si Si5 0.297033 0.108025 0.536324
Si Si6 0.651947 0.992484 0.710444
O O1 0.813129 0.118899 0.290364
O O2 0.754648 0.971379 0.356956
O O3 0.740387 0.057854 0.555927
O O4 0.070474 0.034789 0.185832
O O5 0.180449 0.750000 0.099991
O O6 0.187282 0.858934 0.934308
O O7 0.193793 0.896819 0.147308
O O8 0.878969 0.834496 0.307889
O O9 0.230162 0.010171 0.262476
O O10 0.430692 0.011051 0.908138
O O11 0.262031 0.750000 0.724734
O O12 0.514866 0.855744 0.557345
O O13 0.326125 0.088562 0.374099
#
# Coordination Sequence:
#
# PCOD8069831 Si02
#       6
#     4   4   4   4   4   4
#     4   9  20  32  54  76 102 132 173 210 251 300
#     4  10  20  32  50  77 105 137 168 208 260 302
#     4  10  18  35  56  78 103 130 173 218 248 302
#     4  11  21  35  50  74 110 138 167 209 259 306
#     4   9  19  33  54  77  99 130 179 210 247 300
#     4   9  19  33  57  78  98 130 173 218 255 289
#
# _framework density 17.068200999999998
#
# number of rings (size 3 to 8) (size 9 to 14) (size 15 to 20)
#    1.000    1.333    1.667    1.500    0.000    4.000 
#    0.000    0.833    0.000    4.000    0.000    0.000 
#    0.000    0.000    0.000    0.000    0.000    0.000 
#
# Total GULP energy -297428.769070 kJ/mol
# GULP energy per Si atom -12392.865378 kJ/mol
# Density = 1.702935 g / cm^3
# Si number density = 17.068201 Si / 1000 Ang^3
#
#
#
# Elastic Constant Matrix: (Units=GPa)
#
#
# Indices 1 2 3 4 5 6 
#
# 1 77.2496 39.1595 30.2583 0.0000 -9.3798 0.0000
# 2 39.1595 69.3700 15.6181 0.0000 0.5441 0.0000
# 3 30.2583 15.6181 81.7101 0.0000 -14.6419 0.0000
# 4 0.0000 0.0000 0.0000 15.9139 0.0000 1.9583
# 5 -9.3798 0.5441 -14.6419 0.0000 20.1237 0.0000
# 6 0.0000 0.0000 0.0000 1.9583 0.0000 15.1284
#
#
#
# Elastic Compliance Matrix: (Units=1/GPa)
#
#
# Indices 1 2 3 4 5 6 
#
# 1 0.021084 -0.010946 -0.004486 0.000000 0.006859 0.000000
# 2 -0.010946 0.020892 -0.001099 0.000000 -0.006466 0.000000
# 3 -0.004486 -0.001099 0.015800 0.000000 0.009435 0.000000
# 4 0.000000 0.000000 0.000000 0.063855 0.000000 -0.008266
# 5 0.006859 -0.006466 0.009435 0.000000 0.059929 0.000000
# 6 0.000000 0.000000 0.000000 -0.008266 0.000000 0.067171
#
#
# Mechanical properties :
#
#
# Convention : Reuss Voigt Hill
#
# Bulk Modulus (GPa) = 40.46106 44.26684 42.36395
# Shear Modulus (GPa) = 17.23952 19.78613 18.51283
#
# Velocity S-wave (km/s) = 3.18156 3.40845 3.29696
# Velocity P-wave (km/s) = 6.10356 6.44063 6.27435
#
# Compressibility (1/GPa) = 0.02471512
#
# Stress axis : x y z
#
# Youngs Moduli (GPa) = 47.43003 47.86447 63.28943
#
# Poissons Ratio (x) = 0.52390 0.28394
# Poissons Ratio (y) = 0.51915 0.06954
# Poissons Ratio (z) = 0.21279 0.05259
#
# Static dielectric constant tensor:
#      x y z
#    x 2.966400 0.000000 -0.066400 
#    y 0.000000 2.973020 0.000000 
#    z -0.066400 0.000000 3.353640 
# 
# 
# High freq. dielectric constant tensor:
#      x y z
#    x 1.642630 0.000000 -0.013480 
#    y 0.000000 1.632000 0.000000 
#    z -0.013480 0.000000 1.677870 
# 
# From -- ./inp_files/35831.got.cif
#   From: 2010.06.25/outbox.cif.g09.slc.cpg/sg11_18_cif.got.tgz:35831.got - 2010.06.27 23:14:04.
