data_PCOD8069797
_publ_section_title
;
Structure prediction by ZEFSAII (Michael W. Deem and Ramdas Pophale) SiO2 
 PCOD8069797
Probable space group: P 21/M
;
_chemical_formula_sum "Si O2"
_cell_formula_units_Z 16
_cell_length_a 10.030795
_cell_length_b 10.518048
_cell_length_c 11.433879
_cell_angle_alpha 90.000000
_cell_angle_beta 136.570667
_cell_angle_gamma 90.000000
_cell_volume 829.299011
_symmetry_space_group_name_H-M "P 21/M"
_symmetry_group_IT_number 11
_symmetry_cell_setting 'monoclinic'
loop_
_space_group_symop_operation_xyz
x,y,z
-x,1/2+y,-z
-x,-y,-z
x,1/2-y,z
loop_
_atom_site_type_symbol
_atom_site_label
_atom_site_fract_x
_atom_site_fract_y
_atom_site_fract_z
Si Si1 0.791802 0.750000 0.869099
Si Si2 0.908761 0.007164 0.568377
Si Si3 0.129689 0.250000 0.329262
Si Si4 0.949472 0.250000 0.737876
Si Si5 0.475790 0.486224 0.344293
Si Si6 0.413443 0.750000 0.342188
O O1 0.934271 0.750000 0.847366
O O2 0.662006 0.624214 0.786630
O O3 0.925439 0.750000 0.066224
O O4 0.003117 0.124674 0.698393
O O5 0.954296 0.874898 0.662296
O O6 0.679939 0.031389 0.410077
O O7 0.000000 0.000000 0.500000
O O8 0.363532 0.250000 0.471862
O O9 0.721132 0.250000 0.626883
O O10 0.500000 0.500000 0.500000
O O11 0.379511 0.622022 0.244401
#
# Coordination Sequence:
#
# PCOD8069797 Si02
#       6
#     2   4   2   2   4   2
#     4  12  22  35  61  92 120 149 191 260 292 338
#     4  11  22  38  62  88 117 158 201 237 282 361
#     4  10  19  37  59  86 115 153 206 238 291 341
#     4  12  23  36  57  94 122 146 197 249 302 330
#     4  11  18  38  63  85 114 155 206 231 286 352
#     4  10  18  34  59  84 113 150 204 239 269 347
#
# _framework density 19.293405
#
# number of rings (size 3 to 8) (size 9 to 14) (size 15 to 20)
#    0.000    1.000    7.500    1.500    0.000    4.000 
#    0.000    1.250    0.000    6.000    0.000    0.000 
#    0.000    0.000    0.000    0.000    0.000    0.000 
#
# Total GULP energy -198347.389938 kJ/mol
# GULP energy per Si atom -12396.711871 kJ/mol
# Density = 1.924949 g / cm^3
# Si number density = 19.293405 Si / 1000 Ang^3
#
#
#
# Elastic Constant Matrix: (Units=GPa)
#
#
# Indices 1 2 3 4 5 6 
#
# 1 145.5394 54.2535 57.0591 0.0000 -28.5247 0.0000
# 2 54.2535 214.1072 67.9160 0.0000 -19.4200 0.0000
# 3 57.0591 67.9160 87.4694 0.0000 -24.3818 0.0000
# 4 0.0000 0.0000 0.0000 22.3597 0.0000 -4.4791
# 5 -28.5247 -19.4200 -24.3818 0.0000 20.6190 0.0000
# 6 0.0000 0.0000 0.0000 -4.4791 0.0000 22.9799
#
#
#
# Elastic Compliance Matrix: (Units=1/GPa)
#
#
# Indices 1 2 3 4 5 6 
#
# 1 0.010391 -0.000612 -0.003665 0.000000 0.009465 0.000000
# 2 -0.000612 0.006234 -0.004535 0.000000 -0.000338 0.000000
# 3 -0.003665 -0.004535 0.021988 0.000000 0.016660 0.000000
# 4 0.000000 0.000000 0.000000 0.046540 0.000000 0.009071
# 5 0.009465 -0.000338 0.016660 0.000000 0.080974 0.000000
# 6 0.000000 0.000000 0.000000 0.009071 0.000000 0.045285
#
#
# Mechanical properties :
#
#
# Convention : Reuss Voigt Hill
#
# Bulk Modulus (GPa) = 47.64399 89.50812 68.57605
# Shear Modulus (GPa) = 21.18351 31.05087 26.11719
#
# Velocity S-wave (km/s) = 3.31715 4.01609 3.68324
# Velocity P-wave (km/s) = 6.27849 8.24616 7.32866
#
# Compressibility (1/GPa) = 0.02098901
#
# Stress axis : x y z
#
# Youngs Moduli (GPa) = 96.23688 160.42326 45.47845
#
# Poissons Ratio (x) = 0.09818 0.16667
# Poissons Ratio (y) = 0.05890 0.20625
# Poissons Ratio (z) = 0.35269 0.72754
#
# Static dielectric constant tensor:
#      x y z
#    x 3.467310 0.000000 0.002110 
#    y 0.000000 5.088210 0.000000 
#    z 0.002110 0.000000 3.067600 
# 
# 
# High freq. dielectric constant tensor:
#      x y z
#    x 1.738010 0.000000 0.000850 
#    y 0.000000 1.794650 0.000000 
#    z 0.000850 0.000000 1.702040 
# 
# From -- ./inp_files/11315.got.cif
#   From: 2010.06.25/outbox.cif.g09.slc.cpg/sg11_6_cif.got.tgz:11315.got - 2010.06.27 23:14:04.
