data_PCOD8069338
_publ_section_title
;
Structure prediction by ZEFSAII (Michael W. Deem and Ramdas Pophale) SiO2 
 PCOD8069338
Probable space group: P 21/M
;
_chemical_formula_sum "Si O2"
_cell_formula_units_Z 32
_cell_length_a 9.368719
_cell_length_b 14.784997
_cell_length_c 23.334991
_cell_angle_alpha 90.000000
_cell_angle_beta 148.943531
_cell_angle_gamma 90.000000
_cell_volume 1667.477532
_symmetry_space_group_name_H-M "P 21/M"
_symmetry_group_IT_number 11
_symmetry_cell_setting 'monoclinic'
loop_
_space_group_symop_operation_xyz
x,y,z
-x,1/2+y,-z
-x,-y,-z
x,1/2-y,z
loop_
_atom_site_type_symbol
_atom_site_label
_atom_site_fract_x
_atom_site_fract_y
_atom_site_fract_z
Si Si1 0.019749 0.032495 0.380410
Si Si2 0.372501 0.151322 0.579446
Si Si3 0.942848 0.407178 0.513526
Si Si4 0.083295 0.970778 0.785732
Si Si5 0.480600 0.353025 0.210098
Si Si6 0.007757 0.853601 0.184420
Si Si7 0.389018 0.147130 0.052517
Si Si8 0.319588 0.147040 0.276983
O O1 0.286479 0.081791 0.499978
O O2 0.052186 0.030511 0.323664
O O3 0.749756 0.085640 0.308065
O O4 0.006475 0.930209 0.401574
O O5 0.391916 0.250000 0.557264
O O6 0.166334 0.160304 0.563124
O O7 0.668960 0.122283 0.706571
O O8 0.000000 0.500000 0.500000
O O9 0.638939 0.367351 0.402118
O O10 0.373627 0.919604 0.887815
O O11 0.873234 0.922504 0.756435
O O12 0.136616 0.074965 0.822197
O O13 0.588421 0.250000 0.249018
O O14 0.318118 0.372861 0.094872
O O15 0.279516 0.371117 0.194948
O O16 0.951419 0.750000 0.185617
O O17 0.887266 0.868632 0.079194
O O18 0.497652 0.250000 0.082732
O O19 0.236416 0.250000 0.264195
#
# Coordination Sequence:
#
# PCOD8069338 Si02
#       8
#     4   4   4   4   4   4   4   4
#     4  10  20  33  55  82 111 146 187 222 279 334
#     4  10  19  33  55  80 109 146 185 228 275 333
#     4  10  18  31  52  77 112 145 178 223 276 332
#     4  11  22  37  58  84 115 147 186 235 282 330
#     4   9  17  32  56  82 110 140 182 237 281 322
#     4  10  22  38  58  79 109 154 195 226 275 340
#     4   9  19  38  61  83 109 145 189 233 280 335
#     4  11  21  33  54  88 118 144 182 234 289 330
#
# _framework density 19.190664000000002
#
# number of rings (size 3 to 8) (size 9 to 14) (size 15 to 20)
#    0.000    2.000    2.500    3.000    0.000    3.500 
#    0.000    3.125    2.750    0.000    0.000    0.000 
#    0.000    0.000    0.000    0.000    0.000    0.000 
#
# Total GULP energy -396641.911121 kJ/mol
# GULP energy per Si atom -12395.059723 kJ/mol
# Density = 1.914699 g / cm^3
# Si number density = 19.190664 Si / 1000 Ang^3
#
#
#
# Elastic Constant Matrix: (Units=GPa)
#
#
# Indices 1 2 3 4 5 6 
#
# 1 106.1941 42.5115 44.8595 0.0000 -19.3650 0.0000
# 2 42.5115 83.2111 32.7390 0.0000 -16.9108 0.0000
# 3 44.8595 32.7390 112.4376 0.0000 -25.2344 0.0000
# 4 0.0000 0.0000 0.0000 25.5294 0.0000 -4.9018
# 5 -19.3650 -16.9108 -25.2344 0.0000 21.8248 0.0000
# 6 0.0000 0.0000 0.0000 -4.9018 0.0000 24.3090
#
#
#
# Elastic Compliance Matrix: (Units=1/GPa)
#
#
# Indices 1 2 3 4 5 6 
#
# 1 0.013420 -0.004725 -0.002873 0.000000 0.004924 0.000000
# 2 -0.004725 0.016365 -0.001317 0.000000 0.006966 0.000000
# 3 -0.002873 -0.001317 0.012994 0.000000 0.011455 0.000000
# 4 0.000000 0.000000 0.000000 0.040748 0.000000 0.008217
# 5 0.004924 0.006966 0.011455 0.000000 0.068830 0.000000
# 6 0.000000 0.000000 0.000000 0.008217 0.000000 0.042794
#
#
# Mechanical properties :
#
#
# Convention : Reuss Voigt Hill
#
# Bulk Modulus (GPa) = 40.08056 60.22920 50.15488
# Shear Modulus (GPa) = 22.59398 26.44816 24.52107
#
# Velocity S-wave (km/s) = 3.43496 3.71641 3.57846
# Velocity P-wave (km/s) = 6.05498 7.06175 6.57766
#
# Compressibility (1/GPa) = 0.02494975
#
# Stress axis : x y z
#
# Youngs Moduli (GPa) = 74.51642 61.10541 76.95650
#
# Poissons Ratio (x) = 0.28871 0.22112
# Poissons Ratio (y) = 0.35208 0.10133
# Poissons Ratio (z) = 0.21410 0.08046
#
# Static dielectric constant tensor:
#      x y z
#    x 3.701080 0.000000 -0.260240 
#    y 0.000000 3.836130 0.000000 
#    z -0.260240 0.000000 3.468200 
# 
# 
# High freq. dielectric constant tensor:
#      x y z
#    x 1.732750 0.000000 -0.012850 
#    y 0.000000 1.752530 0.000000 
#    z -0.012850 0.000000 1.737370 
# 
# From -- ./inp_files/68158.got.cif
#   From: 2010.06.25/outbox.cif.g09.slc.cpg/sg11_35_cif.got.tgz:68158.got - 2010.06.27 23:14:04.
