data_PCOD8069889
_publ_section_title
;
Structure prediction by ZEFSAII (Michael W. Deem and Ramdas Pophale) SiO2 
 PCOD8069889
Probable space group: P 21/M
;
_chemical_formula_sum "Si O2"
_cell_formula_units_Z 24
_cell_length_a 17.891911
_cell_length_b 16.751336
_cell_length_c 11.791953
_cell_angle_alpha 90.000000
_cell_angle_beta 21.090896
_cell_angle_gamma 90.000000
_cell_volume 1271.779119
_symmetry_space_group_name_H-M "P 21/M"
_symmetry_group_IT_number 11
_symmetry_cell_setting 'monoclinic'
loop_
_space_group_symop_operation_xyz
x,y,z
-x,1/2+y,-z
-x,-y,-z
x,1/2-y,z
loop_
_atom_site_type_symbol
_atom_site_label
_atom_site_fract_x
_atom_site_fract_y
_atom_site_fract_z
Si Si1 0.677277 0.338945 0.279487
Si Si2 0.113917 0.511201 0.955236
Si Si3 0.458726 0.943451 0.715536
Si Si4 0.394133 0.008638 0.028655
Si Si5 0.343503 0.340836 0.951660
Si Si6 0.955640 0.547045 0.719248
O O1 0.765704 0.250000 0.147307
O O2 0.876294 0.395288 0.024054
O O3 0.577583 0.359398 0.296483
O O4 0.506727 0.347203 0.618800
O O5 0.353717 0.485809 0.614676
O O6 0.990738 0.457166 0.221986
O O7 0.000000 0.500000 0.000000
O O8 0.505222 0.944033 0.785828
O O9 0.249414 0.994221 0.004808
O O10 0.415289 0.099611 0.951783
O O11 0.150440 0.986950 0.375360
O O12 0.500000 0.000000 0.000000
O O13 0.330716 0.250000 0.016162
O O14 0.114030 0.365599 0.227920
#
# Coordination Sequence:
#
# PCOD8069889 Si02
#       6
#     4   4   4   4   4   4
#     4  10  19  35  58  85 109 146 192 239 278 319
#     4  11  19  33  57  83 113 147 184 228 283 330
#     4  10  18  37  56  79 107 145 193 222 267 335
#     4  11  22  36  57  86 115 150 186 223 282 344
#     4  10  19  36  59  83 110 146 192 236 275 325
#     4  10  19  35  56  82 106 147 192 222 265 341
#
# _framework density 18.871200999999999
#
# number of rings (size 3 to 8) (size 9 to 14) (size 15 to 20)
#    0.000    1.667    5.000    4.000    0.000    0.000 
#    0.000   10.833    0.000    0.000    0.000    0.000 
#    0.000    0.000    0.000    0.000    0.000    0.000 
#
# Total GULP energy -297320.010490 kJ/mol
# GULP energy per Si atom -12388.333770 kJ/mol
# Density = 1.882825 g / cm^3
# Si number density = 18.871201 Si / 1000 Ang^3
#
#
#
# Elastic Constant Matrix: (Units=GPa)
#
#
# Indices 1 2 3 4 5 6 
#
# 1 134.7818 70.4858 1.1819 0.0000 12.2341 0.0000
# 2 70.4858 125.4131 29.9001 0.0000 2.3272 0.0000
# 3 1.1819 29.9001 55.1349 0.0000 12.2261 0.0000
# 4 0.0000 0.0000 0.0000 19.7352 0.0000 4.6372
# 5 12.2341 2.3272 12.2261 0.0000 30.9194 0.0000
# 6 0.0000 0.0000 0.0000 4.6372 0.0000 21.2328
#
#
#
# Elastic Compliance Matrix: (Units=1/GPa)
#
#
# Indices 1 2 3 4 5 6 
#
# 1 0.012143 -0.008018 0.005502 0.000000 -0.006377 0.000000
# 2 -0.008018 0.014508 -0.008941 0.000000 0.005616 0.000000
# 3 0.005502 -0.008941 0.025432 0.000000 -0.011560 0.000000
# 4 0.000000 0.000000 0.000000 0.053412 0.000000 -0.011665
# 5 -0.006377 0.005616 -0.011560 0.000000 0.039014 0.000000
# 6 0.000000 0.000000 0.000000 -0.011665 0.000000 0.049645
#
#
# Mechanical properties :
#
#
# Convention : Reuss Voigt Hill
#
# Bulk Modulus (GPa) = 34.28406 57.60726 45.94566
# Shear Modulus (GPa) = 22.04683 28.62828 25.33756
#
# Velocity S-wave (km/s) = 3.42172 3.89914 3.66820
# Velocity P-wave (km/s) = 5.81530 7.13189 6.50698
#
# Compressibility (1/GPa) = 0.02916807
#
# Stress axis : x y z
#
# Youngs Moduli (GPa) = 82.35019 68.92922 39.32102
#
# Poissons Ratio (x) = 0.55270 -0.21635
# Poissons Ratio (y) = 0.66031 0.35157
# Poissons Ratio (z) = -0.45310 0.61630
#
# Static dielectric constant tensor:
#      x y z
#    x 4.006630 0.000000 0.364960 
#    y 0.000000 3.568330 0.000000 
#    z 0.364960 0.000000 3.541190 
# 
# 
# High freq. dielectric constant tensor:
#      x y z
#    x 1.743480 0.000000 0.019110 
#    y 0.000000 1.701300 0.000000 
#    z 0.019110 0.000000 1.730290 
# 
# From -- ./inp_files/13197.got.cif
#   From: 2010.06.25/outbox.cif.g09.slc.cpg/sg11_7_cif.got.tgz:13197.got - 2010.06.27 23:14:04.
