data_PCOD8069869
_publ_section_title
;
Structure prediction by ZEFSAII (Michael W. Deem and Ramdas Pophale) SiO2 
 PCOD8069869
Probable space group: P 21/M
;
_chemical_formula_sum "Si O2"
_cell_formula_units_Z 28
_cell_length_a 9.459962
_cell_length_b 25.627365
_cell_length_c 11.386848
_cell_angle_alpha 90.000000
_cell_angle_beta 29.199459
_cell_angle_gamma 90.000000
_cell_volume 1346.742111
_symmetry_space_group_name_H-M "P 21/M"
_symmetry_group_IT_number 11
_symmetry_cell_setting 'monoclinic'
loop_
_space_group_symop_operation_xyz
x,y,z
-x,1/2+y,-z
-x,-y,-z
x,1/2-y,z
loop_
_atom_site_type_symbol
_atom_site_label
_atom_site_fract_x
_atom_site_fract_y
_atom_site_fract_z
Si Si1 0.324687 0.575112 0.093549
Si Si2 0.251612 0.865368 0.922452
Si Si3 0.310777 0.309253 0.572791
Si Si4 0.270918 0.889600 0.370182
Si Si5 0.914817 0.897724 0.956248
Si Si6 0.183840 0.809699 0.621820
Si Si7 0.916083 0.969405 0.748634
O O1 0.249935 0.619934 0.244789
O O2 0.066099 0.532530 0.260517
O O3 0.410231 0.600872 0.907916
O O4 0.585618 0.546312 0.968630
O O5 0.507548 0.836364 0.665230
O O6 0.076343 0.904249 0.963299
O O7 0.010569 0.830949 0.166829
O O8 0.274319 0.250000 0.558601
O O9 0.488610 0.313034 0.565961
O O10 0.143100 0.838167 0.525629
O O11 0.099038 0.944020 0.511526
O O12 0.573122 0.901422 0.214838
O O13 0.032895 0.943390 0.785087
O O14 0.977055 0.839212 0.863272
O O15 0.079762 0.750000 0.684738
#
# Coordination Sequence:
#
# PCOD8069869 Si02
#       7
#     4   4   4   4   4   4   4
#     4  10  22  36  59  83 117 156 200 242 300 364
#     4  11  22  38  62  93 119 156 197 254 301 350
#     4  10  21  39  62  87 120 158 198 240 302 366
#     4  10  18  36  58  82 113 150 194 248 285 361
#     4   9  19  35  56  84 118 145 197 248 291 352
#     4   9  18  33  58  84 111 150 195 244 294 350
#     4   9  20  39  58  82 113 162 200 237 301 357
#
# _framework density 20.790914000000001
#
# number of rings (size 3 to 8) (size 9 to 14) (size 15 to 20)
#    0.000    2.286    1.429    0.857    2.000    1.714 
#    0.000    2.143    0.000    0.857    0.000    0.000 
#    0.000    0.000    0.000    0.000    0.000    0.000 
#
# Total GULP energy -346895.033094 kJ/mol
# GULP energy per Si atom -12389.108325 kJ/mol
# Density = 2.074359 g / cm^3
# Si number density = 20.790914 Si / 1000 Ang^3
#
#
#
# Elastic Constant Matrix: (Units=GPa)
#
#
# Indices 1 2 3 4 5 6 
#
# 1 104.5077 32.7985 5.6232 0.0000 35.6779 0.0000
# 2 32.7985 67.5750 4.1031 0.0000 15.1483 0.0000
# 3 5.6232 4.1031 68.0840 0.0000 17.6823 0.0000
# 4 0.0000 0.0000 0.0000 25.2468 0.0000 0.0990
# 5 35.6779 15.1483 17.6823 0.0000 26.1917 0.0000
# 6 0.0000 0.0000 0.0000 0.0990 0.0000 16.0401
#
#
#
# Elastic Compliance Matrix: (Units=1/GPa)
#
#
# Indices 1 2 3 4 5 6 
#
# 1 0.020805 -0.003632 0.006446 0.000000 -0.030592 0.000000
# 2 -0.003632 0.017832 0.000751 0.000000 -0.005873 0.000000
# 3 0.006446 0.000751 0.020012 0.000000 -0.022724 0.000000
# 4 0.000000 0.000000 0.000000 0.039610 0.000000 -0.000244
# 5 -0.030592 -0.005873 -0.022724 0.000000 0.098590 0.000000
# 6 0.000000 0.000000 0.000000 -0.000244 0.000000 0.062345
#
#
# Mechanical properties :
#
#
# Convention : Reuss Voigt Hill
#
# Bulk Modulus (GPa) = 15.20262 36.13515 25.66888
# Shear Modulus (GPa) = 18.24873 26.67184 22.46028
#
# Velocity S-wave (km/s) = 2.96586 3.58559 3.29035
# Velocity P-wave (km/s) = 4.36537 5.87877 5.17766
#
# Compressibility (1/GPa) = 0.06577813
#
# Stress axis : x y z
#
# Youngs Moduli (GPa) = 48.06460 56.07868 49.96997
#
# Poissons Ratio (x) = 0.20367 -0.32208
# Poissons Ratio (y) = 0.17456 -0.03751
# Poissons Ratio (z) = -0.30980 -0.04209
#
# Static dielectric constant tensor:
#      x y z
#    x 3.789110 0.000000 0.146770 
#    y 0.000000 3.783600 0.000000 
#    z 0.146770 0.000000 3.686530 
# 
# 
# High freq. dielectric constant tensor:
#      x y z
#    x 1.805950 0.000000 0.014800 
#    y 0.000000 1.796610 0.000000 
#    z 0.014800 0.000000 1.811000 
# 
# From -- ./inp_files/33128.got.cif
#   From: 2010.06.25/outbox.cif.g09.slc.cpg/sg11_17_cif.got.tgz:33128.got - 2010.06.27 23:14:04.
