data_PCOD8069002
_publ_section_title
;
Structure prediction by ZEFSAII (Michael W. Deem and Ramdas Pophale) SiO2 
 PCOD8069002
Probable space group: P 21/M
;
_chemical_formula_sum "Si O2"
_cell_formula_units_Z 28
_cell_length_a 9.188733
_cell_length_b 13.093522
_cell_length_c 15.158788
_cell_angle_alpha 90.000000
_cell_angle_beta 96.070490
_cell_angle_gamma 90.000000
_cell_volume 1813.570541
_symmetry_space_group_name_H-M "P 21/M"
_symmetry_group_IT_number 11
_symmetry_cell_setting 'monoclinic'
loop_
_space_group_symop_operation_xyz
x,y,z
-x,1/2+y,-z
-x,-y,-z
x,1/2-y,z
loop_
_atom_site_type_symbol
_atom_site_label
_atom_site_fract_x
_atom_site_fract_y
_atom_site_fract_z
Si Si1 0.137772 0.633392 0.526382
Si Si2 0.889353 0.011120 0.212890
Si Si3 0.659494 0.367653 0.297751
Si Si4 0.127491 0.060337 0.106605
Si Si5 0.035489 0.365993 0.921161
Si Si6 0.899875 0.972634 0.618665
Si Si7 0.323125 0.129689 0.267051
O O1 0.136284 0.750000 0.495427
O O2 0.269060 0.611852 0.602804
O O3 0.166069 0.565236 0.442179
O O4 0.981366 0.608261 0.560677
O O5 0.736716 0.063712 0.227737
O O6 0.988421 0.090029 0.160600
O O7 0.982624 0.981363 0.305324
O O8 0.863222 0.907932 0.153334
O O9 0.679262 0.250000 0.271200
O O10 0.491249 0.399501 0.292340
O O11 0.275548 0.081555 0.169968
O O12 0.127117 0.127324 0.017929
O O13 0.109676 0.938721 0.081630
O O14 0.988088 0.250000 0.899871
O O15 0.766066 0.917078 0.657622
O O16 0.296350 0.250000 0.263057
#
# Coordination Sequence:
#
# PCOD8069002 Si02
#       7
#     4   4   4   4   4   4   4
#     4   9  17  30  46  66  91 117 150 190 228 268
#     4   8  16  30  44  69  89 116 152 185 221 262
#     4   9  18  30  46  66  92 122 151 185 226 267
#     4   8  17  30  47  73  88 117 151 188 222 263
#     4   9  16  29  49  70  93 117 147 187 229 266
#     4   9  17  29  46  68  88 115 152 189 228 262
#     4  10  18  30  47  67  91 121 152 186 225 266
#
# _framework density 15.439157
#
# number of rings (size 3 to 8) (size 9 to 14) (size 15 to 20)
#    0.857    2.286    0.000    0.857    0.000    5.143 
#    0.000    0.714    0.000    1.714    0.000    0.000 
#    0.000    0.000    0.000    0.000    0.000    0.000 
#
# Total GULP energy -346976.610372 kJ/mol
# GULP energy per Si atom -12392.021799 kJ/mol
# Density = 1.540402 g / cm^3
# Si number density = 15.439157 Si / 1000 Ang^3
#
#
#
# Elastic Constant Matrix: (Units=GPa)
#
#
# Indices 1 2 3 4 5 6 
#
# 1 92.9819 45.6077 39.9974 0.0000 7.4645 0.0000
# 2 45.6077 96.3337 48.6864 0.0000 5.3553 0.0000
# 3 39.9974 48.6864 89.2971 0.0000 5.4750 0.0000
# 4 0.0000 0.0000 0.0000 24.1117 0.0000 -2.1461
# 5 7.4645 5.3553 5.4750 0.0000 15.3120 0.0000
# 6 0.0000 0.0000 0.0000 -2.1461 0.0000 19.9648
#
#
#
# Elastic Compliance Matrix: (Units=1/GPa)
#
#
# Indices 1 2 3 4 5 6 
#
# 1 0.015206 -0.005040 -0.003800 0.000000 -0.004291 0.000000
# 2 -0.005040 0.016077 -0.006455 0.000000 -0.000858 0.000000
# 3 -0.003800 -0.006455 0.016531 0.000000 -0.001801 0.000000
# 4 0.000000 0.000000 0.000000 0.041874 0.000000 0.004501
# 5 -0.004291 -0.000858 -0.001801 0.000000 0.068344 0.000000
# 6 0.000000 0.000000 0.000000 0.004501 0.000000 0.050572
#
#
# Mechanical properties :
#
#
# Convention : Reuss Voigt Hill
#
# Bulk Modulus (GPa) = 58.06234 60.79950 59.43092
# Shear Modulus (GPa) = 20.41355 21.49912 20.95633
#
# Velocity S-wave (km/s) = 3.64014 3.73568 3.68822
# Velocity P-wave (km/s) = 7.44019 7.62054 7.53090
#
# Compressibility (1/GPa) = 0.01722287
#
# Stress axis : x y z
#
# Youngs Moduli (GPa) = 65.76347 62.20124 60.49402
#
# Poissons Ratio (x) = 0.31349 0.22987
# Poissons Ratio (y) = 0.33145 0.39051
# Poissons Ratio (z) = 0.24990 0.40153
#
# Static dielectric constant tensor:
#      x y z
#    x 2.724390 0.000000 0.037740 
#    y 0.000000 2.824580 0.000000 
#    z 0.037740 0.000000 3.037400 
# 
# 
# High freq. dielectric constant tensor:
#      x y z
#    x 1.562710 0.000000 0.004970 
#    y 0.000000 1.579830 0.000000 
#    z 0.004970 0.000000 1.601510 
# 
# From -- ./inp_files/47356.got.cif
#   From: 2010.06.25/outbox.cif.g09.slc.cpg/sg11_24_cif.got.tgz:47356.got - 2010.06.27 23:14:04.
