data_PCOD8069826
_publ_section_title
;
Structure prediction by ZEFSAII (Michael W. Deem and Ramdas Pophale) SiO2 
 PCOD8069826
Probable space group: P 21/M
;
_chemical_formula_sum "Si O2"
_cell_formula_units_Z 32
_cell_length_a 9.281544
_cell_length_b 14.246950
_cell_length_c 28.468598
_cell_angle_alpha 90.000000
_cell_angle_beta 152.615780
_cell_angle_gamma 90.000000
_cell_volume 1731.505158
_symmetry_space_group_name_H-M "P 21/M"
_symmetry_group_IT_number 11
_symmetry_cell_setting 'monoclinic'
loop_
_space_group_symop_operation_xyz
x,y,z
-x,1/2+y,-z
-x,-y,-z
x,1/2-y,z
loop_
_atom_site_type_symbol
_atom_site_label
_atom_site_fract_x
_atom_site_fract_y
_atom_site_fract_z
Si Si1 0.976038 0.943668 0.220193
Si Si2 0.783585 0.145120 0.804164
Si Si3 0.638352 0.071471 0.911515
Si Si4 0.722532 0.962315 0.285322
Si Si5 0.963091 0.854484 0.626601
Si Si6 0.139484 0.648584 0.783623
Si Si7 0.154426 0.380815 0.001964
Si Si8 0.740135 0.141410 0.609391
O O1 0.642745 0.892065 0.136482
O O2 0.076663 0.912169 0.198360
O O3 0.229618 0.912257 0.332115
O O4 0.941222 0.057662 0.208242
O O5 0.687435 0.250000 0.760376
O O6 0.476859 0.091254 0.733260
O O7 0.050956 0.154664 0.921110
O O8 0.469899 0.021562 0.818236
O O9 0.837184 0.994061 0.997433
O O10 0.883337 0.148865 0.962104
O O11 0.030914 0.901422 0.363573
O O12 0.818527 0.065116 0.333251
O O13 0.074096 0.750000 0.643040
O O14 0.609554 0.872856 0.509291
O O15 0.977967 0.866091 0.686828
O O16 0.021237 0.750000 0.770342
O O17 0.514688 0.660921 0.887326
O O18 0.827652 0.250000 0.641844
#
# Coordination Sequence:
#
# PCOD8069826 Si02
#       8
#     4   4   4   4   4   4   4   4
#     4  10  20  36  53  78 110 146 175 225 262 313
#     4  11  23  35  52  78 111 148 181 214 263 322
#     4   8  16  30  54  81 101 135 181 217 268 310
#     4  10  18  35  54  82 109 135 174 225 270 310
#     4  10  19  33  58  86 106 133 177 225 271 318
#     4  10  19  33  55  83 107 136 180 224 270 315
#     4   9  16  32  54  78 108 137 176 220 268 311
#     4  10  19  33  58  82 107 138 177 222 267 317
#
# _framework density 18.481030000000001
#
# number of rings (size 3 to 8) (size 9 to 14) (size 15 to 20)
#    0.000    2.250    3.750    1.500    0.000    2.000 
#    0.000    3.125    0.000    0.000    0.000    0.000 
#    0.000    0.000    0.000    0.000    0.000    0.000 
#
# Total GULP energy -396489.426593 kJ/mol
# GULP energy per Si atom -12390.294581 kJ/mol
# Density = 1.843897 g / cm^3
# Si number density = 18.481030 Si / 1000 Ang^3
#
#
#
# Elastic Constant Matrix: (Units=GPa)
#
#
# Indices 1 2 3 4 5 6 
#
# 1 99.7902 50.1112 22.9690 0.0000 0.4887 0.0000
# 2 50.1112 142.2667 37.5584 0.0000 7.4465 0.0000
# 3 22.9690 37.5584 71.9210 0.0001 7.0054 0.0000
# 4 0.0000 0.0000 0.0001 954.1580 0.0000 -344.1194
# 5 0.4887 7.4465 7.0054 0.0000 14.2092 0.0000
# 6 0.0000 0.0000 0.0000 -344.1194 0.0000 145.5205
#
#
#
# Elastic Compliance Matrix: (Units=1/GPa)
#
#
# Indices 1 2 3 4 5 6 
#
# 1 0.012505 -0.003970 -0.002186 0.000000 0.002728 0.000000
# 2 -0.003970 0.009485 -0.003376 0.000000 -0.003169 0.000000
# 3 -0.002186 -0.003376 0.017002 0.000000 -0.006538 0.000000
# 4 0.000000 0.000000 0.000000 0.007122 0.000000 0.016843
# 5 0.002728 -0.003169 -0.006538 0.000000 0.075168 0.000000
# 6 0.000000 0.000000 0.000000 0.016843 0.000000 0.046701
#
#
# Mechanical properties :
#
#
# Convention : Reuss Voigt Hill
#
# Bulk Modulus (GPa) = 50.18473 59.47279 54.82876
# Shear Modulus (GPa) = 25.81452 236.33349 131.07400
#
# Velocity S-wave (km/s) = 3.74145 11.32063 8.43075
# Velocity P-wave (km/s) = 6.77335 14.25222 11.15805
#
# Compressibility (1/GPa) = 0.01992638
#
# Stress axis : x y z
#
# Youngs Moduli (GPa) = 79.97109 105.43212 58.81560
#
# Poissons Ratio (x) = 0.41859 0.12857
# Poissons Ratio (y) = 0.31750 0.19859
# Poissons Ratio (z) = 0.17481 0.35599
#
# Static dielectric constant tensor:
#      x y z
#    x 3.120550 0.000000 0.176130 
#    y 0.000000 3.678490 0.000000 
#    z 0.176130 0.000000 3.452810 
# 
# 
# High freq. dielectric constant tensor:
#      x y z
#    x 1.673930 0.000000 0.011420 
#    y 0.000000 1.728480 0.000000 
#    z 0.011420 0.000000 1.720400 
# 
# From -- ./inp_files/71121.got.cif
#   From: 2010.06.25/outbox.cif.g09.slc.cpg/sg11_36_cif.got.tgz:71121.got - 2010.06.27 23:14:04.
