data_PCOD8069976
_publ_section_title
;
Structure prediction by ZEFSAII (Michael W. Deem and Ramdas Pophale) SiO2 
 PCOD8069976
Probable space group: P 21/M
;
_chemical_formula_sum "Si O2"
_cell_formula_units_Z 32
_cell_length_a 22.485708
_cell_length_b 17.974735
_cell_length_c 25.337095
_cell_angle_alpha 90.000000
_cell_angle_beta 10.517375
_cell_angle_gamma 90.000000
_cell_volume 1869.256572
_symmetry_space_group_name_H-M "P 21/M"
_symmetry_group_IT_number 11
_symmetry_cell_setting 'monoclinic'
loop_
_space_group_symop_operation_xyz
x,y,z
-x,1/2+y,-z
-x,-y,-z
x,1/2-y,z
loop_
_atom_site_type_symbol
_atom_site_label
_atom_site_fract_x
_atom_site_fract_y
_atom_site_fract_z
Si Si1 0.481987 0.987065 0.845340
Si Si2 0.912904 0.081341 0.891421
Si Si3 0.578411 0.831103 0.614376
Si Si4 0.810468 0.533168 0.793020
Si Si5 0.387645 0.077220 0.574937
Si Si6 0.426953 0.881181 0.048700
Si Si7 0.281972 0.167034 0.312020
Si Si8 0.104179 0.667391 0.930520
O O1 0.555507 0.900255 0.796325
O O2 0.236686 0.989242 0.008865
O O3 0.799938 0.032646 0.551050
O O4 0.305937 0.032638 0.045041
O O5 0.097597 0.127319 0.685373
O O6 0.148343 0.060099 0.734475
O O7 0.600029 0.127310 0.182921
O O8 0.680007 0.750000 0.546645
O O9 0.340686 0.823070 0.772883
O O10 0.668951 0.606428 0.887370
O O11 0.673473 0.461183 0.884349
O O12 0.708409 0.122949 0.278723
O O13 0.500000 0.000000 0.500000
O O14 0.214156 0.122899 0.772997
O O15 0.613358 0.837112 0.840329
O O16 0.108762 0.837112 0.344927
O O17 0.383983 0.250000 0.244016
O O18 0.004793 0.750000 0.996793
#
# Coordination Sequence:
#
# PCOD8069976 Si02
#       8
#     4   4   4   4   4   4   4   4
#     4  10  19  30  43  63  89 119 151 185 219 262
#     4  10  19  30  43  63  92 123 154 189 225 268
#     4   9  17  28  42  59  83 121 159 183 209 254
#     4   9  17  30  47  62  80 110 150 186 215 245
#     4  10  19  31  48  70  98 128 159 203 250 282
#     4   9  17  30  46  62  83 113 145 180 214 248
#     4  10  19  29  42  64  93 118 142 173 215 265
#     4   9  17  30  47  67  92 122 158 195 232 284
#
# _framework density 17.119105999999999
#
# number of rings (size 3 to 8) (size 9 to 14) (size 15 to 20)
#    0.000    2.500    0.000    3.000    0.000    7.000 
#    0.000    0.000    0.000    0.000    0.000    0.000 
#    0.000   20.000    0.000    0.000    0.000    0.000 
#
# Total GULP energy -396633.411254 kJ/mol
# GULP energy per Si atom -12394.794102 kJ/mol
# Density = 1.708014 g / cm^3
# Si number density = 17.119106 Si / 1000 Ang^3
#
#
#
# Elastic Constant Matrix: (Units=GPa)
#
#
# Indices 1 2 3 4 5 6 
#
# 1 59.2803 25.8679 50.4135 0.0000 8.5061 0.0000
# 2 25.8679 56.5322 30.2734 0.0000 3.1196 0.0000
# 3 50.4135 30.2734 121.2807 0.0000 36.2814 0.0000
# 4 0.0000 0.0000 0.0000 28.6473 0.0000 3.5863
# 5 8.5061 3.1196 36.2814 0.0000 30.3948 0.0000
# 6 0.0000 0.0000 0.0000 3.5863 0.0000 23.6018
#
#
#
# Elastic Compliance Matrix: (Units=1/GPa)
#
#
# Indices 1 2 3 4 5 6 
#
# 1 0.029930 -0.007161 -0.013015 0.000000 0.007895 0.000000
# 2 -0.007161 0.022912 -0.004104 0.000000 0.004551 0.000000
# 3 -0.013015 -0.004104 0.020943 0.000000 -0.020935 0.000000
# 4 0.000000 0.000000 0.000000 0.035584 0.000000 -0.005407
# 5 0.007895 0.004551 -0.020935 0.000000 0.055214 0.000000
# 6 0.000000 0.000000 0.000000 -0.005407 0.000000 0.043191
#
#
# Mechanical properties :
#
#
# Convention : Reuss Voigt Hill
#
# Bulk Modulus (GPa) = 39.64531 50.02252 44.83392
# Shear Modulus (GPa) = 18.88625 25.23134 22.05880
#
# Velocity S-wave (km/s) = 3.32509 3.84327 3.59353
# Velocity P-wave (km/s) = 6.16039 6.99843 6.59274
#
# Compressibility (1/GPa) = 0.02522366
#
# Stress axis : x y z
#
# Youngs Moduli (GPa) = 33.41179 43.64451 47.74901
#
# Poissons Ratio (x) = 0.31254 0.62147
# Poissons Ratio (y) = 0.23926 0.19597
# Poissons Ratio (z) = 0.43487 0.17913
#
# Static dielectric constant tensor:
#      x y z
#    x 2.578620 0.000000 -0.672570 
#    y 0.000000 3.040130 0.000000 
#    z -0.672570 0.000000 1.656150 
# 
# 
# High freq. dielectric constant tensor:
#      x y z
#    x 1.641020 0.000000 0.024920 
#    y 0.000000 1.624790 0.000000 
#    z 0.024920 0.000000 1.675460 
# 
# From -- ./inp_files/67701.got.cif
#   From: 2010.06.25/outbox.cif.g09.slc.cpg/sg11_34_cif.got.tgz:67701.got - 2010.06.27 23:14:04.
