data_PCOD8069300
_publ_section_title
;
Structure prediction by ZEFSAII (Michael W. Deem and Ramdas Pophale) SiO2 
 PCOD8069300
Probable space group: P 21/M
;
_chemical_formula_sum "Si O2"
_cell_formula_units_Z 32
_cell_length_a 13.316300
_cell_length_b 9.661403
_cell_length_c 27.744654
_cell_angle_alpha 90.000000
_cell_angle_beta 28.179682
_cell_angle_gamma 90.000000
_cell_volume 1685.637586
_symmetry_space_group_name_H-M "P 21/M"
_symmetry_group_IT_number 11
_symmetry_cell_setting 'monoclinic'
loop_
_space_group_symop_operation_xyz
x,y,z
-x,1/2+y,-z
-x,-y,-z
x,1/2-y,z
loop_
_atom_site_type_symbol
_atom_site_label
_atom_site_fract_x
_atom_site_fract_y
_atom_site_fract_z
Si Si1 0.111814 0.412255 0.559343
Si Si2 0.355020 0.411996 0.922011
Si Si3 0.339328 0.584207 0.290051
Si Si4 0.701236 0.591214 0.420891
Si Si5 0.062214 0.588416 0.851481
Si Si6 0.564319 0.094435 0.929230
Si Si7 0.994811 0.401593 0.791216
Si Si8 0.546674 0.586308 0.665425
O O1 0.086090 0.250000 0.570576
O O2 0.157659 0.466345 0.594088
O O3 0.309965 0.454205 0.441228
O O4 0.884290 0.469554 0.637502
O O5 0.396391 0.250000 0.904228
O O6 0.463747 0.468057 0.827135
O O7 0.482483 0.472792 0.914072
O O8 0.101733 0.446200 0.034825
O O9 0.343364 0.750000 0.296958
O O10 0.362553 0.504197 0.329914
O O11 0.500000 0.500000 0.500000
O O12 0.640657 0.750000 0.457549
O O13 0.796939 0.572720 0.327570
O O14 0.058908 0.750000 0.841339
O O15 0.968400 0.514977 0.843837
O O16 0.301301 0.539387 0.761383
O O17 0.470905 0.250000 0.974926
O O18 0.818266 0.095164 0.823772
O O19 0.500000 0.000000 0.000000
O O20 0.996659 0.250000 0.815601
O O21 0.559709 0.750000 0.671590
#
# Coordination Sequence:
#
# PCOD8069300 Si02
#       8
#     4   4   4   4   4   4   4   4
#     4   9  18  35  57  77 101 137 176 212 258 318
#     4   9  18  33  53  77 104 137 176 210 249 312
#     4  10  20  36  58  78  98 133 179 220 261 309
#     4  10  20  35  54  79 110 143 177 213 256 311
#     4  10  20  35  54  75 105 144 177 208 258 324
#     4  10  18  31  51  76 105 137 172 211 252 300
#     4  10  20  32  51  80 110 137 174 222 261 297
#     4  10  21  36  54  77 103 132 171 220 271 315
#
# _framework density 18.983913999999999
#
# number of rings (size 3 to 8) (size 9 to 14) (size 15 to 20)
#    0.000    2.250    1.250    1.875    0.000    5.500 
#    0.000    2.500    0.000    1.500    0.000    0.000 
#    0.000    0.000    0.000    0.000    0.000    0.000 
#
# Total GULP energy -396537.968151 kJ/mol
# GULP energy per Si atom -12391.811505 kJ/mol
# Density = 1.894071 g / cm^3
# Si number density = 18.983914 Si / 1000 Ang^3
#
#
#
# Elastic Constant Matrix: (Units=GPa)
#
#
# Indices 1 2 3 4 5 6 
#
# 1 76.8646 18.8982 23.8020 0.0000 -0.5087 0.0000
# 2 18.8982 37.2012 21.3444 0.0000 4.6151 0.0000
# 3 23.8020 21.3444 103.9567 0.0000 -11.4785 0.0000
# 4 0.0000 0.0000 0.0000 16.1784 0.0000 2.1641
# 5 -0.5087 4.6151 -11.4785 0.0000 30.6307 0.0000
# 6 0.0000 0.0000 0.0000 2.1641 0.0000 30.8026
#
#
#
# Elastic Compliance Matrix: (Units=1/GPa)
#
#
# Indices 1 2 3 4 5 6 
#
# 1 0.015289 -0.006627 -0.002088 0.000000 0.000470 0.000000
# 2 -0.006627 0.034961 -0.006525 0.000000 -0.007823 0.000000
# 3 -0.002088 -0.006525 0.012040 0.000000 0.005460 0.000000
# 4 0.000000 0.000000 0.000000 0.062397 0.000000 -0.004384
# 5 0.000470 -0.007823 0.005460 0.000000 0.035880 0.000000
# 6 0.000000 0.000000 0.000000 -0.004384 0.000000 0.032773
#
#
# Mechanical properties :
#
#
# Convention : Reuss Voigt Hill
#
# Bulk Modulus (GPa) = 31.43580 38.45685 34.94633
# Shear Modulus (GPa) = 21.32895 25.78754 23.55824
#
# Velocity S-wave (km/s) = 3.35554 3.68963 3.52655
# Velocity P-wave (km/s) = 5.62210 6.20103 5.91865
#
# Compressibility (1/GPa) = 0.03181086
#
# Stress axis : x y z
#
# Youngs Moduli (GPa) = 65.40683 28.60289 83.05645
#
# Poissons Ratio (x) = 0.18955 0.17342
# Poissons Ratio (y) = 0.43346 0.54192
# Poissons Ratio (z) = 0.13657 0.18663
#
# Static dielectric constant tensor:
#      x y z
#    x 3.733040 0.000000 -0.047380 
#    y 0.000000 3.174170 0.000000 
#    z -0.047380 0.000000 3.858720 
# 
# 
# High freq. dielectric constant tensor:
#      x y z
#    x 1.735450 0.000000 -0.006440 
#    y 0.000000 1.704470 0.000000 
#    z -0.006440 0.000000 1.755190 
# 
# From -- ./inp_files/68594.got.cif
#   From: 2010.06.25/outbox.cif.g09.slc.cpg/sg11_35_cif.got.tgz:68594.got - 2010.06.27 23:14:04.
