data_PCOD8069535
_publ_section_title
;
Structure prediction by ZEFSAII (Michael W. Deem and Ramdas Pophale) SiO2 
 PCOD8069535
Probable space group: P 21/M
;
_chemical_formula_sum "Si O2"
_cell_formula_units_Z 28
_cell_length_a 9.628510
_cell_length_b 8.705992
_cell_length_c 28.488987
_cell_angle_alpha 90.000000
_cell_angle_beta 38.772778
_cell_angle_gamma 90.000000
_cell_volume 1495.514505
_symmetry_space_group_name_H-M "P 21/M"
_symmetry_group_IT_number 11
_symmetry_cell_setting 'monoclinic'
loop_
_space_group_symop_operation_xyz
x,y,z
-x,1/2+y,-z
-x,-y,-z
x,1/2-y,z
loop_
_atom_site_type_symbol
_atom_site_label
_atom_site_fract_x
_atom_site_fract_y
_atom_site_fract_z
Si Si1 0.313979 0.929215 0.200632
Si Si2 0.938650 0.429429 0.240691
Si Si3 0.195811 0.926233 0.558598
Si Si4 0.290926 0.426513 0.305862
Si Si5 0.261693 0.430657 0.795565
Si Si6 0.368525 0.426710 0.604891
Si Si7 0.192065 0.072692 0.919311
O O1 0.279821 0.750000 0.221421
O O2 0.570094 0.960981 0.119253
O O3 0.249634 0.028154 0.262797
O O4 0.157376 0.979836 0.199393
O O5 0.986822 0.250000 0.230697
O O6 0.893063 0.478222 0.199439
O O7 0.724572 0.470304 0.328489
O O8 0.226594 0.750000 0.567669
O O9 0.369193 0.961777 0.470938
O O10 0.945455 0.952533 0.605767
O O11 0.241256 0.037642 0.590239
O O12 0.366831 0.250000 0.288691
O O13 0.478481 0.529959 0.281015
O O14 0.229206 0.250000 0.797185
O O15 0.194340 0.489142 0.865235
O O16 0.324920 0.250000 0.629564
O O17 0.139836 0.250000 0.931065
O O18 0.000000 0.000000 0.000000
#
# Coordination Sequence:
#
# PCOD8069535 Si02
#       7
#     4   4   4   4   4   4   4
#     4  10  20  35  56  83 111 146 184 221 266 323
#     4  12  23  36  54  81 111 144 187 233 277 326
#     4   9  18  31  49  77 108 140 186 233 275 321
#     4  10  18  32  54  81 109 140 184 234 272 319
#     4  10  22  39  57  80 111 147 182 221 272 330
#     4  10  19  31  50  75 108 147 182 228 281 328
#     4   9  20  38  62  88 113 139 175 216 262 321
#
# _framework density 18.722653000000001
#
# number of rings (size 3 to 8) (size 9 to 14) (size 15 to 20)
#    0.000    2.000    1.429    3.857    0.000    4.571 
#    0.000    1.429    0.000    0.000    0.000    0.000 
#    0.000    0.000    0.000    0.000    0.000    0.000 
#
# Total GULP energy -347194.682848 kJ/mol
# GULP energy per Si atom -12399.810102 kJ/mol
# Density = 1.868004 g / cm^3
# Si number density = 18.722653 Si / 1000 Ang^3
#
#
#
# Elastic Constant Matrix: (Units=GPa)
#
#
# Indices 1 2 3 4 5 6 
#
# 1 94.5964 13.5844 39.7843 0.0000 -4.5818 0.0000
# 2 13.5844 58.8355 29.1666 0.0000 -0.9685 0.0000
# 3 39.7843 29.1666 104.8897 0.0000 -12.0115 0.0000
# 4 0.0000 0.0000 0.0000 31.3048 0.0000 -1.4512
# 5 -4.5818 -0.9685 -12.0115 0.0000 21.1425 0.0000
# 6 0.0000 0.0000 0.0000 -1.4512 0.0000 31.5586
#
#
#
# Elastic Compliance Matrix: (Units=1/GPa)
#
#
# Indices 1 2 3 4 5 6 
#
# 1 0.012598 -0.000631 -0.004592 0.000000 0.000092 0.000000
# 2 -0.000631 0.019857 -0.005555 0.000000 -0.002383 0.000000
# 3 -0.004592 -0.005555 0.013560 0.000000 0.006454 0.000000
# 4 0.000000 0.000000 0.000000 0.032012 0.000000 0.001472
# 5 0.000092 -0.002383 0.006454 0.000000 0.050875 0.000000
# 6 0.000000 0.000000 0.000000 0.001472 0.000000 0.031755
#
#
# Mechanical properties :
#
#
# Convention : Reuss Voigt Hill
#
# Bulk Modulus (GPa) = 40.88717 47.04357 43.96537
# Shear Modulus (GPa) = 26.26529 28.52027 27.39278
#
# Velocity S-wave (km/s) = 3.74954 3.90719 3.82918
# Velocity P-wave (km/s) = 6.37426 6.74803 6.56381
#
# Compressibility (1/GPa) = 0.02445755
#
# Stress axis : x y z
#
# Youngs Moduli (GPa) = 79.37991 50.36045 73.74902
#
# Poissons Ratio (x) = 0.03175 0.33868
# Poissons Ratio (y) = 0.05005 0.40970
# Poissons Ratio (z) = 0.36454 0.27977
#
# Static dielectric constant tensor:
#      x y z
#    x 3.532400 0.000000 0.874400 
#    y 0.000000 3.485770 0.000000 
#    z 0.874400 0.000000 8.336200 
# 
# 
# High freq. dielectric constant tensor:
#      x y z
#    x 1.709030 0.000000 -0.020050 
#    y 0.000000 1.736050 0.000000 
#    z -0.020050 0.000000 1.716900 
# 
# From -- ./inp_files/28139.got.cif
#   From: 2010.06.25/outbox.cif.g09.slc.cpg/sg11_15_cif.got.tgz:28139.got - 2010.06.27 23:14:04.
