data_PCOD8069236
_publ_section_title
;
Structure prediction by ZEFSAII (Michael W. Deem and Ramdas Pophale) SiO2 
 PCOD8069236
Probable space group: P 21/M
;
_chemical_formula_sum "Si O2"
_cell_formula_units_Z 28
_cell_length_a 16.939121
_cell_length_b 9.146281
_cell_length_c 12.577055
_cell_angle_alpha 90.000000
_cell_angle_beta 120.599890
_cell_angle_gamma 90.000000
_cell_volume 1677.211657
_symmetry_space_group_name_H-M "P 21/M"
_symmetry_group_IT_number 11
_symmetry_cell_setting 'monoclinic'
loop_
_space_group_symop_operation_xyz
x,y,z
-x,1/2+y,-z
-x,-y,-z
x,1/2-y,z
loop_
_atom_site_type_symbol
_atom_site_label
_atom_site_fract_x
_atom_site_fract_y
_atom_site_fract_z
Si Si1 0.908746 0.080507 0.671302
Si Si2 0.202363 0.580523 0.608275
Si Si3 0.887999 0.921045 0.259772
Si Si4 0.910841 0.575808 0.891302
Si Si5 0.393429 0.920115 0.825312
Si Si6 0.405001 0.078801 0.051936
Si Si7 0.778832 0.922225 0.982324
O O1 0.905641 0.250000 0.704407
O O2 0.830080 0.041283 0.532432
O O3 0.005826 0.042424 0.685387
O O4 0.890112 0.978808 0.759220
O O5 0.185393 0.750000 0.620698
O O6 0.143083 0.494156 0.652849
O O7 0.310613 0.540140 0.688948
O O8 0.870439 0.750000 0.259990
O O9 0.831457 0.987274 0.121269
O O10 0.924420 0.750000 0.901624
O O11 0.824886 0.523416 0.904845
O O12 0.000000 0.500000 0.000000
O O13 0.393748 0.750000 0.853999
O O14 0.491870 0.965217 0.840501
O O15 0.377680 0.004710 0.923213
O O16 0.397937 0.250000 0.025990
O O17 0.328967 0.031310 0.087600
O O18 0.790665 0.750000 0.995731
#
# Coordination Sequence:
#
# PCOD8069236 Si02
#       7
#     4   4   4   4   4   4   4
#     4  10  21  36  49  66  98 134 164 196 235 279
#     4  10  20  32  47  71 102 129 157 197 239 282
#     4  10  18  31  49  69  97 130 161 190 230 288
#     4  11  21  35  53  72  95 124 164 204 238 279
#     4   9  17  28  45  71  97 121 154 191 233 283
#     4   9  16  29  48  68  93 125 154 188 236 284
#     4   9  17  30  49  71  95 123 155 194 237 280
#
# _framework density 16.694375000000001
#
# number of rings (size 3 to 8) (size 9 to 14) (size 15 to 20)
#    0.000    2.286    2.857    0.857    0.000    1.143 
#    0.000    1.429    0.000    0.857    0.000    0.000 
#    0.000    0.000    0.000    0.000    0.000    0.143 
#
# Total GULP energy -347086.665647 kJ/mol
# GULP energy per Si atom -12395.952345 kJ/mol
# Density = 1.665638 g / cm^3
# Si number density = 16.694375 Si / 1000 Ang^3
#
#
#
# Elastic Constant Matrix: (Units=GPa)
#
#
# Indices 1 2 3 4 5 6 
#
# 1 152.9286 44.3914 77.8412 0.0000 5.3254 0.0000
# 2 44.3914 40.6241 37.7509 0.0000 -3.2077 0.0000
# 3 77.8412 37.7509 114.1738 0.0000 4.0965 0.0000
# 4 0.0000 0.0000 0.0000 24.6877 0.0000 -4.5979
# 5 5.3254 -3.2077 4.0965 0.0000 25.8174 0.0000
# 6 0.0000 0.0000 0.0000 -4.5979 0.0000 18.6472
#
#
#
# Elastic Compliance Matrix: (Units=1/GPa)
#
#
# Indices 1 2 3 4 5 6 
#
# 1 0.011593 -0.008104 -0.005132 0.000000 -0.002584 0.000000
# 2 -0.008104 0.042252 -0.008744 0.000000 0.008309 0.000000
# 3 -0.005132 -0.008744 0.015236 0.000000 -0.002445 0.000000
# 4 0.000000 0.000000 0.000000 0.042456 0.000000 0.010469
# 5 -0.002584 0.008309 -0.002445 0.000000 0.040687 0.000000
# 6 0.000000 0.000000 0.000000 0.010469 0.000000 0.056209
#
#
# Mechanical properties :
#
#
# Convention : Reuss Voigt Hill
#
# Bulk Modulus (GPa) = 39.80352 69.74374 54.77363
# Shear Modulus (GPa) = 19.17420 23.67998 21.42709
#
# Velocity S-wave (km/s) = 3.39269 3.77031 3.58647
# Velocity P-wave (km/s) = 6.26429 7.79879 7.07328
#
# Compressibility (1/GPa) = 0.02512340
#
# Stress axis : x y z
#
# Youngs Moduli (GPa) = 86.25524 23.66725 65.63246
#
# Poissons Ratio (x) = 0.19179 0.33683
# Poissons Ratio (y) = 0.69897 0.57388
# Poissons Ratio (z) = 0.44267 0.20694
#
# Static dielectric constant tensor:
#      x y z
#    x 3.550710 0.000000 0.129790 
#    y 0.000000 3.102120 0.000000 
#    z 0.129790 0.000000 3.153770 
# 
# 
# High freq. dielectric constant tensor:
#      x y z
#    x 1.650790 0.000000 0.011580 
#    y 0.000000 1.631090 0.000000 
#    z 0.011580 0.000000 1.624500 
# 
# From -- ./inp_files/37660.got.cif
#   From: 2010.06.25/outbox.cif.g09.slc.cpg/sg11_19_cif.got.tgz:37660.got - 2010.06.27 23:14:04.
