data_PCOD8069457
_publ_section_title
;
Structure prediction by ZEFSAII (Michael W. Deem and Ramdas Pophale) SiO2 
 PCOD8069457
Probable space group: P 21/M
;
_chemical_formula_sum "Si O2"
_cell_formula_units_Z 28
_cell_length_a 15.228620
_cell_length_b 9.018399
_cell_length_c 12.090323
_cell_angle_alpha 90.000000
_cell_angle_beta 119.726554
_cell_angle_gamma 90.000000
_cell_volume 1441.944727
_symmetry_space_group_name_H-M "P 21/M"
_symmetry_group_IT_number 11
_symmetry_cell_setting 'monoclinic'
loop_
_space_group_symop_operation_xyz
x,y,z
-x,1/2+y,-z
-x,-y,-z
x,1/2-y,z
loop_
_atom_site_type_symbol
_atom_site_label
_atom_site_fract_x
_atom_site_fract_y
_atom_site_fract_z
Si Si1 0.986863 0.426691 0.112317
Si Si2 0.177055 0.075089 0.365992
Si Si3 0.389473 0.425531 0.921297
Si Si4 0.498989 0.423574 0.616632
Si Si5 0.209989 0.083910 0.966506
Si Si6 0.687914 0.573926 0.360327
Si Si7 0.312349 0.084992 0.251161
O O1 0.990318 0.250000 0.099327
O O2 0.072743 0.488440 0.251023
O O3 0.883619 0.473649 0.110669
O O4 0.000000 0.500000 0.000000
O O5 0.164931 0.250000 0.361268
O O6 0.210273 0.017037 0.510288
O O7 0.268447 0.031391 0.341030
O O8 0.409201 0.250000 0.928895
O O9 0.326563 0.482509 0.774022
O O10 0.500000 0.500000 0.000000
O O11 0.314695 0.470346 0.974885
O O12 0.500000 0.500000 0.500000
O O13 0.491282 0.250000 0.597680
O O14 0.408522 0.486346 0.633573
O O15 0.603419 0.470892 0.740188
O O16 0.183800 0.250000 0.906641
O O17 0.222883 0.087114 0.106558
O O18 0.689800 0.750000 0.362234
O O19 0.359269 0.250000 0.292629
#
# Coordination Sequence:
#
# PCOD8069457 Si02
#       7
#     4   4   4   4   4   4   4
#     4  11  21  35  58  85 113 148 187 233 281 332
#     4   9  17  32  53  76 106 142 177 218 273 330
#     4  10  21  38  61  83 109 147 188 230 274 328
#     4  11  20  30  48  76 107 139 178 222 273 333
#     4  10  21  37  56  81 113 148 184 227 283 335
#     4   9  18  34  54  75 104 144 184 221 269 331
#     4  10  18  32  51  73 107 143 174 217 273 329
#
# _framework density 19.418220999999999
#
# number of rings (size 3 to 8) (size 9 to 14) (size 15 to 20)
#    0.000    2.000    2.857    1.714    0.000    1.143 
#    0.000    1.429    0.000    0.000    0.000    0.000 
#    0.000    0.000    0.000    0.000    0.000    0.000 
#
# Total GULP energy -346895.724958 kJ/mol
# GULP energy per Si atom -12389.133034 kJ/mol
# Density = 1.937402 g / cm^3
# Si number density = 19.418221 Si / 1000 Ang^3
#
#
#
# Elastic Constant Matrix: (Units=GPa)
#
#
# Indices 1 2 3 4 5 6 
#
# 1 71.0203 27.7617 41.5298 0.0000 13.4555 0.0000
# 2 27.7617 46.7286 22.5031 0.0000 6.8446 0.0000
# 3 41.5298 22.5031 139.6328 0.0000 12.4651 0.0000
# 4 0.0000 0.0000 0.0000 22.2386 0.0000 6.0629
# 5 13.4555 6.8446 12.4651 0.0000 34.0548 0.0000
# 6 0.0000 0.0000 0.0000 6.0629 0.0000 29.4308
#
#
#
# Elastic Compliance Matrix: (Units=1/GPa)
#
#
# Indices 1 2 3 4 5 6 
#
# 1 0.021419 -0.009922 -0.004336 0.000000 -0.004882 0.000000
# 2 -0.009922 0.028186 -0.001484 0.000000 -0.001201 0.000000
# 3 -0.004336 -0.001484 0.008798 0.000000 -0.001209 0.000000
# 4 0.000000 0.000000 0.000000 0.047643 0.000000 -0.009815
# 5 -0.004882 -0.001201 -0.001209 0.000000 0.031977 0.000000
# 6 0.000000 0.000000 0.000000 -0.009815 0.000000 0.036000
#
#
# Mechanical properties :
#
#
# Convention : Reuss Voigt Hill
#
# Bulk Modulus (GPa) = 37.14819 48.99676 43.07247
# Shear Modulus (GPa) = 23.31220 28.18401 25.74810
#
# Velocity S-wave (km/s) = 3.46863 3.81388 3.64535
# Velocity P-wave (km/s) = 5.93413 6.68442 6.32042
#
# Compressibility (1/GPa) = 0.02691921
#
# Stress axis : x y z
#
# Youngs Moduli (GPa) = 46.68682 35.47900 113.65877
#
# Poissons Ratio (x) = 0.35203 0.49279
# Poissons Ratio (y) = 0.46324 0.16867
# Poissons Ratio (z) = 0.20242 0.05265
#
# Static dielectric constant tensor:
#      x y z
#    x 3.937940 0.000000 0.503040 
#    y 0.000000 3.475560 0.000000 
#    z 0.503040 0.000000 4.320160 
# 
# 
# High freq. dielectric constant tensor:
#      x y z
#    x 1.744240 0.000000 0.010500 
#    y 0.000000 1.718880 0.000000 
#    z 0.010500 0.000000 1.769210 
# 
# From -- ./inp_files/38487.got.cif
#   From: 2010.06.25/outbox.cif.g09.slc.cpg/sg11_20_cif.got.tgz:38487.got - 2010.06.27 23:14:04.
