data_PCOD8069499
_publ_section_title
;
Structure prediction by ZEFSAII (Michael W. Deem and Ramdas Pophale) SiO2 
 PCOD8069499
Probable space group: P 21/M
;
_chemical_formula_sum "Si O2"
_cell_formula_units_Z 32
_cell_length_a 12.493984
_cell_length_b 8.482697
_cell_length_c 33.224835
_cell_angle_alpha 90.000000
_cell_angle_beta 29.327389
_cell_angle_gamma 90.000000
_cell_volume 1724.709144
_symmetry_space_group_name_H-M "P 21/M"
_symmetry_group_IT_number 11
_symmetry_cell_setting 'monoclinic'
loop_
_space_group_symop_operation_xyz
x,y,z
-x,1/2+y,-z
-x,-y,-z
x,1/2-y,z
loop_
_atom_site_type_symbol
_atom_site_label
_atom_site_fract_x
_atom_site_fract_y
_atom_site_fract_z
Si Si1 0.318627 0.934776 0.646603
Si Si2 0.545328 0.933219 0.815810
Si Si3 0.143269 0.563702 0.789804
Si Si4 0.994945 0.567053 0.317871
Si Si5 0.207713 0.434635 0.986486
Si Si6 0.265803 0.935658 0.836174
Si Si7 0.340063 0.564840 0.518705
Si Si8 0.303611 0.564991 0.038902
O O1 0.348069 0.750000 0.633365
O O2 0.270832 0.987604 0.707884
O O3 0.552979 0.013270 0.558670
O O4 0.120509 0.983217 0.682115
O O5 0.610140 0.750000 0.795341
O O6 0.476370 0.990243 0.793162
O O7 0.747848 0.033140 0.765917
O O8 0.334061 0.962396 0.912343
O O9 0.092593 0.750000 0.806614
O O10 0.285798 0.514370 0.782625
O O11 0.918033 0.468793 0.864035
O O12 0.951017 0.750000 0.326826
O O13 0.896387 0.509111 0.393277
O O14 0.223868 0.250000 0.970556
O O15 0.315799 0.465534 0.994117
O O16 0.958959 0.500587 0.070376
O O17 0.246075 0.750000 0.845535
O O18 0.500000 0.500000 0.500000
O O19 0.317576 0.750000 0.528036
O O20 0.327493 0.750000 0.022306
O O21 0.500000 0.500000 0.000000
#
# Coordination Sequence:
#
# PCOD8069499 Si02
#       8
#     4   4   4   4   4   4   4   4
#     4  10  19  33  56  82 109 138 171 210 257 318
#     4  11  21  34  54  79 106 137 176 220 268 314
#     4   9  19  36  56  78 104 136 176 216 258 311
#     4  11  22  35  51  76 110 141 174 214 262 311
#     4  10  20  36  54  75 102 136 179 220 264 313
#     4   8  17  35  56  76 102 137 177 221 264 309
#     4  10  18  32  53  77 107 138 171 209 257 314
#     4  11  22  35  51  72 104 141 176 216 264 311
#
# _framework density 18.553853
#
# number of rings (size 3 to 8) (size 9 to 14) (size 15 to 20)
#    0.000    2.000    0.000    7.125    1.750    1.000 
#    0.000    5.625    0.000    0.750    0.000    0.000 
#    0.000    0.000    0.000    0.000    0.000    0.000 
#
# Total GULP energy -396688.574106 kJ/mol
# GULP energy per Si atom -12396.517941 kJ/mol
# Density = 1.851162 g / cm^3
# Si number density = 18.553853 Si / 1000 Ang^3
#
#
#
# Elastic Constant Matrix: (Units=GPa)
#
#
# Indices 1 2 3 4 5 6 
#
# 1 67.3262 -1.3564 39.2190 0.0000 7.8670 0.0000
# 2 -1.3564 52.5142 13.5641 0.0000 1.7195 0.0000
# 3 39.2190 13.5641 88.1786 0.0000 22.0515 0.0000
# 4 0.0000 0.0000 0.0000 31.5742 0.0000 1.3902
# 5 7.8670 1.7195 22.0515 0.0000 22.6515 0.0000
# 6 0.0000 0.0000 0.0000 1.3902 0.0000 15.3517
#
#
#
# Elastic Compliance Matrix: (Units=1/GPa)
#
#
# Indices 1 2 3 4 5 6 
#
# 1 0.020610 0.003108 -0.010304 0.000000 0.002637 0.000000
# 2 0.003108 0.020363 -0.005100 0.000000 0.002339 0.000000
# 3 -0.010304 -0.005100 0.020774 0.000000 -0.016258 0.000000
# 4 0.000000 0.000000 0.000000 0.031798 0.000000 -0.002880
# 5 0.002637 0.002339 -0.016258 0.000000 0.058881 0.000000
# 6 0.000000 0.000000 0.000000 -0.002880 0.000000 0.065400
#
#
# Mechanical properties :
#
#
# Convention : Reuss Voigt Hill
#
# Bulk Modulus (GPa) = 26.91467 34.54138 30.72802
# Shear Modulus (GPa) = 19.62294 24.35494 21.98894
#
# Velocity S-wave (km/s) = 3.25564 3.62700 3.44632
# Velocity P-wave (km/s) = 5.35443 6.01643 5.69506
#
# Compressibility (1/GPa) = 0.03715446
#
# Stress axis : x y z
#
# Youngs Moduli (GPa) = 48.52025 49.10784 48.13762
#
# Poissons Ratio (x) = -0.15260 0.49602
# Poissons Ratio (y) = -0.15078 0.24548
# Poissons Ratio (z) = 0.49996 0.25043
#
# Static dielectric constant tensor:
#      x y z
#    x 3.477820 0.000000 0.129820 
#    y 0.000000 3.381210 0.000000 
#    z 0.129820 0.000000 3.731060 
# 
# 
# High freq. dielectric constant tensor:
#      x y z
#    x 1.704480 0.000000 0.009630 
#    y 0.000000 1.721720 0.000000 
#    z 0.009630 0.000000 1.714630 
# 
# From -- ./inp_files/73088.got.cif
#   From: 2010.06.25/outbox.cif.g09.slc.cpg/sg11_37_cif.got.tgz:73088.got - 2010.06.27 23:14:04.
