data_PCOD8069704
_publ_section_title
;
Structure prediction by ZEFSAII (Michael W. Deem and Ramdas Pophale) SiO2 
 PCOD8069704
Probable space group: P 21/M
;
_chemical_formula_sum "Si O2"
_cell_formula_units_Z 32
_cell_length_a 12.793788
_cell_length_b 9.015659
_cell_length_c 31.132073
_cell_angle_alpha 90.000000
_cell_angle_beta 152.149999
_cell_angle_gamma 90.000000
_cell_volume 1677.524411
_symmetry_space_group_name_H-M "P 21/M"
_symmetry_group_IT_number 11
_symmetry_cell_setting 'monoclinic'
loop_
_space_group_symop_operation_xyz
x,y,z
-x,1/2+y,-z
-x,-y,-z
x,1/2-y,z
loop_
_atom_site_type_symbol
_atom_site_label
_atom_site_fract_x
_atom_site_fract_y
_atom_site_fract_z
Si Si1 0.579974 0.083030 0.655422
Si Si2 0.439100 0.424369 0.216536
Si Si3 0.761309 0.425124 0.411771
Si Si4 0.850235 0.926018 0.210631
Si Si5 0.044803 0.574929 0.930980
Si Si6 0.957741 0.075035 0.165478
Si Si7 0.664495 0.413275 0.589830
Si Si8 0.464844 0.574204 0.136106
O O1 0.604141 0.250000 0.683383
O O2 0.545189 0.093566 0.592181
O O3 0.366050 0.998233 0.595044
O O4 0.791388 0.983807 0.743508
O O5 0.421209 0.250000 0.202149
O O6 0.631016 0.463080 0.320475
O O7 0.510826 0.500633 0.198393
O O8 0.200630 0.490219 0.146569
O O9 0.782465 0.250000 0.426287
O O10 0.000000 0.500000 0.500000
O O11 0.859510 0.750000 0.206848
O O12 0.656611 0.976037 0.172535
O O13 0.087181 0.984799 0.315694
O O14 0.809257 0.997804 0.148637
O O15 0.026067 0.750000 0.926903
O O16 0.131418 0.532986 0.914556
O O17 0.227528 0.516142 0.031370
O O18 0.957357 0.250000 0.173368
O O19 0.500000 0.500000 0.500000
O O20 0.692761 0.250000 0.580266
O O21 0.466999 0.750000 0.142364
#
# Coordination Sequence:
#
# PCOD8069704 Si02
#       8
#     4   4   4   4   4   4   4   4
#     4  10  20  36  56  81 112 144 183 233 282 334
#     4  10  21  39  58  80 116 150 187 239 286 333
#     4  11  23  39  59  85 115 149 187 235 289 338
#     4   9  20  37  52  77 115 146 181 236 289 334
#     4   9  18  35  58  84 113 147 188 237 289 339
#     4  10  18  33  58  83 109 147 189 230 281 339
#     4   9  19  34  53  77 105 139 182 228 276 332
#     4  10  21  37  58  82 114 154 191 233 288 347
#
# _framework density 19.075728999999999
#
# number of rings (size 3 to 8) (size 9 to 14) (size 15 to 20)
#    0.000    2.250    1.250    2.250    0.000    5.500 
#    0.000    3.750    0.000    0.000    0.000    0.000 
#    0.000    0.000    0.000    0.000    0.000    0.000 
#
# Total GULP energy -396722.951852 kJ/mol
# GULP energy per Si atom -12397.592245 kJ/mol
# Density = 1.903231 g / cm^3
# Si number density = 19.075729 Si / 1000 Ang^3
#
#
#
# Elastic Constant Matrix: (Units=GPa)
#
#
# Indices 1 2 3 4 5 6 
#
# 1 132.8858 43.4111 63.8250 0.0000 12.9265 0.0000
# 2 43.4111 55.5218 31.1025 0.0000 -1.1564 0.0000
# 3 63.8250 31.1025 107.2256 0.0000 1.9611 0.0000
# 4 0.0000 0.0000 0.0000 23.4712 0.0000 -1.4527
# 5 12.9265 -1.1564 1.9611 0.0000 28.4405 0.0000
# 6 0.0000 0.0000 0.0000 -1.4527 0.0000 36.2251
#
#
#
# Elastic Compliance Matrix: (Units=1/GPa)
#
#
# Indices 1 2 3 4 5 6 
#
# 1 0.013177 -0.007274 -0.005626 0.000000 -0.005897 0.000000
# 2 -0.007274 0.025570 -0.003170 0.000000 0.004565 0.000000
# 3 -0.005626 -0.003170 0.013567 0.000000 0.001493 0.000000
# 4 0.000000 0.000000 0.000000 0.042711 0.000000 0.001713
# 5 -0.005897 0.004565 0.001493 0.000000 0.037924 0.000000
# 6 0.000000 0.000000 0.000000 0.001713 0.000000 0.027674
#
#
# Mechanical properties :
#
#
# Convention : Reuss Voigt Hill
#
# Bulk Modulus (GPa) = 49.57097 63.59005 56.58051
# Shear Modulus (GPa) = 25.06402 28.11365 26.58883
#
# Velocity S-wave (km/s) = 3.62874 3.84316 3.73749
# Velocity P-wave (km/s) = 6.60302 7.28705 6.95345
#
# Compressibility (1/GPa) = 0.02017310
#
# Stress axis : x y z
#
# Youngs Moduli (GPa) = 75.88768 39.10877 73.70751
#
# Poissons Ratio (x) = 0.28449 0.41466
# Poissons Ratio (y) = 0.55204 0.23368
# Poissons Ratio (z) = 0.42693 0.12399
#
# Static dielectric constant tensor:
#      x y z
#    x 3.661300 0.000000 -0.009770 
#    y 0.000000 3.436610 0.000000 
#    z -0.009770 0.000000 3.508220 
# 
# 
# High freq. dielectric constant tensor:
#      x y z
#    x 1.749460 0.000000 -0.001470 
#    y 0.000000 1.729860 0.000000 
#    z -0.001470 0.000000 1.738940 
# 
# From -- ./inp_files/54248.got.cif
#   From: 2010.06.25/outbox.cif.g09.slc.cpg/sg11_28_cif.got.tgz:54248.got - 2010.06.27 23:14:04.
