data_PCOD8069259
_publ_section_title
;
Structure prediction by ZEFSAII (Michael W. Deem and Ramdas Pophale) SiO2 
 PCOD8069259
Probable space group: P 21/M
;
_chemical_formula_sum "Si O2"
_cell_formula_units_Z 28
_cell_length_a 20.149207
_cell_length_b 8.898163
_cell_length_c 18.001356
_cell_angle_alpha 90.000000
_cell_angle_beta 28.642587
_cell_angle_gamma 90.000000
_cell_volume 1547.074109
_symmetry_space_group_name_H-M "P 21/M"
_symmetry_group_IT_number 11
_symmetry_cell_setting 'monoclinic'
loop_
_space_group_symop_operation_xyz
x,y,z
-x,1/2+y,-z
-x,-y,-z
x,1/2-y,z
loop_
_atom_site_type_symbol
_atom_site_label
_atom_site_fract_x
_atom_site_fract_y
_atom_site_fract_z
Si Si1 0.802067 0.925007 0.054959
Si Si2 0.359526 0.916223 0.053585
Si Si3 0.855817 0.573611 0.161911
Si Si4 0.316654 0.415688 0.235587
Si Si5 0.292377 0.071004 0.423235
Si Si6 0.112873 0.571339 0.723319
Si Si7 0.412669 0.428507 0.853811
O O1 0.810971 0.750000 0.030109
O O2 0.954932 0.988296 0.885207
O O3 0.760429 0.955318 0.182423
O O4 0.684449 0.992105 0.117009
O O5 0.303157 0.750000 0.089659
O O6 0.273858 0.978124 0.208866
O O7 0.518896 0.907328 0.918635
O O8 0.339747 0.025152 0.002697
O O9 0.873538 0.750000 0.159641
O O10 0.799647 0.492494 0.291597
O O11 0.000000 0.500000 0.000000
O O12 0.257698 0.250000 0.276526
O O13 0.257296 0.475453 0.372498
O O14 0.296689 0.250000 0.427829
O O15 0.173071 0.997928 0.589359
O O16 0.440331 0.006783 0.302322
O O17 0.126203 0.750000 0.709213
O O18 0.432788 0.250000 0.832180
#
# Coordination Sequence:
#
# PCOD8069259 Si02
#       7
#     4   4   4   4   4   4   4
#     4   8  17  32  51  73  96 123 159 198 234 280
#     4   9  16  26  42  67  95 121 155 197 235 275
#     4   9  16  30  50  72  96 123 159 201 238 277
#     4   8  15  27  43  63  90 123 157 192 233 279
#     4  10  20  33  48  72 101 126 157 199 241 282
#     4  10  19  33  52  74  97 125 161 198 239 286
#     4  10  18  31  50  71  97 129 159 192 238 285
#
# _framework density 18.098680999999999
#
# number of rings (size 3 to 8) (size 9 to 14) (size 15 to 20)
#    0.000    2.857    0.000    3.857    0.000    4.000 
#    0.000    9.286    0.000    0.857    0.000    0.000 
#    0.000    0.000    0.000    0.000    0.000    0.000 
#
# Total GULP energy -346972.861032 kJ/mol
# GULP energy per Si atom -12391.887894 kJ/mol
# Density = 1.805749 g / cm^3
# Si number density = 18.098681 Si / 1000 Ang^3
#
#
#
# Elastic Constant Matrix: (Units=GPa)
#
#
# Indices 1 2 3 4 5 6 
#
# 1 22.9102 4.8461 -5.0254 0.0000 1.1793 0.0000
# 2 4.8461 74.4601 14.6104 0.0000 5.0738 0.0000
# 3 -5.0254 14.6104 59.6634 0.0000 17.4896 0.0000
# 4 0.0000 0.0000 0.0000 27.4969 0.0000 9.8813
# 5 1.1793 5.0738 17.4896 0.0000 22.1149 0.0000
# 6 0.0000 0.0000 0.0000 9.8813 0.0000 22.7971
#
#
#
# Elastic Compliance Matrix: (Units=1/GPa)
#
#
# Indices 1 2 3 4 5 6 
#
# 1 0.046355 -0.003895 0.006927 0.000000 -0.007056 0.000000
# 2 -0.003895 0.014443 -0.003846 0.000000 -0.000064 0.000000
# 3 0.006927 -0.003846 0.023609 0.000000 -0.018158 0.000000
# 4 0.000000 0.000000 0.000000 0.043078 0.000000 -0.018672
# 5 -0.007056 -0.000064 -0.018158 0.000000 0.059970 0.000000
# 6 0.000000 0.000000 0.000000 -0.018672 0.000000 0.051959
#
#
# Mechanical properties :
#
#
# Convention : Reuss Voigt Hill
#
# Bulk Modulus (GPa) = 12.08054 20.65507 16.36781
# Shear Modulus (GPa) = 18.61268 23.98861 21.30065
#
# Velocity S-wave (km/s) = 3.21035 3.64460 3.43434
# Velocity P-wave (km/s) = 4.52008 5.39890 4.97891
#
# Compressibility (1/GPa) = 0.08277772
#
# Stress axis : x y z
#
# Youngs Moduli (GPa) = 21.57253 69.23983 42.35719
#
# Poissons Ratio (x) = 0.26971 -0.29340
# Poissons Ratio (y) = 0.08403 0.16290
# Poissons Ratio (z) = -0.14943 0.26629
#
# Static dielectric constant tensor:
#      x y z
#    x 3.602160 0.000000 0.435410 
#    y 0.000000 3.459330 0.000000 
#    z 0.435410 0.000000 3.259660 
# 
# 
# High freq. dielectric constant tensor:
#      x y z
#    x 1.687940 0.000000 0.039390 
#    y 0.000000 1.703480 0.000000 
#    z 0.039390 0.000000 1.673830 
# 
# From -- ./inp_files/42215.got.cif
#   From: 2010.06.25/outbox.cif.g09.slc.cpg/sg11_22_cif.got.tgz:42215.got - 2010.06.27 23:14:04.
