data_PCOD8069375
_publ_section_title
;
Structure prediction by ZEFSAII (Michael W. Deem and Ramdas Pophale) SiO2 
 PCOD8069375
Probable space group: P 21/M
;
_chemical_formula_sum "Si O2"
_cell_formula_units_Z 32
_cell_length_a 12.275853
_cell_length_b 8.743681
_cell_length_c 20.069566
_cell_angle_alpha 90.000000
_cell_angle_beta 124.660225
_cell_angle_gamma 90.000000
_cell_volume 1771.905208
_symmetry_space_group_name_H-M "P 21/M"
_symmetry_group_IT_number 11
_symmetry_cell_setting 'monoclinic'
loop_
_space_group_symop_operation_xyz
x,y,z
-x,1/2+y,-z
-x,-y,-z
x,1/2-y,z
loop_
_atom_site_type_symbol
_atom_site_label
_atom_site_fract_x
_atom_site_fract_y
_atom_site_fract_z
Si Si1 0.860820 0.930338 0.318465
Si Si2 0.848159 0.429271 0.547828
Si Si3 0.928012 0.425879 0.209920
Si Si4 0.686116 0.431248 0.367207
Si Si5 0.206300 0.929334 0.324880
Si Si6 0.191615 0.925771 0.113674
Si Si7 0.385781 0.070470 0.280144
Si Si8 0.073880 0.574995 0.937299
O O1 0.851665 0.750000 0.321313
O O2 0.001880 0.993974 0.395163
O O3 0.847540 0.976178 0.236218
O O4 0.741790 0.004872 0.317562
O O5 0.857458 0.250000 0.540245
O O6 0.770643 0.502028 0.458296
O O7 0.768944 0.466446 0.588437
O O8 0.923773 0.250000 0.230658
O O9 0.862984 0.450152 0.114098
O O10 0.079496 0.478512 0.255359
O O11 0.695405 0.250000 0.369330
O O12 0.535577 0.485509 0.322119
O O13 0.179421 0.750000 0.305176
O O14 0.332075 0.982535 0.326319
O O15 0.225120 0.750000 0.141045
O O16 0.304838 0.029786 0.185412
O O17 0.185925 0.958360 0.032124
O O18 0.049426 0.962510 0.095937
O O19 0.377164 0.250000 0.290734
O O20 0.022781 0.750000 0.926916
#
# Coordination Sequence:
#
# PCOD8069375 Si02
#       8
#     4   4   4   4   4   4   4   4
#     4  10  20  34  54  79 104 128 167 218 261 302
#     4   8  17  34  54  76 101 128 165 217 263 305
#     4  10  18  31  53  78 106 134 164 205 254 308
#     4  10  21  37  54  71  98 139 179 212 255 305
#     4  10  19  32  51  76 104 134 169 210 259 305
#     4  10  19  31  50  75 105 138 167 206 253 298
#     4  11  22  34  49  72 105 142 176 209 248 307
#     4   9  18  31  50  78 106 132 167 206 250 305
#
# _framework density 18.059656
#
# number of rings (size 3 to 8) (size 9 to 14) (size 15 to 20)
#    0.000    2.250    1.250    3.000    0.000    2.500 
#    0.000    3.125    0.000    0.750    0.000    0.000 
#    0.000    0.000    0.000    0.000    0.000    0.000 
#
# Total GULP energy -396764.672548 kJ/mol
# GULP energy per Si atom -12398.896017 kJ/mol
# Density = 1.801855 g / cm^3
# Si number density = 18.059656 Si / 1000 Ang^3
#
#
#
# Elastic Constant Matrix: (Units=GPa)
#
#
# Indices 1 2 3 4 5 6 
#
# 1 115.6202 18.4530 41.3136 0.0000 -15.4874 0.0000
# 2 18.4530 28.6217 12.3166 0.0000 1.0726 0.0000
# 3 41.3136 12.3166 75.0953 0.0000 -21.2960 0.0000
# 4 0.0000 0.0000 0.0000 20.8797 0.0000 -2.8204
# 5 -15.4874 1.0726 -21.2960 0.0000 23.9840 0.0000
# 6 0.0000 0.0000 0.0000 -2.8204 0.0000 26.7319
#
#
#
# Elastic Compliance Matrix: (Units=1/GPa)
#
#
# Indices 1 2 3 4 5 6 
#
# 1 0.011652 -0.005788 -0.004349 0.000000 0.003921 0.000000
# 2 -0.005788 0.042183 -0.007123 0.000000 -0.011948 0.000000
# 3 -0.004349 -0.007123 0.021613 0.000000 0.016701 0.000000
# 4 0.000000 0.000000 0.000000 0.048586 0.000000 0.005126
# 5 0.003921 -0.011948 0.016701 0.000000 0.059590 0.000000
# 6 0.000000 0.000000 0.000000 0.005126 0.000000 0.037949
#
#
# Mechanical properties :
#
#
# Convention : Reuss Voigt Hill
#
# Bulk Modulus (GPa) = 24.43242 40.38931 32.41086
# Shear Modulus (GPa) = 18.53664 24.13607 21.33636
#
# Velocity S-wave (km/s) = 3.20724 3.65973 3.44093
# Velocity P-wave (km/s) = 5.22238 6.34595 5.81139
#
# Compressibility (1/GPa) = 0.04092923
#
# Stress axis : x y z
#
# Youngs Moduli (GPa) = 85.82205 23.70632 46.26738
#
# Poissons Ratio (x) = 0.13721 0.20122
# Poissons Ratio (y) = 0.49672 0.32955
# Poissons Ratio (z) = 0.37324 0.16885
#
# Static dielectric constant tensor:
#      x y z
#    x 3.183390 0.000000 -0.196770 
#    y 0.000000 3.257860 0.000000 
#    z -0.196770 0.000000 3.579090 
# 
# 
# High freq. dielectric constant tensor:
#      x y z
#    x 1.675530 0.000000 -0.025770 
#    y 0.000000 1.697890 0.000000 
#    z -0.025770 0.000000 1.699150 
# 
# From -- ./inp_files/64186.got.cif
#   From: 2010.06.25/outbox.cif.g09.slc.cpg/sg11_33_cif.got.tgz:64186.got - 2010.06.27 23:14:04.
