data_PCOD8069919
_publ_section_title
;
Structure prediction by ZEFSAII (Michael W. Deem and Ramdas Pophale) SiO2 
 PCOD8069919
Probable space group: P 21/M
;
_chemical_formula_sum "Si O2"
_cell_formula_units_Z 32
_cell_length_a 18.292578
_cell_length_b 9.528281
_cell_length_c 18.533207
_cell_angle_alpha 90.000000
_cell_angle_beta 43.260072
_cell_angle_gamma 90.000000
_cell_volume 2213.745869
_symmetry_space_group_name_H-M "P 21/M"
_symmetry_group_IT_number 11
_symmetry_cell_setting 'monoclinic'
loop_
_space_group_symop_operation_xyz
x,y,z
-x,1/2+y,-z
-x,-y,-z
x,1/2-y,z
loop_
_atom_site_type_symbol
_atom_site_label
_atom_site_fract_x
_atom_site_fract_y
_atom_site_fract_z
Si Si1 0.651512 0.095718 0.920983
Si Si2 0.091287 0.086552 0.027961
Si Si3 0.510230 0.586798 0.600176
Si Si4 0.887907 0.910571 0.153205
Si Si5 0.413209 0.405878 0.151596
Si Si6 0.265912 0.584274 0.985957
Si Si7 0.654614 0.911573 0.365727
Si Si8 0.505244 0.084167 0.228554
O O1 0.686332 0.250000 0.870369
O O2 0.724862 0.049033 0.935520
O O3 0.666743 0.995125 0.840997
O O4 0.529806 0.098553 0.033410
O O5 0.084376 0.250000 0.053949
O O6 0.169529 0.006894 0.025367
O O7 0.132532 0.065626 0.916914
O O8 0.975163 0.017460 0.120708
O O9 0.479540 0.750000 0.620483
O O10 0.406366 0.504217 0.648953
O O11 0.611908 0.553313 0.476795
O O12 0.538336 0.539522 0.661550
O O13 0.924534 0.750000 0.140847
O O14 0.779478 0.946099 0.273686
O O15 0.364128 0.250000 0.190961
O O16 0.426263 0.474644 0.222581
O O17 0.245510 0.750000 0.987716
O O18 0.373253 0.531892 0.868482
O O19 0.633008 0.750000 0.361272
O O20 0.506968 0.250000 0.215429
#
# Coordination Sequence:
#
# PCOD8069919 Si02
#       8
#     4   4   4   4   4   4   4   4
#     4   8  14  23  34  50  72  99 128 152 179 218
#     4  10  19  28  40  58  75  95 129 165 191 222
#     4   9  16  26  41  59  78 101 129 158 186 221
#     4   9  18  31  42  53  75 103 127 156 194 229
#     4   8  13  22  35  50  71  99 128 155 180 210
#     4   9  16  26  39  54  77 106 129 153 187 224
#     4   9  17  28  41  57  77 101 128 158 191 224
#     4   8  14  24  38  56  77 103 132 156 182 220
#
# _framework density 14.455137000000001
#
# number of rings (size 3 to 8) (size 9 to 14) (size 15 to 20)
#    0.000    3.250    0.000    2.625    0.000    1.500 
#    0.000    2.500    0.000    0.000    0.000    0.000 
#    0.000    1.000    0.000    2.000    0.000    2.625 
#
# Total GULP energy -396615.773931 kJ/mol
# GULP energy per Si atom -12394.242935 kJ/mol
# Density = 1.442224 g / cm^3
# Si number density = 14.455137 Si / 1000 Ang^3
#
#
#
# Elastic Constant Matrix: (Units=GPa)
#
#
# Indices 1 2 3 4 5 6 
#
# 1 107.8476 58.3812 48.2914 0.0000 15.6253 0.0000
# 2 58.3812 67.6836 34.4878 0.0000 5.9501 0.0000
# 3 48.2914 34.4878 68.1653 0.0000 8.8301 0.0000
# 4 0.0000 0.0000 0.0000 14.3216 0.0000 1.0593
# 5 15.6253 5.9501 8.8301 0.0000 22.0406 0.0000
# 6 0.0000 0.0000 0.0000 1.0593 0.0000 26.9357
#
#
#
# Elastic Compliance Matrix: (Units=1/GPa)
#
#
# Indices 1 2 3 4 5 6 
#
# 1 0.021126 -0.014027 -0.006772 0.000000 -0.008477 0.000000
# 2 -0.014027 0.029261 -0.005413 0.000000 0.004213 0.000000
# 3 -0.006772 -0.005413 0.022566 0.000000 -0.002779 0.000000
# 4 0.000000 0.000000 0.000000 0.070028 0.000000 -0.002754
# 5 -0.008477 0.004213 -0.002779 0.000000 0.051356 0.000000
# 6 0.000000 0.000000 0.000000 -0.002754 0.000000 0.037234
#
#
# Mechanical properties :
#
#
# Convention : Reuss Voigt Hill
#
# Bulk Modulus (GPa) = 48.70831 58.44637 53.57734
# Shear Modulus (GPa) = 17.19168 19.49531 18.34350
#
# Velocity S-wave (km/s) = 3.45238 3.67642 3.56616
# Velocity P-wave (km/s) = 7.04708 7.65128 7.35539
#
# Compressibility (1/GPa) = 0.02053038
#
# Stress axis : x y z
#
# Youngs Moduli (GPa) = 47.33574 34.17482 44.31372
#
# Poissons Ratio (x) = 0.47935 0.30008
# Poissons Ratio (y) = 0.66395 0.23989
# Poissons Ratio (z) = 0.32054 0.18500
#
# Static dielectric constant tensor:
#      x y z
#    x 2.819170 0.000000 0.232250 
#    y 0.000000 2.877590 0.000000 
#    z 0.232250 0.000000 2.695510 
# 
# 
# High freq. dielectric constant tensor:
#      x y z
#    x 1.542100 0.000000 0.018940 
#    y 0.000000 1.547990 0.000000 
#    z 0.018940 0.000000 1.519280 
# 
# From -- ./inp_files/60691.got.cif
#   From: 2010.06.25/outbox.cif.g09.slc.cpg/sg11_31_cif.got.tgz:60691.got - 2010.06.27 23:14:04.
