data_PCOD8069494
_publ_section_title
;
Structure prediction by ZEFSAII (Michael W. Deem and Ramdas Pophale) SiO2 
 PCOD8069494
Probable space group: P 21/M
;
_chemical_formula_sum "Si O2"
_cell_formula_units_Z 28
_cell_length_a 12.519594
_cell_length_b 8.884727
_cell_length_c 14.907599
_cell_angle_alpha 90.000000
_cell_angle_beta 105.090806
_cell_angle_gamma 90.000000
_cell_volume 1601.034903
_symmetry_space_group_name_H-M "P 21/M"
_symmetry_group_IT_number 11
_symmetry_cell_setting 'monoclinic'
loop_
_space_group_symop_operation_xyz
x,y,z
-x,1/2+y,-z
-x,-y,-z
x,1/2-y,z
loop_
_atom_site_type_symbol
_atom_site_label
_atom_site_fract_x
_atom_site_fract_y
_atom_site_fract_z
Si Si1 0.268166 0.072377 0.592054
Si Si2 0.904360 0.928411 0.298490
Si Si3 0.143641 0.922470 0.405006
Si Si4 0.846208 0.426342 0.916910
Si Si5 0.304134 0.921114 0.276127
Si Si6 0.491325 0.927128 0.595486
Si Si7 0.917307 0.572075 0.102081
O O1 0.288491 0.250000 0.597055
O O2 0.196814 0.018195 0.661817
O O3 0.205464 0.029574 0.487705
O O4 0.384613 0.988157 0.624156
O O5 0.913044 0.750000 0.295948
O O6 0.886654 0.991639 0.194032
O O7 0.019509 0.986094 0.366351
O O8 0.145584 0.750000 0.440400
O O9 0.202933 0.934129 0.322528
O O10 0.852349 0.250000 0.934296
O O11 0.742078 0.468271 0.831499
O O12 0.958805 0.482792 0.894082
O O13 0.831831 0.505639 0.010306
O O14 0.349663 0.750000 0.285551
O O15 0.401975 0.034090 0.322255
O O16 0.481072 0.750000 0.580224
O O17 0.500000 0.000000 0.500000
O O18 0.907466 0.750000 0.097986
#
# Coordination Sequence:
#
# PCOD8069494 Si02
#       7
#     4   4   4   4   4   4   4
#     4  11  22  35  52  76 106 140 180 217 255 308
#     4   9  18  33  53  77 107 144 177 209 257 313
#     4  10  18  32  53  76 106 142 174 209 257 309
#     4   9  17  30  50  78 107 136 167 207 259 308
#     4  10  19  33  55  78 106 139 171 210 261 310
#     4  12  24  38  55  75 102 135 177 221 262 304
#     4   9  16  30  51  75 105 139 171 205 250 307
#
# _framework density 17.488688
#
# number of rings (size 3 to 8) (size 9 to 14) (size 15 to 20)
#    0.000    2.000    2.857    2.143    0.000    0.571 
#    0.000    2.857    0.000    0.857    0.000    0.000 
#    0.000    0.000    0.000    0.000    0.000    0.000 
#
# Total GULP energy -347224.187269 kJ/mol
# GULP energy per Si atom -12400.863831 kJ/mol
# Density = 1.744888 g / cm^3
# Si number density = 17.488688 Si / 1000 Ang^3
#
#
#
# Elastic Constant Matrix: (Units=GPa)
#
#
# Indices 1 2 3 4 5 6 
#
# 1 99.9860 33.3795 32.6744 0.0000 9.1097 0.0000
# 2 33.3795 59.2920 24.4615 0.0000 7.4620 0.0000
# 3 32.6744 24.4615 90.4105 0.0000 11.9885 0.0000
# 4 0.0000 0.0000 0.0000 25.8331 0.0000 5.0426
# 5 9.1097 7.4620 11.9885 0.0000 19.9679 0.0000
# 6 0.0000 0.0000 0.0000 5.0426 0.0000 22.8982
#
#
#
# Elastic Compliance Matrix: (Units=1/GPa)
#
#
# Indices 1 2 3 4 5 6 
#
# 1 0.013105 -0.005942 -0.002858 0.000000 -0.002043 0.000000
# 2 -0.005942 0.022034 -0.003348 0.000000 -0.003513 0.000000
# 3 -0.002858 -0.003348 0.013756 0.000000 -0.005704 0.000000
# 4 0.000000 0.000000 0.000000 0.040449 0.000000 -0.008908
# 5 -0.002043 -0.003513 -0.005704 0.000000 0.055750 0.000000
# 6 0.000000 0.000000 0.000000 -0.008908 0.000000 0.045633
#
#
# Mechanical properties :
#
#
# Convention : Reuss Voigt Hill
#
# Bulk Modulus (GPa) = 40.65159 47.85771 44.25465
# Shear Modulus (GPa) = 22.39926 24.35138 23.37532
#
# Velocity S-wave (km/s) = 3.58269 3.73555 3.65992
# Velocity P-wave (km/s) = 6.35682 6.78455 6.57416
#
# Compressibility (1/GPa) = 0.02459928
#
# Stress axis : x y z
#
# Youngs Moduli (GPa) = 76.30714 45.38406 72.69708
#
# Poissons Ratio (x) = 0.26965 0.20775
# Poissons Ratio (y) = 0.45339 0.24342
# Poissons Ratio (z) = 0.21806 0.15197
#
# Static dielectric constant tensor:
#      x y z
#    x 3.299260 0.000000 -0.049660 
#    y 0.000000 3.113620 0.000000 
#    z -0.049660 0.000000 3.370430 
# 
# 
# High freq. dielectric constant tensor:
#      x y z
#    x 1.658700 0.000000 0.003680 
#    y 0.000000 1.661740 0.000000 
#    z 0.003680 0.000000 1.678740 
# 
# From -- ./inp_files/48925.got.cif
#   From: 2010.06.25/outbox.cif.g09.slc.cpg/sg11_25_cif.got.tgz:48925.got - 2010.06.27 23:14:04.
