data_PCOD8069484
_publ_section_title
;
Structure prediction by ZEFSAII (Michael W. Deem and Ramdas Pophale) SiO2 
 PCOD8069484
Probable space group: P 21/M
;
_chemical_formula_sum "Si O2"
_cell_formula_units_Z 28
_cell_length_a 12.653298
_cell_length_b 17.775959
_cell_length_c 9.748994
_cell_angle_alpha 90.000000
_cell_angle_beta 47.992803
_cell_angle_gamma 90.000000
_cell_volume 1629.374488
_symmetry_space_group_name_H-M "P 21/M"
_symmetry_group_IT_number 11
_symmetry_cell_setting 'monoclinic'
loop_
_space_group_symop_operation_xyz
x,y,z
-x,1/2+y,-z
-x,-y,-z
x,1/2-y,z
loop_
_atom_site_type_symbol
_atom_site_label
_atom_site_fract_x
_atom_site_fract_y
_atom_site_fract_z
Si Si1 0.168904 0.836126 0.826987
Si Si2 0.735070 0.163580 0.554598
Si Si3 0.178582 0.837204 0.225889
Si Si4 0.502601 0.058782 0.671027
Si Si5 0.374530 0.913110 0.854057
Si Si6 0.636860 0.585670 0.472633
Si Si7 0.931419 0.836127 0.239052
O O1 0.217599 0.750000 0.812650
O O2 0.173013 0.854664 0.661396
O O3 0.271521 0.892498 0.817637
O O4 0.009663 0.847038 0.024566
O O5 0.687712 0.250000 0.598433
O O6 0.832861 0.145262 0.602282
O O7 0.589198 0.116036 0.691940
O O8 0.206337 0.750000 0.170447
O O9 0.034414 0.861881 0.274312
O O10 0.314746 0.881951 0.048461
O O11 0.416154 0.108410 0.634072
O O12 0.392465 0.004545 0.849862
O O13 0.621632 0.005468 0.493080
O O14 0.530270 0.878331 0.680193
O O15 0.796188 0.610373 0.362867
O O16 0.882482 0.750000 0.300775
#
# Coordination Sequence:
#
# PCOD8069484 Si02
#       7
#     4   4   4   4   4   4   4
#     4   9  16  29  50  75  97 129 171 201 238 293
#     4  10  18  32  53  69  96 133 165 205 244 289
#     4   9  19  33  50  74  98 130 171 198 235 293
#     4   9  18  32  48  76 103 121 165 202 244 298
#     4   9  16  31  52  70 101 128 158 208 236 289
#     4   9  17  31  51  74 105 124 153 211 247 279
#     4   9  18  31  50  76 100 125 164 202 239 286
#
# _framework density 17.184508999999998
#
# number of rings (size 3 to 8) (size 9 to 14) (size 15 to 20)
#    0.857    2.000    1.429    1.286    0.000    2.286 
#    0.000    7.143    3.143    0.000    0.000    0.000 
#    0.000    0.000    0.000    0.000    0.000    0.000 
#
# Total GULP energy -346867.250892 kJ/mol
# GULP energy per Si atom -12388.116103 kJ/mol
# Density = 1.714540 g / cm^3
# Si number density = 17.184509 Si / 1000 Ang^3
#
#
#
# Elastic Constant Matrix: (Units=GPa)
#
#
# Indices 1 2 3 4 5 6 
#
# 1 108.2733 39.9430 55.0939 0.0000 2.4474 0.0000
# 2 39.9430 45.4391 24.7203 0.0000 -5.9093 0.0000
# 3 55.0939 24.7203 79.7391 0.0000 3.6336 0.0000
# 4 0.0000 0.0000 0.0000 18.6792 0.0000 -4.4336
# 5 2.4474 -5.9093 3.6336 0.0000 32.5916 0.0000
# 6 0.0000 0.0000 0.0000 -4.4336 0.0000 29.1880
#
#
#
# Elastic Compliance Matrix: (Units=1/GPa)
#
#
# Indices 1 2 3 4 5 6 
#
# 1 0.017920 -0.011296 -0.008769 0.000000 -0.002416 0.000000
# 2 -0.011296 0.034707 -0.003297 0.000000 0.007509 0.000000
# 3 -0.008769 -0.003297 0.019720 0.000000 -0.002138 0.000000
# 4 0.000000 0.000000 0.000000 0.055538 0.000000 0.008436
# 5 -0.002416 0.007509 -0.002138 0.000000 0.032464 0.000000
# 6 0.000000 0.000000 0.000000 0.008436 0.000000 0.035542
#
#
# Mechanical properties :
#
#
# Convention : Reuss Voigt Hill
#
# Bulk Modulus (GPa) = 39.02941 52.55175 45.79058
# Shear Modulus (GPa) = 19.90794 23.67138 21.78966
#
# Velocity S-wave (km/s) = 3.40734 3.71547 3.56474
# Velocity P-wave (km/s) = 6.18395 7.00383 6.60662
#
# Compressibility (1/GPa) = 0.02562171
#
# Stress axis : x y z
#
# Youngs Moduli (GPa) = 55.80423 28.81235 50.71113
#
# Poissons Ratio (x) = 0.32546 0.44470
# Poissons Ratio (y) = 0.63035 0.16722
# Poissons Ratio (z) = 0.48937 0.09501
#
# Static dielectric constant tensor:
#      x y z
#    x 3.052450 0.000000 0.134730 
#    y 0.000000 3.090660 0.000000 
#    z 0.134730 0.000000 3.137340 
# 
# 
# High freq. dielectric constant tensor:
#      x y z
#    x 1.646700 0.000000 0.006250 
#    y 0.000000 1.649480 0.000000 
#    z 0.006250 0.000000 1.646810 
# 
# From -- ./inp_files/19115.got.cif
#   From: 2010.06.25/outbox.cif.g09.slc.cpg/sg11_10_cif.got.tgz:19115.got - 2010.06.27 23:14:04.
