data_PCOD8069377
_publ_section_title
;
Structure prediction by ZEFSAII (Michael W. Deem and Ramdas Pophale) SiO2 
 PCOD8069377
Probable space group: P 21/M
;
_chemical_formula_sum "Si O2"
_cell_formula_units_Z 32
_cell_length_a 11.440550
_cell_length_b 14.066881
_cell_length_c 11.377352
_cell_angle_alpha 90.000000
_cell_angle_beta 99.355264
_cell_angle_gamma 90.000000
_cell_volume 1806.636453
_symmetry_space_group_name_H-M "P 21/M"
_symmetry_group_IT_number 11
_symmetry_cell_setting 'monoclinic'
loop_
_space_group_symop_operation_xyz
x,y,z
-x,1/2+y,-z
-x,-y,-z
x,1/2-y,z
loop_
_atom_site_type_symbol
_atom_site_label
_atom_site_fract_x
_atom_site_fract_y
_atom_site_fract_z
Si Si1 0.570672 0.911697 0.564944
Si Si2 0.184869 0.511964 0.734574
Si Si3 0.690983 0.529048 0.015469
Si Si4 0.391890 0.647568 0.716503
Si Si5 0.532739 0.140293 0.012556
Si Si6 0.219795 0.356955 0.556519
Si Si7 0.040468 0.356827 0.323680
Si Si8 0.741460 0.638698 0.791470
O O1 0.468536 0.848662 0.609397
O O2 0.644701 0.866409 0.469540
O O3 0.664700 0.925378 0.687280
O O4 0.500000 0.000000 0.500000
O O5 0.205187 0.487764 0.873995
O O6 0.289502 0.571047 0.691120
O O7 0.185707 0.414211 0.665867
O O8 0.063131 0.567525 0.702811
O O9 0.639003 0.423732 0.976387
O O10 0.589173 0.596069 0.056522
O O11 0.743524 0.584196 0.914301
O O12 0.330468 0.750000 0.721542
O O13 0.472766 0.628552 0.845761
O O14 0.548632 0.250000 0.975679
O O15 0.201668 0.250000 0.592622
O O16 0.125419 0.387422 0.443572
O O17 0.989245 0.250000 0.332916
O O18 0.120877 0.359497 0.220727
O O19 0.695172 0.750000 0.790250
#
# Coordination Sequence:
#
# PCOD8069377 Si02
#       8
#     4   4   4   4   4   4   4   4
#     4  11  19  32  54  81 109 134 178 221 262 306
#     4  11  21  34  52  82 110 135 175 226 270 314
#     4  10  20  31  53  82 109 142 180 214 269 317
#     4  10  18  31  53  78 107 141 173 216 263 311
#     4   9  18  32  50  76 112 146 177 211 259 320
#     4  10  21  36  53  76 107 143 176 217 270 318
#     4   9  20  38  59  77  96 133 186 229 264 313
#     4  10  20  37  59  80 106 145 183 218 258 315
#
# _framework density 17.712474
#
# number of rings (size 3 to 8) (size 9 to 14) (size 15 to 20)
#    0.000    2.000    2.500    3.000    0.000    2.000 
#    0.000    0.000    0.000    2.250    0.000    0.000 
#    0.000    0.000    0.000    0.000    0.000    0.000 
#
# Total GULP energy -396478.272291 kJ/mol
# GULP energy per Si atom -12389.946009 kJ/mol
# Density = 1.767216 g / cm^3
# Si number density = 17.712474 Si / 1000 Ang^3
#
#
#
# Elastic Constant Matrix: (Units=GPa)
#
#
# Indices 1 2 3 4 5 6 
#
# 1 77.4885 42.9311 35.2288 0.0000 9.2132 0.0000
# 2 42.9311 108.1414 40.5180 0.0000 9.1651 0.0000
# 3 35.2288 40.5180 47.6291 0.0000 2.0521 0.0000
# 4 0.0000 0.0000 0.0000 23.2895 0.0000 -13.6799
# 5 9.2132 9.1651 2.0521 0.0000 22.6200 0.0000
# 6 0.0000 0.0000 0.0000 -13.6799 0.0000 1.3402
#
#
#
# Elastic Compliance Matrix: (Units=1/GPa)
#
#
# Indices 1 2 3 4 5 6 
#
# 1 0.021152 -0.003097 -0.012744 0.000000 -0.006205 0.000000
# 2 -0.003097 0.014492 -0.009878 0.000000 -0.003715 0.000000
# 3 -0.012744 -0.009878 0.038579 0.000000 0.005693 0.000000
# 4 0.000000 0.000000 0.000000 -0.008595 0.000000 -0.087733
# 5 -0.006205 -0.003715 0.005693 0.000000 0.047724 0.000000
# 6 0.000000 0.000000 0.000000 -0.087733 0.000000 -0.149362
#
#
# Mechanical properties :
#
#
# Convention : Reuss Voigt Hill
#
# Bulk Modulus (GPa) = 43.88429 52.29053 48.08741
# Shear Modulus (GPa) = 217.17115 17.08867 117.12991
#
# Velocity S-wave (km/s) = 11.08491 3.10946 8.14076
# Velocity P-wave (km/s) = 13.73548 6.51749 10.75037
#
# Compressibility (1/GPa) = 0.02278720
#
# Stress axis : x y z
#
# Youngs Moduli (GPa) = 47.27657 69.00140 25.92054
#
# Poissons Ratio (x) = 0.21367 0.33032
# Poissons Ratio (y) = 0.14640 0.25605
# Poissons Ratio (z) = 0.60247 0.68161
#
# Static dielectric constant tensor:
#      x y z
#    x 3.238990 0.000000 0.001620 
#    y 0.000000 3.334230 0.000000 
#    z 0.001620 0.000000 3.155880 
# 
# 
# High freq. dielectric constant tensor:
#      x y z
#    x 1.677390 0.000000 0.000780 
#    y 0.000000 1.687880 0.000000 
#    z 0.000780 0.000000 1.668490 
# 
# From -- ./inp_files/35532.got.cif
#   From: 2010.06.25/outbox.cif.g09.slc.cpg/sg11_18_cif.got.tgz:35532.got - 2010.06.27 23:14:04.
