data_PCOD8069376
_publ_section_title
;
Structure prediction by ZEFSAII (Michael W. Deem and Ramdas Pophale) SiO2 
 PCOD8069376
Probable space group: P 21/M
;
_chemical_formula_sum "Si O2"
_cell_formula_units_Z 32
_cell_length_a 20.034029
_cell_length_b 9.008414
_cell_length_c 12.095880
_cell_angle_alpha 90.000000
_cell_angle_beta 54.602797
_cell_angle_gamma 90.000000
_cell_volume 1779.487220
_symmetry_space_group_name_H-M "P 21/M"
_symmetry_group_IT_number 11
_symmetry_cell_setting 'monoclinic'
loop_
_space_group_symop_operation_xyz
x,y,z
-x,1/2+y,-z
-x,-y,-z
x,1/2-y,z
loop_
_atom_site_type_symbol
_atom_site_label
_atom_site_fract_x
_atom_site_fract_y
_atom_site_fract_z
Si Si1 0.337578 0.578031 0.286719
Si Si2 0.728566 0.078468 0.882785
Si Si3 0.552361 0.923991 0.655785
Si Si4 0.308228 0.425001 0.647984
Si Si5 0.056052 0.075979 0.601262
Si Si6 0.368820 0.922066 0.801287
Si Si7 0.895545 0.923599 0.692896
Si Si8 0.195127 0.575789 0.592157
O O1 0.358477 0.750000 0.274685
O O2 0.322276 0.526710 0.175946
O O3 0.415917 0.492838 0.259896
O O4 0.256996 0.537703 0.433710
O O5 0.755362 0.250000 0.843968
O O6 0.808760 0.979172 0.820538
O O7 0.670492 0.052497 0.042045
O O8 0.550827 0.750000 0.675777
O O9 0.611098 0.971302 0.498570
O O10 0.461685 0.982654 0.716011
O O11 0.293987 0.250000 0.660428
O O12 0.318205 0.481785 0.762634
O O13 0.228714 0.503882 0.672704
O O14 0.052162 0.250000 0.628284
O O15 0.096785 0.039313 0.444088
O O16 0.108460 0.997786 0.646569
O O17 0.965091 0.009764 0.694189
O O18 0.366102 0.750000 0.768393
O O19 0.905282 0.750000 0.706665
O O20 0.183235 0.750000 0.621154
#
# Coordination Sequence:
#
# PCOD8069376 Si02
#       8
#     4   4   4   4   4   4   4   4
#     4   9  18  31  49  74 103 136 170 208 258 310
#     4  10  20  35  52  72 105 142 175 212 255 309
#     4   9  19  34  52  75 102 132 170 221 268 306
#     4  10  20  34  53  76 103 133 173 223 266 305
#     4  10  19  31  51  79 109 137 169 209 254 301
#     4  10  21  36  53  73 100 138 179 217 261 310
#     4  10  20  32  50  77 108 140 172 208 250 303
#     4  10  18  31  53  78 106 136 170 212 258 308
#
# _framework density 17.982709
#
# number of rings (size 3 to 8) (size 9 to 14) (size 15 to 20)
#    0.000    2.250    1.250    1.875    0.000    4.000 
#    0.000    0.000    0.000    0.750    0.000    0.000 
#    0.000    0.000    0.000    0.000    0.000    0.000 
#
# Total GULP energy -396934.697932 kJ/mol
# GULP energy per Si atom -12404.209310 kJ/mol
# Density = 1.794178 g / cm^3
# Si number density = 17.982709 Si / 1000 Ang^3
#
#
#
# Elastic Constant Matrix: (Units=GPa)
#
#
# Indices 1 2 3 4 5 6 
#
# 1 140.6518 52.7020 27.5861 0.0000 15.9322 0.0000
# 2 52.7020 69.2874 18.4508 0.0000 6.5197 0.0000
# 3 27.5861 18.4508 37.7554 0.0000 14.2118 0.0000
# 4 0.0000 0.0000 0.0000 21.5885 0.0000 1.1087
# 5 15.9322 6.5197 14.2118 0.0000 23.4462 0.0000
# 6 0.0000 0.0000 0.0000 1.1087 0.0000 39.3351
#
#
#
# Elastic Compliance Matrix: (Units=1/GPa)
#
#
# Indices 1 2 3 4 5 6 
#
# 1 0.010741 -0.007014 -0.003119 0.000000 -0.003458 0.000000
# 2 -0.007014 0.021175 -0.006220 0.000000 0.002648 0.000000
# 3 -0.003119 -0.006220 0.039329 0.000000 -0.019991 0.000000
# 4 0.000000 0.000000 0.000000 0.046388 0.000000 -0.001307
# 5 -0.003458 0.002648 -0.019991 0.000000 0.056382 0.000000
# 6 0.000000 0.000000 0.000000 -0.001307 0.000000 0.025459
#
#
# Mechanical properties :
#
#
# Convention : Reuss Voigt Hill
#
# Bulk Modulus (GPa) = 25.94710 49.46359 37.70534
# Shear Modulus (GPa) = 20.40586 26.80433 23.60510
#
# Velocity S-wave (km/s) = 3.37226 3.86497 3.62699
# Velocity P-wave (km/s) = 5.44271 6.89081 6.20912
#
# Compressibility (1/GPa) = 0.03853996
#
# Stress axis : x y z
#
# Youngs Moduli (GPa) = 93.09777 47.22533 25.42627
#
# Poissons Ratio (x) = 0.33125 0.07930
# Poissons Ratio (y) = 0.65302 0.15815
# Poissons Ratio (z) = 0.29034 0.29374
#
# Static dielectric constant tensor:
#      x y z
#    x 3.430640 0.000000 0.004810 
#    y 0.000000 3.287690 0.000000 
#    z 0.004810 0.000000 3.030330 
# 
# 
# High freq. dielectric constant tensor:
#      x y z
#    x 1.707870 0.000000 0.000490 
#    y 0.000000 1.700400 0.000000 
#    z 0.000490 0.000000 1.660960 
# 
# From -- ./inp_files/38197.got.cif
#   From: 2010.06.25/outbox.cif.g09.slc.cpg/sg11_20_cif.got.tgz:38197.got - 2010.06.27 23:14:04.
