data_PCOD8069745
_publ_section_title
;
Structure prediction by ZEFSAII (Michael W. Deem and Ramdas Pophale) SiO2 
 PCOD8069745
Probable space group: P 21/M
;
_chemical_formula_sum "Si O2"
_cell_formula_units_Z 28
_cell_length_a 9.712326
_cell_length_b 8.816356
_cell_length_c 28.852047
_cell_angle_alpha 90.000000
_cell_angle_beta 141.303461
_cell_angle_gamma 90.000000
_cell_volume 1544.560247
_symmetry_space_group_name_H-M "P 21/M"
_symmetry_group_IT_number 11
_symmetry_cell_setting 'monoclinic'
loop_
_space_group_symop_operation_xyz
x,y,z
-x,1/2+y,-z
-x,-y,-z
x,1/2-y,z
loop_
_atom_site_type_symbol
_atom_site_label
_atom_site_fract_x
_atom_site_fract_y
_atom_site_fract_z
Si Si1 0.798986 0.930489 0.419726
Si Si2 0.212500 0.426087 0.955753
Si Si3 0.387909 0.072058 0.902766
Si Si4 0.950324 0.931355 0.263195
Si Si5 0.734956 0.928413 0.299305
Si Si6 0.336205 0.429740 0.311264
Si Si7 0.744236 0.427951 0.806182
O O1 0.797029 0.750000 0.423643
O O2 0.822549 0.983483 0.372280
O O3 0.574214 0.995491 0.381836
O O4 0.000000 0.000000 0.500000
O O5 0.260474 0.250000 0.973574
O O6 0.276399 0.483370 0.921122
O O7 0.952926 0.463698 0.894140
O O8 0.361422 0.509044 0.033504
O O9 0.403101 0.250000 0.903602
O O10 0.241676 0.011607 0.821906
O O11 0.979243 0.750000 0.268658
O O12 0.881743 0.993752 0.296084
O O13 0.179521 0.011267 0.311170
O O14 0.749585 0.750000 0.300017
O O15 0.478514 0.977061 0.225900
O O16 0.358980 0.250000 0.319492
O O17 0.231639 0.480247 0.235096
O O18 0.739901 0.250000 0.791333
#
# Coordination Sequence:
#
# PCOD8069745 Si02
#       7
#     4   4   4   4   4   4   4
#     4  10  20  38  61  85 108 134 167 205 248 300
#     4   9  16  27  44  67  96 131 172 218 262 302
#     4   9  17  27  43  67  97 133 170 213 261 304
#     4  10  18  34  53  74 103 137 174 213 257 305
#     4   8  17  32  56  79 100 132 170 210 255 306
#     4  11  21  32  52  81 106 136 172 210 252 301
#     4   9  16  32  52  73  98 133 179 221 259 306
#
# _framework density 18.128138
#
# number of rings (size 3 to 8) (size 9 to 14) (size 15 to 20)
#    0.000    2.571    1.429    2.571    0.000    1.143 
#    0.000    5.000    0.000    0.000    0.000    0.000 
#    0.000    0.000    0.000    0.000    0.000    0.000 
#
# Total GULP energy -347087.451222 kJ/mol
# GULP energy per Si atom -12395.980401 kJ/mol
# Density = 1.808688 g / cm^3
# Si number density = 18.128138 Si / 1000 Ang^3
#
#
#
# Elastic Constant Matrix: (Units=GPa)
#
#
# Indices 1 2 3 4 5 6 
#
# 1 131.1822 35.5916 66.5117 0.0000 10.9942 0.0000
# 2 35.5916 56.3801 42.9218 0.0000 6.6114 0.0000
# 3 66.5117 42.9218 143.6566 0.0000 15.9755 0.0000
# 4 0.0000 0.0000 0.0000 30.9892 0.0000 5.8059
# 5 10.9942 6.6114 15.9755 0.0000 20.9101 0.0000
# 6 0.0000 0.0000 0.0000 5.8059 0.0000 13.7737
#
#
#
# Elastic Compliance Matrix: (Units=1/GPa)
#
#
# Indices 1 2 3 4 5 6 
#
# 1 0.010609 -0.003760 -0.003607 0.000000 -0.001633 0.000000
# 2 -0.003760 0.024385 -0.005363 0.000000 -0.001636 0.000000
# 3 -0.003607 -0.005363 0.010747 0.000000 -0.004619 0.000000
# 4 0.000000 0.000000 0.000000 0.035036 0.000000 -0.014768
# 5 -0.001633 -0.001636 -0.004619 0.000000 0.052729 0.000000
# 6 0.000000 0.000000 0.000000 -0.014768 0.000000 0.078827
#
#
# Mechanical properties :
#
#
# Convention : Reuss Voigt Hill
#
# Bulk Modulus (GPa) = 49.30621 69.02992 59.16806
# Shear Modulus (GPa) = 20.44556 25.54751 22.99654
#
# Velocity S-wave (km/s) = 3.36197 3.75810 3.56554
# Velocity P-wave (km/s) = 6.50601 7.54935 7.04702
#
# Compressibility (1/GPa) = 0.02028142
#
# Stress axis : x y z
#
# Youngs Moduli (GPa) = 94.26303 41.00900 93.04962
#
# Poissons Ratio (x) = 0.15418 0.33560
# Poissons Ratio (y) = 0.35440 0.49904
# Poissons Ratio (z) = 0.33998 0.21994
#
# Static dielectric constant tensor:
#      x y z
#    x 3.476380 0.000000 0.107920 
#    y 0.000000 3.140060 0.000000 
#    z 0.107920 0.000000 3.448970 
# 
# 
# High freq. dielectric constant tensor:
#      x y z
#    x 1.684630 0.000000 0.017080 
#    y 0.000000 1.682870 0.000000 
#    z 0.017080 0.000000 1.700960 
# 
# From -- ./inp_files/28997.got.cif
#   From: 2010.06.25/outbox.cif.g09.slc.cpg/sg11_15_cif.got.tgz:28997.got - 2010.06.27 23:14:04.
