data_PCOD8069109
_publ_section_title
;
Structure prediction by ZEFSAII (Michael W. Deem and Ramdas Pophale) SiO2 
 PCOD8069109
Probable space group: P 21/M
;
_chemical_formula_sum "Si O2"
_cell_formula_units_Z 32
_cell_length_a 17.190806
_cell_length_b 19.395445
_cell_length_c 9.439500
_cell_angle_alpha 90.000000
_cell_angle_beta 143.992833
_cell_angle_gamma 90.000000
_cell_volume 1850.284138
_symmetry_space_group_name_H-M "P 21/M"
_symmetry_group_IT_number 11
_symmetry_cell_setting 'monoclinic'
loop_
_space_group_symop_operation_xyz
x,y,z
-x,1/2+y,-z
-x,-y,-z
x,1/2-y,z
loop_
_atom_site_type_symbol
_atom_site_label
_atom_site_fract_x
_atom_site_fract_y
_atom_site_fract_z
Si Si1 0.174445 0.828660 0.540592
Si Si2 0.864266 0.529196 0.866279
Si Si3 0.023827 0.327829 0.983025
Si Si4 0.857766 0.674213 0.554139
Si Si5 0.966853 0.610090 0.448051
Si Si6 0.635063 0.058775 0.064762
Si Si7 0.335709 0.055270 0.660424
Si Si8 0.174695 0.510356 0.883586
O O1 0.216327 0.750000 0.632576
O O2 0.299728 0.876258 0.758863
O O3 0.122849 0.837662 0.301685
O O4 0.050999 0.849832 0.455731
O O5 0.747595 0.516453 0.582573
O O6 0.880961 0.610443 0.931828
O O7 0.816402 0.487547 0.933552
O O8 0.000000 0.500000 0.000000
O O9 0.075096 0.250000 0.016437
O O10 0.024088 0.335674 0.155008
O O11 0.797541 0.750000 0.478112
O O12 0.914108 0.665924 0.480358
O O13 0.734770 0.625318 0.401004
O O14 0.846465 0.568694 0.197460
O O15 0.047659 0.554528 0.656437
O O16 0.696770 0.044386 0.000653
O O17 0.659021 0.991468 0.193353
O O18 0.480786 0.073550 0.815823
#
# Coordination Sequence:
#
# PCOD8069109 Si02
#       8
#     4   4   4   4   4   4   4   4
#     4  10  19  32  52  76 102 134 169 209 259 310
#     4  11  20  32  55  80 102 134 173 217 268 317
#     4   9  18  30  46  73 104 128 158 207 259 306
#     4  10  19  32  51  76 104 133 170 216 266 310
#     4  10  18  30  49  78 105 131 163 214 262 306
#     4  10  21  36  51  72 105 140 178 217 249 311
#     4  10  21  35  52  74 103 140 178 215 260 302
#     4  10  19  31  51  75 106 136 168 214 261 306
#
# _framework density 17.294639
#
# number of rings (size 3 to 8) (size 9 to 14) (size 15 to 20)
#    0.000    2.000    2.500    2.625    1.750    1.000 
#    0.000    0.000    0.000    0.000    0.000    0.000 
#    0.000    0.000    0.000    0.000    0.000    0.000 
#
# Total GULP energy -396607.776788 kJ/mol
# GULP energy per Si atom -12393.993025 kJ/mol
# Density = 1.725528 g / cm^3
# Si number density = 17.294639 Si / 1000 Ang^3
#
#
#
# Elastic Constant Matrix: (Units=GPa)
#
#
# Indices 1 2 3 4 5 6 
#
# 1 84.2438 26.4755 49.0678 0.0000 -0.0565 0.0000
# 2 26.4755 86.3293 30.6966 0.0000 4.1111 0.0000
# 3 49.0678 30.6966 100.6271 0.0000 8.2109 0.0000
# 4 0.0000 0.0000 0.0000 23.2669 0.0000 -4.5441
# 5 -0.0565 4.1111 8.2109 0.0000 24.0461 0.0000
# 6 0.0000 0.0000 0.0000 -4.5441 0.0000 18.0391
#
#
#
# Elastic Compliance Matrix: (Units=1/GPa)
#
#
# Indices 1 2 3 4 5 6 
#
# 1 0.017300 -0.002653 -0.007886 0.000000 0.003187 0.000000
# 2 -0.002653 0.013418 -0.002687 0.000000 -0.001383 0.000000
# 3 -0.007886 -0.002687 0.014984 0.000000 -0.004676 0.000000
# 4 0.000000 0.000000 0.000000 0.045203 0.000000 0.011387
# 5 0.003187 -0.001383 -0.004676 0.000000 0.043427 0.000000
# 6 0.000000 0.000000 0.000000 0.011387 0.000000 0.058304
#
#
# Mechanical properties :
#
#
# Convention : Reuss Voigt Hill
#
# Bulk Modulus (GPa) = 51.94816 53.74222 52.84519
# Shear Modulus (GPa) = 22.17237 24.06778 23.12008
#
# Velocity S-wave (km/s) = 3.58444 3.73451 3.66024
# Velocity P-wave (km/s) = 6.87265 7.05247 6.96314
#
# Compressibility (1/GPa) = 0.01924996
#
# Stress axis : x y z
#
# Youngs Moduli (GPa) = 57.80466 74.52455 66.73608
#
# Poissons Ratio (x) = 0.19772 0.52631
# Poissons Ratio (y) = 0.15336 0.17931
# Poissons Ratio (z) = 0.45587 0.20023
#
# Static dielectric constant tensor:
#      x y z
#    x 3.128340 0.000000 -0.205070 
#    y 0.000000 3.389810 0.000000 
#    z -0.205070 0.000000 3.207860 
# 
# 
# High freq. dielectric constant tensor:
#      x y z
#    x 1.651210 0.000000 -0.024060 
#    y 0.000000 1.678410 0.000000 
#    z -0.024060 0.000000 1.653970 
# 
# From -- ./inp_files/23101.got.cif
#   From: 2010.06.25/outbox.cif.g09.slc.cpg/sg11_12_cif.got.tgz:23101.got - 2010.06.27 23:14:04.
