data_PCOD8069503
_publ_section_title
;
Structure prediction by ZEFSAII (Michael W. Deem and Ramdas Pophale) SiO2 
 PCOD8069503
Probable space group: P 21/M
;
_chemical_formula_sum "Si O2"
_cell_formula_units_Z 20
_cell_length_a 16.072939
_cell_length_b 8.468006
_cell_length_c 23.260747
_cell_angle_alpha 90.000000
_cell_angle_beta 19.029418
_cell_angle_gamma 90.000000
_cell_volume 1032.259964
_symmetry_space_group_name_H-M "P 21/M"
_symmetry_group_IT_number 11
_symmetry_cell_setting 'monoclinic'
loop_
_space_group_symop_operation_xyz
x,y,z
-x,1/2+y,-z
-x,-y,-z
x,1/2-y,z
loop_
_atom_site_type_symbol
_atom_site_label
_atom_site_fract_x
_atom_site_fract_y
_atom_site_fract_z
Si Si1 0.768257 0.067039 0.531648
Si Si2 0.363136 0.068373 0.502095
Si Si3 0.595648 0.434756 0.134768
Si Si4 0.129799 0.933123 0.763906
Si Si5 0.181509 0.937267 0.331668
O O1 0.748022 0.250000 0.561150
O O2 0.703019 0.042178 0.508075
O O3 0.571445 0.971362 0.699935
O O4 0.059121 0.005261 0.352742
O O5 0.337612 0.250000 0.500181
O O6 0.649160 0.025481 0.334977
O O7 0.166585 0.033634 0.681936
O O8 0.642552 0.250000 0.099504
O O9 0.462323 0.495788 0.162705
O O10 0.864007 0.522415 0.966937
O O11 0.139796 0.750000 0.740778
O O12 0.190187 0.750000 0.323792
O O13 0.000000 0.000000 0.500000
#
# Coordination Sequence:
#
# PCOD8069503 Si02
#       5
#     4   4   4   4   4
#     4  11  21  35  56  82 111 143 181 223 268 317
#     4  10  21  38  58  80 108 143 181 221 269 323
#     4  11  21  35  56  82 111 143 181 223 268 317
#     4  10  21  38  58  80 108 143 181 221 269 323
#     4  10  18  32  53  78 109 142 177 218 268 320
#
# _framework density 19.374963000000001
#
# number of rings (size 3 to 8) (size 9 to 14) (size 15 to 20)
#    0.000    1.600    0.000    9.000    0.000    3.200 
#    0.000    1.000    0.000    0.000    0.000    0.000 
#    0.000    0.000    0.000    0.000    0.000    0.000 
#
# Total GULP energy -248041.633546 kJ/mol
# GULP energy per Si atom -12402.081677 kJ/mol
# Density = 1.933087 g / cm^3
# Si number density = 19.374963 Si / 1000 Ang^3
#
#
#
# Elastic Constant Matrix: (Units=GPa)
#
#
# Indices 1 2 3 4 5 6 
#
# 1 111.6343 32.0645 18.6879 0.0000 -7.1999 0.0000
# 2 32.0645 88.1836 12.3191 0.0000 -12.6685 0.0000
# 3 18.6879 12.3191 17.9983 0.0000 -1.8406 0.0000
# 4 0.0000 0.0000 0.0000 30.4142 0.0000 -1.3851
# 5 -7.1999 -12.6685 -1.8406 0.0000 14.9901 0.0000
# 6 0.0000 0.0000 0.0000 -1.3851 0.0000 33.9444
#
#
#
# Elastic Compliance Matrix: (Units=1/GPa)
#
#
# Indices 1 2 3 4 5 6 
#
# 1 0.011483 -0.002459 -0.010014 0.000000 0.002207 0.000000
# 2 -0.002459 0.014619 -0.006390 0.000000 0.010389 0.000000
# 3 -0.010014 -0.006390 0.070169 0.000000 -0.001595 0.000000
# 4 0.000000 0.000000 0.000000 0.032941 0.000000 0.001344
# 5 0.002207 0.010389 -0.001595 0.000000 0.076355 0.000000
# 6 0.000000 0.000000 0.000000 0.001344 0.000000 0.029515
#
#
# Mechanical properties :
#
#
# Convention : Reuss Voigt Hill
#
# Bulk Modulus (GPa) = 17.08102 38.21770 27.64936
# Shear Modulus (GPa) = 17.10427 26.18605 21.64516
#
# Velocity S-wave (km/s) = 2.97442 3.68032 3.34604
# Velocity P-wave (km/s) = 4.54218 6.15043 5.40644
#
# Compressibility (1/GPa) = 0.05854452
#
# Stress axis : x y z
#
# Youngs Moduli (GPa) = 87.08594 68.40182 14.25122
#
# Poissons Ratio (x) = 0.16822 0.14271
# Poissons Ratio (y) = 0.21417 0.09107
# Poissons Ratio (z) = 0.87207 0.43712
#
# Static dielectric constant tensor:
#      x y z
#    x 3.879780 0.000000 -0.468260 
#    y 0.000000 3.598280 0.000000 
#    z -0.468260 0.000000 3.429950 
# 
# 
# High freq. dielectric constant tensor:
#      x y z
#    x 1.755210 0.000000 -0.024440 
#    y 0.000000 1.774180 0.000000 
#    z -0.024440 0.000000 1.731420 
# 
# From -- ./inp_files/20256.got.cif
#   From: 2010.06.25/outbox.cif.g09.slc.cpg/sg11_11_cif.got.tgz:20256.got - 2010.06.27 23:14:04.
