data_PCOD8069435
_publ_section_title
;
Structure prediction by ZEFSAII (Michael W. Deem and Ramdas Pophale) SiO2 
 PCOD8069435
Probable space group: P 21/M
;
_chemical_formula_sum "Si O2"
_cell_formula_units_Z 28
_cell_length_a 14.500906
_cell_length_b 8.593584
_cell_length_c 13.667648
_cell_angle_alpha 90.000000
_cell_angle_beta 103.068034
_cell_angle_gamma 90.000000
_cell_volume 1659.081815
_symmetry_space_group_name_H-M "P 21/M"
_symmetry_group_IT_number 11
_symmetry_cell_setting 'monoclinic'
loop_
_space_group_symop_operation_xyz
x,y,z
-x,1/2+y,-z
-x,-y,-z
x,1/2-y,z
loop_
_atom_site_type_symbol
_atom_site_label
_atom_site_fract_x
_atom_site_fract_y
_atom_site_fract_z
Si Si1 0.898195 0.926242 0.572747
Si Si2 0.931500 0.932877 0.272660
Si Si3 0.212768 0.568534 0.629457
Si Si4 0.601975 0.567579 0.410627
Si Si5 0.789823 0.924091 0.745918
Si Si6 0.405572 0.064390 0.366249
Si Si7 0.973564 0.935647 0.889019
O O1 0.915557 0.750000 0.539217
O O2 0.824841 0.924065 0.643432
O O3 0.853592 0.029677 0.477873
O O4 0.996843 0.001069 0.628791
O O5 0.943349 0.750000 0.265331
O O6 0.826531 0.979006 0.283852
O O7 0.949357 0.008748 0.171079
O O8 0.209757 0.750000 0.650345
O O9 0.320119 0.517419 0.636185
O O10 0.617297 0.750000 0.402981
O O11 0.610588 0.513547 0.525189
O O12 0.498864 0.517442 0.345636
O O13 0.778115 0.750000 0.782298
O O14 0.684475 0.999219 0.719066
O O15 0.869307 0.004913 0.833944
O O16 0.415564 0.250000 0.361909
O O17 0.971929 0.750000 0.887884
O O18 0.000000 0.000000 0.000000
#
# Coordination Sequence:
#
# PCOD8069435 Si02
#       7
#     4   4   4   4   4   4   4
#     4  10  18  32  48  68  98 133 168 205 243 290
#     4  11  22  35  50  71  97 129 166 206 248 299
#     4  12  22  32  46  68  97 135 173 206 244 292
#     4  10  19  30  45  67  97 133 170 209 247 284
#     4   8  15  29  50  71  96 130 165 201 244 290
#     4   9  16  30  47  67  95 131 170 206 245 288
#     4  10  20  36  56  78 102 129 162 206 253 299
#
# _framework density 16.876805999999998
#
# number of rings (size 3 to 8) (size 9 to 14) (size 15 to 20)
#    0.000    2.000    1.429    5.143    0.000    0.571 
#    0.000    1.429    0.000    0.000    0.000    1.000 
#    0.000    0.000    0.000    0.000    0.000    0.000 
#
# Total GULP energy -347098.132873 kJ/mol
# GULP energy per Si atom -12396.361888 kJ/mol
# Density = 1.683839 g / cm^3
# Si number density = 16.876806 Si / 1000 Ang^3
#
#
#
# Elastic Constant Matrix: (Units=GPa)
#
#
# Indices 1 2 3 4 5 6 
#
# 1 123.8901 29.5136 51.8199 0.0000 -0.7783 0.0000
# 2 29.5136 67.2295 14.2630 0.0000 2.8238 0.0000
# 3 51.8199 14.2630 75.3749 0.0000 7.0504 0.0000
# 4 0.0000 0.0000 0.0000 22.2366 0.0000 -1.8384
# 5 -0.7783 2.8238 7.0504 0.0000 10.3738 0.0000
# 6 0.0000 0.0000 0.0000 -1.8384 0.0000 27.3871
#
#
#
# Elastic Compliance Matrix: (Units=1/GPa)
#
#
# Indices 1 2 3 4 5 6 
#
# 1 0.012751 -0.004079 -0.008743 0.000000 0.008009 0.000000
# 2 -0.004079 0.016856 0.000077 0.000000 -0.004947 0.000000
# 3 -0.008743 0.000077 0.020639 0.000000 -0.014704 0.000000
# 4 0.000000 0.000000 0.000000 0.045222 0.000000 0.003036
# 5 0.008009 -0.004947 -0.014704 0.000000 0.108337 0.000000
# 6 0.000000 0.000000 0.000000 0.003036 0.000000 0.036717
#
#
# Mechanical properties :
#
#
# Convention : Reuss Voigt Hill
#
# Bulk Modulus (GPa) = 40.39451 50.85419 45.62435
# Shear Modulus (GPa) = 18.23054 23.39271 20.81163
#
# Velocity S-wave (km/s) = 3.29022 3.72706 3.51543
# Velocity P-wave (km/s) = 6.19847 6.97992 6.60077
#
# Compressibility (1/GPa) = 0.02475584
#
# Stress axis : x y z
#
# Youngs Moduli (GPa) = 78.42597 59.32438 48.45224
#
# Poissons Ratio (x) = 0.24199 0.42364
# Poissons Ratio (y) = 0.31990 -0.00375
# Poissons Ratio (z) = 0.68572 -0.00459
#
# Static dielectric constant tensor:
#      x y z
#    x 3.405850 0.000000 0.019100 
#    y 0.000000 3.131070 0.000000 
#    z 0.019100 0.000000 2.860300 
# 
# 
# High freq. dielectric constant tensor:
#      x y z
#    x 1.659790 0.000000 0.001710 
#    y 0.000000 1.651380 0.000000 
#    z 0.001710 0.000000 1.602270 
# 
# From -- ./inp_files/51032.got.cif
#   From: 2010.06.25/outbox.cif.g09.slc.cpg/sg11_26_cif.got.tgz:51032.got - 2010.06.27 23:14:04.
