data_PCOD8069764
_publ_section_title
;
Structure prediction by ZEFSAII (Michael W. Deem and Ramdas Pophale) SiO2 
 PCOD8069764
Probable space group: P 21/M
;
_chemical_formula_sum "Si O2"
_cell_formula_units_Z 32
_cell_length_a 27.038054
_cell_length_b 8.723681
_cell_length_c 21.002091
_cell_angle_alpha 90.000000
_cell_angle_beta 19.644385
_cell_angle_gamma 90.000000
_cell_volume 1665.371881
_symmetry_space_group_name_H-M "P 21/M"
_symmetry_group_IT_number 11
_symmetry_cell_setting 'monoclinic'
loop_
_space_group_symop_operation_xyz
x,y,z
-x,1/2+y,-z
-x,-y,-z
x,1/2-y,z
loop_
_atom_site_type_symbol
_atom_site_label
_atom_site_fract_x
_atom_site_fract_y
_atom_site_fract_z
Si Si1 0.012140 0.431735 0.249227
Si Si2 0.468032 0.429609 0.840397
Si Si3 0.208282 0.931482 0.589786
Si Si4 0.339145 0.067838 0.865179
Si Si5 0.565785 0.067348 0.484043
Si Si6 0.226751 0.929860 0.206889
Si Si7 0.031894 0.930511 0.557110
Si Si8 0.844686 0.932003 0.208539
O O1 0.012916 0.250000 0.243993
O O2 0.918180 0.494820 0.303940
O O3 0.939692 0.482196 0.404488
O O4 0.177866 0.497079 0.043119
O O5 0.446283 0.250000 0.872562
O O6 0.639290 0.472686 0.629904
O O7 0.388804 0.495406 0.873388
O O8 0.390453 0.505169 0.996053
O O9 0.197350 0.750000 0.616671
O O10 0.196579 0.018564 0.670282
O O11 0.335803 0.250000 0.870917
O O12 0.456753 0.010456 0.671504
O O13 0.577859 0.250000 0.465771
O O14 0.500000 0.000000 0.500000
O O15 0.725688 0.996771 0.303113
O O16 0.231772 0.750000 0.195446
O O17 0.170374 0.980905 0.345522
O O18 0.117133 0.992334 0.286229
O O19 0.004259 0.750000 0.586332
O O20 0.849641 0.750000 0.197372
O O21 0.000000 0.000000 0.000000
#
# Coordination Sequence:
#
# PCOD8069764 Si02
#       8
#     4   4   4   4   4   4   4   4
#     4   9  17  32  57  83 107 144 188 232 282 341
#     4  10  18  34  56  79 108 148 189 228 277 337
#     4  10  21  38  61  85 111 146 193 239 283 347
#     4   9  17  32  57  83 109 143 187 234 276 334
#     4  11  23  41  63  94 125 154 196 242 293 351
#     4  10  19  29  49  81 111 143 185 234 282 333
#     4   9  17  32  52  77 110 145 184 230 285 343
#     4  12  26  44  64  87 119 160 198 242 298 356
#
# _framework density 19.214929000000001
#
# number of rings (size 3 to 8) (size 9 to 14) (size 15 to 20)
#    0.000    2.000    2.500    1.875    1.750    1.000 
#    0.000    1.250    0.000    0.000    0.000    0.000 
#    0.000    0.000    0.000    0.000    0.000    0.000 
#
# Total GULP energy -396760.803717 kJ/mol
# GULP energy per Si atom -12398.775116 kJ/mol
# Density = 1.917119 g / cm^3
# Si number density = 19.214929 Si / 1000 Ang^3
#
#
#
# Elastic Constant Matrix: (Units=GPa)
#
#
# Indices 1 2 3 4 5 6 
#
# 1 98.5049 30.1517 49.4999 0.0000 -14.4825 0.0000
# 2 30.1517 60.4449 39.1451 0.0000 1.1498 0.0000
# 3 49.4999 39.1451 138.7941 0.0000 -3.0006 0.0000
# 4 0.0000 0.0000 0.0000 28.4060 0.0000 3.4839
# 5 -14.4825 1.1498 -3.0006 0.0000 35.5098 0.0000
# 6 0.0000 0.0000 0.0000 3.4839 0.0000 22.1756
#
#
#
# Elastic Compliance Matrix: (Units=1/GPa)
#
#
# Indices 1 2 3 4 5 6 
#
# 1 0.014296 -0.004915 -0.003589 0.000000 0.005686 0.000000
# 2 -0.004915 0.021977 -0.004512 0.000000 -0.003097 0.000000
# 3 -0.003589 -0.004512 0.009747 0.000000 -0.000494 0.000000
# 4 0.000000 0.000000 0.000000 0.035895 0.000000 -0.005639
# 5 0.005686 -0.003097 -0.000494 0.000000 0.030539 0.000000
# 6 0.000000 0.000000 0.000000 -0.005639 0.000000 0.045981
#
#
# Mechanical properties :
#
#
# Convention : Reuss Voigt Hill
#
# Bulk Modulus (GPa) = 50.03377 59.48191 54.75784
# Shear Modulus (GPa) = 26.16016 29.14811 27.65414
#
# Velocity S-wave (km/s) = 3.69379 3.89903 3.79780
# Velocity P-wave (km/s) = 6.65489 7.16193 6.91306
#
# Compressibility (1/GPa) = 0.01998650
#
# Stress axis : x y z
#
# Youngs Moduli (GPa) = 69.94995 45.50234 102.59510
#
# Poissons Ratio (x) = 0.22364 0.36826
# Poissons Ratio (y) = 0.34379 0.46295
# Poissons Ratio (z) = 0.25108 0.20533
#
# Static dielectric constant tensor:
#      x y z
#    x 3.650130 0.000000 0.060080 
#    y 0.000000 3.263970 0.000000 
#    z 0.060080 0.000000 3.915560 
# 
# 
# High freq. dielectric constant tensor:
#      x y z
#    x 1.741480 0.000000 0.009430 
#    y 0.000000 1.719940 0.000000 
#    z 0.009430 0.000000 1.762820 
# 
# From -- ./inp_files/66994.got.cif
#   From: 2010.06.25/outbox.cif.g09.slc.cpg/sg11_34_cif.got.tgz:66994.got - 2010.06.27 23:14:04.
