data_PCOD8069108
_publ_section_title
;
Structure prediction by ZEFSAII (Michael W. Deem and Ramdas Pophale) SiO2 
 PCOD8069108
Probable space group: P 21/M
;
_chemical_formula_sum "Si O2"
_cell_formula_units_Z 32
_cell_length_a 12.264719
_cell_length_b 8.512473
_cell_length_c 16.808821
_cell_angle_alpha 90.000000
_cell_angle_beta 86.476870
_cell_angle_gamma 90.000000
_cell_volume 1751.576220
_symmetry_space_group_name_H-M "P 21/M"
_symmetry_group_IT_number 11
_symmetry_cell_setting 'monoclinic'
loop_
_space_group_symop_operation_xyz
x,y,z
-x,1/2+y,-z
-x,-y,-z
x,1/2-y,z
loop_
_atom_site_type_symbol
_atom_site_label
_atom_site_fract_x
_atom_site_fract_y
_atom_site_fract_z
Si Si1 0.819704 0.436691 0.870211
Si Si2 0.210786 0.565537 0.949584
Si Si3 0.939200 0.934852 0.177960
Si Si4 0.589515 0.064921 0.598188
Si Si5 0.345334 0.432863 0.562888
Si Si6 0.377681 0.562975 0.226269
Si Si7 0.238775 0.567576 0.711562
Si Si8 0.611919 0.565974 0.162707
O O1 0.814585 0.250000 0.870409
O O2 0.726038 0.505524 0.816603
O O3 0.936649 0.495920 0.833678
O O4 0.799056 0.498008 0.960346
O O5 0.187116 0.750000 0.944541
O O6 0.122179 0.473708 0.901288
O O7 0.332425 0.528567 0.912149
O O8 0.934305 0.750000 0.193101
O O9 0.883428 0.022713 0.254998
O O10 0.604902 0.250000 0.589015
O O11 0.463893 0.016981 0.590375
O O12 0.626247 0.001344 0.682811
O O13 0.665378 0.981705 0.528862
O O14 0.322959 0.250000 0.573415
O O15 0.254526 0.525846 0.618147
O O16 0.377750 0.750000 0.228160
O O17 0.487810 0.505728 0.177335
O O18 0.259431 0.750000 0.726847
O O19 0.324901 0.465548 0.757930
O O20 0.617302 0.750000 0.143734
#
# Coordination Sequence:
#
# PCOD8069108 Si02
#       8
#     4   4   4   4   4   4   4   4
#     4   9  19  33  51  73  97 131 170 208 249 296
#     4  10  19  32  50  74 101 128 164 211 256 292
#     4  10  19  33  53  74  96 127 169 212 254 293
#     4   9  17  30  49  74 102 134 162 195 241 292
#     4  10  18  30  49  77 105 131 162 198 242 292
#     4   9  17  32  51  71 101 135 167 200 242 298
#     4  11  20  31  50  75 103 131 162 206 252 292
#     4  10  18  31  50  73 100 133 166 200 248 299
#
# _framework density 18.269259000000002
#
# number of rings (size 3 to 8) (size 9 to 14) (size 15 to 20)
#    0.000    2.250    1.250    4.500    0.000    1.000 
#    0.000    1.875    0.000    9.000    0.000    0.000 
#    0.000    0.000    0.000    0.000    0.000    0.000 
#
# Total GULP energy -396813.713649 kJ/mol
# GULP energy per Si atom -12400.428552 kJ/mol
# Density = 1.822768 g / cm^3
# Si number density = 18.269259 Si / 1000 Ang^3
#
#
#
# Elastic Constant Matrix: (Units=GPa)
#
#
# Indices 1 2 3 4 5 6 
#
# 1 129.7861 13.9400 73.2893 0.0000 -13.8515 0.0000
# 2 13.9400 39.3815 18.2160 0.0000 -7.0985 0.0000
# 3 73.2893 18.2160 116.3553 0.0000 -24.5544 0.0000
# 4 0.0000 0.0000 0.0000 26.4200 0.0000 -6.0993
# 5 -13.8515 -7.0985 -24.5544 0.0000 25.7288 0.0000
# 6 0.0000 0.0000 0.0000 -6.0993 0.0000 14.0245
#
#
#
# Elastic Compliance Matrix: (Units=1/GPa)
#
#
# Indices 1 2 3 4 5 6 
#
# 1 0.012006 -0.000907 -0.007650 0.000000 -0.001087 0.000000
# 2 -0.000907 0.027835 -0.002841 0.000000 0.004480 0.000000
# 3 -0.007650 -0.002841 0.016057 0.000000 0.010422 0.000000
# 4 0.000000 0.000000 0.000000 0.042074 0.000000 0.018298
# 5 -0.001087 0.004480 0.010422 0.000000 0.049464 0.000000
# 6 0.000000 0.000000 0.000000 0.018298 0.000000 0.079262
#
#
# Mechanical properties :
#
#
# Convention : Reuss Voigt Hill
#
# Bulk Modulus (GPa) = 30.20931 55.15707 42.68319
# Shear Modulus (GPa) = 19.19179 25.23983 22.21581
#
# Velocity S-wave (km/s) = 3.24465 3.72095 3.49093
# Velocity P-wave (km/s) = 5.53250 6.97978 6.29785
#
# Compressibility (1/GPa) = 0.03310238
#
# Stress axis : x y z
#
# Youngs Moduli (GPa) = 83.29034 35.92554 62.27890
#
# Poissons Ratio (x) = 0.03260 0.47642
# Poissons Ratio (y) = 0.07558 0.17692
# Poissons Ratio (z) = 0.63715 0.10206
#
# Static dielectric constant tensor:
#      x y z
#    x 3.415440 0.000000 -0.184920 
#    y 0.000000 3.129560 0.000000 
#    z -0.184920 0.000000 3.514970 
# 
# 
# High freq. dielectric constant tensor:
#      x y z
#    x 1.686530 0.000000 -0.024680 
#    y 0.000000 1.694070 0.000000 
#    z -0.024680 0.000000 1.708220 
# 
# From -- ./inp_files/58693.got.cif
#   From: 2010.06.25/outbox.cif.g09.slc.cpg/sg11_30_cif.got.tgz:58693.got - 2010.06.27 23:14:04.
