data_PCOD8069947
_publ_section_title
;
Structure prediction by ZEFSAII (Michael W. Deem and Ramdas Pophale) SiO2 
 PCOD8069947
Probable space group: P 21/M
;
_chemical_formula_sum "Si O2"
_cell_formula_units_Z 24
_cell_length_a 16.057731
_cell_length_b 12.023609
_cell_length_c 22.651176
_cell_angle_alpha 90.000000
_cell_angle_beta 163.825432
_cell_angle_gamma 90.000000
_cell_volume 1218.248999
_symmetry_space_group_name_H-M "P 21/M"
_symmetry_group_IT_number 11
_symmetry_cell_setting 'monoclinic'
loop_
_space_group_symop_operation_xyz
x,y,z
-x,1/2+y,-z
-x,-y,-z
x,1/2-y,z
loop_
_atom_site_type_symbol
_atom_site_label
_atom_site_fract_x
_atom_site_fract_y
_atom_site_fract_z
Si Si1 0.331715 0.124705 0.949383
Si Si2 0.642899 0.250000 0.842362
Si Si3 0.012943 0.250000 0.275030
Si Si4 0.815245 0.952449 0.279857
Si Si5 0.685068 0.565720 0.444649
Si Si6 0.328714 0.627264 0.481850
Si Si7 0.287450 0.250000 0.337213
Si Si8 0.639971 0.750000 0.226735
O O1 0.440100 0.250000 0.034772
O O2 0.296070 0.106179 0.855473
O O3 0.017526 0.099087 0.768530
O O4 0.581247 0.043088 0.145020
O O5 0.584157 0.140578 0.762905
O O6 0.412418 0.250000 0.739401
O O7 0.980103 0.250000 0.092363
O O8 0.074127 0.139736 0.354989
O O9 0.243460 0.250000 0.376976
O O10 0.673691 0.250000 0.022479
O O11 0.835491 0.858212 0.343744
O O12 0.137370 0.008664 0.488575
O O13 0.540054 0.469643 0.387041
O O14 0.337898 0.750000 0.520377
O O15 0.524858 0.639390 0.555152
#
# Coordination Sequence:
#
# PCOD8069947 Si02
#       8
#     4   2   2   4   4   4   2   2
#     4   9  15  27  50  84 108 129 167 212 254 316
#     4  10  24  38  51  73 106 141 179 222 261 307
#     4  10  20  34  54  83 110 133 170 218 262 309
#     4  10  19  28  54  77 108 141 165 211 264 306
#     4  10  21  36  55  80 106 138 179 211 254 320
#     4   8  17  33  54  80 101 136 177 214 255 309
#     4   9  20  37  55  79 104 139 171 223 273 288
#     4  11  20  35  52  77 108 139 176 209 264 316
#
# _framework density 19.700403999999999
#
# number of rings (size 3 to 8) (size 9 to 14) (size 15 to 20)
#    0.500    2.000    0.833    3.000    3.500    2.000 
#    0.000    0.000    0.000    0.000    0.000    0.000 
#    0.000    0.000    0.000    0.000    0.000    0.000 
#
# Total GULP energy -297486.477984 kJ/mol
# GULP energy per Si atom -12395.269916 kJ/mol
# Density = 1.965557 g / cm^3
# Si number density = 19.700404 Si / 1000 Ang^3
#
#
#
# Elastic Constant Matrix: (Units=GPa)
#
#
# Indices 1 2 3 4 5 6 
#
# 1 74.9451 25.4872 14.0660 0.0000 24.3537 0.0000
# 2 25.4872 107.6560 11.7027 0.0000 8.4552 0.0000
# 3 14.0660 11.7027 29.0474 0.0000 10.7194 0.0000
# 4 0.0000 0.0000 0.0000 16.2175 0.0000 10.4700
# 5 24.3537 8.4552 10.7194 0.0000 29.0198 0.0000
# 6 0.0000 0.0000 0.0000 10.4700 0.0000 25.3251
#
#
#
# Elastic Compliance Matrix: (Units=1/GPa)
#
#
# Indices 1 2 3 4 5 6 
#
# 1 0.019697 -0.003209 -0.002883 0.000000 -0.014530 0.000000
# 2 -0.003209 0.010302 -0.002875 0.000000 0.000753 0.000000
# 3 -0.002883 -0.002875 0.041426 0.000000 -0.012045 0.000000
# 4 0.000000 0.000000 0.000000 0.084111 0.000000 -0.034774
# 5 -0.014530 0.000753 -0.012045 0.000000 0.050883 0.000000
# 6 0.000000 0.000000 0.000000 -0.034774 0.000000 0.053863
#
#
# Mechanical properties :
#
#
# Convention : Reuss Voigt Hill
#
# Bulk Modulus (GPa) = 18.69462 34.90670 26.80066
# Shear Modulus (GPa) = 16.88933 24.80532 20.84732
#
# Velocity S-wave (km/s) = 2.93116 3.55227 3.25656
# Velocity P-wave (km/s) = 4.57883 5.88065 5.27009
#
# Compressibility (1/GPa) = 0.05349132
#
# Stress axis : x y z
#
# Youngs Moduli (GPa) = 50.76908 97.07029 24.13963
#
# Poissons Ratio (x) = 0.31146 0.06960
# Poissons Ratio (y) = 0.16290 0.06939
# Poissons Ratio (z) = 0.14639 0.27904
#
# Static dielectric constant tensor:
#      x y z
#    x 3.481870 0.000000 0.274860 
#    y 0.000000 3.785670 0.000000 
#    z 0.274860 0.000000 3.155220 
# 
# 
# High freq. dielectric constant tensor:
#      x y z
#    x 1.748150 0.000000 0.025530 
#    y 0.000000 1.785360 0.000000 
#    z 0.025530 0.000000 1.728760 
# 
# From -- ./inp_files/57816.got.cif
#   From: 2010.06.25/outbox.cif.g09.slc.cpg/sg11_29_cif.got.tgz:57816.got - 2010.06.27 23:14:04.
