data_PCOD8069893
_publ_section_title
;
Structure prediction by ZEFSAII (Michael W. Deem and Ramdas Pophale) SiO2 
 PCOD8069893
Probable space group: P 21/M
;
_chemical_formula_sum "Si O2"
_cell_formula_units_Z 32
_cell_length_a 19.575166
_cell_length_b 17.370157
_cell_length_c 5.623876
_cell_angle_alpha 90.000000
_cell_angle_beta 127.530763
_cell_angle_gamma 90.000000
_cell_volume 1516.465603
_symmetry_space_group_name_H-M "P 21/M"
_symmetry_group_IT_number 11
_symmetry_cell_setting 'monoclinic'
loop_
_space_group_symop_operation_xyz
x,y,z
-x,1/2+y,-z
-x,-y,-z
x,1/2-y,z
loop_
_atom_site_type_symbol
_atom_site_label
_atom_site_fract_x
_atom_site_fract_y
_atom_site_fract_z
Si Si1 0.077280 0.890254 0.325469
Si Si2 0.398078 0.425479 0.703780
Si Si3 0.839672 0.338325 0.990045
Si Si4 0.849310 0.951841 0.415442
Si Si5 0.560924 0.463899 0.819330
Si Si6 0.083636 0.163685 0.784581
Si Si7 0.240605 0.334295 0.437921
Si Si8 0.709986 0.457306 0.833536
O O1 0.107186 0.850802 0.142786
O O2 0.975490 0.871763 0.130033
O O3 0.096344 0.981281 0.337949
O O4 0.114819 0.859611 0.660279
O O5 0.497432 0.407614 0.835456
O O6 0.340245 0.348451 0.576053
O O7 0.352044 0.491763 0.455634
O O8 0.403125 0.460521 0.974587
O O9 0.813744 0.250000 0.947850
O O10 0.751731 0.387039 0.776589
O O11 0.918746 0.893463 0.445759
O O12 0.788963 0.904678 0.463692
O O13 0.787959 0.990503 0.091572
O O14 0.500000 0.500000 0.500000
O O15 0.646750 0.421067 0.903018
O O16 0.051787 0.250000 0.644858
O O17 0.181964 0.167394 0.079509
O O18 0.234702 0.250000 0.551499
#
# Coordination Sequence:
#
# PCOD8069893 Si02
#       8
#     4   4   4   4   4   4   4   4
#     4  11  26  43  68  91 127 177 225 273 318 384
#     4  10  18  37  60  88 123 156 213 256 308 390
#     4  11  24  43  65  95 129 167 214 272 335 386
#     4  11  22  39  62  91 125 168 222 268 315 387
#     4   9  19  34  62  90 113 155 204 256 310 376
#     4  11  24  41  60  91 131 174 218 269 331 387
#     4  11  23  37  60  91 130 173 209 266 332 384
#     4  10  20  36  63  90 118 162 206 263 318 381
#
# _framework density 21.101697000000001
#
# number of rings (size 3 to 8) (size 9 to 14) (size 15 to 20)
#    0.000    1.500    2.500    2.625    5.250    0.500 
#    0.000    0.625    0.000    6.750    0.000    0.000 
#    0.000    0.000    0.000    0.000    0.000    0.000 
#
# Total GULP energy -396432.597404 kJ/mol
# GULP energy per Si atom -12388.518669 kJ/mol
# Density = 2.105367 g / cm^3
# Si number density = 21.101697 Si / 1000 Ang^3
#
#
#
# Elastic Constant Matrix: (Units=GPa)
#
#
# Indices 1 2 3 4 5 6 
#
# 1 126.7392 39.5273 9.3563 0.0000 5.3895 0.0000
# 2 39.5273 138.2101 11.8245 0.0000 4.3355 0.0000
# 3 9.3563 11.8245 58.5919 0.0000 -2.9311 0.0000
# 4 0.0000 0.0000 0.0000 22.0824 0.0000 -2.0265
# 5 5.3895 4.3355 -2.9311 0.0000 34.7587 0.0000
# 6 0.0000 0.0000 0.0000 -2.0265 0.0000 27.9361
#
#
#
# Elastic Compliance Matrix: (Units=1/GPa)
#
#
# Indices 1 2 3 4 5 6 
#
# 1 0.008754 -0.002385 -0.000974 0.000000 -0.001142 0.000000
# 2 -0.002385 0.008050 -0.001281 0.000000 -0.000742 0.000000
# 3 -0.000974 -0.001281 0.017571 0.000000 0.001792 0.000000
# 4 0.000000 0.000000 0.000000 0.045588 0.000000 0.003307
# 5 -0.001142 -0.000742 0.001792 0.000000 0.029191 0.000000
# 6 0.000000 0.000000 0.000000 0.003307 0.000000 0.036036
#
#
# Mechanical properties :
#
#
# Convention : Reuss Voigt Hill
#
# Bulk Modulus (GPa) = 39.84587 49.43971 44.64279
# Shear Modulus (GPa) = 30.70598 34.47764 32.59181
#
# Velocity S-wave (km/s) = 3.81877 4.04651 3.93429
# Velocity P-wave (km/s) = 6.19417 6.73145 6.46839
#
# Compressibility (1/GPa) = 0.02509671
#
# Stress axis : x y z
#
# Youngs Moduli (GPa) = 114.22860 124.22032 56.91225
#
# Poissons Ratio (x) = 0.29621 0.05542
# Poissons Ratio (y) = 0.27238 0.07290
# Poissons Ratio (z) = 0.11124 0.15912
#
# Static dielectric constant tensor:
#      x y z
#    x 4.785620 0.000000 0.282400 
#    y 0.000000 3.873210 0.000000 
#    z 0.282400 0.000000 2.990920 
# 
# 
# High freq. dielectric constant tensor:
#      x y z
#    x 1.841980 0.000000 0.002200 
#    y 0.000000 1.805580 0.000000 
#    z 0.002200 0.000000 1.825620 
# 
# From -- ./inp_files/9145.got.cif
#   From: 2010.06.25/outbox.cif.g09.slc.cpg/sg11_5_cif.got.tgz:9145.got - 2010.06.27 23:14:04.
