data_PCOD8069877
_publ_section_title
;
Structure prediction by ZEFSAII (Michael W. Deem and Ramdas Pophale) SiO2 
 PCOD8069877
Probable space group: P 21/M
;
_chemical_formula_sum "Si O2"
_cell_formula_units_Z 26
_cell_length_a 12.458062
_cell_length_b 22.300224
_cell_length_c 8.124396
_cell_angle_alpha 90.000000
_cell_angle_beta 31.973560
_cell_angle_gamma 90.000000
_cell_volume 1195.197330
_symmetry_space_group_name_H-M "P 21/M"
_symmetry_group_IT_number 11
_symmetry_cell_setting 'monoclinic'
loop_
_space_group_symop_operation_xyz
x,y,z
-x,1/2+y,-z
-x,-y,-z
x,1/2-y,z
loop_
_atom_site_type_symbol
_atom_site_label
_atom_site_fract_x
_atom_site_fract_y
_atom_site_fract_z
Si Si1 0.099593 0.460042 0.228077
Si Si2 0.629731 0.632145 0.543730
Si Si3 0.913320 0.250000 0.383472
Si Si4 0.141458 0.120073 0.444334
Si Si5 0.248998 0.573500 0.891708
Si Si6 0.457810 0.750000 0.925907
Si Si7 0.207472 0.250000 0.268685
Si Si8 0.055281 0.626663 0.823055
O O1 0.226983 0.408997 0.162747
O O2 0.937039 0.423221 0.330615
O O3 0.000000 0.500000 0.500000
O O4 0.233159 0.500612 0.928803
O O5 0.706484 0.598770 0.609493
O O6 0.475663 0.590424 0.645878
O O7 0.521471 0.693927 0.731821
O O8 0.826260 0.641280 0.175277
O O9 0.780621 0.250000 0.724777
O O10 0.146645 0.250000 0.152917
O O11 0.860026 0.190723 0.348343
O O12 0.117884 0.191298 0.471561
O O13 0.911850 0.099056 0.769803
O O14 0.198406 0.599512 0.778047
O O15 0.555562 0.750000 0.985228
#
# Coordination Sequence:
#
# PCOD8069877 Si02
#       8
#     4   4   2   4   4   2   2   4
#     4  10  21  40  64  90 124 170 214 257 303 364
#     4  10  22  40  62  92 124 160 206 259 315 371
#     4  12  23  38  68  92 123 163 201 255 321 373
#     4   9  19  38  62  91 119 164 210 260 311 366
#     4  10  22  39  62  86 131 168 203 252 311 372
#     4  10  23  38  64  96 123 157 207 255 315 385
#     4  10  18  36  60  88 124 150 200 268 308 352
#     4  11  24  41  62  95 127 163 205 258 317 368
#
# _framework density 21.753730999999998
#
# number of rings (size 3 to 8) (size 9 to 14) (size 15 to 20)
#    0.000    1.846    1.538    1.846    2.154    4.923 
#    0.000    0.000    0.000    0.000    0.000    0.000 
#    0.000    0.000    0.000    0.000    0.000    0.000 
#
# Total GULP energy -322123.735782 kJ/mol
# GULP energy per Si atom -12389.374453 kJ/mol
# Density = 2.170422 g / cm^3
# Si number density = 21.753731 Si / 1000 Ang^3
#
#
#
# Elastic Constant Matrix: (Units=GPa)
#
#
# Indices 1 2 3 4 5 6 
#
# 1 133.2305 41.1464 28.8535 0.0000 11.2102 0.0000
# 2 41.1464 115.1815 30.7527 0.0000 12.5883 0.0000
# 3 28.8535 30.7527 59.0503 0.0000 0.8585 0.0000
# 4 0.0000 0.0000 0.0000 27.4001 0.0000 14.6861
# 5 11.2102 12.5883 0.8585 0.0000 31.1120 0.0000
# 6 0.0000 0.0000 0.0000 14.6861 0.0000 30.9423
#
#
#
# Elastic Compliance Matrix: (Units=1/GPa)
#
#
# Indices 1 2 3 4 5 6 
#
# 1 0.009066 -0.002103 -0.003301 0.000000 -0.002324 0.000000
# 2 -0.002103 0.011078 -0.004689 0.000000 -0.003595 0.000000
# 3 -0.003301 -0.004689 0.020953 0.000000 0.002508 0.000000
# 4 0.000000 0.000000 0.000000 0.048948 0.000000 -0.023232
# 5 -0.002324 -0.003595 0.002508 0.000000 0.034365 0.000000
# 6 0.000000 0.000000 0.000000 -0.023232 0.000000 0.043345
#
#
# Mechanical properties :
#
#
# Convention : Reuss Voigt Hill
#
# Bulk Modulus (GPa) = 47.82268 56.55195 52.18732
# Shear Modulus (GPa) = 25.65255 31.67152 28.66203
#
# Velocity S-wave (km/s) = 3.43771 3.81978 3.63377
# Velocity P-wave (km/s) = 6.14724 6.74590 6.45351
#
# Compressibility (1/GPa) = 0.02091058
#
# Stress axis : x y z
#
# Youngs Moduli (GPa) = 110.30531 90.26680 47.72534
#
# Poissons Ratio (x) = 0.18986 0.15752
# Poissons Ratio (y) = 0.23200 0.22381
# Poissons Ratio (z) = 0.36407 0.42330
#
# Static dielectric constant tensor:
#      x y z
#    x 4.217160 0.000000 0.173700 
#    y 0.000000 4.491820 0.000000 
#    z 0.173700 0.000000 3.602020 
# 
# 
# High freq. dielectric constant tensor:
#      x y z
#    x 1.865630 0.000000 0.011420 
#    y 0.000000 1.872380 0.000000 
#    z 0.011420 0.000000 1.819230 
# 
# From -- ./inp_files/23047.got.cif
#   From: 2010.06.25/outbox.cif.g09.slc.cpg/sg11_12_cif.got.tgz:23047.got - 2010.06.27 23:14:04.
