data_PCOD8069760
_publ_section_title
;
Structure prediction by ZEFSAII (Michael W. Deem and Ramdas Pophale) SiO2 
 PCOD8069760
Probable space group: P 21/M
;
_chemical_formula_sum "Si O2"
_cell_formula_units_Z 32
_cell_length_a 15.070813
_cell_length_b 9.304594
_cell_length_c 21.593152
_cell_angle_alpha 90.000000
_cell_angle_beta 34.872685
_cell_angle_gamma 90.000000
_cell_volume 1731.250768
_symmetry_space_group_name_H-M "P 21/M"
_symmetry_group_IT_number 11
_symmetry_cell_setting 'monoclinic'
loop_
_space_group_symop_operation_xyz
x,y,z
-x,1/2+y,-z
-x,-y,-z
x,1/2-y,z
loop_
_atom_site_type_symbol
_atom_site_label
_atom_site_fract_x
_atom_site_fract_y
_atom_site_fract_z
Si Si1 0.426846 0.415244 0.739280
Si Si2 0.046106 0.420186 0.273165
Si Si3 0.923071 0.916587 0.884802
Si Si4 0.679948 0.908822 0.797469
Si Si5 0.092531 0.077562 0.892754
Si Si6 0.753034 0.415300 0.517580
Si Si7 0.430633 0.415549 0.875333
Si Si8 0.853023 0.907339 0.571137
O O1 0.395416 0.250000 0.772449
O O2 0.271077 0.474692 0.796836
O O3 0.568633 0.432706 0.607998
O O4 0.458142 0.481971 0.790375
O O5 0.053948 0.250000 0.273539
O O6 0.059802 0.472544 0.195219
O O7 0.192679 0.480759 0.228877
O O8 0.877189 0.472666 0.396030
O O9 0.974234 0.750000 0.861879
O O10 0.748572 0.937468 0.006592
O O11 0.034692 0.018463 0.860335
O O12 0.630066 0.750000 0.850470
O O13 0.756350 0.891099 0.687763
O O14 0.528084 0.006076 0.874088
O O15 0.071356 0.250000 0.908469
O O16 0.000000 0.000000 0.000000
O O17 0.792546 0.250000 0.510954
O O18 0.754189 0.510648 0.577507
O O19 0.481250 0.250000 0.849734
O O20 0.901364 0.750000 0.518703
O O21 0.000000 0.000000 0.500000
#
# Coordination Sequence:
#
# PCOD8069760 Si02
#       8
#     4   4   4   4   4   4   4   4
#     4   9  18  32  54  83 110 135 170 219 276 328
#     4   9  19  36  56  75 105 150 189 219 258 320
#     4  10  21  39  58  78 107 145 186 221 265 328
#     4  10  20  33  50  79 111 142 184 227 267 314
#     4  11  21  37  60  87 112 138 175 223 277 328
#     4  10  18  34  56  77 105 143 183 219 266 321
#     4  10  19  33  53  79 109 142 176 220 274 324
#     4  11  20  30  48  76 107 139 180 227 268 310
#
# _framework density 18.483747000000001
#
# number of rings (size 3 to 8) (size 9 to 14) (size 15 to 20)
#    0.000    2.000    3.750    0.750    0.000    1.500 
#    0.000    3.125    0.000    0.000    0.000    0.000 
#    0.000    0.000    0.000    0.000    0.000    0.000 
#
# Total GULP energy -396488.371440 kJ/mol
# GULP energy per Si atom -12390.261608 kJ/mol
# Density = 1.844168 g / cm^3
# Si number density = 18.483747 Si / 1000 Ang^3
#
#
#
# Elastic Constant Matrix: (Units=GPa)
#
#
# Indices 1 2 3 4 5 6 
#
# 1 127.0310 39.4132 53.4660 0.0000 -7.5528 0.0000
# 2 39.4132 61.8041 21.6712 0.0000 -8.7153 0.0000
# 3 53.4660 21.6712 76.9334 0.0000 -4.7441 0.0000
# 4 0.0000 0.0000 0.0000 14.9757 0.0000 -1.7758
# 5 -7.5528 -8.7153 -4.7441 0.0000 32.8482 0.0000
# 6 0.0000 0.0000 0.0000 -1.7758 0.0000 26.4111
#
#
#
# Elastic Compliance Matrix: (Units=1/GPa)
#
#
# Indices 1 2 3 4 5 6 
#
# 1 0.012627 -0.005466 -0.007210 0.000000 0.000412 0.000000
# 2 -0.005466 0.020876 -0.001834 0.000000 0.004017 0.000000
# 3 -0.007210 -0.001834 0.018559 0.000000 0.000536 0.000000
# 4 0.000000 0.000000 0.000000 0.067312 0.000000 0.004526
# 5 0.000412 0.004017 0.000536 0.000000 0.031681 0.000000
# 6 0.000000 0.000000 0.000000 0.004526 0.000000 0.038167
#
#
# Mechanical properties :
#
#
# Convention : Reuss Voigt Hill
#
# Bulk Modulus (GPa) = 43.40133 54.98547 49.19340
# Shear Modulus (GPa) = 22.13148 24.92820 23.52984
#
# Velocity S-wave (km/s) = 3.46403 3.67639 3.57179
# Velocity P-wave (km/s) = 6.28737 6.91619 6.60927
#
# Compressibility (1/GPa) = 0.02304077
#
# Stress axis : x y z
#
# Youngs Moduli (GPa) = 79.19324 47.90297 53.88265
#
# Poissons Ratio (x) = 0.26185 0.38852
# Poissons Ratio (y) = 0.43289 0.09881
# Poissons Ratio (z) = 0.57101 0.08785
#
# Static dielectric constant tensor:
#      x y z
#    x 3.504170 0.000000 -0.092400 
#    y 0.000000 3.360320 0.000000 
#    z -0.092400 0.000000 3.426690 
# 
# 
# High freq. dielectric constant tensor:
#      x y z
#    x 1.710790 0.000000 -0.014830 
#    y 0.000000 1.692290 0.000000 
#    z -0.014830 0.000000 1.716790 
# 
# From -- ./inp_files/65216.got.cif
#   From: 2010.06.25/outbox.cif.g09.slc.cpg/sg11_33_cif.got.tgz:65216.got - 2010.06.27 23:14:04.
