data_PCOD8069899
_publ_section_title
;
Structure prediction by ZEFSAII (Michael W. Deem and Ramdas Pophale) SiO2 
 PCOD8069899
Probable space group: P 21/M
;
_chemical_formula_sum "Si O2"
_cell_formula_units_Z 28
_cell_length_a 9.332294
_cell_length_b 26.500047
_cell_length_c 5.632441
_cell_angle_alpha 90.000000
_cell_angle_beta 76.651979
_cell_angle_gamma 90.000000
_cell_volume 1355.308538
_symmetry_space_group_name_H-M "P 21/M"
_symmetry_group_IT_number 11
_symmetry_cell_setting 'monoclinic'
loop_
_space_group_symop_operation_xyz
x,y,z
-x,1/2+y,-z
-x,-y,-z
x,1/2-y,z
loop_
_atom_site_type_symbol
_atom_site_label
_atom_site_fract_x
_atom_site_fract_y
_atom_site_fract_z
Si Si1 0.556094 0.190602 0.651312
Si Si2 0.154843 0.557594 0.040203
Si Si3 0.974148 0.885374 0.475834
Si Si4 0.766046 0.849130 0.178687
Si Si5 0.695673 0.345291 0.096428
Si Si6 0.845891 0.554538 0.906913
Si Si7 0.025168 0.806705 0.820087
O O1 0.581522 0.250000 0.652950
O O2 0.384815 0.177405 0.702186
O O3 0.620803 0.171519 0.373881
O O4 0.613543 0.167668 0.880156
O O5 0.221288 0.501549 0.055160
O O6 0.097548 0.580536 0.307615
O O7 0.284639 0.593814 0.894716
O O8 0.017508 0.555478 0.915598
O O9 0.874677 0.848346 0.358805
O O10 0.854855 0.923590 0.638857
O O11 0.067591 0.847674 0.605262
O O12 0.746302 0.907554 0.102331
O O13 0.854413 0.816034 0.950917
O O14 0.857155 0.318620 0.014730
O O15 0.044868 0.750000 0.719023
#
# Coordination Sequence:
#
# PCOD8069899 Si02
#       7
#     4   4   4   4   4   4   4
#     4  12  28  47  66  92 137 186 217 265 339 398
#     4  10  19  37  63  98 130 166 209 274 337 386
#     4  10  18  37  63  97 128 161 219 272 324 392
#     4  10  23  42  63  93 126 168 226 268 323 396
#     4  12  25  45  66  98 134 172 223 272 327 400
#     4   9  19  36  66  97 127 164 215 270 337 386
#     4  11  22  38  64  94 125 164 222 284 324 375
#
# _framework density 20.659503000000001
#
# number of rings (size 3 to 8) (size 9 to 14) (size 15 to 20)
#    0.000    1.429    4.286    3.000    4.000    1.143 
#    0.000    1.429    0.000    0.000    0.000    0.000 
#    0.000    0.000    0.000    0.000    0.000    0.000 
#
# Total GULP energy -346902.623886 kJ/mol
# GULP energy per Si atom -12389.379425 kJ/mol
# Density = 2.061248 g / cm^3
# Si number density = 20.659503 Si / 1000 Ang^3
#
#
#
# Elastic Constant Matrix: (Units=GPa)
#
#
# Indices 1 2 3 4 5 6 
#
# 1 53.7529 3.7290 19.3839 0.0000 -13.2675 0.0000
# 2 3.7290 87.0097 14.7590 0.0000 1.8303 0.0000
# 3 19.3839 14.7590 96.2361 0.0000 1.9593 0.0000
# 4 0.0000 0.0000 0.0000 19.0484 0.0000 -5.0802
# 5 -13.2675 1.8303 1.9593 0.0000 21.0971 0.0000
# 6 0.0000 0.0000 0.0000 -5.0802 0.0000 29.0475
#
#
#
# Elastic Compliance Matrix: (Units=1/GPa)
#
#
# Indices 1 2 3 4 5 6 
#
# 1 0.024421 -0.000505 -0.005165 0.000000 0.015881 0.000000
# 2 -0.000505 0.011826 -0.001688 0.000000 -0.001187 0.000000
# 3 -0.005165 -0.001688 0.011776 0.000000 -0.004195 0.000000
# 4 0.000000 0.000000 0.000000 0.055066 0.000000 0.009631
# 5 0.015881 -0.001187 -0.004195 0.000000 0.057880 0.000000
# 6 0.000000 0.000000 0.000000 0.009631 0.000000 0.036111
#
#
# Mechanical properties :
#
#
# Convention : Reuss Voigt Hill
#
# Bulk Modulus (GPa) = 30.02280 34.74914 32.38597
# Shear Modulus (GPa) = 22.43191 27.11372 24.77281
#
# Velocity S-wave (km/s) = 3.29871 3.62665 3.46656
# Velocity P-wave (km/s) = 5.39188 5.86457 5.63319
#
# Compressibility (1/GPa) = 0.03330801
#
# Stress axis : x y z
#
# Youngs Moduli (GPa) = 40.94830 84.56046 84.92081
#
# Poissons Ratio (x) = 0.04267 0.43860
# Poissons Ratio (y) = 0.02066 0.14333
# Poissons Ratio (z) = 0.21149 0.14272
#
# Static dielectric constant tensor:
#      x y z
#    x 3.455690 0.000000 0.099080 
#    y 0.000000 4.067940 0.000000 
#    z 0.099080 0.000000 3.921640 
# 
# 
# High freq. dielectric constant tensor:
#      x y z
#    x 1.775550 0.000000 0.007750 
#    y 0.000000 1.819310 0.000000 
#    z 0.007750 0.000000 1.815190 
# 
# From -- ./inp_files/2991.got.cif
#   From: 2010.06.25/outbox.cif.g09.slc.cpg/sg11_2_cif.got.tgz:2991.got - 2010.06.27 23:14:04.
