data_PCOD8069175
_publ_section_title
;
Structure prediction by ZEFSAII (Michael W. Deem and Ramdas Pophale) SiO2 
 PCOD8069175
Probable space group: P 21/M
;
_chemical_formula_sum "Si O2"
_cell_formula_units_Z 32
_cell_length_a 21.342746
_cell_length_b 9.321934
_cell_length_c 12.068944
_cell_angle_alpha 90.000000
_cell_angle_beta 129.159663
_cell_angle_gamma 90.000000
_cell_volume 1861.852917
_symmetry_space_group_name_H-M "P 21/M"
_symmetry_group_IT_number 11
_symmetry_cell_setting 'monoclinic'
loop_
_space_group_symop_operation_xyz
x,y,z
-x,1/2+y,-z
-x,-y,-z
x,1/2-y,z
loop_
_atom_site_type_symbol
_atom_site_label
_atom_site_fract_x
_atom_site_fract_y
_atom_site_fract_z
Si Si1 0.534627 0.086825 0.769961
Si Si2 0.058477 0.086422 0.703420
Si Si3 0.665435 0.081845 0.733514
Si Si4 0.624965 0.418518 0.442605
Si Si5 0.679926 0.086700 0.079872
Si Si6 0.253119 0.584221 0.610376
Si Si7 0.095990 0.417732 0.495023
Si Si8 0.224295 0.416056 0.989953
O O1 0.505190 0.250000 0.726030
O O2 0.588806 0.043959 0.724351
O O3 0.457255 0.987636 0.691628
O O4 0.586969 0.062888 0.940007
O O5 0.027161 0.250000 0.666175
O O6 0.095575 0.046309 0.624969
O O7 0.127580 0.065111 0.873089
O O8 0.984216 0.983459 0.650945
O O9 0.685241 0.250000 0.758740
O O10 0.646942 0.026488 0.589721
O O11 0.744181 0.998588 0.866250
O O12 0.610327 0.250000 0.425463
O O13 0.697645 0.462902 0.443049
O O14 0.705619 0.250000 0.078178
O O15 0.688642 0.056177 0.219612
O O16 0.737301 0.978982 0.078616
O O17 0.226777 0.750000 0.575256
O O18 0.173607 0.488500 0.525866
O O19 0.098083 0.250000 0.472488
O O20 0.248645 0.250000 0.025536
#
# Coordination Sequence:
#
# PCOD8069175 Si02
#       8
#     4   4   4   4   4   4   4   4
#     4   9  18  32  50  72  97 127 165 213 257 292
#     4   9  18  31  48  75 106 130 158 198 245 294
#     4   9  19  35  52  72 100 130 166 210 254 295
#     4  10  21  35  51  72  97 133 174 207 245 297
#     4   9  18  32  49  71 101 134 164 198 249 301
#     4  10  20  34  51  70 101 139 169 200 244 297
#     4  10  19  31  49  75 104 133 164 198 240 293
#     4  10  18  30  51  78 103 126 161 206 249 292
#
# _framework density 17.187180000000001
#
# number of rings (size 3 to 8) (size 9 to 14) (size 15 to 20)
#    0.000    2.500    1.250    1.875    0.000    5.000 
#    0.000    0.000    0.000    0.750    0.000    0.000 
#    0.000    0.000    0.000    0.000    0.000    0.000 
#
# Total GULP energy -396839.122087 kJ/mol
# GULP energy per Si atom -12401.222565 kJ/mol
# Density = 1.714806 g / cm^3
# Si number density = 17.187180 Si / 1000 Ang^3
#
#
#
# Elastic Constant Matrix: (Units=GPa)
#
#
# Indices 1 2 3 4 5 6 
#
# 1 94.3956 50.4540 48.5657 0.0000 14.3650 0.0000
# 2 50.4540 75.8942 46.4823 0.0000 16.4890 0.0000
# 3 48.5657 46.4823 71.5448 0.0000 21.3213 0.0000
# 4 0.0000 0.0000 0.0000 28.6097 0.0000 9.5108
# 5 14.3650 16.4890 21.3213 0.0000 22.7036 0.0000
# 6 0.0000 0.0000 0.0000 9.5108 0.0000 26.0823
#
#
#
# Elastic Compliance Matrix: (Units=1/GPa)
#
#
# Indices 1 2 3 4 5 6 
#
# 1 0.018684 -0.007808 -0.008022 0.000000 0.001383 0.000000
# 2 -0.007808 0.025353 -0.009938 0.000000 -0.004140 0.000000
# 3 -0.008022 -0.009938 0.030849 0.000000 -0.016678 0.000000
# 4 0.000000 0.000000 0.000000 0.039775 0.000000 -0.014504
# 5 0.001383 -0.004140 -0.016678 0.000000 0.061840 0.000000
# 6 0.000000 0.000000 0.000000 -0.014504 0.000000 0.043629
#
#
# Mechanical properties :
#
#
# Convention : Reuss Voigt Hill
#
# Bulk Modulus (GPa) = 42.82531 59.20430 51.01481
# Shear Modulus (GPa) = 17.89228 21.90128 19.89678
#
# Velocity S-wave (km/s) = 3.22999 3.57358 3.40612
# Velocity P-wave (km/s) = 6.23551 7.17975 6.72423
#
# Compressibility (1/GPa) = 0.02335068
#
# Stress axis : x y z
#
# Youngs Moduli (GPa) = 53.52153 39.44307 32.41545
#
# Poissons Ratio (x) = 0.30798 0.26004
# Poissons Ratio (y) = 0.41791 0.32213
# Poissons Ratio (z) = 0.42936 0.39197
#
# Static dielectric constant tensor:
#      x y z
#    x 2.967810 0.000000 0.002210 
#    y 0.000000 3.193230 0.000000 
#    z 0.002210 0.000000 3.305870 
# 
# 
# High freq. dielectric constant tensor:
#      x y z
#    x 1.635070 0.000000 0.011400 
#    y 0.000000 1.666560 0.000000 
#    z 0.011400 0.000000 1.665630 
# 
# From -- ./inp_files/38287.got.cif
#   From: 2010.06.25/outbox.cif.g09.slc.cpg/sg11_20_cif.got.tgz:38287.got - 2010.06.27 23:14:04.
