data_PCOD8069409
_publ_section_title
;
Structure prediction by ZEFSAII (Michael W. Deem and Ramdas Pophale) SiO2 
 PCOD8069409
Probable space group: P 21/M
;
_chemical_formula_sum "Si O2"
_cell_formula_units_Z 32
_cell_length_a 10.209929
_cell_length_b 8.859155
_cell_length_c 25.340232
_cell_angle_alpha 90.000000
_cell_angle_beta 128.539173
_cell_angle_gamma 90.000000
_cell_volume 1792.807364
_symmetry_space_group_name_H-M "P 21/M"
_symmetry_group_IT_number 11
_symmetry_cell_setting 'monoclinic'
loop_
_space_group_symop_operation_xyz
x,y,z
-x,1/2+y,-z
-x,-y,-z
x,1/2-y,z
loop_
_atom_site_type_symbol
_atom_site_label
_atom_site_fract_x
_atom_site_fract_y
_atom_site_fract_z
Si Si1 0.661278 0.426998 0.296427
Si Si2 0.960197 0.421339 0.167927
Si Si3 0.945256 0.928144 0.431186
Si Si4 0.284470 0.920843 0.807235
Si Si5 0.634184 0.927224 0.071701
Si Si6 0.245063 0.075763 0.457419
Si Si7 0.538203 0.574275 0.588968
Si Si8 0.327798 0.426534 0.267279
O O1 0.701201 0.250000 0.312289
O O2 0.763662 0.514061 0.367191
O O3 0.709910 0.488204 0.250453
O O4 0.463606 0.459965 0.255888
O O5 0.955198 0.250000 0.144905
O O6 0.905565 0.423229 0.216696
O O7 0.821587 0.518800 0.101089
O O8 0.144893 0.495196 0.207190
O O9 0.941247 0.750000 0.436316
O O10 0.000000 0.000000 0.500000
O O11 0.076209 0.978951 0.419134
O O12 0.354975 0.750000 0.823368
O O13 0.400671 0.018012 0.876563
O O14 0.619502 0.750000 0.064090
O O15 0.500000 0.000000 0.000000
O O16 0.202968 0.250000 0.457189
O O17 0.317975 0.047832 0.417890
O O18 0.374439 0.021338 0.534321
O O19 0.486307 0.750000 0.579404
O O20 0.606030 0.507837 0.660835
O O21 0.298054 0.250000 0.268431
#
# Coordination Sequence:
#
# PCOD8069409 Si02
#       8
#     4   4   4   4   4   4   4   4
#     4  10  20  35  56  80 107 141 178 219 270 322
#     4   8  16  31  51  78 107 137 172 209 251 304
#     4  12  25  39  54  73 100 136 181 230 281 335
#     4   8  17  32  52  79 110 140 174 212 256 312
#     4  10  18  31  54  83 112 142 177 218 260 303
#     4  10  20  33  51  73  98 130 171 222 273 325
#     4   9  18  32  51  74 101 134 172 215 267 321
#     4   9  17  31  53  75  99 135 174 211 254 312
#
# _framework density 17.849101000000001
#
# number of rings (size 3 to 8) (size 9 to 14) (size 15 to 20)
#    0.750    1.750    0.000    3.000    1.750    2.000 
#    0.000    1.250    0.000    0.750    0.000    0.000 
#    0.000    0.000    0.000    0.000    0.000    0.000 
#
# Total GULP energy -396597.956522 kJ/mol
# GULP energy per Si atom -12393.686141 kJ/mol
# Density = 1.780848 g / cm^3
# Si number density = 17.849101 Si / 1000 Ang^3
#
#
#
# Elastic Constant Matrix: (Units=GPa)
#
#
# Indices 1 2 3 4 5 6 
#
# 1 90.9482 32.1665 43.1106 0.0000 15.4703 0.0000
# 2 32.1665 89.6633 43.2307 0.0000 6.1025 0.0000
# 3 43.1106 43.2307 100.2493 0.0000 12.3248 0.0000
# 4 0.0000 0.0000 0.0000 26.2685 0.0000 4.1305
# 5 15.4703 6.1025 12.3248 0.0000 24.2022 0.0000
# 6 0.0000 0.0000 0.0000 4.1305 0.0000 20.8161
#
#
#
# Elastic Compliance Matrix: (Units=1/GPa)
#
#
# Indices 1 2 3 4 5 6 
#
# 1 0.015293 -0.002848 -0.004518 0.000000 -0.006757 0.000000
# 2 -0.002848 0.014616 -0.005173 0.000000 0.000769 0.000000
# 3 -0.004518 -0.005173 0.014544 0.000000 -0.003214 0.000000
# 4 0.000000 0.000000 0.000000 0.039294 0.000000 -0.007797
# 5 -0.006757 0.000769 -0.003214 0.000000 0.047081 0.000000
# 6 0.000000 0.000000 0.000000 -0.007797 0.000000 0.049587
#
#
# Mechanical properties :
#
#
# Convention : Reuss Voigt Hill
#
# Bulk Modulus (GPa) = 51.61056 57.54182 54.57619
# Shear Modulus (GPa) = 23.59028 25.08089 24.33558
#
# Velocity S-wave (km/s) = 3.63940 3.75262 3.69644
# Velocity P-wave (km/s) = 6.82920 7.14731 6.99007
#
# Compressibility (1/GPa) = 0.01937588
#
# Stress axis : x y z
#
# Youngs Moduli (GPa) = 65.38726 68.41669 68.75840
#
# Poissons Ratio (x) = 0.19488 0.31063
# Poissons Ratio (y) = 0.18625 0.35567
# Poissons Ratio (z) = 0.29540 0.35390
#
# Static dielectric constant tensor:
#      x y z
#    x 3.388540 0.000000 0.051480 
#    y 0.000000 3.195000 0.000000 
#    z 0.051480 0.000000 3.150610 
# 
# 
# High freq. dielectric constant tensor:
#      x y z
#    x 1.687560 0.000000 0.005700 
#    y 0.000000 1.674750 0.000000 
#    z 0.005700 0.000000 1.669740 
# 
# From -- ./inp_files/68337.got.cif
#   From: 2010.06.25/outbox.cif.g09.slc.cpg/sg11_35_cif.got.tgz:68337.got - 2010.06.27 23:14:04.
