data_PCOD8069934
_publ_section_title
;
Structure prediction by ZEFSAII (Michael W. Deem and Ramdas Pophale) SiO2 
 PCOD8069934
Probable space group: P 21/M
;
_chemical_formula_sum "Si O2"
_cell_formula_units_Z 32
_cell_length_a 30.902948
_cell_length_b 8.872020
_cell_length_c 20.396281
_cell_angle_alpha 90.000000
_cell_angle_beta 159.275922
_cell_angle_gamma 90.000000
_cell_volume 1978.857895
_symmetry_space_group_name_H-M "P 21/M"
_symmetry_group_IT_number 11
_symmetry_cell_setting 'monoclinic'
loop_
_space_group_symop_operation_xyz
x,y,z
-x,1/2+y,-z
-x,-y,-z
x,1/2-y,z
loop_
_atom_site_type_symbol
_atom_site_label
_atom_site_fract_x
_atom_site_fract_y
_atom_site_fract_z
Si Si1 0.882882 0.075276 0.303114
Si Si2 0.508127 0.428468 0.940468
Si Si3 0.258917 0.074452 0.793926
Si Si4 0.974411 0.424742 0.755567
Si Si5 0.181823 0.419496 0.284656
Si Si6 0.016630 0.420586 0.366658
Si Si7 0.916115 0.418752 0.971652
Si Si8 0.715563 0.426627 0.449309
O O1 0.877249 0.250000 0.315313
O O2 0.898090 0.058225 0.245972
O O3 0.765443 0.988845 0.166762
O O4 0.000000 0.000000 0.500000
O O5 0.509185 0.250000 0.949262
O O6 0.393435 0.478136 0.735179
O O7 0.500000 0.500000 0.000000
O O8 0.630527 0.482053 0.079171
O O9 0.292315 0.250000 0.845451
O O10 0.140927 0.043827 0.581824
O O11 0.997326 0.250000 0.799235
O O12 0.998213 0.466007 0.714229
O O13 0.835996 0.468045 0.578354
O O14 0.072131 0.509995 0.939640
O O15 0.234480 0.250000 0.356596
O O16 0.267982 0.523143 0.451993
O O17 0.046597 0.419764 0.121896
O O18 0.179520 0.487204 0.208005
O O19 0.021730 0.250000 0.346918
O O20 0.865334 0.250000 0.906868
O O21 0.685288 0.250000 0.403701
#
# Coordination Sequence:
#
# PCOD8069934 Si02
#       8
#     4   4   4   4   4   4   4   4
#     4   9  17  30  47  67  89 115 148 186 228 273
#     4  12  24  36  49  66  90 121 156 193 230 267
#     4  10  20  34  50  67  88 117 153 192 231 271
#     4  10  19  28  42  64  90 119 151 186 223 266
#     4   9  16  27  43  62  84 112 148 186 222 263
#     4   9  18  30  45  65  90 118 147 181 224 272
#     4   9  16  26  41  60  85 116 146 179 221 267
#     4  10  20  33  46  63  88 120 157 192 226 265
#
# _framework density 16.170943000000001
#
# number of rings (size 3 to 8) (size 9 to 14) (size 15 to 20)
#    0.000    2.250    0.000    4.875    0.000    9.500 
#    0.000    0.000    0.000    0.000    0.000    0.000 
#    0.000    1.000    0.000    3.750    0.000    5.750 
#
# Total GULP energy -396751.692639 kJ/mol
# GULP energy per Si atom -12398.490395 kJ/mol
# Density = 1.613414 g / cm^3
# Si number density = 16.170943 Si / 1000 Ang^3
#
#
#
# Elastic Constant Matrix: (Units=GPa)
#
#
# Indices 1 2 3 4 5 6 
#
# 1 95.0265 49.5696 44.9969 0.0000 -4.0429 0.0000
# 2 49.5696 111.8172 35.9030 0.0000 -2.7174 0.0000
# 3 44.9969 35.9030 51.8318 0.0000 -5.0637 0.0000
# 4 0.0000 0.0000 0.0000 25.1511 0.0000 -4.4801
# 5 -4.0429 -2.7174 -5.0637 0.0000 22.2583 0.0000
# 6 0.0000 0.0000 0.0000 -4.4801 0.0000 31.8419
#
#
#
# Elastic Compliance Matrix: (Units=1/GPa)
#
#
# Indices 1 2 3 4 5 6 
#
# 1 0.019206 -0.004063 -0.013875 0.000000 -0.000164 0.000000
# 2 -0.004063 0.012365 -0.005075 0.000000 -0.000383 0.000000
# 3 -0.013875 -0.005075 0.035332 0.000000 0.004898 0.000000
# 4 0.000000 0.000000 0.000000 0.040782 0.000000 0.005738
# 5 -0.000164 -0.000383 0.004898 0.000000 0.045965 0.000000
# 6 0.000000 0.000000 0.000000 0.005738 0.000000 0.032213
#
#
# Mechanical properties :
#
#
# Convention : Reuss Voigt Hill
#
# Bulk Modulus (GPa) = 47.89946 57.73493 52.81720
# Shear Modulus (GPa) = 20.93398 24.39732 22.66565
#
# Velocity S-wave (km/s) = 3.60188 3.88843 3.74789
# Velocity P-wave (km/s) = 6.85442 7.47932 7.17368
#
# Compressibility (1/GPa) = 0.02087706
#
# Stress axis : x y z
#
# Youngs Moduli (GPa) = 52.06743 80.87652 28.30285
#
# Poissons Ratio (x) = 0.32861 0.39270
# Poissons Ratio (y) = 0.21156 0.14363
# Poissons Ratio (z) = 0.72243 0.41043
#
# Static dielectric constant tensor:
#      x y z
#    x 3.233940 0.000000 -0.073050 
#    y 0.000000 3.445270 0.000000 
#    z -0.073050 0.000000 2.839490 
# 
# 
# High freq. dielectric constant tensor:
#      x y z
#    x 1.615040 0.000000 -0.016870 
#    y 0.000000 1.643170 0.000000 
#    z -0.016870 0.000000 1.576640 
# 
# From -- ./inp_files/67447.got.cif
#   From: 2010.06.25/outbox.cif.g09.slc.cpg/sg11_34_cif.got.tgz:67447.got - 2010.06.27 23:14:04.
