data_PCOD8069653
_publ_section_title
;
Structure prediction by ZEFSAII (Michael W. Deem and Ramdas Pophale) SiO2 
 PCOD8069653
Probable space group: P 21/M
;
_chemical_formula_sum "Si O2"
_cell_formula_units_Z 24
_cell_length_a 11.734974
_cell_length_b 16.717355
_cell_length_c 9.362858
_cell_angle_alpha 90.000000
_cell_angle_beta 48.882507
_cell_angle_gamma 90.000000
_cell_volume 1383.764614
_symmetry_space_group_name_H-M "P 21/M"
_symmetry_group_IT_number 11
_symmetry_cell_setting 'monoclinic'
loop_
_space_group_symop_operation_xyz
x,y,z
-x,1/2+y,-z
-x,-y,-z
x,1/2-y,z
loop_
_atom_site_type_symbol
_atom_site_label
_atom_site_fract_x
_atom_site_fract_y
_atom_site_fract_z
Si Si1 0.125086 0.159943 0.639571
Si Si2 0.414343 0.586725 0.756573
Si Si3 0.656956 0.929685 0.057675
Si Si4 0.905213 0.036431 0.947706
Si Si5 0.626377 0.840386 0.795506
Si Si6 0.392818 0.338870 0.629160
O O1 0.055577 0.250000 0.685901
O O2 0.221846 0.140646 0.418556
O O3 0.229168 0.154485 0.692910
O O4 0.999287 0.091527 0.761094
O O5 0.454254 0.500468 0.794895
O O6 0.480199 0.652154 0.812953
O O7 0.493113 0.597914 0.537901
O O8 0.233107 0.592439 0.880544
O O9 0.631024 0.855600 0.184731
O O10 0.614977 0.902525 0.934127
O O11 0.830980 0.962181 0.921018
O O12 0.000000 0.000000 0.000000
O O13 0.630469 0.750000 0.850791
O O14 0.460439 0.250000 0.554612
#
# Coordination Sequence:
#
# PCOD8069653 Si02
#       6
#     4   4   4   4   4   4
#     4   9  18  33  53  74 105 143 180 213 260 324
#     4   9  20  33  55  77 105 138 177 218 260 318
#     4  10  20  32  56  79 108 135 177 226 263 309
#     4  10  20  34  54  82 108 137 177 218 267 312
#     4  10  20  36  55  78 103 139 183 222 264 313
#     4  10  18  33  55  79 104 141 180 219 264 311
#
# _framework density 17.343990000000002
#
# number of rings (size 3 to 8) (size 9 to 14) (size 15 to 20)
#    1.000    1.333    1.667    3.000    0.000    2.000 
#    0.000    0.000    0.000    0.000    0.000    0.000 
#    0.000    0.000    0.000    0.000    0.000    0.000 
#
# Total GULP energy -297357.342922 kJ/mol
# GULP energy per Si atom -12389.889288 kJ/mol
# Density = 1.730451 g / cm^3
# Si number density = 17.343990 Si / 1000 Ang^3
#
#
#
# Elastic Constant Matrix: (Units=GPa)
#
#
# Indices 1 2 3 4 5 6 
#
# 1 67.6584 25.5959 39.7993 0.0000 -4.0694 0.0000
# 2 25.5959 86.8337 52.6984 0.0000 -5.5620 0.0000
# 3 39.7993 52.6984 92.8567 0.0000 1.3662 0.0000
# 4 0.0000 0.0000 0.0000 37.2459 0.0000 -0.2828
# 5 -4.0694 -5.5620 1.3662 0.0000 27.7129 0.0000
# 6 0.0000 0.0000 0.0000 -0.2828 0.0000 20.3543
#
#
#
# Elastic Compliance Matrix: (Units=1/GPa)
#
#
# Indices 1 2 3 4 5 6 
#
# 1 0.020101 -0.000704 -0.008263 0.000000 0.003218 0.000000
# 2 -0.000704 0.018051 -0.010001 0.000000 0.004012 0.000000
# 3 -0.008263 -0.010001 0.020049 0.000000 -0.004209 0.000000
# 4 0.000000 0.000000 0.000000 0.026851 0.000000 0.000373
# 5 0.003218 0.004012 -0.004209 0.000000 0.037570 0.000000
# 6 0.000000 0.000000 0.000000 0.000373 0.000000 0.049135
#
#
# Mechanical properties :
#
#
# Convention : Reuss Voigt Hill
#
# Bulk Modulus (GPa) = 49.35123 53.72622 51.53872
# Shear Modulus (GPa) = 23.10031 25.67964 24.38998
#
# Velocity S-wave (km/s) = 3.65347 3.85204 3.75407
# Velocity P-wave (km/s) = 6.80538 7.12940 6.96928
#
# Compressibility (1/GPa) = 0.02026292
#
# Stress axis : x y z
#
# Youngs Moduli (GPa) = 49.74952 55.40006 49.87833
#
# Poissons Ratio (x) = 0.03901 0.41215
# Poissons Ratio (y) = 0.03503 0.49885
# Poissons Ratio (z) = 0.41108 0.55407
#
# Static dielectric constant tensor:
#      x y z
#    x 2.966370 0.000000 -0.031240 
#    y 0.000000 3.284790 0.000000 
#    z -0.031240 0.000000 3.029340 
# 
# 
# High freq. dielectric constant tensor:
#      x y z
#    x 1.646610 0.000000 0.005720 
#    y 0.000000 1.675080 0.000000 
#    z 0.005720 0.000000 1.660830 
# 
# From -- ./inp_files/13200.got.cif
#   From: 2010.06.25/outbox.cif.g09.slc.cpg/sg11_7_cif.got.tgz:13200.got - 2010.06.27 23:14:04.
