data_PCOD8069746
_publ_section_title
;
Structure prediction by ZEFSAII (Michael W. Deem and Ramdas Pophale) SiO2 
 PCOD8069746
Probable space group: P 21/M
;
_chemical_formula_sum "Si O2"
_cell_formula_units_Z 28
_cell_length_a 9.369694
_cell_length_b 13.673677
_cell_length_c 19.574599
_cell_angle_alpha 90.000000
_cell_angle_beta 36.279186
_cell_angle_gamma 90.000000
_cell_volume 1483.952901
_symmetry_space_group_name_H-M "P 21/M"
_symmetry_group_IT_number 11
_symmetry_cell_setting 'monoclinic'
loop_
_space_group_symop_operation_xyz
x,y,z
-x,1/2+y,-z
-x,-y,-z
x,1/2-y,z
loop_
_atom_site_type_symbol
_atom_site_label
_atom_site_fract_x
_atom_site_fract_y
_atom_site_fract_z
Si Si1 0.592778 0.142465 0.254843
Si Si2 0.275094 0.636021 0.563341
Si Si3 0.090218 0.099278 0.995408
Si Si4 0.972436 0.643242 0.126234
Si Si5 0.569757 0.480536 0.049997
Si Si6 0.744000 0.859975 0.741125
Si Si7 0.657138 0.993398 0.340139
O O1 0.534634 0.250000 0.306449
O O2 0.413215 0.115646 0.263852
O O3 0.873928 0.144943 0.123339
O O4 0.522675 0.063332 0.338661
O O5 0.336365 0.750000 0.558300
O O6 0.236764 0.567666 0.644501
O O7 0.485299 0.590058 0.436459
O O8 0.028363 0.631210 0.615414
O O9 0.153271 0.156979 0.900780
O O10 0.322345 0.078909 0.954811
O O11 0.000000 0.000000 0.000000
O O12 0.961505 0.750000 0.165517
O O13 0.863379 0.562405 0.218724
O O14 0.247878 0.610189 0.010763
O O15 0.322055 0.443411 0.178928
O O16 0.500000 0.500000 0.000000
O O17 0.688377 0.750000 0.789435
#
# Coordination Sequence:
#
# PCOD8069746 Si02
#       7
#     4   4   4   4   4   4   4
#     4  11  20  35  59  85 112 148 190 231 278 334
#     4  10  23  40  57  81 112 149 191 235 287 336
#     4  10  18  34  53  81 117 146 183 226 274 340
#     4  11  20  35  58  83 112 152 189 231 282 337
#     4  11  20  33  54  82 118 150 184 233 284 336
#     4  10  20  35  54  79 112 147 186 230 278 336
#     4  11  21  38  59  82 111 144 193 239 278 336
#
# _framework density 18.868524000000001
#
# number of rings (size 3 to 8) (size 9 to 14) (size 15 to 20)
#    0.000    1.429    5.714    2.571    0.000    0.571 
#    0.000    2.143    0.000    0.000    0.000    2.000 
#    0.000    0.000    0.000    0.000    0.000    0.000 
#
# Total GULP energy -346897.882828 kJ/mol
# GULP energy per Si atom -12389.210101 kJ/mol
# Density = 1.882558 g / cm^3
# Si number density = 18.868524 Si / 1000 Ang^3
#
#
#
# Elastic Constant Matrix: (Units=GPa)
#
#
# Indices 1 2 3 4 5 6 
#
# 1 85.5680 33.4612 29.6324 0.0000 4.1265 0.0000
# 2 33.4612 104.5868 25.4662 0.0000 8.2042 0.0000
# 3 29.6324 25.4662 58.1418 0.0000 4.2480 0.0000
# 4 0.0000 0.0000 0.0000 13.4882 0.0000 -3.8169
# 5 4.1265 8.2042 4.2480 0.0000 25.1572 0.0000
# 6 0.0000 0.0000 0.0000 -3.8169 0.0000 20.5942
#
#
#
# Elastic Compliance Matrix: (Units=1/GPa)
#
#
# Indices 1 2 3 4 5 6 
#
# 1 0.015160 -0.003299 -0.006256 0.000000 -0.000354 0.000000
# 2 -0.003299 0.011610 -0.003206 0.000000 -0.002704 0.000000
# 3 -0.006256 -0.003206 0.021911 0.000000 -0.001628 0.000000
# 4 0.000000 0.000000 0.000000 0.078243 0.000000 0.014501
# 5 -0.000354 -0.002704 -0.001628 0.000000 0.040965 0.000000
# 6 0.000000 0.000000 0.000000 0.014501 0.000000 0.051245
#
#
# Mechanical properties :
#
#
# Convention : Reuss Voigt Hill
#
# Bulk Modulus (GPa) = 43.17994 47.26849 45.22421
# Shear Modulus (GPa) = 19.81183 22.49703 21.15443
#
# Velocity S-wave (km/s) = 3.24388 3.45672 3.35199
# Velocity P-wave (km/s) = 6.07985 6.40607 6.24510
#
# Compressibility (1/GPa) = 0.02315890
#
# Stress axis : x y z
#
# Youngs Moduli (GPa) = 65.96214 86.13450 45.63983
#
# Poissons Ratio (x) = 0.28419 0.28550
# Poissons Ratio (y) = 0.21763 0.14632
# Poissons Ratio (z) = 0.41263 0.27615
#
# Static dielectric constant tensor:
#      x y z
#    x 4.257180 0.000000 0.018920 
#    y 0.000000 4.953310 0.000000 
#    z 0.018920 0.000000 3.204620 
# 
# 
# High freq. dielectric constant tensor:
#      x y z
#    x 1.727210 0.000000 0.008160 
#    y 0.000000 1.743480 0.000000 
#    z 0.008160 0.000000 1.714110 
# 
# From -- ./inp_files/22119.got.cif
#   From: 2010.06.25/outbox.cif.g09.slc.cpg/sg11_12_cif.got.tgz:22119.got - 2010.06.27 23:14:04.
