data_PCOD8069635
_publ_section_title
;
Structure prediction by ZEFSAII (Michael W. Deem and Ramdas Pophale) SiO2 
 PCOD8069635
Probable space group: P 21/M
;
_chemical_formula_sum "Si O2"
_cell_formula_units_Z 32
_cell_length_a 26.186645
_cell_length_b 8.688512
_cell_length_c 20.239707
_cell_angle_alpha 90.000000
_cell_angle_beta 21.530419
_cell_angle_gamma 90.000000
_cell_volume 1690.012067
_symmetry_space_group_name_H-M "P 21/M"
_symmetry_group_IT_number 11
_symmetry_cell_setting 'monoclinic'
loop_
_space_group_symop_operation_xyz
x,y,z
-x,1/2+y,-z
-x,-y,-z
x,1/2-y,z
loop_
_atom_site_type_symbol
_atom_site_label
_atom_site_fract_x
_atom_site_fract_y
_atom_site_fract_z
Si Si1 0.347683 0.432715 0.693274
Si Si2 0.573902 0.928978 0.002005
Si Si3 0.410673 0.068998 0.870071
Si Si4 0.281381 0.567094 0.522500
Si Si5 0.295555 0.071432 0.289204
Si Si6 0.906043 0.067878 0.370886
Si Si7 0.782694 0.566946 0.011727
Si Si8 0.846671 0.067105 0.185300
O O1 0.500000 0.500000 0.500000
O O2 0.353163 0.250000 0.680669
O O3 0.293277 0.486491 0.830205
O O4 0.241540 0.498852 0.767997
O O5 0.530703 0.750000 0.049326
O O6 0.686204 0.970876 0.810388
O O7 0.638752 0.968265 0.995601
O O8 0.434258 0.026226 0.161555
O O9 0.418353 0.250000 0.848663
O O10 0.563887 0.998980 0.673017
O O11 0.301796 0.997470 0.949088
O O12 0.283220 0.750000 0.515222
O O13 0.183010 0.500139 0.583034
O O14 0.224465 0.512385 0.661344
O O15 0.267526 0.250000 0.333062
O O16 0.162878 0.980879 0.476821
O O17 0.911360 0.250000 0.361057
O O18 0.061375 0.999091 0.178798
O O19 0.788293 0.750000 0.001530
O O20 0.851786 0.250000 0.173348
O O21 0.000000 0.000000 0.000000
#
# Coordination Sequence:
#
# PCOD8069635 Si02
#       8
#     4   4   4   4   4   4   4   4
#     4  11  22  39  60  83 111 146 187 232 281 337
#     4   9  17  31  53  76 102 136 175 213 256 312
#     4   9  15  29  53  78  97 126 177 225 252 291
#     4   9  17  30  53  76  98 132 178 221 258 309
#     4  10  19  30  48  78 109 135 166 213 267 315
#     4  10  18  33  54  76 101 137 179 216 255 308
#     4   9  19  33  54  79 104 137 182 223 256 311
#     4  11  22  37  57  83 112 144 183 232 282 332
#
# _framework density 18.934774999999998
#
# number of rings (size 3 to 8) (size 9 to 14) (size 15 to 20)
#    0.000    2.250    1.250    2.625    0.000    4.500 
#    0.000    4.375    0.000    1.500    0.000    0.000 
#    0.000    0.000    0.000    0.000    0.000    0.000 
#
# Total GULP energy -396776.514790 kJ/mol
# GULP energy per Si atom -12399.266087 kJ/mol
# Density = 1.889168 g / cm^3
# Si number density = 18.934775 Si / 1000 Ang^3
#
#
#
# Elastic Constant Matrix: (Units=GPa)
#
#
# Indices 1 2 3 4 5 6 
#
# 1 180.6347 26.4676 100.7277 0.0000 0.5880 0.0000
# 2 26.4676 32.4652 23.5987 0.0000 1.2683 0.0000
# 3 100.7277 23.5987 147.1229 0.0000 -1.3451 0.0000
# 4 0.0000 0.0000 0.0000 25.9880 0.0000 4.4937
# 5 0.5880 1.2683 -1.3451 0.0000 38.6707 0.0000
# 6 0.0000 0.0000 0.0000 4.4937 0.0000 22.1351
#
#
#
# Elastic Compliance Matrix: (Units=1/GPa)
#
#
# Indices 1 2 3 4 5 6 
#
# 1 0.009264 -0.003319 -0.005813 0.000000 -0.000234 0.000000
# 2 -0.003319 0.036126 -0.003534 0.000000 -0.001257 0.000000
# 3 -0.005813 -0.003534 0.011349 0.000000 0.000599 0.000000
# 4 0.000000 0.000000 0.000000 0.039879 0.000000 -0.008096
# 5 -0.000234 -0.001257 0.000599 0.000000 0.025925 0.000000
# 6 0.000000 0.000000 0.000000 -0.008096 0.000000 0.046821
#
#
# Mechanical properties :
#
#
# Convention : Reuss Voigt Hill
#
# Bulk Modulus (GPa) = 31.83853 73.53454 52.68654
# Shear Modulus (GPa) = 24.37073 31.32068 27.84571
#
# Velocity S-wave (km/s) = 3.59149 4.07152 3.83902
# Velocity P-wave (km/s) = 5.83522 7.81172 6.89467
#
# Compressibility (1/GPa) = 0.03140848
#
# Stress axis : x y z
#
# Youngs Moduli (GPa) = 107.94007 27.68117 88.11304
#
# Poissons Ratio (x) = 0.09186 0.51218
# Poissons Ratio (y) = 0.35820 0.31140
# Poissons Ratio (z) = 0.62742 0.09783
#
# Static dielectric constant tensor:
#      x y z
#    x 3.709700 0.000000 0.091870 
#    y 0.000000 3.137160 0.000000 
#    z 0.091870 0.000000 3.638010 
# 
# 
# High freq. dielectric constant tensor:
#      x y z
#    x 1.745260 0.000000 0.011590 
#    y 0.000000 1.698750 0.000000 
#    z 0.011590 0.000000 1.741200 
# 
# From -- ./inp_files/66944.got.cif
#   From: 2010.06.25/outbox.cif.g09.slc.cpg/sg11_34_cif.got.tgz:66944.got - 2010.06.27 23:14:04.
