data_PCOD8069345
_publ_section_title
;
Structure prediction by ZEFSAII (Michael W. Deem and Ramdas Pophale) SiO2 
 PCOD8069345
Probable space group: P 21/M
;
_chemical_formula_sum "Si O2"
_cell_formula_units_Z 32
_cell_length_a 12.310434
_cell_length_b 8.830760
_cell_length_c 19.741811
_cell_angle_alpha 90.000000
_cell_angle_beta 64.817237
_cell_angle_gamma 90.000000
_cell_volume 1942.162076
_symmetry_space_group_name_H-M "P 21/M"
_symmetry_group_IT_number 11
_symmetry_cell_setting 'monoclinic'
loop_
_space_group_symop_operation_xyz
x,y,z
-x,1/2+y,-z
-x,-y,-z
x,1/2-y,z
loop_
_atom_site_type_symbol
_atom_site_label
_atom_site_fract_x
_atom_site_fract_y
_atom_site_fract_z
Si Si1 0.832428 0.575640 0.497110
Si Si2 0.994166 0.070738 0.340012
Si Si3 0.699032 0.421620 0.186855
Si Si4 0.526079 0.072132 0.697606
Si Si5 0.555686 0.576433 0.549978
Si Si6 0.078780 0.428432 0.920786
Si Si7 0.201814 0.572082 0.353900
Si Si8 0.084059 0.578552 0.786234
O O1 0.863804 0.750000 0.504538
O O2 0.697656 0.557127 0.506978
O O3 0.852551 0.478780 0.559567
O O4 0.916948 0.513455 0.416579
O O5 0.980024 0.250000 0.351332
O O6 0.949034 0.013807 0.278602
O O7 0.132133 0.018459 0.313275
O O8 0.677056 0.250000 0.168436
O O9 0.571526 0.504635 0.225171
O O10 0.784472 0.507095 0.109504
O O11 0.770805 0.425084 0.240220
O O12 0.509405 0.250000 0.697290
O O13 0.658259 0.027802 0.689253
O O14 0.503247 0.004057 0.629935
O O15 0.500000 0.500000 0.500000
O O16 0.515981 0.750000 0.563833
O O17 0.079386 0.250000 0.928208
O O18 0.023581 0.477294 0.861938
O O19 0.000000 0.500000 0.000000
O O20 0.181580 0.750000 0.350758
O O21 0.035362 0.750000 0.806228
#
# Coordination Sequence:
#
# PCOD8069345 Si02
#       8
#     4   4   4   4   4   4   4   4
#     4  10  21  35  49  67  91 125 169 211 256 303
#     4  11  21  34  52  71  97 129 165 210 255 298
#     4   9  18  33  51  74 103 131 161 196 239 288
#     4  10  20  34  50  69  94 126 164 205 247 292
#     4  10  21  33  46  65  91 124 161 203 251 302
#     4  10  18  31  52  78 109 138 164 195 235 289
#     4  10  21  36  51  69  94 127 170 215 255 296
#     4   8  19  34  48  74 104 132 163 197 244 292
#
# _framework density 16.476483000000002
#
# number of rings (size 3 to 8) (size 9 to 14) (size 15 to 20)
#    0.750    1.500    0.000    3.375    1.750    4.000 
#    0.000    0.000    0.000    0.000    0.000    0.875 
#    0.000    0.000    0.000    0.000    0.000    0.000 
#
# Total GULP energy -396680.334346 kJ/mol
# GULP energy per Si atom -12396.260448 kJ/mol
# Density = 1.643898 g / cm^3
# Si number density = 16.476483 Si / 1000 Ang^3
#
#
#
# Elastic Constant Matrix: (Units=GPa)
#
#
# Indices 1 2 3 4 5 6 
#
# 1 54.6344 27.7687 37.0688 0.0000 -5.0571 0.0000
# 2 27.7687 88.7182 33.1014 0.0000 -10.8586 0.0000
# 3 37.0688 33.1014 86.2672 0.0000 -20.2931 0.0000
# 4 0.0000 0.0000 0.0000 29.7124 0.0000 -2.7682
# 5 -5.0571 -10.8586 -20.2931 0.0000 20.0152 0.0000
# 6 0.0000 0.0000 0.0000 -2.7682 0.0000 27.7509
#
#
#
# Elastic Compliance Matrix: (Units=1/GPa)
#
#
# Indices 1 2 3 4 5 6 
#
# 1 0.028474 -0.005394 -0.012031 0.000000 -0.007930 0.000000
# 2 -0.005394 0.014285 -0.002181 0.000000 0.004175 0.000000
# 3 -0.012031 -0.002181 0.021806 0.000000 0.017885 0.000000
# 4 0.000000 0.000000 0.000000 0.033972 0.000000 0.003389
# 5 -0.007930 0.004175 0.017885 0.000000 0.068357 0.000000
# 6 0.000000 0.000000 0.000000 0.003389 0.000000 0.036373
#
#
# Mechanical properties :
#
#
# Convention : Reuss Voigt Hill
#
# Bulk Modulus (GPa) = 39.44415 47.27751 43.36083
# Shear Modulus (GPa) = 19.92598 24.27445 22.10022
#
# Velocity S-wave (km/s) = 3.48136 3.84250 3.66638
# Velocity P-wave (km/s) = 6.33652 6.96007 6.65560
#
# Compressibility (1/GPa) = 0.02535230
#
# Stress axis : x y z
#
# Youngs Moduli (GPa) = 35.12004 70.00434 45.85967
#
# Poissons Ratio (x) = 0.37761 0.55173
# Poissons Ratio (y) = 0.18944 0.10003
# Poissons Ratio (z) = 0.42252 0.15269
#
# Static dielectric constant tensor:
#      x y z
#    x 3.205670 0.000000 -0.066070 
#    y 0.000000 3.356090 0.000000 
#    z -0.066070 0.000000 2.889200 
# 
# 
# High freq. dielectric constant tensor:
#      x y z
#    x 1.624330 0.000000 -0.011000 
#    y 0.000000 1.652180 0.000000 
#    z -0.011000 0.000000 1.605680 
# 
# From -- ./inp_files/64187.got.cif
#   From: 2010.06.25/outbox.cif.g09.slc.cpg/sg11_33_cif.got.tgz:64187.got - 2010.06.27 23:14:04.
