data_PCOD8069837
_publ_section_title
;
Structure prediction by ZEFSAII (Michael W. Deem and Ramdas Pophale) SiO2 
 PCOD8069837
Probable space group: P 21/M
;
_chemical_formula_sum "Si O2"
_cell_formula_units_Z 28
_cell_length_a 10.846065
_cell_length_b 17.649609
_cell_length_c 7.462550
_cell_angle_alpha 90.000000
_cell_angle_beta 99.150215
_cell_angle_gamma 90.000000
_cell_volume 1410.368514
_symmetry_space_group_name_H-M "P 21/M"
_symmetry_group_IT_number 11
_symmetry_cell_setting 'monoclinic'
loop_
_space_group_symop_operation_xyz
x,y,z
-x,1/2+y,-z
-x,-y,-z
x,1/2-y,z
loop_
_atom_site_type_symbol
_atom_site_label
_atom_site_fract_x
_atom_site_fract_y
_atom_site_fract_z
Si Si1 0.125812 0.964303 0.453395
Si Si2 0.376419 0.936178 0.671978
Si Si3 0.035037 0.162552 0.691724
Si Si4 0.793679 0.621576 0.593456
Si Si5 0.531248 0.899281 0.371797
Si Si6 0.771859 0.664789 0.979857
Si Si7 0.499524 0.838167 0.991468
O O1 0.225726 0.941840 0.629549
O O2 0.090068 0.889282 0.331774
O O3 0.192182 0.031741 0.356430
O O4 0.000000 0.000000 0.500000
O O5 0.427377 0.897038 0.502550
O O6 0.401878 0.885880 0.852490
O O7 0.442831 0.017506 0.702457
O O8 0.997054 0.250000 0.716087
O O9 0.102116 0.153812 0.515730
O O10 0.124041 0.127594 0.867495
O O11 0.657841 0.637934 0.478739
O O12 0.812888 0.664593 0.783625
O O13 0.476439 0.848856 0.197658
O O14 0.759789 0.750000 0.048328
O O15 0.636359 0.627166 0.974797
O O16 0.486145 0.750000 0.936698
#
# Coordination Sequence:
#
# PCOD8069837 Si02
#       7
#     4   4   4   4   4   4   4
#     4   9  21  39  59  83 109 150 201 235 273 334
#     4  10  21  39  59  83 116 152 187 236 289 338
#     4  10  20  36  56  78 113 153 188 235 286 337
#     4  10  18  35  58  83 113 144 190 242 283 334
#     4  10  20  36  59  86 116 147 187 234 291 346
#     4  10  20  32  54  87 115 145 186 231 290 346
#     4  11  22  35  56  90 122 148 184 233 292 353
#
# _framework density 19.852969000000002
#
# number of rings (size 3 to 8) (size 9 to 14) (size 15 to 20)
#    0.000    2.000    2.857    0.857    0.000    2.286 
#    0.000    2.857    0.000    3.429    0.000    0.000 
#    0.000    0.000    0.000    0.000    0.000    0.000 
#
# Total GULP energy -347130.121331 kJ/mol
# GULP energy per Si atom -12397.504333 kJ/mol
# Density = 1.980778 g / cm^3
# Si number density = 19.852969 Si / 1000 Ang^3
#
#
#
# Elastic Constant Matrix: (Units=GPa)
#
#
# Indices 1 2 3 4 5 6 
#
# 1 76.1767 18.6644 31.8633 0.0000 22.8417 0.0000
# 2 18.6644 71.3681 25.3119 0.0000 21.6180 0.0000
# 3 31.8633 25.3119 114.3718 0.0000 8.0473 0.0000
# 4 0.0000 0.0000 0.0000 31.9209 0.0000 1.9912
# 5 22.8417 21.6180 8.0473 0.0000 32.0455 0.0000
# 6 0.0000 0.0000 0.0000 1.9912 0.0000 17.8845
#
#
#
# Elastic Compliance Matrix: (Units=1/GPa)
#
#
# Indices 1 2 3 4 5 6 
#
# 1 0.018593 0.000478 -0.004408 0.000000 -0.012468 0.000000
# 2 0.000478 0.018786 -0.003436 0.000000 -0.012151 0.000000
# 3 -0.004408 -0.003436 0.010534 0.000000 0.002815 0.000000
# 4 0.000000 0.000000 0.000000 0.031546 0.000000 -0.003512
# 5 -0.012468 -0.012151 0.002815 0.000000 0.047583 0.000000
# 6 0.000000 0.000000 0.000000 -0.003512 0.000000 0.056305
#
#
# Mechanical properties :
#
#
# Convention : Reuss Voigt Hill
#
# Bulk Modulus (GPa) = 30.13855 45.95509 38.04682
# Shear Modulus (GPa) = 23.90740 28.77531 26.34136
#
# Velocity S-wave (km/s) = 3.47396 3.81126 3.64651
# Velocity P-wave (km/s) = 5.59509 6.52423 6.07744
#
# Compressibility (1/GPa) = 0.03318010
#
# Stress axis : x y z
#
# Youngs Moduli (GPa) = 53.78427 53.23088 94.93192
#
# Poissons Ratio (x) = -0.02543 0.41849
# Poissons Ratio (y) = -0.02569 0.32616
# Poissons Ratio (z) = 0.23710 0.18289
#
# Static dielectric constant tensor:
#      x y z
#    x 3.584490 0.000000 0.224180 
#    y 0.000000 3.766390 0.000000 
#    z 0.224180 0.000000 3.476730 
# 
# 
# High freq. dielectric constant tensor:
#      x y z
#    x 1.754670 0.000000 0.014380 
#    y 0.000000 1.771280 0.000000 
#    z 0.014380 0.000000 1.768130 
# 
# From -- ./inp_files/5098.got.cif
#   From: 2010.06.25/outbox.cif.g09.slc.cpg/sg11_3_cif.got.tgz:5098.got - 2010.06.27 23:14:04.
