data_PCOD8069318
_publ_section_title
;
Structure prediction by ZEFSAII (Michael W. Deem and Ramdas Pophale) SiO2 
 PCOD8069318
Probable space group: P 21/M
;
_chemical_formula_sum "Si O2"
_cell_formula_units_Z 32
_cell_length_a 15.484032
_cell_length_b 9.029135
_cell_length_c 15.633161
_cell_angle_alpha 90.000000
_cell_angle_beta 124.267078
_cell_angle_gamma 90.000000
_cell_volume 1806.254139
_symmetry_space_group_name_H-M "P 21/M"
_symmetry_group_IT_number 11
_symmetry_cell_setting 'monoclinic'
loop_
_space_group_symop_operation_xyz
x,y,z
-x,1/2+y,-z
-x,-y,-z
x,1/2-y,z
loop_
_atom_site_type_symbol
_atom_site_label
_atom_site_fract_x
_atom_site_fract_y
_atom_site_fract_z
Si Si1 0.265056 0.573764 0.926659
Si Si2 0.914797 0.921417 0.267352
Si Si3 0.347325 0.076550 0.459705
Si Si4 0.465295 0.422479 0.355237
Si Si5 0.150600 0.920189 0.415936
Si Si6 0.595690 0.925315 0.867091
Si Si7 0.826203 0.076696 0.377817
Si Si8 0.383481 0.922858 0.826971
O O1 0.257375 0.750000 0.927040
O O2 0.150953 0.510697 0.840159
O O3 0.346213 0.517777 0.898682
O O4 0.303141 0.507039 0.037834
O O5 0.881538 0.750000 0.247547
O O6 0.036363 0.940896 0.311266
O O7 0.897776 0.984215 0.353030
O O8 0.345422 0.250000 0.473393
O O9 0.385457 0.033879 0.385881
O O10 0.425291 0.007363 0.573169
O O11 0.231033 0.014555 0.405109
O O12 0.493437 0.250000 0.371837
O O13 0.411288 0.468117 0.236342
O O14 0.186733 0.750000 0.434136
O O15 0.148527 0.976172 0.512668
O O16 0.607752 0.750000 0.886144
O O17 0.493183 0.992071 0.857872
O O18 0.850089 0.250000 0.376395
O O19 0.704659 0.040597 0.292363
O O20 0.400967 0.750000 0.843355
#
# Coordination Sequence:
#
# PCOD8069318 Si02
#       8
#     4   4   4   4   4   4   4   4
#     4  10  20  33  47  68 100 132 165 206 246 285
#     4  10  20  33  49  71  98 131 170 206 244 291
#     4  10  20  33  52  78 104 130 162 200 243 294
#     4   9  19  35  53  75 104 133 160 198 248 296
#     4  10  20  33  51  73  99 132 167 204 247 295
#     4  10  18  31  52  72  94 129 168 201 240 292
#     4   9  17  31  49  71 101 133 163 198 244 292
#     4   8  15  27  45  69  96 127 158 189 231 284
#
# _framework density 17.716221999999998
#
# number of rings (size 3 to 8) (size 9 to 14) (size 15 to 20)
#    0.000    2.500    0.000    3.375    0.000    4.500 
#    0.000    2.500    0.000    0.750    0.000    0.000 
#    0.000    0.000    0.000    0.000    0.000    0.000 
#
# Total GULP energy -396819.251801 kJ/mol
# GULP energy per Si atom -12400.601619 kJ/mol
# Density = 1.767590 g / cm^3
# Si number density = 17.716222 Si / 1000 Ang^3
#
#
#
# Elastic Constant Matrix: (Units=GPa)
#
#
# Indices 1 2 3 4 5 6 
#
# 1 84.5320 41.2236 49.6207 0.0000 9.7215 0.0000
# 2 41.2236 66.1276 46.4715 0.0000 3.0483 0.0000
# 3 49.6207 46.4715 126.3904 0.0000 4.0236 0.0000
# 4 0.0000 0.0000 0.0000 27.4090 0.0000 2.5603
# 5 9.7215 3.0483 4.0236 0.0000 18.1048 0.0000
# 6 0.0000 0.0000 0.0000 2.5603 0.0000 27.0227
#
#
#
# Elastic Compliance Matrix: (Units=1/GPa)
#
#
# Indices 1 2 3 4 5 6 
#
# 1 0.019522 -0.008889 -0.004139 0.000000 -0.008066 0.000000
# 2 -0.008889 0.024496 -0.005577 0.000000 0.001888 0.000000
# 3 -0.004139 -0.005577 0.011569 0.000000 0.000591 0.000000
# 4 0.000000 0.000000 0.000000 0.036810 0.000000 -0.003488
# 5 -0.008066 0.001888 0.000591 0.000000 0.059116 0.000000
# 6 0.000000 0.000000 0.000000 -0.003488 0.000000 0.037336
#
#
# Mechanical properties :
#
#
# Convention : Reuss Voigt Hill
#
# Bulk Modulus (GPa) = 54.41852 61.29794 57.85823
# Shear Modulus (GPa) = 21.53446 23.82291 22.67868
#
# Velocity S-wave (km/s) = 3.49022 3.67099 3.58174
# Velocity P-wave (km/s) = 6.85752 7.25556 7.05935
#
# Compressibility (1/GPa) = 0.01837610
#
# Stress axis : x y z
#
# Youngs Moduli (GPa) = 51.22349 40.82288 86.43979
#
# Poissons Ratio (x) = 0.36289 0.35779
# Poissons Ratio (y) = 0.45535 0.48207
# Poissons Ratio (z) = 0.21202 0.22766
#
# Static dielectric constant tensor:
#      x y z
#    x 3.220510 0.000000 0.034960 
#    y 0.000000 3.147060 0.000000 
#    z 0.034960 0.000000 3.308580 
# 
# 
# High freq. dielectric constant tensor:
#      x y z
#    x 1.666820 0.000000 0.010110 
#    y 0.000000 1.677120 0.000000 
#    z 0.010110 0.000000 1.682710 
# 
# From -- ./inp_files/51655.got.cif
#   From: 2010.06.25/outbox.cif.g09.slc.cpg/sg11_26_cif.got.tgz:51655.got - 2010.06.27 23:14:04.
