data_PCOD8069569
_publ_section_title
;
Structure prediction by ZEFSAII (Michael W. Deem and Ramdas Pophale) SiO2 
 PCOD8069569
Probable space group: P 21/M
;
_chemical_formula_sum "Si O2"
_cell_formula_units_Z 32
_cell_length_a 16.052077
_cell_length_b 18.198318
_cell_length_c 10.150278
_cell_angle_alpha 90.000000
_cell_angle_beta 142.998147
_cell_angle_gamma 90.000000
_cell_volume 1784.522731
_symmetry_space_group_name_H-M "P 21/M"
_symmetry_group_IT_number 11
_symmetry_cell_setting 'monoclinic'
loop_
_space_group_symop_operation_xyz
x,y,z
-x,1/2+y,-z
-x,-y,-z
x,1/2-y,z
loop_
_atom_site_type_symbol
_atom_site_label
_atom_site_fract_x
_atom_site_fract_y
_atom_site_fract_z
Si Si1 0.919130 0.586614 0.027658
Si Si2 0.919698 0.835622 0.538413
Si Si3 0.338225 0.662842 0.924497
Si Si4 0.654956 0.835868 0.617409
Si Si5 0.938811 0.164059 0.554152
Si Si6 0.657730 0.335681 0.769879
Si Si7 0.362053 0.163112 0.700483
Si Si8 0.918333 0.413527 0.028670
O O1 0.908389 0.500199 0.030234
O O2 0.014392 0.617742 0.262810
O O3 0.765639 0.620661 0.845427
O O4 0.987978 0.609839 0.976479
O O5 0.938208 0.750000 0.597453
O O6 0.760368 0.861627 0.356584
O O7 0.957112 0.851046 0.435017
O O8 0.018919 0.880568 0.759075
O O9 0.330376 0.750000 0.913476
O O10 0.213418 0.633127 0.676951
O O11 0.321270 0.637049 0.053648
O O12 0.487666 0.634208 0.058914
O O13 0.690298 0.750000 0.670804
O O14 0.499971 0.851162 0.475491
O O15 0.668175 0.865948 0.484778
O O16 0.935871 0.250000 0.586710
O O17 0.692522 0.250000 0.799981
O O18 0.763725 0.381223 0.812583
O O19 0.373362 0.250000 0.704470
#
# Coordination Sequence:
#
# PCOD8069569 Si02
#       8
#     4   4   4   4   4   4   4   4
#     4  11  24  36  49  77 114 149 175 211 270 318
#     4  10  18  32  56  80  99 131 181 226 260 308
#     4   8  14  28  50  78 103 125 163 216 268 307
#     4   9  17  32  55  79 103 134 176 224 269 312
#     4  10  20  34  54  79 107 133 167 221 274 315
#     4   9  17  32  57  82  99 128 183 232 259 304
#     4   8  14  26  51  79  98 125 169 218 259 302
#     4  11  22  36  53  76 107 148 186 217 246 317
#
# _framework density 17.931965000000002
#
# number of rings (size 3 to 8) (size 9 to 14) (size 15 to 20)
#    0.000    2.500    2.500    2.250    0.000    2.500 
#    0.000    1.250    0.000    3.750    0.000    0.000 
#    0.000    0.000    0.000    0.000    0.000    0.000 
#
# Total GULP energy -396686.566861 kJ/mol
# GULP energy per Si atom -12396.455214 kJ/mol
# Density = 1.789115 g / cm^3
# Si number density = 17.931965 Si / 1000 Ang^3
#
#
#
# Elastic Constant Matrix: (Units=GPa)
#
#
# Indices 1 2 3 4 5 6 
#
# 1 73.8158 36.3100 40.9988 0.0000 24.8846 0.0000
# 2 36.3100 52.6693 35.6109 0.0000 6.0519 0.0000
# 3 40.9988 35.6109 110.4171 0.0000 23.3636 0.0000
# 4 0.0000 0.0000 0.0000 13.9446 0.0000 2.7693
# 5 24.8846 6.0519 23.3636 0.0000 32.1600 0.0000
# 6 0.0000 0.0000 0.0000 2.7693 0.0000 36.0166
#
#
#
# Elastic Compliance Matrix: (Units=1/GPa)
#
#
# Indices 1 2 3 4 5 6 
#
# 1 0.028605 -0.016682 -0.001444 0.000000 -0.017945 0.000000
# 2 -0.016682 0.034057 -0.007285 0.000000 0.011791 0.000000
# 3 -0.001444 -0.007285 0.013489 0.000000 -0.007312 0.000000
# 4 0.000000 0.000000 0.000000 0.072824 0.000000 -0.005599
# 5 -0.017945 0.011791 -0.007312 0.000000 0.048073 0.000000
# 6 0.000000 0.000000 0.000000 -0.005599 0.000000 0.028196
#
#
# Mechanical properties :
#
#
# Convention : Reuss Voigt Hill
#
# Bulk Modulus (GPa) = 39.47840 51.41572 45.44706
# Shear Modulus (GPa) = 17.57417 24.68972 21.13195
#
# Velocity S-wave (km/s) = 3.13397 3.71463 3.43658
# Velocity P-wave (km/s) = 5.92951 6.86534 6.41451
#
# Compressibility (1/GPa) = 0.02533031
#
# Stress axis : x y z
#
# Youngs Moduli (GPa) = 34.95933 29.36238 74.13319
#
# Poissons Ratio (x) = 0.48981 0.10705
# Poissons Ratio (y) = 0.58318 0.54005
# Poissons Ratio (z) = 0.05048 0.21390
#
# Static dielectric constant tensor:
#      x y z
#    x 3.512820 0.000000 0.412720 
#    y 0.000000 2.955630 0.000000 
#    z 0.412720 0.000000 3.442230 
# 
# 
# High freq. dielectric constant tensor:
#      x y z
#    x 1.692290 0.000000 0.025630 
#    y 0.000000 1.658700 0.000000 
#    z 0.025630 0.000000 1.692650 
# 
# From -- ./inp_files/23116.got.cif
#   From: 2010.06.25/outbox.cif.g09.slc.cpg/sg11_12_cif.got.tgz:23116.got - 2010.06.27 23:14:04.
