data_PCOD8069084
_publ_section_title
;
Structure prediction by ZEFSAII (Michael W. Deem and Ramdas Pophale) SiO2 
 PCOD8069084
Probable space group: P 21/M
;
_chemical_formula_sum "Si O2"
_cell_formula_units_Z 28
_cell_length_a 10.837441
_cell_length_b 10.372678
_cell_length_c 16.733680
_cell_angle_alpha 90.000000
_cell_angle_beta 124.028024
_cell_angle_gamma 90.000000
_cell_volume 1558.977912
_symmetry_space_group_name_H-M "P 21/M"
_symmetry_group_IT_number 11
_symmetry_cell_setting 'monoclinic'
loop_
_space_group_symop_operation_xyz
x,y,z
-x,1/2+y,-z
-x,-y,-z
x,1/2-y,z
loop_
_atom_site_type_symbol
_atom_site_label
_atom_site_fract_x
_atom_site_fract_y
_atom_site_fract_z
Si Si1 0.292950 0.604466 0.902927
Si Si2 0.069128 0.609411 0.117759
Si Si3 0.786844 0.399164 0.403456
Si Si4 0.101068 0.103430 0.437195
Si Si5 0.239577 0.481182 0.046570
Si Si6 0.448795 0.602372 0.806562
Si Si7 0.051873 0.105814 0.239467
O O1 0.344935 0.750000 0.936493
O O2 0.392029 0.537482 0.869099
O O3 0.123601 0.595438 0.813179
O O4 0.316242 0.532864 0.994518
O O5 0.100469 0.750000 0.167071
O O6 0.175193 0.594251 0.079179
O O7 0.108193 0.497890 0.195233
O O8 0.897764 0.610913 0.026081
O O9 0.771129 0.250000 0.427194
O O10 0.799486 0.496068 0.482821
O O11 0.641417 0.450255 0.302799
O O12 0.928597 0.414484 0.397227
O O13 0.151477 0.250000 0.477460
O O14 0.125027 0.078321 0.351745
O O15 0.373786 0.410469 0.141943
O O16 0.400225 0.750000 0.795722
O O17 0.094770 0.250000 0.224665
#
# Coordination Sequence:
#
# PCOD8069084 Si02
#       7
#     4   4   4   4   4   4   4
#     4   9  16  29  48  71  99 133 166 199 243 297
#     4  10  21  35  50  73 100 131 173 217 252 286
#     4   9  17  29  49  75 103 132 163 197 243 297
#     4   9  16  30  50  74 103 133 163 197 242 298
#     4  10  20  32  50  69  99 135 172 208 247 294
#     4  10  18  30  49  73 101 133 167 202 243 299
#     4   9  17  31  53  75  99 133 169 203 244 297
#
# _framework density 17.960487000000001
#
# number of rings (size 3 to 8) (size 9 to 14) (size 15 to 20)
#    0.000    2.571    1.429    1.286    0.000    4.571 
#    0.000    1.429    0.000    1.714    0.000    0.000 
#    0.000    0.000    0.000    0.000    0.000    0.000 
#
# Total GULP energy -347012.285176 kJ/mol
# GULP energy per Si atom -12393.295899 kJ/mol
# Density = 1.791961 g / cm^3
# Si number density = 17.960487 Si / 1000 Ang^3
#
#
#
# Elastic Constant Matrix: (Units=GPa)
#
#
# Indices 1 2 3 4 5 6 
#
# 1 50.1954 29.3799 41.4841 0.0000 -2.1687 0.0000
# 2 29.3799 104.7309 58.1211 0.0000 -12.9158 0.0000
# 3 41.4841 58.1211 117.1587 0.0000 -4.3264 0.0000
# 4 0.0000 0.0000 0.0000 24.1789 0.0000 -3.6429
# 5 -2.1687 -12.9158 -4.3264 0.0000 17.5521 0.0000
# 6 0.0000 0.0000 0.0000 -3.6429 0.0000 11.8004
#
#
#
# Elastic Compliance Matrix: (Units=1/GPa)
#
#
# Indices 1 2 3 4 5 6 
#
# 1 0.029017 -0.003523 -0.008568 0.000000 -0.001119 0.000000
# 2 -0.003523 0.014873 -0.005795 0.000000 0.009080 0.000000
# 3 -0.008568 -0.005795 0.014378 0.000000 -0.001779 0.000000
# 4 0.000000 0.000000 0.000000 0.043376 0.000000 0.013390
# 5 -0.001119 0.009080 -0.001779 0.000000 0.063078 0.000000
# 6 0.000000 0.000000 0.000000 0.013390 0.000000 0.088876
#
#
# Mechanical properties :
#
#
# Convention : Reuss Voigt Hill
#
# Bulk Modulus (GPa) = 44.45412 58.89503 51.67458
# Shear Modulus (GPa) = 16.84240 20.24627 18.54433
#
# Velocity S-wave (km/s) = 3.06559 3.36112 3.21675
# Velocity P-wave (km/s) = 6.11026 6.92282 6.52919
#
# Compressibility (1/GPa) = 0.02249510
#
# Stress axis : x y z
#
# Youngs Moduli (GPa) = 34.46253 67.23789 69.54830
#
# Poissons Ratio (x) = 0.23690 0.59589
# Poissons Ratio (y) = 0.12142 0.40305
# Poissons Ratio (z) = 0.29527 0.38966
#
# Static dielectric constant tensor:
#      x y z
#    x 3.056760 0.000000 -0.092610 
#    y 0.000000 3.215620 0.000000 
#    z -0.092610 0.000000 3.305520 
# 
# 
# High freq. dielectric constant tensor:
#      x y z
#    x 1.674230 0.000000 -0.008700 
#    y 0.000000 1.680920 0.000000 
#    z -0.008700 0.000000 1.688180 
# 
# From -- ./inp_files/47113.got.cif
#   From: 2010.06.25/outbox.cif.g09.slc.cpg/sg11_24_cif.got.tgz:47113.got - 2010.06.27 23:14:04.
