data_PCOD8069578
_publ_section_title
;
Structure prediction by ZEFSAII (Michael W. Deem and Ramdas Pophale) SiO2 
 PCOD8069578
Probable space group: P 21/M
;
_chemical_formula_sum "Si O2"
_cell_formula_units_Z 28
_cell_length_a 11.618767
_cell_length_b 9.098779
_cell_length_c 15.092135
_cell_angle_alpha 90.000000
_cell_angle_beta 115.162352
_cell_angle_gamma 90.000000
_cell_volume 1444.087757
_symmetry_space_group_name_H-M "P 21/M"
_symmetry_group_IT_number 11
_symmetry_cell_setting 'monoclinic'
loop_
_space_group_symop_operation_xyz
x,y,z
-x,1/2+y,-z
-x,-y,-z
x,1/2-y,z
loop_
_atom_site_type_symbol
_atom_site_label
_atom_site_fract_x
_atom_site_fract_y
_atom_site_fract_z
Si Si1 0.178333 0.422426 0.346978
Si Si2 0.016328 0.423573 0.136771
Si Si3 0.474590 0.422598 0.083976
Si Si4 0.545479 0.921328 0.601685
Si Si5 0.191362 0.077824 0.031846
Si Si6 0.134566 0.426046 0.529508
Si Si7 0.639430 0.423278 0.303733
O O1 0.163070 0.250000 0.350355
O O2 0.062224 0.481127 0.248422
O O3 0.307073 0.462725 0.336776
O O4 0.179000 0.484264 0.447127
O O5 0.995582 0.250000 0.128824
O O6 0.125366 0.469779 0.102099
O O7 0.882179 0.499439 0.072907
O O8 0.474397 0.250000 0.067114
O O9 0.338294 0.472289 0.079265
O O10 0.585768 0.465614 0.189455
O O11 0.500000 0.500000 0.000000
O O12 0.527118 0.750000 0.579921
O O13 0.467784 0.973797 0.661534
O O14 0.500000 0.000000 0.500000
O O15 0.179400 0.250000 0.012630
O O16 0.125963 0.250000 0.533945
O O17 0.232304 0.486374 0.635203
O O18 0.000000 0.500000 0.500000
O O19 0.668166 0.250000 0.319981
#
# Coordination Sequence:
#
# PCOD8069578 Si02
#       7
#     4   4   4   4   4   4   4
#     4   9  18  33  54  80 108 141 179 218 268 328
#     4   9  17  32  56  80 105 140 177 218 271 330
#     4  10  22  39  58  81 110 148 191 234 279 332
#     4  10  18  32  56  84 112 141 178 226 279 334
#     4   9  18  34  54  79 109 138 175 225 278 324
#     4  11  23  39  57  79 111 148 188 229 273 332
#     4  10  21  38  60  84 112 146 185 232 287 340
#
# _framework density 19.389403000000001
#
# number of rings (size 3 to 8) (size 9 to 14) (size 15 to 20)
#    0.000    2.286    1.429    1.286    0.000    5.714 
#    0.000    6.429    0.000    3.429    0.000    0.000 
#    0.000    0.000    0.000    0.000    0.000    0.000 
#
# Total GULP energy -347124.826933 kJ/mol
# GULP energy per Si atom -12397.315248 kJ/mol
# Density = 1.934527 g / cm^3
# Si number density = 19.389403 Si / 1000 Ang^3
#
#
#
# Elastic Constant Matrix: (Units=GPa)
#
#
# Indices 1 2 3 4 5 6 
#
# 1 109.0963 40.3099 56.0437 0.0000 15.3987 0.0000
# 2 40.3099 40.4998 42.3986 0.0000 7.1253 0.0000
# 3 56.0437 42.3986 155.0553 0.0000 19.3109 0.0000
# 4 0.0000 0.0000 0.0000 31.8921 0.0000 3.9604
# 5 15.3987 7.1253 19.3109 0.0000 33.2294 0.0000
# 6 0.0000 0.0000 0.0000 3.9604 0.0000 29.6201
#
#
#
# Elastic Compliance Matrix: (Units=1/GPa)
#
#
# Indices 1 2 3 4 5 6 
#
# 1 0.015214 -0.012935 -0.001541 0.000000 -0.003381 0.000000
# 2 -0.012935 0.045724 -0.007927 0.000000 0.000796 0.000000
# 3 -0.001541 -0.007927 0.009566 0.000000 -0.003145 0.000000
# 4 0.000000 0.000000 0.000000 0.031885 0.000000 -0.004263
# 5 -0.003381 0.000796 -0.003145 0.000000 0.033318 0.000000
# 6 0.000000 0.000000 0.000000 -0.004263 0.000000 0.034331
#
#
# Mechanical properties :
#
#
# Convention : Reuss Voigt Hill
#
# Bulk Modulus (GPa) = 38.91277 64.68396 51.79837
# Shear Modulus (GPa) = 22.38044 30.00827 26.19436
#
# Velocity S-wave (km/s) = 3.40113 3.93830 3.67953
# Velocity P-wave (km/s) = 5.96123 7.35617 6.69513
#
# Compressibility (1/GPa) = 0.02569850
#
# Stress axis : x y z
#
# Youngs Moduli (GPa) = 65.72703 21.87035 104.54195
#
# Poissons Ratio (x) = 0.28289 0.16111
# Poissons Ratio (y) = 0.85017 0.82868
# Poissons Ratio (z) = 0.10129 0.17336
#
# Static dielectric constant tensor:
#      x y z
#    x 3.552450 0.000000 0.030880 
#    y 0.000000 3.297670 0.000000 
#    z 0.030880 0.000000 3.720020 
# 
# 
# High freq. dielectric constant tensor:
#      x y z
#    x 1.755440 0.000000 0.009160 
#    y 0.000000 1.729150 0.000000 
#    z 0.009160 0.000000 1.765650 
# 
# From -- ./inp_files/37505.got.cif
#   From: 2010.06.25/outbox.cif.g09.slc.cpg/sg11_19_cif.got.tgz:37505.got - 2010.06.27 23:14:04.
