data_PCOD8069582
_publ_section_title
;
Structure prediction by ZEFSAII (Michael W. Deem and Ramdas Pophale) SiO2 
 PCOD8069582
Probable space group: P 21/M
;
_chemical_formula_sum "Si O2"
_cell_formula_units_Z 28
_cell_length_a 15.266082
_cell_length_b 8.950278
_cell_length_c 22.996576
_cell_angle_alpha 90.000000
_cell_angle_beta 153.029000
_cell_angle_gamma 90.000000
_cell_volume 1425.090270
_symmetry_space_group_name_H-M "P 21/M"
_symmetry_group_IT_number 11
_symmetry_cell_setting 'monoclinic'
loop_
_space_group_symop_operation_xyz
x,y,z
-x,1/2+y,-z
-x,-y,-z
x,1/2-y,z
loop_
_atom_site_type_symbol
_atom_site_label
_atom_site_fract_x
_atom_site_fract_y
_atom_site_fract_z
Si Si1 0.314096 0.078214 0.952865
Si Si2 0.652894 0.079787 0.550843
Si Si3 0.023190 0.581470 0.168844
Si Si4 0.045557 0.927441 0.465585
Si Si5 0.847119 0.925711 0.867714
Si Si6 0.413644 0.572917 0.615639
Si Si7 0.753321 0.423690 0.204933
O O1 0.286287 0.250000 0.916477
O O2 0.197779 0.046348 0.943971
O O3 0.232919 0.973086 0.853906
O O4 0.536401 0.044695 0.099064
O O5 0.585104 0.250000 0.506259
O O6 0.862813 0.063795 0.703191
O O7 0.654824 0.008489 0.487484
O O8 0.500000 0.000000 0.500000
O O9 0.043549 0.750000 0.155921
O O10 0.103761 0.466832 0.169451
O O11 0.033676 0.750000 0.464376
O O12 0.261362 0.980926 0.574286
O O13 0.000000 0.000000 0.500000
O O14 0.894718 0.979397 0.327953
O O15 0.861969 0.750000 0.883719
O O16 0.632070 0.982967 0.757740
O O17 0.000000 0.000000 0.000000
O O18 0.410539 0.750000 0.611438
O O19 0.808714 0.250000 0.242933
#
# Coordination Sequence:
#
# PCOD8069582 Si02
#       7
#     4   4   4   4   4   4   4
#     4   9  19  36  59  84 117 156 189 227 283 347
#     4  10  18  32  56  85 113 143 182 226 275 330
#     4  10  20  35  57  85 115 150 189 227 277 341
#     4  11  23  41  62  83 112 152 197 243 289 345
#     4  11  23  40  59  80 111 149 191 233 278 337
#     4   9  20  39  61  82 112 153 188 226 287 348
#     4  10  20  36  58  87 117 148 191 240 288 337
#
# _framework density 19.647877999999999
#
# number of rings (size 3 to 8) (size 9 to 14) (size 15 to 20)
#    0.000    2.000    1.429    2.143    0.000    4.571 
#    0.000   11.429    0.000    0.000    0.000    0.000 
#    0.000    0.000    0.000    0.000    0.000    0.000 
#
# Total GULP energy -347178.673602 kJ/mol
# GULP energy per Si atom -12399.238343 kJ/mol
# Density = 1.960316 g / cm^3
# Si number density = 19.647878 Si / 1000 Ang^3
#
#
#
# Elastic Constant Matrix: (Units=GPa)
#
#
# Indices 1 2 3 4 5 6 
#
# 1 150.2514 44.3352 67.3286 0.0000 19.2663 0.0000
# 2 44.3352 69.9853 42.0825 0.0000 5.1322 0.0000
# 3 67.3286 42.0825 120.6372 0.0000 8.9585 0.0000
# 4 0.0000 0.0000 0.0000 32.5678 0.0000 -4.0141
# 5 19.2663 5.1322 8.9585 0.0000 29.1938 0.0000
# 6 0.0000 0.0000 0.0000 -4.0141 0.0000 32.6033
#
#
#
# Elastic Compliance Matrix: (Units=1/GPa)
#
#
# Indices 1 2 3 4 5 6 
#
# 1 0.010162 -0.003656 -0.004038 0.000000 -0.004825 0.000000
# 2 -0.003656 0.019443 -0.004776 0.000000 0.000460 0.000000
# 3 -0.004038 -0.004776 0.012228 0.000000 -0.000248 0.000000
# 4 0.000000 0.000000 0.000000 0.031178 0.000000 0.003839
# 5 -0.004825 0.000460 -0.000248 0.000000 0.037433 0.000000
# 6 0.000000 0.000000 0.000000 0.003839 0.000000 0.031144
#
#
# Mechanical properties :
#
#
# Convention : Reuss Voigt Hill
#
# Bulk Modulus (GPa) = 59.19800 72.04071 65.61936
# Shear Modulus (GPa) = 29.04281 31.34816 30.19548
#
# Velocity S-wave (km/s) = 3.84886 3.99870 3.92450
# Velocity P-wave (km/s) = 7.06729 7.62004 7.34886
#
# Compressibility (1/GPa) = 0.01689246
#
# Stress axis : x y z
#
# Youngs Moduli (GPa) = 98.40140 51.43278 81.78264
#
# Poissons Ratio (x) = 0.18803 0.33025
# Poissons Ratio (y) = 0.35974 0.39061
# Poissons Ratio (z) = 0.39736 0.24565
#
# Static dielectric constant tensor:
#      x y z
#    x 3.826730 0.000000 0.264090 
#    y 0.000000 3.457760 0.000000 
#    z 0.264090 0.000000 4.000140 
# 
# 
# High freq. dielectric constant tensor:
#      x y z
#    x 1.771290 0.000000 0.012880 
#    y 0.000000 1.751150 0.000000 
#    z 0.012880 0.000000 1.769100 
# 
# From -- ./inp_files/37506.got.cif
#   From: 2010.06.25/outbox.cif.g09.slc.cpg/sg11_19_cif.got.tgz:37506.got - 2010.06.27 23:14:04.
