data_PCOD8069659
_publ_section_title
;
Structure prediction by ZEFSAII (Michael W. Deem and Ramdas Pophale) SiO2 
 PCOD8069659
Probable space group: P 21/M
;
_chemical_formula_sum "Si O2"
_cell_formula_units_Z 24
_cell_length_a 9.050534
_cell_length_b 17.231840
_cell_length_c 15.210683
_cell_angle_alpha 90.000000
_cell_angle_beta 147.547328
_cell_angle_gamma 90.000000
_cell_volume 1272.938654
_symmetry_space_group_name_H-M "P 21/M"
_symmetry_group_IT_number 11
_symmetry_cell_setting 'monoclinic'
loop_
_space_group_symop_operation_xyz
x,y,z
-x,1/2+y,-z
-x,-y,-z
x,1/2-y,z
loop_
_atom_site_type_symbol
_atom_site_label
_atom_site_fract_x
_atom_site_fract_y
_atom_site_fract_z
Si Si1 0.303617 0.575704 0.202307
Si Si2 0.285443 0.103219 0.932235
Si Si3 0.665912 0.160119 0.616628
Si Si4 0.691475 0.908466 0.712820
Si Si5 0.693434 0.428732 0.993584
Si Si6 0.749196 0.662778 0.910489
O O1 0.428126 0.641915 0.329514
O O2 0.339529 0.497131 0.274435
O O3 0.433486 0.570382 0.169759
O O4 0.982202 0.595495 0.027460
O O5 0.419522 0.148327 0.083871
O O6 0.265397 0.012817 0.943872
O O7 0.477116 0.119104 0.944225
O O8 0.984312 0.137965 0.762169
O O9 0.615492 0.250000 0.571243
O O10 0.486339 0.107506 0.461998
O O11 0.577081 0.853702 0.735282
O O12 0.010844 0.886292 0.854684
O O13 0.869733 0.750000 0.970313
#
# Coordination Sequence:
#
# PCOD8069659 Si02
#       6
#     4   4   4   4   4   4
#     4  10  18  35  57  83 106 144 185 231 264 324
#     4  10  19  35  55  82 112 139 177 227 274 336
#     4  11  23  37  54  80 115 152 180 219 286 335
#     4  11  19  36  58  86 107 142 189 236 263 320
#     4  10  19  34  59  87 104 133 190 234 269 310
#     4  10  18  33  55  80 112 148 182 223 275 328
#
# _framework density 18.854012000000001
#
# number of rings (size 3 to 8) (size 9 to 14) (size 15 to 20)
#    0.000    1.667    5.000    4.000    0.000    0.000 
#    0.000   12.500    0.000    0.000    0.000    0.000 
#    0.000    0.000    0.000    0.000    0.000    0.000 
#
# Total GULP energy -297372.587182 kJ/mol
# GULP energy per Si atom -12390.524466 kJ/mol
# Density = 1.881110 g / cm^3
# Si number density = 18.854012 Si / 1000 Ang^3
#
#
#
# Elastic Constant Matrix: (Units=GPa)
#
#
# Indices 1 2 3 4 5 6 
#
# 1 142.7909 29.1426 47.4490 0.0000 -21.4287 0.0000
# 2 29.1426 77.8246 9.6648 0.0000 -0.5287 0.0000
# 3 47.4490 9.6648 70.8036 0.0000 -20.4001 0.0000
# 4 0.0000 0.0000 0.0000 22.4809 0.0000 -4.3663
# 5 -21.4287 -0.5287 -20.4001 0.0000 25.1242 0.0000
# 6 0.0000 0.0000 0.0000 -4.3663 0.0000 19.7855
#
#
#
# Elastic Compliance Matrix: (Units=1/GPa)
#
#
# Indices 1 2 3 4 5 6 
#
# 1 0.009943 -0.003074 -0.004985 0.000000 0.004368 0.000000
# 2 -0.003074 0.014067 -0.000692 0.000000 -0.002888 0.000000
# 3 -0.004985 -0.000692 0.021316 0.000000 0.013042 0.000000
# 4 0.000000 0.000000 0.000000 0.046474 0.000000 0.010256
# 5 0.004368 -0.002888 0.013042 0.000000 0.054057 0.000000
# 6 0.000000 0.000000 0.000000 0.010256 0.000000 0.052805
#
#
# Mechanical properties :
#
#
# Convention : Reuss Voigt Hill
#
# Bulk Modulus (GPa) = 35.94097 51.54798 43.74448
# Shear Modulus (GPa) = 22.17893 27.15564 24.66728
#
# Velocity S-wave (km/s) = 3.43352 3.79926 3.62101
# Velocity P-wave (km/s) = 5.90109 6.82977 6.38235
#
# Compressibility (1/GPa) = 0.02782340
#
# Stress axis : x y z
#
# Youngs Moduli (GPa) = 100.57641 71.08841 46.91237
#
# Poissons Ratio (x) = 0.21856 0.23385
# Poissons Ratio (y) = 0.30922 0.03246
# Poissons Ratio (z) = 0.50137 0.04919
#
# Static dielectric constant tensor:
#      x y z
#    x 4.017500 0.000000 -0.428370 
#    y 0.000000 3.380230 0.000000 
#    z -0.428370 0.000000 3.277900 
# 
# 
# High freq. dielectric constant tensor:
#      x y z
#    x 1.731890 0.000000 -0.042060 
#    y 0.000000 1.734030 0.000000 
#    z -0.042060 0.000000 1.700680 
# 
# From -- ./inp_files/18541.got.cif
#   From: 2010.06.25/outbox.cif.g09.slc.cpg/sg11_10_cif.got.tgz:18541.got - 2010.06.27 23:14:04.
