data_PCOD8069229
_publ_section_title
;
Structure prediction by ZEFSAII (Michael W. Deem and Ramdas Pophale) SiO2 
 PCOD8069229
Probable space group: P 21/M
;
_chemical_formula_sum "Si O2"
_cell_formula_units_Z 32
_cell_length_a 12.527126
_cell_length_b 9.002971
_cell_length_c 23.604546
_cell_angle_alpha 90.000000
_cell_angle_beta 133.455064
_cell_angle_gamma 90.000000
_cell_volume 1932.493883
_symmetry_space_group_name_H-M "P 21/M"
_symmetry_group_IT_number 11
_symmetry_cell_setting 'monoclinic'
loop_
_space_group_symop_operation_xyz
x,y,z
-x,1/2+y,-z
-x,-y,-z
x,1/2-y,z
loop_
_atom_site_type_symbol
_atom_site_label
_atom_site_fract_x
_atom_site_fract_y
_atom_site_fract_z
Si Si1 0.097476 0.574499 0.303164
Si Si2 0.567149 0.423337 0.578765
Si Si3 0.731192 0.422364 0.326467
Si Si4 0.945625 0.922852 0.594274
Si Si5 0.615624 0.924166 0.001157
Si Si6 0.327768 0.424059 0.579989
Si Si7 0.840815 0.073398 0.151279
Si Si8 0.621406 0.422600 0.168789
O O1 0.073140 0.750000 0.291078
O O2 0.264831 0.528434 0.351222
O O3 0.049184 0.517659 0.346917
O O4 0.002050 0.493692 0.219889
O O5 0.500000 0.500000 0.500000
O O6 0.553015 0.250000 0.562173
O O7 0.475915 0.469696 0.601093
O O8 0.694678 0.250000 0.319614
O O9 0.664739 0.502220 0.356317
O O10 0.650669 0.492092 0.241405
O O11 0.905398 0.450283 0.386052
O O12 0.926736 0.750000 0.603956
O O13 0.812388 0.981208 0.506894
O O14 0.628648 0.750000 0.019530
O O15 0.772811 0.004618 0.068076
O O16 0.547922 0.949161 0.913156
O O17 0.500000 0.000000 0.000000
O O18 0.314263 0.250000 0.584246
O O19 0.847896 0.250000 0.148173
O O20 0.737756 0.015576 0.165255
O O21 0.658584 0.250000 0.187130
#
# Coordination Sequence:
#
# PCOD8069229 Si02
#       8
#     4   4   4   4   4   4   4   4
#     4  11  21  31  49  76  98 124 165 208 246 293
#     4  10  21  36  53  71  95 125 164 209 253 294
#     4  10  19  32  49  71  98 132 168 198 235 291
#     4  10  19  33  51  68  97 134 163 198 247 292
#     4   9  16  27  44  69  99 131 164 198 239 293
#     4  10  21  35  49  69  96 130 166 206 250 287
#     4  10  18  31  48  68  99 134 162 197 246 296
#     4   8  15  28  46  67  96 130 159 190 237 287
#
# _framework density 16.558913
#
# number of rings (size 3 to 8) (size 9 to 14) (size 15 to 20)
#    0.000    2.250    2.500    2.250    0.000    2.000 
#    0.000    1.250    0.000    0.000    0.000    0.875 
#    0.000    0.000    0.000    0.000    0.000    0.000 
#
# Total GULP energy -396696.566861 kJ/mol
# GULP energy per Si atom -12396.767714 kJ/mol
# Density = 1.652122 g / cm^3
# Si number density = 16.558913 Si / 1000 Ang^3
#
#
#
# Elastic Constant Matrix: (Units=GPa)
#
#
# Indices 1 2 3 4 5 6 
#
# 1 72.7771 27.4161 40.9549 0.0000 9.4783 0.0000
# 2 27.4161 57.2362 42.3436 0.0000 8.5343 0.0000
# 3 40.9549 42.3436 131.4098 0.0000 17.5247 0.0000
# 4 0.0000 0.0000 0.0000 29.0821 0.0000 -1.9536
# 5 9.4783 8.5343 17.5247 0.0000 17.3291 0.0000
# 6 0.0000 0.0000 0.0000 -1.9536 0.0000 19.9866
#
#
#
# Elastic Compliance Matrix: (Units=1/GPa)
#
#
# Indices 1 2 3 4 5 6 
#
# 1 0.018269 -0.005708 -0.003348 0.000000 -0.003795 0.000000
# 2 -0.005708 0.025020 -0.005844 0.000000 -0.003290 0.000000
# 3 -0.003348 -0.005844 0.011453 0.000000 -0.006873 0.000000
# 4 0.000000 0.000000 0.000000 0.034613 0.000000 0.003383
# 5 -0.003795 -0.003290 -0.006873 0.000000 0.068352 0.000000
# 6 0.000000 0.000000 0.000000 0.003383 0.000000 0.050364
#
#
# Mechanical properties :
#
#
# Convention : Reuss Voigt Hill
#
# Bulk Modulus (GPa) = 40.09504 53.65026 46.87265
# Shear Modulus (GPa) = 20.30978 23.32680 21.81829
#
# Velocity S-wave (km/s) = 3.50597 3.75736 3.63384
# Velocity P-wave (km/s) = 6.37614 7.16196 6.78044
#
# Compressibility (1/GPa) = 0.02494074
#
# Stress axis : x y z
#
# Youngs Moduli (GPa) = 54.73617 39.96835 87.31275
#
# Poissons Ratio (x) = 0.22814 0.29236
# Poissons Ratio (y) = 0.31243 0.51029
# Poissons Ratio (z) = 0.18328 0.23359
#
# Static dielectric constant tensor:
#      x y z
#    x 2.922760 0.000000 0.081880 
#    y 0.000000 3.072160 0.000000 
#    z 0.081880 0.000000 3.836660 
# 
# 
# High freq. dielectric constant tensor:
#      x y z
#    x 1.596820 0.000000 0.009170 
#    y 0.000000 1.633260 0.000000 
#    z 0.009170 0.000000 1.651050 
# 
# From -- ./inp_files/40710.got.cif
#   From: 2010.06.25/outbox.cif.g09.slc.cpg/sg11_21_cif.got.tgz:40710.got - 2010.06.27 23:14:04.
