data_PCOD8069841
_publ_section_title
;
Structure prediction by ZEFSAII (Michael W. Deem and Ramdas Pophale) SiO2 
 PCOD8069841
Probable space group: P 21/M
;
_chemical_formula_sum "Si O2"
_cell_formula_units_Z 20
_cell_length_a 7.005175
_cell_length_b 20.519935
_cell_length_c 7.796049
_cell_angle_alpha 90.000000
_cell_angle_beta 108.930358
_cell_angle_gamma 90.000000
_cell_volume 1060.036939
_symmetry_space_group_name_H-M "P 21/M"
_symmetry_group_IT_number 11
_symmetry_cell_setting 'monoclinic'
loop_
_space_group_symop_operation_xyz
x,y,z
-x,1/2+y,-z
-x,-y,-z
x,1/2-y,z
loop_
_atom_site_type_symbol
_atom_site_label
_atom_site_fract_x
_atom_site_fract_y
_atom_site_fract_z
Si Si1 0.252870 0.322834 0.269586
Si Si2 0.395353 0.922337 0.156977
Si Si3 0.565060 0.935036 0.855301
Si Si4 0.047008 0.119243 0.908301
Si Si5 0.741870 0.824446 0.345141
O O1 0.343496 0.250000 0.277361
O O2 0.431198 0.375805 0.281480
O O3 0.169005 0.333788 0.437224
O O4 0.071226 0.331759 0.078855
O O5 0.540670 0.867191 0.272266
O O6 0.466737 0.994436 0.241703
O O7 0.393856 0.921371 0.948279
O O8 0.173392 0.910544 0.164513
O O9 0.782558 0.936978 0.019465
O O10 0.086410 0.156019 0.740257
O O11 0.677177 0.750000 0.292971
#
# Coordination Sequence:
#
# PCOD8069841 Si02
#       5
#     4   4   4   4   4
#     4   9  19  37  54  74 111 143 172 223 271 310
#     4  10  18  35  59  81 105 143 180 218 267 321
#     4   8  19  34  58  80 110 138 176 222 269 314
#     4   9  19  35  57  74 105 141 176 217 267 316
#     4  10  21  36  52  78 110 140 180 224 264 315
#
# _framework density 18.867265
#
# number of rings (size 3 to 8) (size 9 to 14) (size 15 to 20)
#    1.200    1.600    0.000    1.200    0.000    2.400 
#    3.600    1.000    0.000    0.000    0.000    0.000 
#    0.000    0.000    0.000    0.000    0.000    0.000 
#
# Total GULP energy -247761.552910 kJ/mol
# GULP energy per Si atom -12388.077645 kJ/mol
# Density = 1.882432 g / cm^3
# Si number density = 18.867265 Si / 1000 Ang^3
#
#
#
# Elastic Constant Matrix: (Units=GPa)
#
#
# Indices 1 2 3 4 5 6 
#
# 1 62.8543 22.0795 20.9372 0.0000 -20.2348 0.0000
# 2 22.0795 133.0197 48.5327 0.0000 -17.0662 0.0000
# 3 20.9372 48.5327 113.1545 0.0000 -21.3270 0.0000
# 4 0.0000 0.0000 0.0000 27.0011 0.0000 -8.5024
# 5 -20.2348 -17.0662 -21.3270 0.0000 16.2957 0.0000
# 6 0.0000 0.0000 0.0000 -8.5024 0.0000 17.4773
#
#
#
# Elastic Compliance Matrix: (Units=1/GPa)
#
#
# Indices 1 2 3 4 5 6 
#
# 1 0.026806 -0.000649 0.001943 0.000000 0.035150 0.000000
# 2 -0.000649 0.009353 -0.002917 0.000000 0.005173 0.000000
# 3 0.001943 -0.002917 0.012754 0.000000 0.016050 0.000000
# 4 0.000000 0.000000 0.000000 0.043735 0.000000 0.021277
# 5 0.035150 0.005173 0.016050 0.000000 0.131435 0.000000
# 6 0.000000 0.000000 0.000000 0.021277 0.000000 0.067568
#
#
# Mechanical properties :
#
#
# Convention : Reuss Voigt Hill
#
# Bulk Modulus (GPa) = 21.89682 54.68083 38.28882
# Shear Modulus (GPa) = 16.12283 26.65341 21.38812
#
# Velocity S-wave (km/s) = 2.92642 3.76264 3.37057
# Velocity P-wave (km/s) = 4.80099 6.92253 5.95697
#
# Compressibility (1/GPa) = 0.04566873
#
# Stress axis : x y z
#
# Youngs Moduli (GPa) = 37.30476 106.91564 78.40684
#
# Poissons Ratio (x) = 0.06937 -0.15236
# Poissons Ratio (y) = 0.02420 0.22869
# Poissons Ratio (z) = -0.07249 0.31184
#
# Static dielectric constant tensor:
#      x y z
#    x 2.953990 0.000000 -0.256110 
#    y 0.000000 3.531100 0.000000 
#    z -0.256110 0.000000 3.428830 
# 
# 
# High freq. dielectric constant tensor:
#      x y z
#    x 1.689600 0.000000 -0.028860 
#    y 0.000000 1.743970 0.000000 
#    z -0.028860 0.000000 1.726480 
# 
# From -- ./inp_files/10257.got.cif
#   From: 2010.06.25/outbox.cif.g09.slc.cpg/sg11_6_cif.got.tgz:10257.got - 2010.06.27 23:14:04.
