data_PCOD8069365
_publ_section_title
;
Structure prediction by ZEFSAII (Michael W. Deem and Ramdas Pophale) SiO2 
 PCOD8069365
Probable space group: P 21/M
;
_chemical_formula_sum "Si O2"
_cell_formula_units_Z 32
_cell_length_a 16.707915
_cell_length_b 26.171559
_cell_length_c 11.102425
_cell_angle_alpha 90.000000
_cell_angle_beta 20.929695
_cell_angle_gamma 90.000000
_cell_volume 1734.235414
_symmetry_space_group_name_H-M "P 21/M"
_symmetry_group_IT_number 11
_symmetry_cell_setting 'monoclinic'
loop_
_space_group_symop_operation_xyz
x,y,z
-x,1/2+y,-z
-x,-y,-z
x,1/2-y,z
loop_
_atom_site_type_symbol
_atom_site_label
_atom_site_fract_x
_atom_site_fract_y
_atom_site_fract_z
Si Si1 0.499993 0.521812 0.250007
Si Si2 0.193035 0.931776 0.143173
Si Si3 0.262092 0.306875 0.356451
Si Si4 0.701575 0.088320 0.280353
Si Si5 0.499988 0.153369 0.250016
Si Si6 0.806983 0.568223 0.356804
Si Si7 0.737876 0.306875 0.143593
Si Si8 0.298406 0.411680 0.219672
O O1 0.497589 0.558101 0.372152
O O2 0.277588 0.486989 0.567676
O O3 0.722384 0.486985 0.932353
O O4 0.502419 0.558103 0.127834
O O5 0.928402 0.928670 0.528476
O O6 0.285481 0.925124 0.877687
O O7 0.298542 0.885296 0.073640
O O8 0.294848 0.250000 0.256399
O O9 0.413079 0.310677 0.264704
O O10 0.338316 0.350224 0.153696
O O11 0.999984 0.317710 0.750022
O O12 0.661652 0.149775 0.346346
O O13 0.928385 0.071332 0.028500
O O14 0.298533 0.114701 0.573654
O O15 0.586887 0.189324 0.235343
O O16 0.714534 0.574878 0.622294
O O17 0.705120 0.250000 0.243646
#
# Coordination Sequence:
#
# PCOD8069365 Si02
#       8
#     4   4   4   4   4   4   4   4
#     4  11  20  28  52  74 100 142 164 197 264 294
#     4   9  18  32  49  71 103 131 167 205 244 299
#     4  10  18  31  53  76  99 131 169 211 249 289
#     4  10  18  34  47  74 105 130 169 211 242 300
#     4   9  15  30  51  78  99 122 165 215 248 284
#     4   9  18  32  49  71 103 131 167 205 244 299
#     4  10  18  31  53  76  99 131 169 211 249 289
#     4  10  18  34  47  74 105 130 169 211 242 300
#
# _framework density 18.451934000000001
#
# number of rings (size 3 to 8) (size 9 to 14) (size 15 to 20)
#    0.000    2.250    5.000    1.875    0.000    0.000 
#    0.000    0.625    0.000    0.000    0.000    1.750 
#    0.000    0.000    0.000    0.000    0.000    0.000 
#
# Total GULP energy -396497.102816 kJ/mol
# GULP energy per Si atom -12390.534463 kJ/mol
# Density = 1.840994 g / cm^3
# Si number density = 18.451934 Si / 1000 Ang^3
#
#
#
# Elastic Constant Matrix: (Units=GPa)
#
#
# Indices 1 2 3 4 5 6 
#
# 1 57.1070 26.3605 18.5982 0.0000 -19.5116 0.0000
# 2 26.3605 152.1311 17.6688 0.0000 3.0493 0.0000
# 3 18.5982 17.6688 25.5103 0.0000 -10.1657 0.0000
# 4 0.0000 0.0000 0.0000 8.8066 0.0000 -2.0263
# 5 -19.5116 3.0493 -10.1657 0.0000 29.2356 0.0000
# 6 0.0000 0.0000 0.0000 -2.0263 0.0000 26.0416
#
#
#
# Elastic Compliance Matrix: (Units=1/GPa)
#
#
# Indices 1 2 3 4 5 6 
#
# 1 0.028359 -0.003826 -0.011985 0.000000 0.015159 0.000000
# 2 -0.003826 0.007877 -0.004657 0.000000 -0.004994 0.000000
# 3 -0.011985 -0.004657 0.055917 0.000000 0.011930 0.000000
# 4 0.000000 0.000000 0.000000 0.115622 0.000000 0.008996
# 5 0.015159 -0.004994 0.011930 0.000000 0.048991 0.000000
# 6 0.000000 0.000000 0.000000 0.008996 0.000000 0.039100
#
#
# Mechanical properties :
#
#
# Convention : Reuss Voigt Hill
#
# Bulk Modulus (GPa) = 19.52424 40.00037 29.76231
# Shear Modulus (GPa) = 14.12933 24.29147 19.21040
#
# Velocity S-wave (km/s) = 2.77020 3.63226 3.23012
# Velocity P-wave (km/s) = 4.56466 6.27027 5.48418
#
# Compressibility (1/GPa) = 0.05121837
#
# Stress axis : x y z
#
# Youngs Moduli (GPa) = 35.26171 126.94955 17.88370
#
# Poissons Ratio (x) = 0.48569 0.21433
# Poissons Ratio (y) = 0.13491 0.08328
# Poissons Ratio (z) = 0.42261 0.59117
#
# Static dielectric constant tensor:
#      x y z
#    x 3.290240 0.000000 -0.406980 
#    y 0.000000 3.686060 0.000000 
#    z -0.406980 0.000000 3.056310 
# 
# 
# High freq. dielectric constant tensor:
#      x y z
#    x 1.698830 0.000000 -0.040300 
#    y 0.000000 1.735890 0.000000 
#    z -0.040300 0.000000 1.671480 
# 
# From -- ./inp_files/42039.got.cif
#   From: 2010.06.25/outbox.cif.g09.slc.cpg/sg11_22_cif.got.tgz:42039.got - 2010.06.27 23:14:04.
