data_PCOD8069939
_publ_section_title
;
Structure prediction by ZEFSAII (Michael W. Deem and Ramdas Pophale) SiO2 
 PCOD8069939
Probable space group: P 21/M
;
_chemical_formula_sum "Si O2"
_cell_formula_units_Z 28
_cell_length_a 14.422143
_cell_length_b 8.763753
_cell_length_c 28.710195
_cell_angle_alpha 90.000000
_cell_angle_beta 27.430897
_cell_angle_gamma 90.000000
_cell_volume 1671.683247
_symmetry_space_group_name_H-M "P 21/M"
_symmetry_group_IT_number 11
_symmetry_cell_setting 'monoclinic'
loop_
_space_group_symop_operation_xyz
x,y,z
-x,1/2+y,-z
-x,-y,-z
x,1/2-y,z
loop_
_atom_site_type_symbol
_atom_site_label
_atom_site_fract_x
_atom_site_fract_y
_atom_site_fract_z
Si Si1 0.277119 0.072898 0.414662
Si Si2 0.211147 0.421794 0.244453
Si Si3 0.695883 0.070605 0.890138
Si Si4 0.755265 0.422505 0.424462
Si Si5 0.110425 0.567830 0.733106
Si Si6 0.552440 0.931148 0.363734
Si Si7 0.137050 0.427434 0.377393
O O1 0.311900 0.250000 0.408662
O O2 0.274961 0.034228 0.360526
O O3 0.464381 0.981939 0.353276
O O4 0.065812 0.025706 0.531635
O O5 0.280789 0.250000 0.200543
O O6 0.306680 0.535135 0.164115
O O7 0.268879 0.465096 0.272105
O O8 0.971017 0.433001 0.352209
O O9 0.699509 0.250000 0.896077
O O10 0.885529 0.997040 0.831926
O O11 0.500000 0.000000 0.000000
O O12 0.684191 0.250000 0.450322
O O13 0.769283 0.494765 0.366397
O O14 0.593424 0.501340 0.530747
O O15 0.095392 0.750000 0.740120
O O16 0.227047 0.504607 0.726369
O O17 0.568845 0.750000 0.357294
O O18 0.072025 0.250000 0.406526
#
# Coordination Sequence:
#
# PCOD8069939 Si02
#       7
#     4   4   4   4   4   4   4
#     4  10  19  28  43  68  97 133 173 209 241 280
#     4   9  16  31  51  71  96 130 165 204 246 287
#     4  11  22  37  55  77  99 124 156 198 247 297
#     4   8  15  27  44  64  92 128 163 196 235 278
#     4  10  20  34  49  69  95 127 163 203 242 289
#     4  11  19  30  45  66  97 136 170 201 240 286
#     4   9  17  31  47  65  95 133 171 207 245 284
#
# _framework density 16.749583999999999
#
# number of rings (size 3 to 8) (size 9 to 14) (size 15 to 20)
#    0.000    2.286    1.429    3.857    0.000    1.143 
#    0.000    1.429    0.000    0.000    0.000    1.000 
#    0.000    0.000    0.000    0.000    0.000    0.000 
#
# Total GULP energy -347069.506354 kJ/mol
# GULP energy per Si atom -12395.339513 kJ/mol
# Density = 1.671146 g / cm^3
# Si number density = 16.749584 Si / 1000 Ang^3
#
#
#
# Elastic Constant Matrix: (Units=GPa)
#
#
# Indices 1 2 3 4 5 6 
#
# 1 124.8831 46.8257 49.9558 0.0000 -4.0754 0.0000
# 2 46.8257 88.5196 36.0128 0.0000 -3.7223 0.0000
# 3 49.9558 36.0128 71.9773 0.0000 -0.9669 0.0000
# 4 0.0000 0.0000 0.0000 21.5273 0.0000 -1.9952
# 5 -4.0754 -3.7223 -0.9669 0.0000 14.7033 0.0000
# 6 0.0000 0.0000 0.0000 -1.9952 0.0000 27.9807
#
#
#
# Elastic Compliance Matrix: (Units=1/GPa)
#
#
# Indices 1 2 3 4 5 6 
#
# 1 0.012040 -0.003637 -0.006510 0.000000 0.001988 0.000000
# 2 -0.003637 0.015428 -0.005160 0.000000 0.002558 0.000000
# 3 -0.006510 -0.005160 0.020970 0.000000 -0.001732 0.000000
# 4 0.000000 0.000000 0.000000 0.046762 0.000000 0.003334
# 5 0.001988 0.002558 -0.001732 0.000000 0.069097 0.000000
# 6 0.000000 0.000000 0.000000 0.003334 0.000000 0.035977
#
#
# Mechanical properties :
#
#
# Convention : Reuss Voigt Hill
#
# Bulk Modulus (GPa) = 56.10641 61.21872 58.66256
# Shear Modulus (GPa) = 21.11220 23.01466 22.06343
#
# Velocity S-wave (km/s) = 3.55415 3.71083 3.63333
# Velocity P-wave (km/s) = 7.10018 7.41546 7.25953
#
# Compressibility (1/GPa) = 0.01782328
#
# Stress axis : x y z
#
# Youngs Moduli (GPa) = 83.05462 64.81759 47.68649
#
# Poissons Ratio (x) = 0.23574 0.31044
# Poissons Ratio (y) = 0.30207 0.24609
# Poissons Ratio (z) = 0.54069 0.33449
#
# Static dielectric constant tensor:
#      x y z
#    x 3.408080 0.000000 0.099980 
#    y 0.000000 3.080700 0.000000 
#    z 0.099980 0.000000 2.846680 
# 
# 
# High freq. dielectric constant tensor:
#      x y z
#    x 1.651210 0.000000 0.004170 
#    y 0.000000 1.643980 0.000000 
#    z 0.004170 0.000000 1.597750 
# 
# From -- ./inp_files/56403.got.cif
#   From: 2010.06.25/outbox.cif.g09.slc.cpg/sg11_29_cif.got.tgz:56403.got - 2010.06.27 23:14:04.
