data_PCOD8069087
_publ_section_title
;
Structure prediction by ZEFSAII (Michael W. Deem and Ramdas Pophale) SiO2 
 PCOD8069087
Probable space group: P 21/M
;
_chemical_formula_sum "Si O2"
_cell_formula_units_Z 32
_cell_length_a 11.681235
_cell_length_b 8.915925
_cell_length_c 21.230873
_cell_angle_alpha 90.000000
_cell_angle_beta 52.618286
_cell_angle_gamma 90.000000
_cell_volume 1757.017897
_symmetry_space_group_name_H-M "P 21/M"
_symmetry_group_IT_number 11
_symmetry_cell_setting 'monoclinic'
loop_
_space_group_symop_operation_xyz
x,y,z
-x,1/2+y,-z
-x,-y,-z
x,1/2-y,z
loop_
_atom_site_type_symbol
_atom_site_label
_atom_site_fract_x
_atom_site_fract_y
_atom_site_fract_z
Si Si1 0.055230 0.917496 0.663014
Si Si2 0.635460 0.924312 0.215034
Si Si3 0.347856 0.073325 0.278189
Si Si4 0.855593 0.923371 0.249267
Si Si5 0.837013 0.075445 0.908498
Si Si6 0.738607 0.584106 0.825824
Si Si7 0.055057 0.571847 0.417924
Si Si8 0.849584 0.573420 0.032937
O O1 0.107307 0.750000 0.628134
O O2 0.897690 0.914206 0.744761
O O3 0.162365 0.985691 0.679729
O O4 0.053140 0.018956 0.601278
O O5 0.593677 0.750000 0.224032
O O6 0.718779 0.958908 0.251835
O O7 0.733485 0.973401 0.123771
O O8 0.493063 0.024575 0.264315
O O9 0.318807 0.250000 0.296980
O O10 0.363776 0.034320 0.198053
O O11 0.217229 0.982495 0.352194
O O12 0.866680 0.750000 0.263682
O O13 0.999489 0.969449 0.163230
O O14 0.819981 0.250000 0.928132
O O15 0.729311 0.030180 0.887453
O O16 0.791287 0.984817 0.985615
O O17 0.696427 0.750000 0.864231
O O18 0.051727 0.750000 0.423397
O O19 0.000000 0.500000 0.500000
O O20 0.872853 0.750000 0.023480
O O21 0.000000 0.500000 0.000000
#
# Coordination Sequence:
#
# PCOD8069087 Si02
#       8
#     4   4   4   4   4   4   4   4
#     4   9  17  30  50  80 110 136 174 219 260 307
#     4  10  21  36  52  74 106 144 182 221 270 323
#     4  10  21  37  56  81 109 138 178 219 261 319
#     4   9  17  31  49  73 105 140 180 222 265 315
#     4  10  18  30  49  74 100 131 176 227 274 318
#     4   8  16  31  49  71 100 133 170 218 266 312
#     4  11  21  36  60  87 114 143 172 211 259 308
#     4  11  21  34  50  72 103 138 180 228 274 319
#
# _framework density 18.212676999999999
#
# number of rings (size 3 to 8) (size 9 to 14) (size 15 to 20)
#    0.000    2.250    1.250    3.375    0.000    5.500 
#    0.000    0.625    0.000    0.750    0.000    0.000 
#    0.000    0.000    0.000    0.000    0.000    0.000 
#
# Total GULP energy -396795.226459 kJ/mol
# GULP energy per Si atom -12399.850827 kJ/mol
# Density = 1.817122 g / cm^3
# Si number density = 18.212677 Si / 1000 Ang^3
#
#
#
# Elastic Constant Matrix: (Units=GPa)
#
#
# Indices 1 2 3 4 5 6 
#
# 1 105.9080 47.8505 46.1166 0.0000 18.1961 0.0000
# 2 47.8505 108.4598 52.4651 0.0000 13.3311 0.0000
# 3 46.1166 52.4651 77.8896 0.0000 21.5527 0.0000
# 4 0.0000 0.0000 0.0000 27.8214 0.0000 6.2842
# 5 18.1961 13.3311 21.5527 0.0000 24.1359 0.0000
# 6 0.0000 0.0000 0.0000 6.2842 0.0000 33.7577
#
#
#
# Elastic Compliance Matrix: (Units=1/GPa)
#
#
# Indices 1 2 3 4 5 6 
#
# 1 0.013707 -0.003217 -0.004756 0.000000 -0.004310 0.000000
# 2 -0.003217 0.014446 -0.008353 0.000000 0.001905 0.000000
# 3 -0.004756 -0.008353 0.025252 0.000000 -0.014350 0.000000
# 4 0.000000 0.000000 0.000000 0.037521 0.000000 -0.006985
# 5 -0.004310 0.001905 -0.014350 0.000000 0.056443 0.000000
# 6 0.000000 0.000000 0.000000 -0.006985 0.000000 0.030923
#
#
# Mechanical properties :
#
#
# Convention : Reuss Voigt Hill
#
# Bulk Modulus (GPa) = 48.18696 65.01354 56.60025
# Shear Modulus (GPa) = 22.95037 26.86468 24.90753
#
# Velocity S-wave (km/s) = 3.55368 3.84481 3.70211
# Velocity P-wave (km/s) = 6.58434 7.44879 7.02987
#
# Compressibility (1/GPa) = 0.02075250
#
# Stress axis : x y z
#
# Youngs Moduli (GPa) = 72.95483 69.22539 39.60104
#
# Poissons Ratio (x) = 0.22269 0.18835
# Poissons Ratio (y) = 0.23468 0.33078
# Poissons Ratio (z) = 0.34700 0.57823
#
# Static dielectric constant tensor:
#      x y z
#    x 3.506640 0.000000 0.307500 
#    y 0.000000 3.457750 0.000000 
#    z 0.307500 0.000000 3.153370 
# 
# 
# High freq. dielectric constant tensor:
#      x y z
#    x 1.704830 0.000000 0.027530 
#    y 0.000000 1.714700 0.000000 
#    z 0.027530 0.000000 1.672240 
# 
# From -- ./inp_files/42863.got.cif
#   From: 2010.06.25/outbox.cif.g09.slc.cpg/sg11_22_cif.got.tgz:42863.got - 2010.06.27 23:14:04.
