data_PCOD8069683
_publ_section_title
;
Structure prediction by ZEFSAII (Michael W. Deem and Ramdas Pophale) SiO2 
 PCOD8069683
Probable space group: P 21/M
;
_chemical_formula_sum "Si O2"
_cell_formula_units_Z 24
_cell_length_a 12.120499
_cell_length_b 8.800804
_cell_length_c 11.571466
_cell_angle_alpha 90.000000
_cell_angle_beta 110.231975
_cell_angle_gamma 90.000000
_cell_volume 1158.171919
_symmetry_space_group_name_H-M "P 21/M"
_symmetry_group_IT_number 11
_symmetry_cell_setting 'monoclinic'
loop_
_space_group_symop_operation_xyz
x,y,z
-x,1/2+y,-z
-x,-y,-z
x,1/2-y,z
loop_
_atom_site_type_symbol
_atom_site_label
_atom_site_fract_x
_atom_site_fract_y
_atom_site_fract_z
Si Si1 0.272300 0.069800 0.096913
Si Si2 0.820147 0.427048 0.707910
Si Si3 0.608255 0.070751 0.475133
Si Si4 0.241632 0.570488 0.850314
Si Si5 0.040803 0.428451 0.634855
Si Si6 0.463385 0.928757 0.796796
O O1 0.270896 0.250000 0.088407
O O2 0.405436 0.001098 0.148115
O O3 0.198412 0.019664 0.181325
O O4 0.208104 0.002782 0.960763
O O5 0.802643 0.250000 0.729297
O O6 0.728035 0.484742 0.578098
O O7 0.947770 0.462207 0.702950
O O8 0.597496 0.250000 0.477588
O O9 0.603549 0.012238 0.341918
O O10 0.500000 0.000000 0.500000
O O11 0.222858 0.750000 0.847438
O O12 0.161920 0.503780 0.719182
O O13 0.378349 0.527037 0.872517
O O14 0.057436 0.250000 0.621831
O O15 0.000000 0.500000 0.500000
O O16 0.479857 0.750000 0.795506
#
# Coordination Sequence:
#
# PCOD8069683 Si02
#       6
#     4   4   4   4   4   4
#     4  11  22  38  61  90 123 158 203 252 299 359
#     4  10  22  39  61  88 123 161 198 245 303 359
#     4  10  18  33  56  85 117 150 188 235 293 351
#     4  11  23  41  63  87 121 163 203 247 302 358
#     4  11  24  44  67  91 120 156 201 249 298 356
#     4   9  19  36  59  87 123 160 196 246 303 356
#
# _framework density 20.722311000000001
#
# number of rings (size 3 to 8) (size 9 to 14) (size 15 to 20)
#    0.000    1.667    1.667    3.000    0.000    4.667 
#    0.000    5.833    0.000    0.000    0.000    0.000 
#    0.000    0.000    0.000    0.000    0.000    0.000 
#
# Total GULP energy -297615.558478 kJ/mol
# GULP energy per Si atom -12400.648270 kJ/mol
# Density = 2.067515 g / cm^3
# Si number density = 20.722311 Si / 1000 Ang^3
#
#
#
# Elastic Constant Matrix: (Units=GPa)
#
#
# Indices 1 2 3 4 5 6 
#
# 1 88.4033 40.6034 28.5462 0.0000 -5.6352 0.0000
# 2 40.6034 79.5814 44.6770 0.0000 -8.2155 0.0000
# 3 28.5462 44.6770 127.7400 0.0000 -12.6291 0.0000
# 4 0.0000 0.0000 0.0000 33.2721 0.0000 -1.7929
# 5 -5.6352 -8.2155 -12.6291 0.0000 33.2675 0.0000
# 6 0.0000 0.0000 0.0000 -1.7929 0.0000 30.9620
#
#
#
# Elastic Compliance Matrix: (Units=1/GPa)
#
#
# Indices 1 2 3 4 5 6 
#
# 1 0.014851 -0.007083 -0.000796 0.000000 0.000465 0.000000
# 2 -0.007083 0.019125 -0.004943 0.000000 0.001647 0.000000
# 3 -0.000796 -0.004943 0.009976 0.000000 0.002431 0.000000
# 4 0.000000 0.000000 0.000000 0.030149 0.000000 0.001746
# 5 0.000465 0.001647 0.002431 0.000000 0.031468 0.000000
# 6 0.000000 0.000000 0.000000 0.001746 0.000000 0.032399
#
#
# Mechanical properties :
#
#
# Convention : Reuss Voigt Hill
#
# Bulk Modulus (GPa) = 54.62063 58.15309 56.38686
# Shear Modulus (GPa) = 29.46144 31.62685 30.54414
#
# Velocity S-wave (km/s) = 3.77467 3.91093 3.84340
# Velocity P-wave (km/s) = 6.73892 6.96547 6.85313
#
# Compressibility (1/GPa) = 0.01830810
#
# Stress axis : x y z
#
# Youngs Moduli (GPa) = 67.33359 52.28882 100.24550
#
# Poissons Ratio (x) = 0.37034 0.07977
# Poissons Ratio (y) = 0.47690 0.49554
# Poissons Ratio (z) = 0.05358 0.25848
#
# Static dielectric constant tensor:
#      x y z
#    x 3.776330 0.000000 -0.027220 
#    y 0.000000 3.498930 0.000000 
#    z -0.027220 0.000000 3.655620 
# 
# 
# High freq. dielectric constant tensor:
#      x y z
#    x 1.814880 0.000000 -0.003350 
#    y 0.000000 1.794210 0.000000 
#    z -0.003350 0.000000 1.823910 
# 
# From -- ./inp_files/33899.got.cif
#   From: 2010.06.25/outbox.cif.g09.slc.cpg/sg11_17_cif.got.tgz:33899.got - 2010.06.27 23:14:04.
