data_PCOD8069513
_publ_section_title
;
Structure prediction by ZEFSAII (Michael W. Deem and Ramdas Pophale) SiO2 
 PCOD8069513
Probable space group: P 21/M
;
_chemical_formula_sum "Si O2"
_cell_formula_units_Z 32
_cell_length_a 14.899473
_cell_length_b 9.334979
_cell_length_c 11.872953
_cell_angle_alpha 90.000000
_cell_angle_beta 93.155100
_cell_angle_gamma 90.000000
_cell_volume 1648.861583
_symmetry_space_group_name_H-M "P 21/M"
_symmetry_group_IT_number 11
_symmetry_cell_setting 'monoclinic'
loop_
_space_group_symop_operation_xyz
x,y,z
-x,1/2+y,-z
-x,-y,-z
x,1/2-y,z
loop_
_atom_site_type_symbol
_atom_site_label
_atom_site_fract_x
_atom_site_fract_y
_atom_site_fract_z
Si Si1 0.973897 0.581646 0.304308
Si Si2 0.079260 0.418896 0.942868
Si Si3 0.716402 0.919546 0.007200
Si Si4 0.340070 0.080638 0.753237
Si Si5 0.829423 0.414622 0.644128
Si Si6 0.490777 0.580722 0.380673
Si Si7 0.807435 0.581414 0.429669
Si Si8 0.669722 0.086595 0.790876
O O1 0.986582 0.750000 0.298735
O O2 0.926646 0.530649 0.186759
O O3 0.909459 0.538885 0.403287
O O4 0.072947 0.514300 0.325846
O O5 0.063841 0.250000 0.956215
O O6 0.178300 0.463158 0.992749
O O7 0.000000 0.500000 0.000000
O O8 0.705796 0.750000 0.996390
O O9 0.660945 0.990998 0.901730
O O10 0.671933 0.978096 0.120325
O O11 0.335020 0.250000 0.759775
O O12 0.432060 0.030025 0.701048
O O13 0.258032 0.024031 0.672038
O O14 0.836187 0.250000 0.606169
O O15 0.781096 0.502149 0.542082
O O16 0.770851 0.430190 0.752292
O O17 0.500000 0.500000 0.500000
O O18 0.496647 0.750000 0.405824
O O19 0.398139 0.537623 0.312649
O O20 0.795742 0.750000 0.447167
O O21 0.648145 0.250000 0.823188
#
# Coordination Sequence:
#
# PCOD8069513 Si02
#       8
#     4   4   4   4   4   4   4   4
#     4   9  17  31  50  71  99 137 174 212 264 319
#     4  10  19  33  53  76 105 143 185 225 268 320
#     4  10  20  36  58  81 106 141 188 230 265 319
#     4   9  18  35  58  81 106 140 181 228 274 316
#     4  10  20  33  49  72 106 142 172 211 267 323
#     4  10  21  38  60  84 112 144 180 222 273 330
#     4  10  18  32  54  76 100 133 177 222 264 313
#     4  10  22  38  54  78 113 146 175 217 278 331
#
# _framework density 19.407329000000001
#
# number of rings (size 3 to 8) (size 9 to 14) (size 15 to 20)
#    0.000    2.250    1.250    1.875    0.000    3.000 
#    0.000    2.500    0.000    0.000    0.000    0.000 
#    0.000    0.000    0.000    0.000    0.000    0.000 
#
# Total GULP energy -396734.878767 kJ/mol
# GULP energy per Si atom -12397.964961 kJ/mol
# Density = 1.936316 g / cm^3
# Si number density = 19.407329 Si / 1000 Ang^3
#
#
#
# Elastic Constant Matrix: (Units=GPa)
#
#
# Indices 1 2 3 4 5 6 
#
# 1 102.2879 28.4261 43.3732 0.0000 2.5116 0.0000
# 2 28.4261 41.6529 46.6261 0.0000 2.0982 0.0000
# 3 43.3732 46.6261 134.4765 0.0000 9.5275 0.0000
# 4 0.0000 0.0000 0.0000 33.5965 0.0000 2.8796
# 5 2.5116 2.0982 9.5275 0.0000 32.1294 0.0000
# 6 0.0000 0.0000 0.0000 2.8796 0.0000 18.6406
#
#
#
# Elastic Compliance Matrix: (Units=1/GPa)
#
#
# Indices 1 2 3 4 5 6 
#
# 1 0.012305 -0.006465 -0.001725 0.000000 -0.000028 0.000000
# 2 -0.006465 0.042704 -0.012829 0.000000 0.001521 0.000000
# 3 -0.001725 -0.012829 0.012637 0.000000 -0.002775 0.000000
# 4 0.000000 0.000000 0.000000 0.030164 0.000000 -0.004660
# 5 -0.000028 0.001521 -0.002775 0.000000 0.031850 0.000000
# 6 0.000000 0.000000 0.000000 -0.004660 0.000000 0.054366
#
#
# Mechanical properties :
#
#
# Convention : Reuss Voigt Hill
#
# Bulk Modulus (GPa) = 39.05014 57.25200 48.15107
# Shear Modulus (GPa) = 21.31266 27.53942 24.42604
#
# Velocity S-wave (km/s) = 3.31747 3.77108 3.55152
# Velocity P-wave (km/s) = 5.90247 6.96603 6.45619
#
# Compressibility (1/GPa) = 0.02560811
#
# Stress axis : x y z
#
# Youngs Moduli (GPa) = 81.26616 23.41684 79.12991
#
# Poissons Ratio (x) = 0.15139 0.13652
# Poissons Ratio (y) = 0.52539 1.01517
# Poissons Ratio (z) = 0.14021 0.30042
#
# Static dielectric constant tensor:
#      x y z
#    x 3.729170 0.000000 0.028340 
#    y 0.000000 3.148080 0.000000 
#    z 0.028340 0.000000 3.677390 
# 
# 
# High freq. dielectric constant tensor:
#      x y z
#    x 1.765330 0.000000 -0.000580 
#    y 0.000000 1.715310 0.000000 
#    z -0.000580 0.000000 1.763610 
# 
# From -- ./inp_files/38206.got.cif
#   From: 2010.06.25/outbox.cif.g09.slc.cpg/sg11_20_cif.got.tgz:38206.got - 2010.06.27 23:14:04.
