data_PCOD8069048
_publ_section_title
;
Structure prediction by ZEFSAII (Michael W. Deem and Ramdas Pophale) SiO2 
 PCOD8069048
Probable space group: P 21/M
;
_chemical_formula_sum "Si O2"
_cell_formula_units_Z 32
_cell_length_a 12.914068
_cell_length_b 9.061399
_cell_length_c 23.216725
_cell_angle_alpha 90.000000
_cell_angle_beta 40.572945
_cell_angle_gamma 90.000000
_cell_volume 1767.055708
_symmetry_space_group_name_H-M "P 21/M"
_symmetry_group_IT_number 11
_symmetry_cell_setting 'monoclinic'
loop_
_space_group_symop_operation_xyz
x,y,z
-x,1/2+y,-z
-x,-y,-z
x,1/2-y,z
loop_
_atom_site_type_symbol
_atom_site_label
_atom_site_fract_x
_atom_site_fract_y
_atom_site_fract_z
Si Si1 0.461260 0.075677 0.229258
Si Si2 0.663955 0.583802 0.423306
Si Si3 0.488349 0.922037 0.095670
Si Si4 0.260916 0.577070 0.090113
Si Si5 0.836843 0.920034 0.575737
Si Si6 0.369366 0.422063 0.735973
Si Si7 0.902851 0.577667 0.229874
Si Si8 0.379154 0.416592 0.434091
O O1 0.494462 0.250000 0.213371
O O2 0.275329 0.042265 0.322121
O O3 0.489787 0.005898 0.155375
O O4 0.581553 0.009572 0.226951
O O5 0.500000 0.500000 0.500000
O O6 0.630101 0.750000 0.415899
O O7 0.795452 0.507063 0.326843
O O8 0.723372 0.580040 0.464138
O O9 0.513965 0.750000 0.097043
O O10 0.325342 0.948820 0.128165
O O11 0.636020 0.982462 0.997309
O O12 0.273579 0.750000 0.068574
O O13 0.081441 0.513562 0.158223
O O14 0.877466 0.750000 0.556231
O O15 0.739493 0.977195 0.562852
O O16 0.000000 0.000000 0.500000
O O17 0.401582 0.250000 0.733165
O O18 0.183710 0.449624 0.795696
O O19 0.466257 0.476994 0.637715
O O20 0.917540 0.750000 0.236761
O O21 0.437600 0.250000 0.395394
#
# Coordination Sequence:
#
# PCOD8069048 Si02
#       8
#     4   4   4   4   4   4   4   4
#     4  10  21  37  56  77 105 142 179 216 267 320
#     4  10  18  30  48  72 102 137 176 213 252 304
#     4  10  20  36  60  86 107 133 177 221 264 320
#     4   9  19  37  59  81 109 142 170 212 273 324
#     4   9  19  33  48  71 101 136 174 215 258 305
#     4  10  18  31  52  77 105 137 179 221 255 307
#     4   9  18  32  52  79 109 142 179 218 265 321
#     4   9  18  31  47  68 101 141 176 211 261 314
#
# _framework density 18.109221000000002
#
# number of rings (size 3 to 8) (size 9 to 14) (size 15 to 20)
#    0.000    2.500    1.250    1.875    0.000    4.000 
#    0.000    5.000    0.000    0.000    0.000    0.000 
#    0.000    0.000    0.000    0.000    0.000    0.000 
#
# Total GULP energy -396423.124224 kJ/mol
# GULP energy per Si atom -12388.222632 kJ/mol
# Density = 1.806800 g / cm^3
# Si number density = 18.109221 Si / 1000 Ang^3
#
#
#
# Elastic Constant Matrix: (Units=GPa)
#
#
# Indices 1 2 3 4 5 6 
#
# 1 103.3720 45.3498 68.6699 0.0000 -9.7008 0.0000
# 2 45.3498 71.7568 40.3437 0.0000 -4.4576 0.0000
# 3 68.6699 40.3437 96.7113 0.0000 -9.4565 0.0000
# 4 0.0000 0.0000 0.0000 28.9137 0.0000 1.1375
# 5 -9.7008 -4.4576 -9.4565 0.0000 30.1305 0.0000
# 6 0.0000 0.0000 0.0000 1.1375 0.0000 24.8014
#
#
#
# Elastic Compliance Matrix: (Units=1/GPa)
#
#
# Indices 1 2 3 4 5 6 
#
# 1 0.020301 -0.006155 -0.011655 0.000000 0.001968 0.000000
# 2 -0.006155 0.020075 -0.004031 0.000000 -0.000277 0.000000
# 3 -0.011655 -0.004031 0.020501 0.000000 0.002086 0.000000
# 4 0.000000 0.000000 0.000000 0.034648 0.000000 -0.001589
# 5 0.001968 -0.000277 0.002086 0.000000 0.034436 0.000000
# 6 0.000000 0.000000 0.000000 -0.001589 0.000000 0.040393
#
#
# Mechanical properties :
#
#
# Convention : Reuss Voigt Hill
#
# Bulk Modulus (GPa) = 58.15548 64.50742 61.33145
# Shear Modulus (GPa) = 22.75127 24.60089 23.67608
#
# Velocity S-wave (km/s) = 3.54833 3.68975 3.61973
# Velocity P-wave (km/s) = 6.99793 7.33832 7.17014
#
# Compressibility (1/GPa) = 0.01719528
#
# Stress axis : x y z
#
# Youngs Moduli (GPa) = 49.25887 49.81266 48.77848
#
# Poissons Ratio (x) = 0.30661 0.56849
# Poissons Ratio (y) = 0.30320 0.19663
# Poissons Ratio (z) = 0.57409 0.20079
#
# Static dielectric constant tensor:
#      x y z
#    x 3.697610 0.000000 0.011940 
#    y 0.000000 3.231640 0.000000 
#    z 0.011940 0.000000 3.724230 
# 
# 
# High freq. dielectric constant tensor:
#      x y z
#    x 1.708450 0.000000 0.006060 
#    y 0.000000 1.693530 0.000000 
#    z 0.006060 0.000000 1.688410 
# 
# From -- ./inp_files/68964.got.cif
#   From: 2010.06.25/outbox.cif.g09.slc.cpg/sg11_35_cif.got.tgz:68964.got - 2010.06.27 23:14:04.
