data_PCOD8069775
_publ_section_title
;
Structure prediction by ZEFSAII (Michael W. Deem and Ramdas Pophale) SiO2 
 PCOD8069775
Probable space group: P 21/M
;
_chemical_formula_sum "Si O2"
_cell_formula_units_Z 32
_cell_length_a 12.016268
_cell_length_b 8.635129
_cell_length_c 29.181465
_cell_angle_alpha 90.000000
_cell_angle_beta 31.132659
_cell_angle_gamma 90.000000
_cell_volume 1565.503279
_symmetry_space_group_name_H-M "P 21/M"
_symmetry_group_IT_number 11
_symmetry_cell_setting 'monoclinic'
loop_
_space_group_symop_operation_xyz
x,y,z
-x,1/2+y,-z
-x,-y,-z
x,1/2-y,z
loop_
_atom_site_type_symbol
_atom_site_label
_atom_site_fract_x
_atom_site_fract_y
_atom_site_fract_z
Si Si1 0.955190 0.566539 0.280225
Si Si2 0.421992 0.432424 0.833809
Si Si3 0.610898 0.069174 0.916452
Si Si4 0.819228 0.932075 0.170090
Si Si5 0.592703 0.933347 0.340514
Si Si6 0.267626 0.932163 0.975055
Si Si7 0.121809 0.067105 0.501150
Si Si8 0.910966 0.433772 0.668616
O O1 0.980486 0.750000 0.273271
O O2 0.723062 0.520890 0.340812
O O3 0.148827 0.504097 0.179186
O O4 0.973290 0.501012 0.325945
O O5 0.392208 0.250000 0.852989
O O6 0.358053 0.479054 0.804898
O O7 0.262188 0.528048 0.923159
O O8 0.664935 0.488417 0.756029
O O9 0.623738 0.250000 0.920077
O O10 0.469006 0.028079 0.922703
O O11 0.500000 0.000000 0.000000
O O12 0.845619 0.750000 0.162558
O O13 0.740931 0.993507 0.246587
O O14 0.053279 0.999082 0.074763
O O15 0.548915 0.750000 0.352945
O O16 0.370723 0.022915 0.415061
O O17 0.296667 0.750000 0.973331
O O18 0.095708 0.250000 0.507960
O O19 0.020669 0.999347 0.583901
O O20 0.000000 0.000000 0.500000
O O21 0.925710 0.250000 0.662211
#
# Coordination Sequence:
#
# PCOD8069775 Si02
#       8
#     4   4   4   4   4   4   4   4
#     4   9  18  35  60  85 111 151 197 233 279 351
#     4  10  18  34  57  78 107 151 200 238 282 346
#     4  11  21  36  58  82 112 154 201 241 283 340
#     4   9  19  34  54  79 112 158 198 233 287 357
#     4  10  20  38  62  85 112 148 191 237 285 343
#     4  11  21  34  52  82 117 148 192 244 294 345
#     4  11  23  40  63  89 118 150 190 238 290 347
#     4   9  18  35  60  85 111 151 196 235 283 352
#
# _framework density 20.440709999999999
#
# number of rings (size 3 to 8) (size 9 to 14) (size 15 to 20)
#    0.000    2.000    1.250    3.000    0.000    4.500 
#    0.000    7.500    0.000    0.000    0.000    0.000 
#    0.000    0.000    0.000    0.000    0.000    0.000 
#
# Total GULP energy -396708.357833 kJ/mol
# GULP energy per Si atom -12397.136182 kJ/mol
# Density = 2.039419 g / cm^3
# Si number density = 20.440710 Si / 1000 Ang^3
#
#
#
# Elastic Constant Matrix: (Units=GPa)
#
#
# Indices 1 2 3 4 5 6 
#
# 1 147.7910 21.8074 64.5628 0.0000 0.6362 0.0000
# 2 21.8074 31.8985 21.3262 0.0000 1.8123 0.0000
# 3 64.5628 21.3262 133.6571 0.0000 5.3857 0.0000
# 4 0.0000 0.0000 0.0000 27.6904 0.0000 0.7411
# 5 0.6362 1.8123 5.3857 0.0000 41.8791 0.0000
# 6 0.0000 0.0000 0.0000 0.7411 0.0000 23.5913
#
#
#
# Elastic Compliance Matrix: (Units=1/GPa)
#
#
# Indices 1 2 3 4 5 6 
#
# 1 0.008942 -0.003628 -0.003761 0.000000 0.000505 0.000000
# 2 -0.003628 0.036591 -0.004046 0.000000 -0.001008 0.000000
# 3 -0.003761 -0.004046 0.009987 0.000000 -0.001052 0.000000
# 4 0.000000 0.000000 0.000000 0.036144 0.000000 -0.001135
# 5 0.000505 -0.001008 -0.001052 0.000000 0.024050 0.000000
# 6 0.000000 0.000000 0.000000 -0.001135 0.000000 0.042424
#
#
# Mechanical properties :
#
#
# Convention : Reuss Voigt Hill
#
# Bulk Modulus (GPa) = 30.62618 58.74881 44.68750
# Shear Modulus (GPa) = 26.05646 32.34215 29.19931
#
# Velocity S-wave (km/s) = 3.57421 3.98206 3.78363
# Velocity P-wave (km/s) = 5.66117 7.06724 6.40292
#
# Compressibility (1/GPa) = 0.03265180
#
# Stress axis : x y z
#
# Youngs Moduli (GPa) = 111.82558 27.32878 100.13463
#
# Poissons Ratio (x) = 0.09914 0.37662
# Poissons Ratio (y) = 0.40566 0.40510
# Poissons Ratio (z) = 0.42060 0.11056
#
# Static dielectric constant tensor:
#      x y z
#    x 4.127170 0.000000 0.153740 
#    y 0.000000 3.250890 0.000000 
#    z 0.153740 0.000000 3.969030 
# 
# 
# High freq. dielectric constant tensor:
#      x y z
#    x 1.817590 0.000000 0.003250 
#    y 0.000000 1.753120 0.000000 
#    z 0.003250 0.000000 1.806260 
# 
# From -- ./inp_files/73128.got.cif
#   From: 2010.06.25/outbox.cif.g09.slc.cpg/sg11_37_cif.got.tgz:73128.got - 2010.06.27 23:14:04.
