data_PCOD8069367
_publ_section_title
;
Structure prediction by ZEFSAII (Michael W. Deem and Ramdas Pophale) SiO2 
 PCOD8069367
Probable space group: P 21/M
;
_chemical_formula_sum "Si O2"
_cell_formula_units_Z 32
_cell_length_a 19.659457
_cell_length_b 8.901626
_cell_length_c 14.380769
_cell_angle_alpha 90.000000
_cell_angle_beta 46.827365
_cell_angle_gamma 90.000000
_cell_volume 1835.382135
_symmetry_space_group_name_H-M "P 21/M"
_symmetry_group_IT_number 11
_symmetry_cell_setting 'monoclinic'
loop_
_space_group_symop_operation_xyz
x,y,z
-x,1/2+y,-z
-x,-y,-z
x,1/2-y,z
loop_
_atom_site_type_symbol
_atom_site_label
_atom_site_fract_x
_atom_site_fract_y
_atom_site_fract_z
Si Si1 0.724126 0.928038 0.635552
Si Si2 0.476163 0.074024 0.120154
Si Si3 0.668568 0.422196 0.014633
Si Si4 0.905014 0.423957 0.121808
Si Si5 0.178534 0.578457 0.990112
Si Si6 0.196165 0.427111 0.250195
Si Si7 0.956216 0.926934 0.746071
Si Si8 0.863680 0.927455 0.353187
O O1 0.720422 0.750000 0.643916
O O2 0.619420 0.992821 0.746434
O O3 0.791049 0.987270 0.656721
O O4 0.768709 0.976714 0.495342
O O5 0.464969 0.250000 0.111973
O O6 0.558323 0.040070 0.118302
O O7 0.500000 0.000000 0.000000
O O8 0.684360 0.250000 0.971648
O O9 0.716600 0.455284 0.070199
O O10 0.715620 0.520305 0.891275
O O11 0.925872 0.250000 0.121776
O O12 0.826097 0.446513 0.116326
O O13 0.863972 0.496935 0.252633
O O14 0.000000 0.500000 0.000000
O O15 0.149208 0.750000 0.041549
O O16 0.105248 0.466515 0.106158
O O17 0.197454 0.250000 0.245092
O O18 0.099015 0.482515 0.294886
O O19 0.976432 0.750000 0.727265
O O20 0.051988 0.017294 0.660873
O O21 0.871205 0.750000 0.333222
#
# Coordination Sequence:
#
# PCOD8069367 Si02
#       8
#     4   4   4   4   4   4   4   4
#     4   9  19  34  50  70 101 139 172 202 249 300
#     4  10  18  31  53  77 101 130 167 207 246 294
#     4   9  17  29  49  78 102 124 160 204 248 296
#     4  11  21  34  54  76  99 129 165 209 256 301
#     4   9  18  32  50  73 101 128 157 199 255 305
#     4   9  17  31  49  70 100 135 167 201 244 297
#     4  10  19  30  48  73 100 131 168 207 246 292
#     4  11  22  35  50  69  99 139 174 208 247 295
#
# _framework density 17.435061999999999
#
# number of rings (size 3 to 8) (size 9 to 14) (size 15 to 20)
#    0.000    2.250    2.500    1.125    0.000    1.500 
#    0.000    2.500    0.000    0.750    0.000    0.000 
#    0.000    0.000    0.000    0.000    0.000    0.250 
#
# Total GULP energy -396616.434528 kJ/mol
# GULP energy per Si atom -12394.263579 kJ/mol
# Density = 1.739538 g / cm^3
# Si number density = 17.435062 Si / 1000 Ang^3
#
#
#
# Elastic Constant Matrix: (Units=GPa)
#
#
# Indices 1 2 3 4 5 6 
#
# 1 117.6148 29.1952 72.6012 0.0000 -0.2707 0.0000
# 2 29.1952 47.6667 31.4333 0.0000 1.5414 0.0000
# 3 72.6012 31.4333 125.0610 0.0000 1.3212 0.0000
# 4 0.0000 0.0000 0.0000 20.3494 0.0000 2.3449
# 5 -0.2707 1.5414 1.3212 0.0000 25.3549 0.0000
# 6 0.0000 0.0000 0.0000 2.3449 0.0000 20.7938
#
#
#
# Elastic Compliance Matrix: (Units=1/GPa)
#
#
# Indices 1 2 3 4 5 6 
#
# 1 0.013816 -0.003826 -0.007067 0.000000 0.000748 0.000000
# 2 -0.003826 0.026243 -0.004360 0.000000 -0.001409 0.000000
# 3 -0.007067 -0.004360 0.013200 0.000000 -0.000498 0.000000
# 4 0.000000 0.000000 0.000000 0.049789 0.000000 -0.005615
# 5 0.000748 -0.001409 -0.000498 0.000000 0.039560 0.000000
# 6 0.000000 0.000000 0.000000 -0.005615 0.000000 0.048724
#
#
# Mechanical properties :
#
#
# Convention : Reuss Voigt Hill
#
# Bulk Modulus (GPa) = 43.95030 61.86688 52.90859
# Shear Modulus (GPa) = 21.79393 23.77380 22.78386
#
# Velocity S-wave (km/s) = 3.53938 3.69665 3.61887
# Velocity P-wave (km/s) = 6.47809 7.33359 6.91907
#
# Compressibility (1/GPa) = 0.02275297
#
# Stress axis : x y z
#
# Youngs Moduli (GPa) = 72.37990 38.10512 75.75963
#
# Poissons Ratio (x) = 0.14580 0.53537
# Poissons Ratio (y) = 0.27694 0.33031
# Poissons Ratio (z) = 0.51149 0.16614
#
# Static dielectric constant tensor:
#      x y z
#    x 3.751580 0.000000 -0.057260 
#    y 0.000000 3.192060 0.000000 
#    z -0.057260 0.000000 3.164050 
# 
# 
# High freq. dielectric constant tensor:
#      x y z
#    x 1.685000 0.000000 -0.001670 
#    y 0.000000 1.667230 0.000000 
#    z -0.001670 0.000000 1.642260 
# 
# From -- ./inp_files/54226.got.cif
#   From: 2010.06.25/outbox.cif.g09.slc.cpg/sg11_28_cif.got.tgz:54226.got - 2010.06.27 23:14:04.
