data_PCOD8069779
_publ_section_title
;
Structure prediction by ZEFSAII (Michael W. Deem and Ramdas Pophale) SiO2 
 PCOD8069779
Probable space group: P 21/M
;
_chemical_formula_sum "Si O2"
_cell_formula_units_Z 32
_cell_length_a 20.684526
_cell_length_b 8.964316
_cell_length_c 25.476545
_cell_angle_alpha 90.000000
_cell_angle_beta 157.890470
_cell_angle_gamma 90.000000
_cell_volume 1777.984274
_symmetry_space_group_name_H-M "P 21/M"
_symmetry_group_IT_number 11
_symmetry_cell_setting 'monoclinic'
loop_
_space_group_symop_operation_xyz
x,y,z
-x,1/2+y,-z
-x,-y,-z
x,1/2-y,z
loop_
_atom_site_type_symbol
_atom_site_label
_atom_site_fract_x
_atom_site_fract_y
_atom_site_fract_z
Si Si1 0.017298 0.420996 0.357487
Si Si2 0.629183 0.426053 0.057234
Si Si3 0.422030 0.927250 0.099512
Si Si4 0.329180 0.924105 0.637634
Si Si5 0.861673 0.427440 0.933452
Si Si6 0.190929 0.078195 0.377890
Si Si7 0.906974 0.426718 0.086028
Si Si8 0.503674 0.924770 0.659445
O O1 0.042404 0.250000 0.393360
O O2 0.134288 0.522077 0.483005
O O3 0.066055 0.442174 0.333480
O O4 0.821858 0.473879 0.217654
O O5 0.608981 0.250000 0.044934
O O6 0.500000 0.500000 0.000000
O O7 0.586897 0.482862 0.966963
O O8 0.428113 0.750000 0.107733
O O9 0.593976 0.993040 0.254322
O O10 0.257403 0.992567 0.006887
O O11 0.328448 0.750000 0.648006
O O12 0.441082 0.966329 0.670711
O O13 0.867460 0.250000 0.933141
O O14 0.904447 0.483168 0.024422
O O15 0.675460 0.485014 0.776225
O O16 0.000000 0.500000 0.000000
O O17 0.248580 0.250000 0.415559
O O18 0.083977 0.021523 0.246808
O O19 0.359833 0.976578 0.509671
O O20 0.895614 0.250000 0.080544
O O21 0.537320 0.750000 0.677844
#
# Coordination Sequence:
#
# PCOD8069779 Si02
#       8
#     4   4   4   4   4   4   4   4
#     4   9  17  32  54  78 105 140 178 217 263 320
#     4  10  21  36  56  81 111 144 180 222 270 326
#     4  10  18  34  57  81 106 139 184 225 263 318
#     4  10  20  32  51  82 113 138 172 225 273 312
#     4  11  22  37  57  80 109 146 181 220 269 321
#     4   9  16  31  56  82 104 132 177 226 266 310
#     4   9  17  32  57  83 104 133 181 227 263 311
#     4  10  20  34  51  79 114 143 174 215 268 324
#
# _framework density 17.997910000000001
#
# number of rings (size 3 to 8) (size 9 to 14) (size 15 to 20)
#    0.000    2.250    2.500    1.125    0.000    2.000 
#    0.000    3.125    0.000    0.000    0.000    0.000 
#    0.000    0.000    0.000    0.000    0.000    0.000 
#
# Total GULP energy -396861.126518 kJ/mol
# GULP energy per Si atom -12401.910204 kJ/mol
# Density = 1.795695 g / cm^3
# Si number density = 17.997910 Si / 1000 Ang^3
#
#
#
# Elastic Constant Matrix: (Units=GPa)
#
#
# Indices 1 2 3 4 5 6 
#
# 1 113.2407 37.4942 75.1349 0.0000 0.2186 0.0000
# 2 37.4942 50.3473 42.3145 0.0000 2.8338 0.0000
# 3 75.1349 42.3145 148.0071 0.0000 -1.7972 0.0000
# 4 0.0000 0.0000 0.0000 24.8107 0.0000 5.2121
# 5 0.2186 2.8338 -1.7972 0.0000 28.7609 0.0000
# 6 0.0000 0.0000 0.0000 5.2121 0.0000 24.4598
#
#
#
# Elastic Compliance Matrix: (Units=1/GPa)
#
#
# Indices 1 2 3 4 5 6 
#
# 1 0.014622 -0.006134 -0.005667 0.000000 0.000139 0.000000
# 2 -0.006134 0.028986 -0.005211 0.000000 -0.003135 0.000000
# 3 -0.005667 -0.005211 0.011139 0.000000 0.001253 0.000000
# 4 0.000000 0.000000 0.000000 0.042194 0.000000 -0.008991
# 5 0.000139 -0.003135 0.001253 0.000000 0.035156 0.000000
# 6 0.000000 0.000000 0.000000 -0.008991 0.000000 0.042799
#
#
# Mechanical properties :
#
#
# Convention : Reuss Voigt Hill
#
# Bulk Modulus (GPa) = 48.25853 69.05357 58.65605
# Shear Modulus (GPa) = 23.16674 26.04974 24.60824
#
# Velocity S-wave (km/s) = 3.59164 3.80857 3.70169
# Velocity P-wave (km/s) = 6.63863 7.60204 7.13661
#
# Compressibility (1/GPa) = 0.02072172
#
# Stress axis : x y z
#
# Youngs Moduli (GPa) = 68.39225 34.49921 89.77852
#
# Poissons Ratio (x) = 0.21160 0.50880
# Poissons Ratio (y) = 0.41949 0.46787
# Poissons Ratio (z) = 0.38760 0.17979
#
# Static dielectric constant tensor:
#      x y z
#    x 3.242070 0.000000 -0.110650 
#    y 0.000000 3.133970 0.000000 
#    z -0.110650 0.000000 3.458550 
# 
# 
# High freq. dielectric constant tensor:
#      x y z
#    x 1.672870 0.000000 -0.009390 
#    y 0.000000 1.683160 0.000000 
#    z -0.009390 0.000000 1.711410 
# 
# From -- ./inp_files/72065.got.cif
#   From: 2010.06.25/outbox.cif.g09.slc.cpg/sg11_37_cif.got.tgz:72065.got - 2010.06.27 23:14:04.
