data_PCOD8069126
_publ_section_title
;
Structure prediction by ZEFSAII (Michael W. Deem and Ramdas Pophale) SiO2 
 PCOD8069126
Probable space group: P 21/M
;
_chemical_formula_sum "Si O2"
_cell_formula_units_Z 20
_cell_length_a 15.705366
_cell_length_b 12.171067
_cell_length_c 7.787072
_cell_angle_alpha 90.000000
_cell_angle_beta 36.794912
_cell_angle_gamma 90.000000
_cell_volume 891.545022
_symmetry_space_group_name_H-M "P 21/M"
_symmetry_group_IT_number 11
_symmetry_cell_setting 'monoclinic'
loop_
_space_group_symop_operation_xyz
x,y,z
-x,1/2+y,-z
-x,-y,-z
x,1/2-y,z
loop_
_atom_site_type_symbol
_atom_site_label
_atom_site_fract_x
_atom_site_fract_y
_atom_site_fract_z
Si Si1 0.608963 0.874630 0.655393
Si Si2 0.885188 0.120225 0.435146
Si Si3 0.095979 0.119829 0.392319
Si Si4 0.926643 0.621174 0.178059
Si Si5 0.360921 0.485206 0.048812
O O1 0.566716 0.750000 0.679171
O O2 0.772268 0.897469 0.339231
O O3 0.589888 0.894722 0.891133
O O4 0.498715 0.957923 0.736735
O O5 0.897932 0.250000 0.404693
O O6 0.973820 0.078611 0.460521
O O7 0.722736 0.083890 0.716157
O O8 0.952173 0.071544 0.147030
O O9 0.103523 0.250000 0.378586
O O10 0.070165 0.073499 0.630663
O O11 0.253401 0.072794 0.086004
O O12 0.956339 0.750000 0.149609
#
# Coordination Sequence:
#
# PCOD8069126 Si02
#       5
#     4   4   4   4   4
#     4   9  18  32  49  70  99 131 160 198 246 288
#     4  10  19  31  51  76  99 126 162 201 238 283
#     4   9  18  32  49  72 102 129 157 199 245 285
#     4   8  16  32  51  70  96 130 161 194 242 289
#     4  10  18  30  50  74  97 127 166 200 237 288
#
# _framework density 22.432967000000001
#
# number of rings (size 3 to 8) (size 9 to 14) (size 15 to 20)
#    0.000    2.800    0.000    3.000    0.000    3.200 
#    0.000    1.000    0.000    4.800    0.000   30.800 
#    0.000    0.000    0.000    0.000    0.000    0.000 
#
# Total GULP energy -247908.143806 kJ/mol
# GULP energy per Si atom -12395.407190 kJ/mol
# Density = 2.238191 g / cm^3
# Si number density = 22.432967 Si / 1000 Ang^3
#
#
#
# Elastic Constant Matrix: (Units=GPa)
#
#
# Indices 1 2 3 4 5 6 
#
# 1 85.2105 33.7778 26.9075 0.0000 -10.7144 0.0000
# 2 33.7778 67.3840 25.9524 0.0000 1.4621 0.0000
# 3 26.9075 25.9524 75.6165 0.0000 -13.0676 0.0000
# 4 0.0000 0.0000 0.0000 38.2107 0.0000 -7.1560
# 5 -10.7144 1.4621 -13.0676 0.0000 27.1681 0.0000
# 6 0.0000 0.0000 0.0000 -7.1560 0.0000 43.4236
#
#
#
# Elastic Compliance Matrix: (Units=1/GPa)
#
#
# Indices 1 2 3 4 5 6 
#
# 1 0.016046 -0.007309 -0.002225 0.000000 0.005652 0.000000
# 2 -0.007309 0.020856 -0.005725 0.000000 -0.006759 0.000000
# 3 -0.002225 -0.005725 0.017323 0.000000 0.007763 0.000000
# 4 0.000000 0.000000 0.000000 0.027004 0.000000 0.004450
# 5 0.005652 -0.006759 0.007763 0.000000 0.043134 0.000000
# 6 0.000000 0.000000 0.000000 0.004450 0.000000 0.023762
#
#
# Mechanical properties :
#
#
# Convention : Reuss Voigt Hill
#
# Bulk Modulus (GPa) = 42.18193 44.60962 43.39577
# Shear Modulus (GPa) = 26.80310 31.19870 29.00090
#
# Velocity S-wave (km/s) = 3.46035 3.73332 3.59943
# Velocity P-wave (km/s) = 5.89998 6.20585 6.05484
#
# Compressibility (1/GPa) = 0.02370683
#
# Stress axis : x y z
#
# Youngs Moduli (GPa) = 62.32002 47.94811 57.72802
#
# Poissons Ratio (x) = 0.35047 0.12842
# Poissons Ratio (y) = 0.45552 0.33049
# Poissons Ratio (z) = 0.13864 0.27450
#
# Static dielectric constant tensor:
#      x y z
#    x 3.979170 0.000000 -0.149480 
#    y 0.000000 4.458500 0.000000 
#    z -0.149480 0.000000 3.924250 
# 
# 
# High freq. dielectric constant tensor:
#      x y z
#    x 1.857240 0.000000 -0.024120 
#    y 0.000000 1.946790 0.000000 
#    z -0.024120 0.000000 1.853810 
# 
# From -- ./inp_files/12223.got.cif
#   From: 2010.06.25/outbox.cif.g09.slc.cpg/sg11_7_cif.got.tgz:12223.got - 2010.06.27 23:14:04.
