data_PCOD8069148
_publ_section_title
;
Structure prediction by ZEFSAII (Michael W. Deem and Ramdas Pophale) SiO2 
 PCOD8069148
Probable space group: P 21/M
;
_chemical_formula_sum "Si O2"
_cell_formula_units_Z 28
_cell_length_a 10.158927
_cell_length_b 8.641827
_cell_length_c 29.966389
_cell_angle_alpha 90.000000
_cell_angle_beta 146.203567
_cell_angle_gamma 90.000000
_cell_volume 1463.366358
_symmetry_space_group_name_H-M "P 21/M"
_symmetry_group_IT_number 11
_symmetry_cell_setting 'monoclinic'
loop_
_space_group_symop_operation_xyz
x,y,z
-x,1/2+y,-z
-x,-y,-z
x,1/2-y,z
loop_
_atom_site_type_symbol
_atom_site_label
_atom_site_fract_x
_atom_site_fract_y
_atom_site_fract_z
Si Si1 0.544087 0.931644 0.656149
Si Si2 0.281522 0.068472 0.666654
Si Si3 0.032621 0.429450 0.807129
Si Si4 0.596062 0.571189 0.827148
Si Si5 0.942501 0.930315 0.083045
Si Si6 0.133257 0.433251 0.494837
Si Si7 0.508337 0.428996 0.101075
O O1 0.503806 0.750000 0.647634
O O2 0.456128 0.006694 0.677496
O O3 0.399349 0.998978 0.572586
O O4 0.817864 0.971675 0.726230
O O5 0.254760 0.250000 0.653146
O O6 0.394384 0.028746 0.746000
O O7 0.018668 0.992048 0.590368
O O8 0.968969 0.250000 0.784626
O O9 0.075968 0.476238 0.870529
O O10 0.264542 0.466550 0.844162
O O11 0.545520 0.750000 0.802852
O O12 0.586451 0.533011 0.876554
O O13 0.855289 0.529949 0.883050
O O14 0.002492 0.750000 0.093213
O O15 0.694658 0.975451 0.990943
O O16 0.142078 0.250000 0.497900
O O17 0.000000 0.500000 0.500000
O O18 0.578985 0.250000 0.115759
#
# Coordination Sequence:
#
# PCOD8069148 Si02
#       7
#     4   4   4   4   4   4   4
#     4  11  20  33  54  81 113 147 184 227 278 329
#     4  11  20  33  53  80 113 146 185 229 278 331
#     4  11  22  36  57  84 113 149 190 232 281 335
#     4  11  22  36  57  83 112 149 191 233 281 335
#     4  10  21  38  59  82 111 145 188 239 284 333
#     4  10  18  30  50  79 113 144 180 226 276 327
#     4  10  23  40  56  80 113 150 191 234 282 336
#
# _framework density 19.133963999999999
#
# number of rings (size 3 to 8) (size 9 to 14) (size 15 to 20)
#    0.000    1.429    1.429    7.286    0.000    2.286 
#    0.000    0.000    0.000    0.857    0.000    0.000 
#    0.000    0.000    0.000    0.000    0.000    0.000 
#
# Total GULP energy -347296.943703 kJ/mol
# GULP energy per Si atom -12403.462275 kJ/mol
# Density = 1.909041 g / cm^3
# Si number density = 19.133964 Si / 1000 Ang^3
#
#
#
# Elastic Constant Matrix: (Units=GPa)
#
#
# Indices 1 2 3 4 5 6 
#
# 1 59.9830 22.2547 17.2941 0.0000 7.8676 0.0000
# 2 22.2547 118.6801 38.8004 0.0000 6.4721 0.0000
# 3 17.2941 38.8004 121.5074 0.0000 21.3607 0.0000
# 4 0.0000 0.0000 0.0000 35.5335 0.0000 5.6834
# 5 7.8676 6.4721 21.3607 0.0000 11.0338 0.0000
# 6 0.0000 0.0000 0.0000 5.6834 0.0000 25.1591
#
#
#
# Elastic Compliance Matrix: (Units=1/GPa)
#
#
# Indices 1 2 3 4 5 6 
#
# 1 0.019375 -0.003093 0.000515 0.000000 -0.012998 0.000000
# 2 -0.003093 0.009903 -0.003166 0.000000 0.002526 0.000000
# 3 0.000515 -0.003166 0.013500 0.000000 -0.024646 0.000000
# 4 0.000000 0.000000 0.000000 0.029197 0.000000 -0.006596
# 5 -0.012998 0.002526 -0.024646 0.000000 0.146130 0.000000
# 6 0.000000 0.000000 0.000000 -0.006596 0.000000 0.041237
#
#
# Mechanical properties :
#
#
# Convention : Reuss Voigt Hill
#
# Bulk Modulus (GPa) = 31.95805 50.76323 41.36064
# Shear Modulus (GPa) = 17.77706 29.13336 23.45521
#
# Velocity S-wave (km/s) = 3.05139 3.90628 3.50500
# Velocity P-wave (km/s) = 5.39937 6.85080 6.16793
#
# Compressibility (1/GPa) = 0.03129102
#
# Stress axis : x y z
#
# Youngs Moduli (GPa) = 51.61210 100.97575 74.07189
#
# Poissons Ratio (x) = 0.31229 -0.03815
# Poissons Ratio (y) = 0.15962 0.23453
# Poissons Ratio (z) = -0.02658 0.31972
#
# Static dielectric constant tensor:
#      x y z
#    x 3.119450 0.000000 0.031500 
#    y 0.000000 3.580740 0.000000 
#    z 0.031500 0.000000 4.152010 
# 
# 
# High freq. dielectric constant tensor:
#      x y z
#    x 1.701050 0.000000 0.007470 
#    y 0.000000 1.756030 0.000000 
#    z 0.007470 0.000000 1.767690 
# 
# From -- ./inp_files/70909.got.cif
#   From: 2010.06.25/outbox.cif.g09.slc.cpg/sg11_36_cif.got.tgz:70909.got - 2010.06.27 23:14:04.
