data_PCOD8069862
_publ_section_title
;
Structure prediction by ZEFSAII (Michael W. Deem and Ramdas Pophale) SiO2 
 PCOD8069862
Probable space group: P 21/M
;
_chemical_formula_sum "Si O2"
_cell_formula_units_Z 32
_cell_length_a 12.405206
_cell_length_b 13.735578
_cell_length_c 9.861110
_cell_angle_alpha 90.000000
_cell_angle_beta 90.712374
_cell_angle_gamma 90.000000
_cell_volume 1680.131037
_symmetry_space_group_name_H-M "P 21/M"
_symmetry_group_IT_number 11
_symmetry_cell_setting 'monoclinic'
loop_
_space_group_symop_operation_xyz
x,y,z
-x,1/2+y,-z
-x,-y,-z
x,1/2-y,z
loop_
_atom_site_type_symbol
_atom_site_label
_atom_site_fract_x
_atom_site_fract_y
_atom_site_fract_z
Si Si1 0.953200 0.579533 0.898311
Si Si2 0.164166 0.853911 0.978358
Si Si3 0.214531 0.858574 0.280732
Si Si4 0.904321 0.521703 0.598875
Si Si5 0.732290 0.947960 0.020377
Si Si6 0.396170 0.138278 0.747771
Si Si7 0.401031 0.506378 0.231592
Si Si8 0.694678 0.637762 0.553042
O O1 0.953557 0.547719 0.743719
O O2 0.044963 0.662162 0.911883
O O3 0.832001 0.606022 0.944797
O O4 0.000000 0.500000 0.000000
O O5 0.225616 0.750000 0.955661
O O6 0.231796 0.945304 0.920835
O O7 0.149353 0.871854 0.139419
O O8 0.219467 0.750000 0.335233
O O9 0.158529 0.919978 0.396922
O O10 0.334536 0.896448 0.260794
O O11 0.819998 0.605073 0.553152
O O12 0.000000 0.500000 0.500000
O O13 0.697901 0.879582 0.143679
O O14 0.633911 0.959699 0.912642
O O15 0.439740 0.250000 0.767469
O O16 0.349435 0.125290 0.598131
O O17 0.478912 0.049034 0.773071
O O18 0.380864 0.425525 0.347606
O O19 0.689567 0.750000 0.600315
#
# Coordination Sequence:
#
# PCOD8069862 Si02
#       8
#     4   4   4   4   4   4   4   4
#     4  10  18  36  55  82 114 154 196 228 284 345
#     4   9  18  32  57  83 110 151 190 227 276 340
#     4   9  17  34  57  82 110 147 191 233 284 341
#     4  11  22  36  58  83 117 154 188 238 290 329
#     4  10  20  37  59  84 122 146 188 244 293 339
#     4  11  24  38  61  90 113 150 198 241 287 351
#     4  10  19  41  62  84 110 153 191 247 293 336
#     4  10  23  41  59  85 120 155 194 236 290 349
#
# _framework density 19.046133999999999
#
# number of rings (size 3 to 8) (size 9 to 14) (size 15 to 20)
#    0.000    2.000    5.000    1.125    3.500    2.500 
#    0.000    3.125    0.000    0.750    0.000    0.000 
#    0.000    0.000    0.000    0.000    0.000    0.000 
#
# Total GULP energy -396475.863683 kJ/mol
# GULP energy per Si atom -12389.870740 kJ/mol
# Density = 1.900278 g / cm^3
# Si number density = 19.046134 Si / 1000 Ang^3
#
#
#
# Elastic Constant Matrix: (Units=GPa)
#
#
# Indices 1 2 3 4 5 6 
#
# 1 78.7759 29.7413 44.9893 0.0000 -0.3057 0.0000
# 2 29.7413 106.4973 44.8105 0.0000 1.7854 0.0000
# 3 44.9893 44.8105 91.3943 0.0000 -1.5422 0.0000
# 4 0.0000 0.0000 0.0000 20.6810 0.0000 1.7150
# 5 -0.3057 1.7854 -1.5422 0.0000 32.3904 0.0000
# 6 0.0000 0.0000 0.0000 1.7150 0.0000 21.0596
#
#
#
# Elastic Compliance Matrix: (Units=1/GPa)
#
#
# Indices 1 2 3 4 5 6 
#
# 1 0.017880 -0.001621 -0.008008 0.000000 -0.000123 0.000000
# 2 -0.001621 0.012006 -0.005104 0.000000 -0.000920 0.000000
# 3 -0.008008 -0.005104 0.017404 0.000000 0.001034 0.000000
# 4 0.000000 0.000000 0.000000 0.048682 0.000000 -0.003964
# 5 -0.000123 -0.000920 0.001034 0.000000 0.030972 0.000000
# 6 0.000000 0.000000 0.000000 -0.003964 0.000000 0.047807
#
#
# Mechanical properties :
#
#
# Convention : Reuss Voigt Hill
#
# Bulk Modulus (GPa) = 56.11149 57.30552 56.70851
# Shear Modulus (GPa) = 23.79164 25.30130 24.54647
#
# Velocity S-wave (km/s) = 3.53818 3.64871 3.59387
# Velocity P-wave (km/s) = 6.79826 6.92126 6.86004
#
# Compressibility (1/GPa) = 0.01782166
#
# Stress axis : x y z
#
# Youngs Moduli (GPa) = 55.92982 83.29432 57.45955
#
# Poissons Ratio (x) = 0.13506 0.46016
# Poissons Ratio (y) = 0.09069 0.29326
# Poissons Ratio (z) = 0.44791 0.42511
#
# Static dielectric constant tensor:
#      x y z
#    x 3.644590 0.000000 0.222560 
#    y 0.000000 3.848300 0.000000 
#    z 0.222560 0.000000 3.401170 
# 
# 
# High freq. dielectric constant tensor:
#      x y z
#    x 1.733970 0.000000 0.013110 
#    y 0.000000 1.744080 0.000000 
#    z 0.013110 0.000000 1.730690 
# 
# From -- ./inp_files/18056.got.cif
#   From: 2010.06.25/outbox.cif.g09.slc.cpg/sg11_10_cif.got.tgz:18056.got - 2010.06.27 23:14:04.
