data_PCOD8069916
_publ_section_title
;
Structure prediction by ZEFSAII (Michael W. Deem and Ramdas Pophale) SiO2 
 PCOD8069916
Probable space group: P 21/M
;
_chemical_formula_sum "Si O2"
_cell_formula_units_Z 28
_cell_length_a 9.702334
_cell_length_b 8.892256
_cell_length_c 18.155487
_cell_angle_alpha 90.000000
_cell_angle_beta 99.810961
_cell_angle_gamma 90.000000
_cell_volume 1543.468466
_symmetry_space_group_name_H-M "P 21/M"
_symmetry_group_IT_number 11
_symmetry_cell_setting 'monoclinic'
loop_
_space_group_symop_operation_xyz
x,y,z
-x,1/2+y,-z
-x,-y,-z
x,1/2-y,z
loop_
_atom_site_type_symbol
_atom_site_label
_atom_site_fract_x
_atom_site_fract_y
_atom_site_fract_z
Si Si1 0.573331 0.425555 0.244969
Si Si2 0.697337 0.927246 0.557631
Si Si3 0.910962 0.581477 0.687321
Si Si4 0.571131 0.925560 0.396890
Si Si5 0.019953 0.928005 0.080683
Si Si6 0.265445 0.079373 0.185280
Si Si7 0.148593 0.927859 0.808940
O O1 0.564382 0.250000 0.261594
O O2 0.619495 0.504862 0.324456
O O3 0.424724 0.482743 0.199922
O O4 0.690193 0.461444 0.194076
O O5 0.681816 0.750000 0.572181
O O6 0.844571 0.988661 0.606062
O O7 0.689906 0.961214 0.469650
O O8 0.574109 0.008047 0.589550
O O9 0.955021 0.750000 0.672305
O O10 0.788008 0.573662 0.736290
O O11 0.051177 0.505090 0.733268
O O12 0.550663 0.750000 0.383977
O O13 0.010402 0.750000 0.074472
O O14 0.172097 0.973913 0.125072
O O15 0.894134 0.988573 0.120365
O O16 0.000000 0.000000 0.000000
O O17 0.258770 0.250000 0.154042
O O18 0.118196 0.750000 0.816532
#
# Coordination Sequence:
#
# PCOD8069916 Si02
#       7
#     4   4   4   4   4   4   4
#     4  10  19  34  54  75 106 143 176 211 260 317
#     4   9  16  29  46  67  97 138 181 222 270 311
#     4   8  13  27  50  71  95 130 176 219 255 304
#     4  10  19  27  43  71 103 135 176 229 270 306
#     4  11  22  38  60  84 109 135 165 207 251 303
#     4   9  17  32  55  79 102 136 176 213 252 304
#     4   9  19  35  56  80 104 137 176 212 256 312
#
# _framework density 18.140961000000001
#
# number of rings (size 3 to 8) (size 9 to 14) (size 15 to 20)
#    0.000    2.571    1.429    2.571    0.000    1.714 
#    0.000    1.429    0.000    0.000    0.000    0.000 
#    0.000    0.000    0.000    0.000    0.000    0.000 
#
# Total GULP energy -346997.567487 kJ/mol
# GULP energy per Si atom -12392.770267 kJ/mol
# Density = 1.809967 g / cm^3
# Si number density = 18.140961 Si / 1000 Ang^3
#
#
#
# Elastic Constant Matrix: (Units=GPa)
#
#
# Indices 1 2 3 4 5 6 
#
# 1 98.8246 26.5794 36.3854 0.0000 2.5943 0.0000
# 2 26.5794 68.9867 42.7276 0.0000 -1.9171 0.0000
# 3 36.3854 42.7276 106.7426 0.0000 4.7942 0.0000
# 4 0.0000 0.0000 0.0000 29.1350 0.0000 -0.0880
# 5 2.5943 -1.9171 4.7942 0.0000 19.1638 0.0000
# 6 0.0000 0.0000 0.0000 -0.0880 0.0000 18.3887
#
#
#
# Elastic Compliance Matrix: (Units=1/GPa)
#
#
# Indices 1 2 3 4 5 6 
#
# 1 0.011982 -0.002863 -0.002885 0.000000 -0.001187 0.000000
# 2 -0.002863 0.020251 -0.007321 0.000000 0.004245 0.000000
# 3 -0.002885 -0.007321 0.013449 0.000000 -0.003706 0.000000
# 4 0.000000 0.000000 0.000000 0.034323 0.000000 0.000164
# 5 -0.001187 0.004245 -0.003706 0.000000 0.053694 0.000000
# 6 0.000000 0.000000 0.000000 0.000164 0.000000 0.054382
#
#
# Mechanical properties :
#
#
# Convention : Reuss Voigt Hill
#
# Bulk Modulus (GPa) = 51.16606 53.99320 52.57963
# Shear Modulus (GPa) = 22.65173 24.59494 23.62333
#
# Velocity S-wave (km/s) = 3.53746 3.68607 3.61253
# Velocity P-wave (km/s) = 6.70453 6.92415 6.81523
#
# Compressibility (1/GPa) = 0.01954421
#
# Stress axis : x y z
#
# Youngs Moduli (GPa) = 83.45655 49.38099 74.35608
#
# Poissons Ratio (x) = 0.14135 0.21454
# Poissons Ratio (y) = 0.23890 0.54436
# Poissons Ratio (z) = 0.24080 0.36152
#
# Static dielectric constant tensor:
#      x y z
#    x 3.315620 0.000000 0.243860 
#    y 0.000000 3.207000 0.000000 
#    z 0.243860 0.000000 3.443850 
# 
# 
# High freq. dielectric constant tensor:
#      x y z
#    x 1.688850 0.000000 0.018770 
#    y 0.000000 1.682730 0.000000 
#    z 0.018770 0.000000 1.699640 
# 
# From -- ./inp_files/57559.got.cif
#   From: 2010.06.25/outbox.cif.g09.slc.cpg/sg11_29_cif.got.tgz:57559.got - 2010.06.27 23:14:04.
