data_PCOD8069034
_publ_section_title
;
Structure prediction by ZEFSAII (Michael W. Deem and Ramdas Pophale) SiO2 
 PCOD8069034
Probable space group: P 21/M
;
_chemical_formula_sum "Si O2"
_cell_formula_units_Z 32
_cell_length_a 21.219273
_cell_length_b 8.611193
_cell_length_c 12.604727
_cell_angle_alpha 90.000000
_cell_angle_beta 126.596631
_cell_angle_gamma 90.000000
_cell_volume 1849.111283
_symmetry_space_group_name_H-M "P 21/M"
_symmetry_group_IT_number 11
_symmetry_cell_setting 'monoclinic'
loop_
_space_group_symop_operation_xyz
x,y,z
-x,1/2+y,-z
-x,-y,-z
x,1/2-y,z
loop_
_atom_site_type_symbol
_atom_site_label
_atom_site_fract_x
_atom_site_fract_y
_atom_site_fract_z
Si Si1 0.158688 0.931895 0.544122
Si Si2 0.311829 0.431034 0.621964
Si Si3 0.158668 0.067178 0.777412
Si Si4 0.999455 0.933800 0.617393
Si Si5 0.409181 0.429013 0.290886
Si Si6 0.313831 0.931123 0.015233
Si Si7 0.425686 0.069922 0.549324
Si Si8 0.585832 0.933110 0.071738
O O1 0.149697 0.750000 0.551794
O O2 0.231613 0.971413 0.541741
O O3 0.173694 0.009204 0.673252
O O4 0.079628 0.998412 0.408279
O O5 0.290694 0.250000 0.602484
O O6 0.357297 0.478573 0.561088
O O7 0.364179 0.477316 0.775036
O O8 0.148682 0.250000 0.764581
O O9 0.080219 0.992936 0.751929
O O10 0.231938 0.021016 0.923064
O O11 0.996499 0.750000 0.615434
O O12 0.000000 0.000000 0.500000
O O13 0.393777 0.250000 0.248010
O O14 0.497946 0.469493 0.346905
O O15 0.395260 0.465323 0.400668
O O16 0.347944 0.534298 0.165661
O O17 0.298247 0.750000 0.984825
O O18 0.376229 0.988033 0.991993
O O19 0.448795 0.250000 0.586262
O O20 0.582236 0.750000 0.050023
O O21 0.500000 0.000000 0.000000
#
# Coordination Sequence:
#
# PCOD8069034 Si02
#       8
#     4   4   4   4   4   4   4   4
#     4  11  20  31  48  73 103 136 171 207 249 300
#     4  10  20  34  51  72 101 136 170 209 256 303
#     4  11  20  33  50  72 102 134 170 211 255 303
#     4  10  18  30  48  70  99 135 170 204 247 298
#     4  10  20  35  55  77 101 131 172 219 265 307
#     4  12  23  35  51  73 103 137 175 213 255 305
#     4   9  19  36  56  77 101 131 171 218 264 309
#     4  11  22  34  50  72 103 137 170 206 253 309
#
# _framework density 17.305609
#
# number of rings (size 3 to 8) (size 9 to 14) (size 15 to 20)
#    0.000    1.500    1.250    7.500    0.000    2.500 
#    0.000    0.000    0.000    0.000    0.000    0.875 
#    0.000    0.000    0.000    0.000    0.000    0.000 
#
# Total GULP energy -396887.627038 kJ/mol
# GULP energy per Si atom -12402.738345 kJ/mol
# Density = 1.726622 g / cm^3
# Si number density = 17.305609 Si / 1000 Ang^3
#
#
#
# Elastic Constant Matrix: (Units=GPa)
#
#
# Indices 1 2 3 4 5 6 
#
# 1 97.7290 35.5037 49.6110 0.0000 19.6158 0.0000
# 2 35.5037 106.0567 28.3244 0.0000 9.3599 0.0000
# 3 49.6110 28.3244 77.7526 0.0000 12.6034 0.0000
# 4 0.0000 0.0000 0.0000 25.3725 0.0000 8.1523
# 5 19.6158 9.3599 12.6034 0.0000 27.7517 0.0000
# 6 0.0000 0.0000 0.0000 8.1523 0.0000 29.1199
#
#
#
# Elastic Compliance Matrix: (Units=1/GPa)
#
#
# Indices 1 2 3 4 5 6 
#
# 1 0.017123 -0.002759 -0.008754 0.000000 -0.007197 0.000000
# 2 -0.002759 0.010987 -0.002113 0.000000 -0.000796 0.000000
# 3 -0.008754 -0.002113 0.019536 0.000000 -0.001972 0.000000
# 4 0.000000 0.000000 0.000000 0.043308 0.000000 -0.012125
# 5 -0.007197 -0.000796 -0.001972 0.000000 0.042285 0.000000
# 6 0.000000 0.000000 0.000000 -0.012125 0.000000 0.037735
#
#
# Mechanical properties :
#
#
# Convention : Reuss Voigt Hill
#
# Bulk Modulus (GPa) = 49.03282 56.49072 52.76177
# Shear Modulus (GPa) = 24.38724 27.65542 26.02133
#
# Velocity S-wave (km/s) = 3.75802 4.00191 3.88188
# Velocity P-wave (km/s) = 6.87206 7.35307 7.11663
#
# Compressibility (1/GPa) = 0.02039450
#
# Stress axis : x y z
#
# Youngs Moduli (GPa) = 58.40072 91.01574 51.18688
#
# Poissons Ratio (x) = 0.25112 0.44808
# Poissons Ratio (y) = 0.16113 0.10816
# Poissons Ratio (z) = 0.51123 0.19232
#
# Static dielectric constant tensor:
#      x y z
#    x 3.442570 0.000000 0.354690 
#    y 0.000000 3.329090 0.000000 
#    z 0.354690 0.000000 3.254040 
# 
# 
# High freq. dielectric constant tensor:
#      x y z
#    x 1.659680 0.000000 0.026240 
#    y 0.000000 1.684870 0.000000 
#    z 0.026240 0.000000 1.647300 
# 
# From -- ./inp_files/42907.got.cif
#   From: 2010.06.25/outbox.cif.g09.slc.cpg/sg11_22_cif.got.tgz:42907.got - 2010.06.27 23:14:04.
