data_PCOD8069821
_publ_section_title
;
Structure prediction by ZEFSAII (Michael W. Deem and Ramdas Pophale) SiO2 
 PCOD8069821
Probable space group: P 21/M
;
_chemical_formula_sum "Si O2"
_cell_formula_units_Z 24
_cell_length_a 8.848621
_cell_length_b 14.490749
_cell_length_c 17.720216
_cell_angle_alpha 90.000000
_cell_angle_beta 150.083854
_cell_angle_gamma 90.000000
_cell_volume 1133.189873
_symmetry_space_group_name_H-M "P 21/M"
_symmetry_group_IT_number 11
_symmetry_cell_setting 'monoclinic'
loop_
_space_group_symop_operation_xyz
x,y,z
-x,1/2+y,-z
-x,-y,-z
x,1/2-y,z
loop_
_atom_site_type_symbol
_atom_site_label
_atom_site_fract_x
_atom_site_fract_y
_atom_site_fract_z
Si Si1 0.806389 0.648213 0.896099
Si Si2 0.045205 0.859132 0.718443
Si Si3 0.500780 0.850595 0.191879
Si Si4 0.789977 0.932169 0.456477
Si Si5 0.406967 0.474389 0.067547
Si Si6 0.784280 0.956499 0.740047
O O1 0.675484 0.750000 0.857390
O O2 0.632929 0.571138 0.867712
O O3 0.765044 0.627529 0.790316
O O4 0.155714 0.641510 0.069046
O O5 0.064954 0.750000 0.742575
O O6 0.364728 0.908617 0.880373
O O7 0.978448 0.878400 0.601862
O O8 0.791554 0.907325 0.661410
O O9 0.571167 0.750000 0.186678
O O10 0.684075 0.858916 0.348724
O O11 0.567318 0.927132 0.156092
O O12 0.511952 0.981084 0.379430
O O13 0.000000 0.000000 0.500000
O O14 0.090492 0.483342 0.886337
#
# Coordination Sequence:
#
# PCOD8069821 Si02
#       6
#     4   4   4   4   4   4
#     4  10  18  34  65  94 119 157 213 265 310 367
#     4  12  26  41  61  94 133 170 209 256 320 389
#     4  10  19  35  62  91 119 156 209 265 310 360
#     4  12  22  42  67  89 126 171 214 263 316 376
#     4  11  20  41  65  92 123 166 212 266 313 367
#     4  11  22  41  63  92 130 167 208 259 325 377
#
# _framework density 21.17915
#
# number of rings (size 3 to 8) (size 9 to 14) (size 15 to 20)
#    0.000    1.000    5.000    3.500    0.000    0.667 
#    0.000    2.500    0.000    1.000    0.000    0.000 
#    0.000    0.000    0.000    0.000    0.000    0.000 
#
# Total GULP energy -297527.449296 kJ/mol
# GULP energy per Si atom -12396.977054 kJ/mol
# Density = 2.113095 g / cm^3
# Si number density = 21.179150 Si / 1000 Ang^3
#
#
#
# Elastic Constant Matrix: (Units=GPa)
#
#
# Indices 1 2 3 4 5 6 
#
# 1 76.5198 26.9543 14.6865 0.0000 0.0701 0.0000
# 2 26.9543 134.0038 27.5287 0.0000 11.1380 0.0000
# 3 14.6865 27.5287 64.4326 0.0000 6.4030 0.0000
# 4 0.0000 0.0000 0.0000 17.0361 0.0000 -4.7219
# 5 0.0701 11.1380 6.4030 0.0000 26.2374 0.0000
# 6 0.0000 0.0000 0.0000 -4.7219 0.0000 25.5026
#
#
#
# Elastic Compliance Matrix: (Units=1/GPa)
#
#
# Indices 1 2 3 4 5 6 
#
# 1 0.014418 -0.002550 -0.002358 0.000000 0.001619 0.000000
# 2 -0.002550 0.008820 -0.002886 0.000000 -0.003033 0.000000
# 3 -0.002358 -0.002886 0.017595 0.000000 -0.003063 0.000000
# 4 0.000000 0.000000 0.000000 0.061874 0.000000 0.011456
# 5 0.001619 -0.003033 -0.003063 0.000000 0.040144 0.000000
# 6 0.000000 0.000000 0.000000 0.011456 0.000000 0.041333
#
#
# Mechanical properties :
#
#
# Convention : Reuss Voigt Hill
#
# Bulk Modulus (GPa) = 39.61096 45.92169 42.76633
# Shear Modulus (GPa) = 24.01686 27.47432 25.74559
#
# Velocity S-wave (km/s) = 3.37112 3.60562 3.49034
# Velocity P-wave (km/s) = 5.82203 6.25009 6.03985
#
# Compressibility (1/GPa) = 0.02524554
#
# Stress axis : x y z
#
# Youngs Moduli (GPa) = 69.35812 113.37332 56.83510
#
# Poissons Ratio (x) = 0.28914 0.13400
# Poissons Ratio (y) = 0.17689 0.16401
# Poissons Ratio (z) = 0.16352 0.32717
#
# Static dielectric constant tensor:
#      x y z
#    x 3.728930 0.000000 0.069880 
#    y 0.000000 4.179980 0.000000 
#    z 0.069880 0.000000 4.035830 
# 
# 
# High freq. dielectric constant tensor:
#      x y z
#    x 1.820870 0.000000 -0.001680 
#    y 0.000000 1.833670 0.000000 
#    z -0.001680 0.000000 1.825120 
# 
# From -- ./inp_files/22331.got.cif
#   From: 2010.06.25/outbox.cif.g09.slc.cpg/sg11_12_cif.got.tgz:22331.got - 2010.06.27 23:14:04.
