data_PCOD8069368
_publ_section_title
;
Structure prediction by ZEFSAII (Michael W. Deem and Ramdas Pophale) SiO2 
 PCOD8069368
Probable space group: P 21/M
;
_chemical_formula_sum "Si O2"
_cell_formula_units_Z 32
_cell_length_a 12.571791
_cell_length_b 9.536299
_cell_length_c 19.441593
_cell_angle_alpha 90.000000
_cell_angle_beta 48.120417
_cell_angle_gamma 90.000000
_cell_volume 1735.411304
_symmetry_space_group_name_H-M "P 21/M"
_symmetry_group_IT_number 11
_symmetry_cell_setting 'monoclinic'
loop_
_space_group_symop_operation_xyz
x,y,z
-x,1/2+y,-z
-x,-y,-z
x,1/2-y,z
loop_
_atom_site_type_symbol
_atom_site_label
_atom_site_fract_x
_atom_site_fract_y
_atom_site_fract_z
Si Si1 0.934819 0.595890 0.471327
Si Si2 0.131403 0.586676 0.163347
Si Si3 0.809377 0.582635 0.290666
Si Si4 0.214049 0.904954 0.271750
Si Si5 0.685829 0.584450 0.488822
Si Si6 0.412320 0.914846 0.690052
Si Si7 0.582272 0.413395 0.022769
Si Si8 0.449133 0.413523 0.225118
O O1 0.899885 0.750000 0.517304
O O2 0.794019 0.524257 0.499758
O O3 0.000000 0.500000 0.500000
O O4 0.049171 0.609801 0.361737
O O5 0.107828 0.750000 0.187901
O O6 0.209056 0.524764 0.198076
O O7 0.973245 0.525821 0.216939
O O8 0.245806 0.557701 0.053366
O O9 0.798932 0.750000 0.285544
O O10 0.729894 0.529065 0.394512
O O11 0.729183 0.505593 0.262601
O O12 0.286362 0.750000 0.240327
O O13 0.299344 0.003721 0.287978
O O14 0.706755 0.750000 0.479733
O O15 0.527451 0.541905 0.581334
O O16 0.377513 0.750000 0.700988
O O17 0.465965 0.956287 0.742952
O O18 0.550332 0.250000 0.022601
O O19 0.536557 0.457978 0.119222
O O20 0.500000 0.500000 0.000000
O O21 0.413432 0.250000 0.241913
#
# Coordination Sequence:
#
# PCOD8069368 Si02
#       8
#     4   4   4   4   4   4   4   4
#     4  10  19  31  48  73 105 140 174 208 255 311
#     4   9  17  32  54  78 102 129 166 214 260 299
#     4  10  19  35  57  76  96 132 182 219 249 300
#     4  10  18  31  53  77 103 136 172 212 256 306
#     4   9  17  32  53  72  97 135 173 209 255 307
#     4  10  21  36  51  72 105 139 169 211 263 305
#     4  10  19  33  55  80 105 136 171 208 256 315
#     4  10  21  35  52  77 109 141 170 206 263 323
#
# _framework density 18.439432
#
# number of rings (size 3 to 8) (size 9 to 14) (size 15 to 20)
#    0.000    2.250    2.500    1.125    0.000    2.000 
#    0.000    3.125    0.000    0.000    0.000    0.000 
#    0.000    0.000    0.000    0.000    0.000    0.000 
#
# Total GULP energy -396618.297206 kJ/mol
# GULP energy per Si atom -12394.321788 kJ/mol
# Density = 1.839746 g / cm^3
# Si number density = 18.439432 Si / 1000 Ang^3
#
#
#
# Elastic Constant Matrix: (Units=GPa)
#
#
# Indices 1 2 3 4 5 6 
#
# 1 128.7467 41.4767 29.1787 0.0000 -12.3561 0.0000
# 2 41.4767 41.0906 14.0128 0.0000 -4.5012 0.0000
# 3 29.1787 14.0128 74.5989 0.0000 -8.4139 0.0000
# 4 0.0000 0.0000 0.0000 17.8733 0.0000 -0.4748
# 5 -12.3561 -4.5012 -8.4139 0.0000 24.0499 0.0000
# 6 0.0000 0.0000 0.0000 -0.4748 0.0000 32.8379
#
#
#
# Elastic Compliance Matrix: (Units=1/GPa)
#
#
# Indices 1 2 3 4 5 6 
#
# 1 0.012211 -0.011173 -0.002297 0.000000 0.003379 0.000000
# 2 -0.011173 0.036477 -0.002456 0.000000 0.000228 0.000000
# 3 -0.002297 -0.002456 0.015179 0.000000 0.003671 0.000000
# 4 0.000000 0.000000 0.000000 0.055971 0.000000 0.000809
# 5 0.003379 0.000228 0.003671 0.000000 0.044643 0.000000
# 6 0.000000 0.000000 0.000000 0.000809 0.000000 0.030464
#
#
# Mechanical properties :
#
#
# Convention : Reuss Voigt Hill
#
# Bulk Modulus (GPa) = 31.23433 45.97476 38.60455
# Shear Modulus (GPa) = 21.05548 25.60341 23.32944
#
# Velocity S-wave (km/s) = 3.38283 3.73032 3.56081
# Velocity P-wave (km/s) = 5.67747 6.59854 6.15526
#
# Compressibility (1/GPa) = 0.03201605
#
# Stress axis : x y z
#
# Youngs Moduli (GPa) = 81.89086 27.41476 65.88199
#
# Poissons Ratio (x) = 0.30630 0.15130
# Poissons Ratio (y) = 0.91495 0.16181
# Poissons Ratio (z) = 0.18806 0.06733
#
# Static dielectric constant tensor:
#      x y z
#    x 3.354390 0.000000 -0.087960 
#    y 0.000000 3.079260 0.000000 
#    z -0.087960 0.000000 3.684900 
# 
# 
# High freq. dielectric constant tensor:
#      x y z
#    x 1.712240 0.000000 -0.004730 
#    y 0.000000 1.682460 0.000000 
#    z -0.004730 0.000000 1.719830 
# 
# From -- ./inp_files/53671.got.cif
#   From: 2010.06.25/outbox.cif.g09.slc.cpg/sg11_27_cif.got.tgz:53671.got - 2010.06.27 23:14:04.
