data_PCOD8069595
_publ_section_title
;
Structure prediction by ZEFSAII (Michael W. Deem and Ramdas Pophale) SiO2 
 PCOD8069595
Probable space group: P 21/M
;
_chemical_formula_sum "Si O2"
_cell_formula_units_Z 32
_cell_length_a 24.314349
_cell_length_b 13.482023
_cell_length_c 16.479040
_cell_angle_alpha 90.000000
_cell_angle_beta 16.696771
_cell_angle_gamma 90.000000
_cell_volume 1552.012195
_symmetry_space_group_name_H-M "P 21/M"
_symmetry_group_IT_number 11
_symmetry_cell_setting 'monoclinic'
loop_
_space_group_symop_operation_xyz
x,y,z
-x,1/2+y,-z
-x,-y,-z
x,1/2-y,z
loop_
_atom_site_type_symbol
_atom_site_label
_atom_site_fract_x
_atom_site_fract_y
_atom_site_fract_z
Si Si1 0.918802 0.132801 0.778744
Si Si2 0.431766 0.558833 0.813254
Si Si3 0.884358 0.359739 0.148903
Si Si4 0.928637 0.463354 0.930310
Si Si5 0.234681 0.364717 0.760605
Si Si6 0.347568 0.134217 0.167574
Si Si7 0.524154 0.136202 0.754315
Si Si8 0.661756 0.633195 0.640188
O O1 0.915351 0.250000 0.793619
O O2 0.845519 0.085523 0.966865
O O3 0.132521 0.091190 0.459643
O O4 0.782325 0.098442 0.898683
O O5 0.558681 0.592508 0.556868
O O6 0.418408 0.439205 0.841841
O O7 0.509319 0.607258 0.786895
O O8 0.863308 0.250000 0.143922
O O9 0.750024 0.374770 0.417714
O O10 0.817902 0.428010 0.168538
O O11 0.101697 0.379813 0.868886
O O12 0.149734 0.434861 0.632881
O O13 0.867807 0.579706 0.017914
O O14 0.252837 0.250000 0.759816
O O15 0.329223 0.250000 0.182113
O O16 0.430099 0.109667 0.140738
O O17 0.488130 0.096666 0.897308
O O18 0.453353 0.250000 0.840101
O O19 0.719173 0.750000 0.553550
#
# Coordination Sequence:
#
# PCOD8069595 Si02
#       8
#     4   4   4   4   4   4   4   4
#     4  10  22  38  59  86 115 147 187 237 283 330
#     4  12  22  36  56  85 117 148 186 234 289 337
#     4  10  18  32  57  86 114 148 186 232 276 332
#     4  11  19  35  58  83 113 150 194 225 274 337
#     4  11  22  35  53  84 123 150 180 233 289 333
#     4   8  18  38  59  83 113 147 189 237 277 325
#     4  10  21  37  57  82 114 151 193 233 277 336
#     4  10  19  34  61  89 114 146 189 238 281 330
#
# _framework density 20.618393999999999
#
# number of rings (size 3 to 8) (size 9 to 14) (size 15 to 20)
#    0.000    1.750    2.500    4.125    0.000    1.500 
#    0.000    0.625    0.000    0.000    0.000    7.000 
#    0.000    0.000    0.000    0.000    0.000    0.000 
#
# Total GULP energy -396565.316390 kJ/mol
# GULP energy per Si atom -12392.666137 kJ/mol
# Density = 2.057147 g / cm^3
# Si number density = 20.618394 Si / 1000 Ang^3
#
#
#
# Elastic Constant Matrix: (Units=GPa)
#
#
# Indices 1 2 3 4 5 6 
#
# 1 97.1809 35.2624 49.8475 0.0000 -0.2587 0.0000
# 2 35.2624 94.5937 12.4331 0.0000 12.5186 0.0000
# 3 49.8475 12.4331 68.8956 0.0000 10.8394 0.0000
# 4 0.0000 0.0000 0.0000 15.0017 0.0000 1.3455
# 5 -0.2587 12.5186 10.8394 0.0000 33.8403 0.0000
# 6 0.0000 0.0000 0.0000 1.3455 0.0000 33.2208
#
#
#
# Elastic Compliance Matrix: (Units=1/GPa)
#
#
# Indices 1 2 3 4 5 6 
#
# 1 0.020138 -0.006555 -0.014525 0.000000 0.007231 0.000000
# 2 -0.006555 0.013385 0.003279 0.000000 -0.006052 0.000000
# 3 -0.014525 0.003279 0.025948 0.000000 -0.009636 0.000000
# 4 0.000000 0.000000 0.000000 0.066902 0.000000 -0.002710
# 5 0.007231 -0.006052 -0.009636 0.000000 0.034931 0.000000
# 6 0.000000 0.000000 0.000000 -0.002710 0.000000 0.030211
#
#
# Mechanical properties :
#
#
# Convention : Reuss Voigt Hill
#
# Bulk Modulus (GPa) = 41.89413 50.63957 46.26685
# Shear Modulus (GPa) = 21.26981 27.28770 24.27875
#
# Velocity S-wave (km/s) = 3.21533 3.64189 3.43524
# Velocity P-wave (km/s) = 5.84357 6.50371 6.18246
#
# Compressibility (1/GPa) = 0.02386969
#
# Stress axis : x y z
#
# Youngs Moduli (GPa) = 49.65631 74.71061 38.53807
#
# Poissons Ratio (x) = 0.48973 0.55978
# Poissons Ratio (y) = 0.32550 -0.12638
# Poissons Ratio (z) = 0.72128 -0.24500
#
# Static dielectric constant tensor:
#      x y z
#    x 3.657020 0.000000 0.333410 
#    y 0.000000 4.020100 0.000000 
#    z 0.333410 0.000000 3.798990 
# 
# 
# High freq. dielectric constant tensor:
#      x y z
#    x 1.783960 0.000000 0.019590 
#    y 0.000000 1.817550 0.000000 
#    z 0.019590 0.000000 1.788660 
# 
# From -- ./inp_files/54986.got.cif
#   From: 2010.06.25/outbox.cif.g09.slc.cpg/sg11_28_cif.got.tgz:54986.got - 2010.06.27 23:14:04.
