data_PCOD8069132
_publ_section_title
;
Structure prediction by ZEFSAII (Michael W. Deem and Ramdas Pophale) SiO2 
 PCOD8069132
Probable space group: P 21/M
;
_chemical_formula_sum "Si O2"
_cell_formula_units_Z 28
_cell_length_a 18.581504
_cell_length_b 8.794765
_cell_length_c 23.265216
_cell_angle_alpha 90.000000
_cell_angle_beta 24.038366
_cell_angle_gamma 90.000000
_cell_volume 1548.738419
_symmetry_space_group_name_H-M "P 21/M"
_symmetry_group_IT_number 11
_symmetry_cell_setting 'monoclinic'
loop_
_space_group_symop_operation_xyz
x,y,z
-x,1/2+y,-z
-x,-y,-z
x,1/2-y,z
loop_
_atom_site_type_symbol
_atom_site_label
_atom_site_fract_x
_atom_site_fract_y
_atom_site_fract_z
Si Si1 0.572748 0.430015 0.075834
Si Si2 0.813192 0.074248 0.127136
Si Si3 0.499967 0.427435 0.438067
Si Si4 0.869825 0.571217 0.780528
Si Si5 0.275079 0.927620 0.505465
Si Si6 0.547410 0.070873 0.226443
Si Si7 0.651647 0.068657 0.849524
O O1 0.569392 0.250000 0.068594
O O2 0.579227 0.475135 0.137709
O O3 0.391788 0.503868 0.182258
O O4 0.746062 0.498552 0.919619
O O5 0.849994 0.250000 0.093685
O O6 0.689356 0.037426 0.271706
O O7 0.716629 0.013930 0.139789
O O8 0.000000 0.000000 0.000000
O O9 0.500000 0.500000 0.500000
O O10 0.463923 0.250000 0.469584
O O11 0.344164 0.496259 0.513289
O O12 0.831210 0.750000 0.805206
O O13 0.833202 0.495355 0.744415
O O14 0.069346 0.533770 0.651173
O O15 0.311038 0.750000 0.483085
O O16 0.371344 0.991539 0.378647
O O17 0.520712 0.250000 0.254324
O O18 0.651935 0.250000 0.849003
O O19 0.500000 0.000000 0.000000
#
# Coordination Sequence:
#
# PCOD8069132 Si02
#       7
#     4   4   4   4   4   4   4
#     4  10  19  33  54  78 103 135 174 215 259 306
#     4   9  19  35  53  76 103 133 169 209 252 301
#     4  10  21  37  56  78 106 137 173 213 256 306
#     4  10  20  34  52  77 106 135 172 216 256 304
#     4  10  21  36  55  78 105 137 173 212 258 306
#     4   9  20  37  54  74 104 138 172 210 255 307
#     4  10  18  30  50  75 103 135 170 211 260 308
#
# _framework density 18.079232000000001
#
# number of rings (size 3 to 8) (size 9 to 14) (size 15 to 20)
#    0.000    2.286    0.000    5.571    0.000    7.429 
#    0.000    3.571    0.000    0.000    0.000    0.000 
#    0.000    0.000    0.000    0.000    0.000    0.000 
#
# Total GULP energy -347153.467552 kJ/mol
# GULP energy per Si atom -12398.338127 kJ/mol
# Density = 1.803808 g / cm^3
# Si number density = 18.079232 Si / 1000 Ang^3
#
#
#
# Elastic Constant Matrix: (Units=GPa)
#
#
# Indices 1 2 3 4 5 6 
#
# 1 148.0300 80.6173 79.9473 0.0000 6.7143 0.0000
# 2 80.6173 108.9967 62.7322 0.0000 -4.7252 0.0000
# 3 79.9473 62.7322 91.5204 0.0000 -4.3757 0.0000
# 4 0.0000 0.0000 0.0000 30.9883 0.0000 -1.3722
# 5 6.7143 -4.7252 -4.3757 0.0000 27.1566 0.0000
# 6 0.0000 0.0000 0.0000 -1.3722 0.0000 34.1077
#
#
#
# Elastic Compliance Matrix: (Units=1/GPa)
#
#
# Indices 1 2 3 4 5 6 
#
# 1 0.015768 -0.006340 -0.009742 0.000000 -0.006571 0.000000
# 2 -0.006340 0.017727 -0.006440 0.000000 0.003614 0.000000
# 3 -0.009742 -0.006440 0.024098 0.000000 0.005171 0.000000
# 4 0.000000 0.000000 0.000000 0.032328 0.000000 0.001301
# 5 -0.006571 0.003614 0.005171 0.000000 0.039910 0.000000
# 6 0.000000 0.000000 0.000000 0.001301 0.000000 0.029371
#
#
# Mechanical properties :
#
#
# Convention : Reuss Voigt Hill
#
# Bulk Modulus (GPa) = 79.68918 88.34897 84.01908
# Shear Modulus (GPa) = 23.98891 26.80052 25.39471
#
# Velocity S-wave (km/s) = 3.64658 3.85436 3.75191
# Velocity P-wave (km/s) = 7.86788 8.29348 8.08348
#
# Compressibility (1/GPa) = 0.01254876
#
# Stress axis : x y z
#
# Youngs Moduli (GPa) = 63.41979 56.41134 41.49698
#
# Poissons Ratio (x) = 0.35766 0.40428
# Poissons Ratio (y) = 0.40209 0.26722
# Poissons Ratio (z) = 0.61786 0.36326
#
# Static dielectric constant tensor:
#      x y z
#    x 2.941990 0.000000 -0.109680 
#    y 0.000000 3.370090 0.000000 
#    z -0.109680 0.000000 3.200450 
# 
# 
# High freq. dielectric constant tensor:
#      x y z
#    x 1.716060 0.000000 -0.006000 
#    y 0.000000 1.713370 0.000000 
#    z -0.006000 0.000000 1.678880 
# 
# From -- ./inp_files/69790.got.cif
#   From: 2010.06.25/outbox.cif.g09.slc.cpg/sg11_35_cif.got.tgz:69790.got - 2010.06.27 23:14:04.
