data_PCOD8069970
_publ_section_title
;
Structure prediction by ZEFSAII (Michael W. Deem and Ramdas Pophale) SiO2 
 PCOD8069970
Probable space group: P 21/M
;
_chemical_formula_sum "Si O2"
_cell_formula_units_Z 28
_cell_length_a 19.156717
_cell_length_b 9.253808
_cell_length_c 14.329891
_cell_angle_alpha 90.000000
_cell_angle_beta 137.747300
_cell_angle_gamma 90.000000
_cell_volume 1708.099833
_symmetry_space_group_name_H-M "P 21/M"
_symmetry_group_IT_number 11
_symmetry_cell_setting 'monoclinic'
loop_
_space_group_symop_operation_xyz
x,y,z
-x,1/2+y,-z
-x,-y,-z
x,1/2-y,z
loop_
_atom_site_type_symbol
_atom_site_label
_atom_site_fract_x
_atom_site_fract_y
_atom_site_fract_z
Si Si1 0.603396 0.417145 0.702755
Si Si2 0.882150 0.917950 0.474865
Si Si3 0.301334 0.580100 0.016161
Si Si4 0.499233 0.920750 0.097191
Si Si5 0.306294 0.081757 0.583455
Si Si6 0.116289 0.580125 0.710993
Si Si7 0.609197 0.082079 0.499578
O O1 0.569292 0.250000 0.681910
O O2 0.689271 0.461613 0.865025
O O3 0.503848 0.514236 0.623293
O O4 0.650051 0.443138 0.645891
O O5 0.873533 0.750000 0.440277
O O6 0.803886 0.958660 0.480030
O O7 0.998475 0.959416 0.622964
O O8 0.850591 0.006387 0.352481
O O9 0.300676 0.750000 0.004076
O O10 0.400224 0.520801 0.056885
O O11 0.193302 0.519192 0.867524
O O12 0.495118 0.750000 0.075638
O O13 0.601827 0.964485 0.255988
O O14 0.500000 0.000000 0.000000
O O15 0.314247 0.250000 0.566887
O O16 0.311269 0.993656 0.492047
O O17 0.129412 0.750000 0.709343
O O18 0.601839 0.250000 0.467830
#
# Coordination Sequence:
#
# PCOD8069970 Si02
#       7
#     4   4   4   4   4   4   4
#     4   9  17  32  49  66  93 123 150 185 232 279
#     4   9  18  31  47  68  92 122 156 188 227 267
#     4   9  16  29  48  66  88 120 151 181 224 274
#     4  10  19  29  42  62  89 121 148 176 221 270
#     4  10  19  32  47  63  93 129 152 180 228 280
#     4   9  17  30  49  70  90 117 157 195 222 262
#     4  10  19  29  47  72  92 116 154 194 227 268
#
# _framework density 16.392484
#
# number of rings (size 3 to 8) (size 9 to 14) (size 15 to 20)
#    0.000    2.571    1.429    1.286    0.000    1.714 
#    0.000    0.714    0.000    0.857    0.000    0.000 
#    0.000    0.000    0.000    0.000    0.000    0.429 
#
# Total GULP energy -347140.737541 kJ/mol
# GULP energy per Si atom -12397.883484 kJ/mol
# Density = 1.635517 g / cm^3
# Si number density = 16.392484 Si / 1000 Ang^3
#
#
#
# Elastic Constant Matrix: (Units=GPa)
#
#
# Indices 1 2 3 4 5 6 
#
# 1 129.1320 47.4851 75.3876 0.0000 -11.1068 0.0000
# 2 47.4851 45.4253 35.8096 0.0000 -7.1640 0.0000
# 3 75.3876 35.8096 127.5882 0.0000 -11.8646 0.0000
# 4 0.0000 0.0000 0.0000 16.5224 0.0000 -5.9451
# 5 -11.1068 -7.1640 -11.8646 0.0000 25.2906 0.0000
# 6 0.0000 0.0000 0.0000 -5.9451 0.0000 26.8498
#
#
#
# Elastic Compliance Matrix: (Units=1/GPa)
#
#
# Indices 1 2 3 4 5 6 
#
# 1 0.015401 -0.011374 -0.005833 0.000000 0.000805 0.000000
# 2 -0.011374 0.037163 -0.003341 0.000000 0.003964 0.000000
# 3 -0.005833 -0.003341 0.012438 0.000000 0.002327 0.000000
# 4 0.000000 0.000000 0.000000 0.065763 0.000000 0.014561
# 5 0.000805 0.003964 0.002327 0.000000 0.042109 0.000000
# 6 0.000000 0.000000 0.000000 0.014561 0.000000 0.040468
#
#
# Mechanical properties :
#
#
# Convention : Reuss Voigt Hill
#
# Bulk Modulus (GPa) = 41.82989 68.83445 55.33217
# Shear Modulus (GPa) = 19.05428 23.29679 21.17553
#
# Velocity S-wave (km/s) = 3.41307 3.77395 3.59804
# Velocity P-wave (km/s) = 6.41133 7.81492 7.14766
#
# Compressibility (1/GPa) = 0.02390635
#
# Stress axis : x y z
#
# Youngs Moduli (GPa) = 64.93056 26.90819 80.39763
#
# Poissons Ratio (x) = 0.30606 0.46893
# Poissons Ratio (y) = 0.73855 0.26861
# Poissons Ratio (z) = 0.37872 0.08990
#
# Static dielectric constant tensor:
#      x y z
#    x 3.142210 0.000000 -0.038920 
#    y 0.000000 2.988680 0.000000 
#    z -0.038920 0.000000 3.338010 
# 
# 
# High freq. dielectric constant tensor:
#      x y z
#    x 1.624750 0.000000 -0.008620 
#    y 0.000000 1.618710 0.000000 
#    z -0.008620 0.000000 1.624310 
# 
# From -- ./inp_files/37145.got.cif
#   From: 2010.06.25/outbox.cif.g09.slc.cpg/sg11_19_cif.got.tgz:37145.got - 2010.06.27 23:14:04.
