data_PCOD8069756
_publ_section_title
;
Structure prediction by ZEFSAII (Michael W. Deem and Ramdas Pophale) SiO2 
 PCOD8069756
Probable space group: P 21/M
;
_chemical_formula_sum "Si O2"
_cell_formula_units_Z 32
_cell_length_a 9.033061
_cell_length_b 13.537161
_cell_length_c 27.570263
_cell_angle_alpha 90.000000
_cell_angle_beta 148.771160
_cell_angle_gamma 90.000000
_cell_volume 1747.900080
_symmetry_space_group_name_H-M "P 21/M"
_symmetry_group_IT_number 11
_symmetry_cell_setting 'monoclinic'
loop_
_space_group_symop_operation_xyz
x,y,z
-x,1/2+y,-z
-x,-y,-z
x,1/2-y,z
loop_
_atom_site_type_symbol
_atom_site_label
_atom_site_fract_x
_atom_site_fract_y
_atom_site_fract_z
Si Si1 0.263048 0.140844 0.359172
Si Si2 0.345457 0.139279 0.885224
Si Si3 0.564811 0.137539 0.055234
Si Si4 0.903116 0.508610 0.773678
Si Si5 0.711558 0.136908 0.261190
Si Si6 0.304920 0.533587 0.642616
Si Si7 0.677128 0.976357 0.925328
Si Si8 0.875518 0.363717 0.507184
O O1 0.219786 0.250000 0.323689
O O2 0.182062 0.056704 0.300009
O O3 0.600047 0.128842 0.465966
O O4 0.049517 0.128048 0.344249
O O5 0.349979 0.250000 0.867489
O O6 0.545487 0.080774 0.904076
O O7 0.436552 0.129086 0.966334
O O8 0.022700 0.099073 0.793526
O O9 0.636850 0.250000 0.089470
O O10 0.343743 0.095903 0.033711
O O11 0.853566 0.074744 0.133364
O O12 0.629973 0.496260 0.730916
O O13 0.605647 0.250000 0.226723
O O14 0.700505 0.103877 0.313071
O O15 0.507696 0.070348 0.170169
O O16 0.209188 0.599679 0.570293
O O17 0.116421 0.435029 0.596502
O O18 0.000000 0.000000 0.000000
O O19 0.985032 0.250000 0.535151
#
# Coordination Sequence:
#
# PCOD8069756 Si02
#       8
#     4   4   4   4   4   4   4   4
#     4   9  17  33  59  81 104 142 181 225 275 330
#     4  10  22  37  55  78 108 152 198 231 271 334
#     4  10  20  36  58  80 105 148 196 235 277 327
#     4  10  18  34  55  77 110 142 186 230 271 322
#     4  11  22  36  57  88 115 144 189 236 284 333
#     4  10  22  34  58  89 114 143 183 238 283 337
#     4  11  23  37  56  81 120 150 182 235 290 334
#     4   9  19  39  59  81 112 147 184 228 287 342
#
# _framework density 18.307682
#
# number of rings (size 3 to 8) (size 9 to 14) (size 15 to 20)
#    0.000    2.000    2.500    2.625    3.500    3.500 
#    0.000    0.625    0.000    0.000    0.000    0.000 
#    0.000    0.000    0.000    0.000    0.000    0.000 
#
# Total GULP energy -396583.025170 kJ/mol
# GULP energy per Si atom -12393.219537 kJ/mol
# Density = 1.826601 g / cm^3
# Si number density = 18.307682 Si / 1000 Ang^3
#
#
#
# Elastic Constant Matrix: (Units=GPa)
#
#
# Indices 1 2 3 4 5 6 
#
# 1 109.5943 47.7198 54.6007 0.0000 23.2155 0.0000
# 2 47.7198 131.8218 47.1942 0.0000 15.8361 0.0000
# 3 54.6007 47.1942 70.2516 0.0000 24.9581 0.0000
# 4 0.0000 0.0000 0.0000 33.6478 0.0000 -10.0210
# 5 23.2155 15.8361 24.9581 0.0000 33.5086 0.0000
# 6 0.0000 0.0000 0.0000 -10.0210 0.0000 32.5321
#
#
#
# Elastic Compliance Matrix: (Units=1/GPa)
#
#
# Indices 1 2 3 4 5 6 
#
# 1 0.015310 -0.001711 -0.009884 0.000000 -0.002437 0.000000
# 2 -0.001711 0.010183 -0.005742 0.000000 0.000650 0.000000
# 3 -0.009884 -0.005742 0.030429 0.000000 -0.013103 0.000000
# 4 0.000000 0.000000 0.000000 0.032721 0.000000 0.010079
# 5 -0.002437 0.000650 -0.013103 0.000000 0.040983 0.000000
# 6 0.000000 0.000000 0.000000 0.010079 0.000000 0.033844
#
#
# Mechanical properties :
#
#
# Convention : Reuss Voigt Hill
#
# Bulk Modulus (GPa) = 47.06300 67.85521 57.45910
# Shear Modulus (GPa) = 24.36321 30.74789 27.55555
#
# Velocity S-wave (km/s) = 3.65192 4.10263 3.88382
# Velocity P-wave (km/s) = 6.59883 7.71922 7.18091
#
# Compressibility (1/GPa) = 0.02124811
#
# Stress axis : x y z
#
# Youngs Moduli (GPa) = 65.31652 98.20310 32.86329
#
# Poissons Ratio (x) = 0.16801 0.32483
# Poissons Ratio (y) = 0.11175 0.18870
# Poissons Ratio (z) = 0.64561 0.56387
#
# Static dielectric constant tensor:
#      x y z
#    x 3.586080 0.000000 0.491420 
#    y 0.000000 3.633860 0.000000 
#    z 0.491420 0.000000 3.704100 
# 
# 
# High freq. dielectric constant tensor:
#      x y z
#    x 1.710190 0.000000 0.014770 
#    y 0.000000 1.719950 0.000000 
#    z 0.014770 0.000000 1.695350 
# 
# From -- ./inp_files/71115.got.cif
#   From: 2010.06.25/outbox.cif.g09.slc.cpg/sg11_36_cif.got.tgz:71115.got - 2010.06.27 23:14:04.
