data_PCOD8069233
_publ_section_title
;
Structure prediction by ZEFSAII (Michael W. Deem and Ramdas Pophale) SiO2 
 PCOD8069233
Probable space group: P 21/M
;
_chemical_formula_sum "Si O2"
_cell_formula_units_Z 32
_cell_length_a 13.973541
_cell_length_b 8.625792
_cell_length_c 31.119329
_cell_angle_alpha 90.000000
_cell_angle_beta 147.899189
_cell_angle_gamma 90.000000
_cell_volume 1993.268794
_symmetry_space_group_name_H-M "P 21/M"
_symmetry_group_IT_number 11
_symmetry_cell_setting 'monoclinic'
loop_
_space_group_symop_operation_xyz
x,y,z
-x,1/2+y,-z
-x,-y,-z
x,1/2-y,z
loop_
_atom_site_type_symbol
_atom_site_label
_atom_site_fract_x
_atom_site_fract_y
_atom_site_fract_z
Si Si1 0.449418 0.065196 0.434804
Si Si2 0.051462 0.068914 0.266552
Si Si3 0.209168 0.074583 0.892066
Si Si4 0.773800 0.071179 0.233794
Si Si5 0.803317 0.434331 0.416280
Si Si6 0.120198 0.068387 0.639240
Si Si7 0.513736 0.071621 0.064162
Si Si8 0.730170 0.566163 0.474513
O O1 0.458144 0.250000 0.438678
O O2 0.251095 0.000034 0.347522
O O3 0.500000 0.000000 0.500000
O O4 0.585223 0.999579 0.451770
O O5 0.065609 0.250000 0.274250
O O6 0.923642 0.010871 0.256741
O O7 0.966056 0.025034 0.187537
O O8 0.143297 0.250000 0.864512
O O9 0.369689 0.046361 0.919539
O O10 0.299845 0.038184 0.973680
O O11 0.809627 0.250000 0.260002
O O12 0.574015 0.050391 0.136778
O O13 0.781503 0.964782 0.278563
O O14 0.799946 0.250000 0.414528
O O15 0.749668 0.500949 0.349015
O O16 0.679881 0.498642 0.408073
O O17 0.000000 0.500000 0.500000
O O18 0.091307 0.250000 0.621506
O O19 0.926837 0.985588 0.565160
O O20 0.558421 0.250000 0.067410
O O21 0.722487 0.750000 0.470500
#
# Coordination Sequence:
#
# PCOD8069233 Si02
#       8
#     4   4   4   4   4   4   4   4
#     4  11  22  35  49  66  88 118 154 188 223 259
#     4   9  19  32  44  59  85 118 149 183 221 259
#     4   9  15  24  41  61  80 107 145 182 214 254
#     4   9  16  28  43  61  88 120 149 178 218 262
#     4  10  18  31  49  67  86 111 143 179 221 266
#     4  11  20  30  45  67  91 115 146 182 221 265
#     4   8  15  26  39  57  83 113 142 175 216 258
#     4  11  21  34  49  65  87 116 149 186 224 259
#
# _framework density 16.054031999999999
#
# number of rings (size 3 to 8) (size 9 to 14) (size 15 to 20)
#    0.000    2.250    0.000    7.125    0.000    4.500 
#    0.000    0.000    0.000    0.000    0.000    0.000 
#    0.000    1.000    0.000    3.000    0.000    4.875 
#
# Total GULP energy -396521.539126 kJ/mol
# GULP energy per Si atom -12391.298098 kJ/mol
# Density = 1.601749 g / cm^3
# Si number density = 16.054032 Si / 1000 Ang^3
#
#
#
# Elastic Constant Matrix: (Units=GPa)
#
#
# Indices 1 2 3 4 5 6 
#
# 1 93.8505 34.2175 51.8920 0.0000 -14.8789 0.0000
# 2 34.2175 77.2276 30.3685 0.0000 -6.5100 0.0000
# 3 51.8920 30.3685 124.1139 0.0000 -12.2643 0.0000
# 4 0.0000 0.0000 0.0000 24.8276 0.0000 -4.6682
# 5 -14.8789 -6.5100 -12.2643 0.0000 16.6836 0.0000
# 6 0.0000 0.0000 0.0000 -4.6682 0.0000 22.5188
#
#
#
# Elastic Compliance Matrix: (Units=1/GPa)
#
#
# Indices 1 2 3 4 5 6 
#
# 1 0.016500 -0.004617 -0.004845 0.000000 0.009352 0.000000
# 2 -0.004617 0.015785 -0.001866 0.000000 0.000670 0.000000
# 3 -0.004845 -0.001866 0.010827 0.000000 0.002910 0.000000
# 4 0.000000 0.000000 0.000000 0.041911 0.000000 0.008688
# 5 0.009352 0.000670 0.002910 0.000000 0.070680 0.000000
# 6 0.000000 0.000000 0.000000 0.008688 0.000000 0.046208
#
#
# Mechanical properties :
#
#
# Convention : Reuss Voigt Hill
#
# Bulk Modulus (GPa) = 48.88474 58.68311 53.78393
# Shear Modulus (GPa) = 21.60897 24.72028 23.16462
#
# Velocity S-wave (km/s) = 3.67279 3.92831 3.80269
# Velocity P-wave (km/s) = 6.96434 7.56362 7.27016
#
# Compressibility (1/GPa) = 0.02045628
#
# Stress axis : x y z
#
# Youngs Moduli (GPa) = 60.60558 63.35288 92.36370
#
# Poissons Ratio (x) = 0.29252 0.44748
# Poissons Ratio (y) = 0.27983 0.17231
# Poissons Ratio (z) = 0.29362 0.11819
#
# Static dielectric constant tensor:
#      x y z
#    x 3.118910 0.000000 -0.203920 
#    y 0.000000 3.110310 0.000000 
#    z -0.203920 0.000000 3.388040 
# 
# 
# High freq. dielectric constant tensor:
#      x y z
#    x 1.571590 0.000000 -0.023490 
#    y 0.000000 1.629300 0.000000 
#    z -0.023490 0.000000 1.615050 
# 
# From -- ./inp_files/73319.got.cif
#   From: 2010.06.25/outbox.cif.g09.slc.cpg/sg11_37_cif.got.tgz:73319.got - 2010.06.27 23:14:04.
