data_PCOD8069844
_publ_section_title
;
Structure prediction by ZEFSAII (Michael W. Deem and Ramdas Pophale) SiO2 
 PCOD8069844
Probable space group: P 21/M
;
_chemical_formula_sum "Si O2"
_cell_formula_units_Z 32
_cell_length_a 11.081625
_cell_length_b 17.795510
_cell_length_c 18.116916
_cell_angle_alpha 90.000000
_cell_angle_beta 152.112605
_cell_angle_gamma 90.000000
_cell_volume 1671.084369
_symmetry_space_group_name_H-M "P 21/M"
_symmetry_group_IT_number 11
_symmetry_cell_setting 'monoclinic'
loop_
_space_group_symop_operation_xyz
x,y,z
-x,1/2+y,-z
-x,-y,-z
x,1/2-y,z
loop_
_atom_site_type_symbol
_atom_site_label
_atom_site_fract_x
_atom_site_fract_y
_atom_site_fract_z
Si Si1 0.417836 0.664111 0.432725
Si Si2 0.823308 0.661660 0.124182
Si Si3 0.266796 0.034019 0.164568
Si Si4 0.581730 0.669766 0.682291
Si Si5 0.421415 0.923016 0.806391
Si Si6 0.095125 0.665478 0.523996
Si Si7 0.125173 0.057464 0.711447
Si Si8 0.602113 0.523701 0.475232
O O1 0.495400 0.750000 0.462152
O O2 0.467101 0.638172 0.544047
O O3 0.606744 0.615108 0.482797
O O4 0.114946 0.650400 0.252378
O O5 0.772513 0.750000 0.112709
O O6 0.773618 0.614487 0.171658
O O7 0.626509 0.631385 0.956549
O O8 0.206938 0.116352 0.166407
O O9 0.450545 0.036168 0.193795
O O10 0.400178 0.988407 0.301291
O O11 0.000000 0.000000 0.000000
O O12 0.716355 0.750000 0.743180
O O13 0.342856 0.675629 0.607456
O O14 0.180176 0.871905 0.648037
O O15 0.330347 0.990710 0.809956
O O16 0.975471 0.750000 0.471573
O O17 0.905397 0.606965 0.379809
O O18 0.868520 0.015137 0.599343
O O19 0.500000 0.500000 0.500000
#
# Coordination Sequence:
#
# PCOD8069844 Si02
#       8
#     4   4   4   4   4   4   4   4
#     4  10  19  34  59  86 115 150 199 245 284 341
#     4  11  21  38  61  88 116 155 204 252 291 342
#     4  11  22  36  58  85 118 153 189 244 301 349
#     4   9  16  32  56  85 109 142 195 240 283 337
#     4  11  24  38  55  92 121 153 195 246 306 351
#     4  10  18  35  59  84 111 149 197 245 287 347
#     4  12  22  38  63  86 118 158 200 248 291 365
#     4  12  20  37  60  89 117 152 200 240 294 349
#
# _framework density 19.149242999999998
#
# number of rings (size 3 to 8) (size 9 to 14) (size 15 to 20)
#    0.000    1.250    6.250    2.250    0.000    0.500 
#    0.000    1.875    0.000    3.000    0.000    0.000 
#    0.000    0.000    0.000    0.000    0.000    0.000 
#
# Total GULP energy -396543.887271 kJ/mol
# GULP energy per Si atom -12391.996477 kJ/mol
# Density = 1.910566 g / cm^3
# Si number density = 19.149243 Si / 1000 Ang^3
#
#
#
# Elastic Constant Matrix: (Units=GPa)
#
#
# Indices 1 2 3 4 5 6 
#
# 1 49.7095 49.4892 26.0071 0.0000 -11.2052 0.0000
# 2 49.4892 135.3769 43.0994 0.0000 -2.6750 0.0000
# 3 26.0071 43.0994 89.9042 0.0000 -17.0552 0.0000
# 4 0.0000 0.0000 0.0000 37.0825 0.0000 -1.8578
# 5 -11.2052 -2.6750 -17.0552 0.0000 23.5984 0.0000
# 6 0.0000 0.0000 0.0000 -1.8578 0.0000 30.9150
#
#
#
# Elastic Compliance Matrix: (Units=1/GPa)
#
#
# Indices 1 2 3 4 5 6 
#
# 1 0.037014 -0.012656 -0.001829 0.000000 0.014819 0.000000
# 2 -0.012656 0.013159 -0.004061 0.000000 -0.007453 0.000000
# 3 -0.001829 -0.004061 0.015467 0.000000 0.009850 0.000000
# 4 0.000000 0.000000 0.000000 0.027048 0.000000 0.001625
# 5 0.014819 -0.007453 0.009850 0.000000 0.055686 0.000000
# 6 0.000000 0.000000 0.000000 0.001625 0.000000 0.032444
#
#
# Mechanical properties :
#
#
# Convention : Reuss Voigt Hill
#
# Bulk Modulus (GPa) = 35.02803 56.90910 45.96857
# Shear Modulus (GPa) = 21.98500 28.74550 25.36525
#
# Velocity S-wave (km/s) = 3.39202 3.87864 3.64347
# Velocity P-wave (km/s) = 5.80284 7.05987 6.46199
#
# Compressibility (1/GPa) = 0.02854856
#
# Stress axis : x y z
#
# Youngs Moduli (GPa) = 27.01679 75.99340 64.65189
#
# Poissons Ratio (x) = 0.96177 0.11824
# Poissons Ratio (y) = 0.34192 0.26256
# Poissons Ratio (z) = 0.04941 0.30862
#
# Static dielectric constant tensor:
#      x y z
#    x 3.322680 0.000000 -0.221800 
#    y 0.000000 3.946470 0.000000 
#    z -0.221800 0.000000 3.567510 
# 
# 
# High freq. dielectric constant tensor:
#      x y z
#    x 1.712120 0.000000 -0.030270 
#    y 0.000000 1.772980 0.000000 
#    z -0.030270 0.000000 1.733920 
# 
# From -- ./inp_files/59626.got.cif
#   From: 2010.06.25/outbox.cif.g09.slc.cpg/sg11_30_cif.got.tgz:59626.got - 2010.06.27 23:14:04.
