data_PCOD8069387
_publ_section_title
;
Structure prediction by ZEFSAII (Michael W. Deem and Ramdas Pophale) SiO2 
 PCOD8069387
Probable space group: P 21/M
;
_chemical_formula_sum "Si O2"
_cell_formula_units_Z 28
_cell_length_a 11.741485
_cell_length_b 20.839640
_cell_length_c 8.807241
_cell_angle_alpha 90.000000
_cell_angle_beta 42.089503
_cell_angle_gamma 90.000000
_cell_volume 1444.495843
_symmetry_space_group_name_H-M "P 21/M"
_symmetry_group_IT_number 11
_symmetry_cell_setting 'monoclinic'
loop_
_space_group_symop_operation_xyz
x,y,z
-x,1/2+y,-z
-x,-y,-z
x,1/2-y,z
loop_
_atom_site_type_symbol
_atom_site_label
_atom_site_fract_x
_atom_site_fract_y
_atom_site_fract_z
Si Si1 0.509773 0.677467 0.560272
Si Si2 0.193590 0.616865 0.741991
Si Si3 0.013465 0.060992 0.290021
Si Si4 0.878723 0.925304 0.494383
Si Si5 0.894210 0.822190 0.215485
Si Si6 0.728443 0.984800 0.186019
Si Si7 0.555255 0.943301 0.663067
O O1 0.460520 0.750000 0.655067
O O2 0.377848 0.652009 0.561295
O O3 0.709047 0.673391 0.315803
O O4 0.478719 0.629468 0.735285
O O5 0.187924 0.551698 0.845942
O O6 0.155844 0.596942 0.603328
O O7 0.045388 0.663099 0.949180
O O8 0.081353 0.096986 0.373199
O O9 0.143353 0.064663 0.019637
O O10 0.997524 0.985232 0.336912
O O11 0.907128 0.867199 0.351032
O O12 0.682959 0.950467 0.677794
O O13 0.920374 0.750000 0.249631
O O14 0.656992 0.947961 0.402008
O O15 0.585220 0.001073 0.199509
#
# Coordination Sequence:
#
# PCOD8069387 Si02
#       7
#     4   4   4   4   4   4   4
#     4   9  19  33  52  78 104 132 182 230 263 317
#     4  11  19  33  56  82 105 141 177 230 279 313
#     4  11  20  31  52  78 116 140 173 220 275 333
#     4  10  20  34  49  78 111 148 174 213 275 332
#     4  10  20  37  59  78 103 143 189 229 269 325
#     4  10  18  31  53  81 107 137 177 235 269 322
#     4   9  18  32  53  76 107 143 180 223 284 310
#
# _framework density 19.383925999999999
#
# number of rings (size 3 to 8) (size 9 to 14) (size 15 to 20)
#    0.000    2.000    2.857    2.571    0.000    0.571 
#    0.000    1.429    0.000    0.857    0.000    4.000 
#    0.000    0.000    0.000    0.000    0.000    0.000 
#
# Total GULP energy -346877.345058 kJ/mol
# GULP energy per Si atom -12388.476609 kJ/mol
# Density = 1.933981 g / cm^3
# Si number density = 19.383926 Si / 1000 Ang^3
#
#
#
# Elastic Constant Matrix: (Units=GPa)
#
#
# Indices 1 2 3 4 5 6 
#
# 1 154.8028 31.8937 38.7069 0.0000 2.5391 0.0000
# 2 31.8937 94.3735 18.7493 0.0000 -0.3155 0.0000
# 3 38.7069 18.7493 37.2844 0.0000 -4.3819 0.0000
# 4 0.0000 0.0000 0.0000 16.6866 0.0000 -6.5133
# 5 2.5391 -0.3155 -4.3819 0.0000 21.7706 0.0000
# 6 0.0000 0.0000 0.0000 -6.5133 0.0000 27.8577
#
#
#
# Elastic Compliance Matrix: (Units=1/GPa)
#
#
# Indices 1 2 3 4 5 6 
#
# 1 0.009041 -0.001258 -0.009094 0.000000 -0.002903 0.000000
# 2 -0.001258 0.011971 -0.004789 0.000000 -0.000644 0.000000
# 3 -0.009094 -0.004789 0.039726 0.000000 0.008987 0.000000
# 4 0.000000 0.000000 0.000000 0.065947 0.000000 0.015419
# 5 -0.002903 -0.000644 0.008987 0.000000 0.048072 0.000000
# 6 0.000000 0.000000 0.000000 0.015419 0.000000 0.039502
#
#
# Mechanical properties :
#
#
# Convention : Reuss Voigt Hill
#
# Bulk Modulus (GPa) = 32.83540 51.68450 42.25995
# Shear Modulus (GPa) = 19.63155 26.40370 23.01763
#
# Velocity S-wave (km/s) = 3.18586 3.69473 3.44969
# Velocity P-wave (km/s) = 5.52352 6.70245 6.14134
#
# Compressibility (1/GPa) = 0.03045493
#
# Stress axis : x y z
#
# Youngs Moduli (GPa) = 110.61311 83.53695 25.17228
#
# Poissons Ratio (x) = 0.10511 0.22891
# Poissons Ratio (y) = 0.13918 0.12055
# Poissons Ratio (z) = 1.00590 0.40007
#
# Static dielectric constant tensor:
#      x y z
#    x 3.875440 0.000000 -0.312730 
#    y 0.000000 3.690010 0.000000 
#    z -0.312730 0.000000 3.129410 
# 
# 
# High freq. dielectric constant tensor:
#      x y z
#    x 1.765280 0.000000 -0.032960 
#    y 0.000000 1.753510 0.000000 
#    z -0.032960 0.000000 1.702700 
# 
# From -- ./inp_files/19128.got.cif
#   From: 2010.06.25/outbox.cif.g09.slc.cpg/sg11_10_cif.got.tgz:19128.got - 2010.06.27 23:14:04.
