data_PCOD8069543
_publ_section_title
;
Structure prediction by ZEFSAII (Michael W. Deem and Ramdas Pophale) SiO2 
 PCOD8069543
Probable space group: P 21/M
;
_chemical_formula_sum "Si O2"
_cell_formula_units_Z 32
_cell_length_a 17.403350
_cell_length_b 17.702003
_cell_length_c 11.425324
_cell_angle_alpha 90.000000
_cell_angle_beta 28.356741
_cell_angle_gamma 90.000000
_cell_volume 1671.786291
_symmetry_space_group_name_H-M "P 21/M"
_symmetry_group_IT_number 11
_symmetry_cell_setting 'monoclinic'
loop_
_space_group_symop_operation_xyz
x,y,z
-x,1/2+y,-z
-x,-y,-z
x,1/2-y,z
loop_
_atom_site_type_symbol
_atom_site_label
_atom_site_fract_x
_atom_site_fract_y
_atom_site_fract_z
Si Si1 0.096289 0.837165 0.773591
Si Si2 0.715349 0.335374 0.721747
Si Si3 0.665550 0.922889 0.049765
Si Si4 0.140144 0.047456 0.993598
Si Si5 0.313013 0.954830 0.578311
Si Si6 0.345919 0.160676 0.175366
Si Si7 0.828143 0.036447 0.696079
Si Si8 0.816400 0.535087 0.472763
O O1 0.067010 0.750000 0.847552
O O2 0.190671 0.846741 0.525529
O O3 0.199101 0.880606 0.734467
O O4 0.928998 0.883463 0.991171
O O5 0.712576 0.250000 0.764738
O O6 0.814634 0.373479 0.697965
O O7 0.530491 0.363574 0.954571
O O8 0.797214 0.909571 0.974816
O O9 0.490193 0.919277 0.341332
O O10 0.695822 0.864899 0.902239
O O11 0.696092 0.008760 0.965823
O O12 0.284441 0.005782 0.731307
O O13 0.007066 0.981944 0.197700
O O14 0.283707 0.008206 0.505316
O O15 0.318445 0.250000 0.220365
O O16 0.226317 0.121586 0.432072
O O17 0.761337 0.013122 0.657941
O O18 0.000000 0.000000 0.500000
#
# Coordination Sequence:
#
# PCOD8069543 Si02
#       8
#     4   4   4   4   4   4   4   4
#     4  10  19  35  56  80 109 143 189 238 283 335
#     4  10  18  32  54  84 113 141 183 234 292 346
#     4  11  21  34  59  84 118 148 191 238 287 340
#     4  11  22  38  55  83 118 151 194 237 281 337
#     4  11  21  37  59  83 111 155 200 236 274 335
#     4  10  21  35  58  88 117 147 186 243 299 349
#     4  11  18  33  55  80 114 149 178 236 294 343
#     4  10  19  36  56  80 112 149 190 235 281 341
#
# _framework density 19.141203000000001
#
# number of rings (size 3 to 8) (size 9 to 14) (size 15 to 20)
#    0.000    1.500    5.000    2.625    0.000    2.500 
#    0.000    6.250    0.000    1.500    0.000    0.000 
#    0.000    0.000    0.000    0.000    0.000    0.000 
#
# Total GULP energy -396477.562617 kJ/mol
# GULP energy per Si atom -12389.923832 kJ/mol
# Density = 1.909764 g / cm^3
# Si number density = 19.141203 Si / 1000 Ang^3
#
#
#
# Elastic Constant Matrix: (Units=GPa)
#
#
# Indices 1 2 3 4 5 6 
#
# 1 60.1988 27.2814 10.7226 0.0000 -12.3625 0.0000
# 2 27.2814 107.9897 22.7323 0.0000 -4.8692 0.0000
# 3 10.7226 22.7323 49.0111 0.0000 -5.8871 0.0000
# 4 0.0000 0.0000 0.0000 25.1501 0.0000 1.3458
# 5 -12.3625 -4.8692 -5.8871 0.0000 24.3776 0.0000
# 6 0.0000 0.0000 0.0000 1.3458 0.0000 24.8996
#
#
#
# Elastic Compliance Matrix: (Units=1/GPa)
#
#
# Indices 1 2 3 4 5 6 
#
# 1 0.020832 -0.004564 -0.001319 0.000000 0.009334 0.000000
# 2 -0.004564 0.011282 -0.004369 0.000000 -0.001116 0.000000
# 3 -0.001319 -0.004369 0.023206 0.000000 0.004063 0.000000
# 4 0.000000 0.000000 0.000000 0.039877 0.000000 -0.002155
# 5 0.009334 -0.001116 0.004063 0.000000 0.046513 0.000000
# 6 0.000000 0.000000 0.000000 -0.002155 0.000000 0.040278
#
#
# Mechanical properties :
#
#
# Convention : Reuss Voigt Hill
#
# Bulk Modulus (GPa) = 28.72198 37.63024 33.17611
# Shear Modulus (GPa) = 23.35381 25.31636 24.33509
#
# Velocity S-wave (km/s) = 3.49675 3.64072 3.56946
# Velocity P-wave (km/s) = 5.59830 6.11351 5.86157
#
# Compressibility (1/GPa) = 0.03481654
#
# Stress axis : x y z
#
# Youngs Moduli (GPa) = 48.00318 88.63320 43.09156
#
# Poissons Ratio (x) = 0.40453 0.05686
# Poissons Ratio (y) = 0.21909 0.18825
# Poissons Ratio (z) = 0.06334 0.38720
#
# Static dielectric constant tensor:
#      x y z
#    x 3.549690 0.000000 -0.034710 
#    y 0.000000 3.674570 0.000000 
#    z -0.034710 0.000000 3.444520 
# 
# 
# High freq. dielectric constant tensor:
#      x y z
#    x 1.734710 0.000000 -0.008900 
#    y 0.000000 1.733520 0.000000 
#    z -0.008900 0.000000 1.736580 
# 
# From -- ./inp_files/41825.got.cif
#   From: 2010.06.25/outbox.cif.g09.slc.cpg/sg11_21_cif.got.tgz:41825.got - 2010.06.27 23:14:04.
