data_PCOD8069708
_publ_section_title
;
Structure prediction by ZEFSAII (Michael W. Deem and Ramdas Pophale) SiO2 
 PCOD8069708
Probable space group: P 21/M
;
_chemical_formula_sum "Si O2"
_cell_formula_units_Z 32
_cell_length_a 20.786599
_cell_length_b 9.064790
_cell_length_c 25.611226
_cell_angle_alpha 90.000000
_cell_angle_beta 157.877455
_cell_angle_gamma 90.000000
_cell_volume 1817.351625
_symmetry_space_group_name_H-M "P 21/M"
_symmetry_group_IT_number 11
_symmetry_cell_setting 'monoclinic'
loop_
_space_group_symop_operation_xyz
x,y,z
-x,1/2+y,-z
-x,-y,-z
x,1/2-y,z
loop_
_atom_site_type_symbol
_atom_site_label
_atom_site_fract_x
_atom_site_fract_y
_atom_site_fract_z
Si Si1 0.987701 0.421070 0.648275
Si Si2 0.493837 0.422238 0.659255
Si Si3 0.585745 0.423100 0.913789
Si Si4 0.621423 0.921873 0.050545
Si Si5 0.129649 0.574390 0.058434
Si Si6 0.308786 0.077720 0.623010
Si Si7 0.150682 0.077797 0.355435
Si Si8 0.101348 0.576878 0.920378
O O1 0.942447 0.250000 0.616857
O O2 0.185804 0.448610 0.784792
O O3 0.873413 0.494632 0.516534
O O4 0.949744 0.490599 0.675885
O O5 0.520141 0.250000 0.686729
O O6 0.679682 0.484718 0.783726
O O7 0.426333 0.483964 0.663935
O O8 0.353484 0.459759 0.508995
O O9 0.611015 0.250000 0.944525
O O10 0.403982 0.453055 0.749051
O O11 0.588585 0.511683 0.969131
O O12 0.736380 0.484726 0.989662
O O13 0.577463 0.750000 0.015142
O O14 0.500000 0.000000 0.000000
O O15 0.110776 0.750000 0.048700
O O16 0.090303 0.513921 0.970534
O O17 0.000000 0.500000 0.000000
O O18 0.272287 0.250000 0.587611
O O19 0.120973 0.250000 0.344896
O O20 0.073801 0.034355 0.241372
O O21 0.128029 0.750000 0.945165
#
# Coordination Sequence:
#
# PCOD8069708 Si02
#       8
#     4   4   4   4   4   4   4   4
#     4  10  20  33  50  78 112 139 167 213 267 310
#     4   8  14  27  48  72  98 129 170 210 248 303
#     4  10  18  33  58  85 106 131 176 227 266 308
#     4  11  24  39  55  78 110 146 178 213 261 316
#     4  10  19  33  49  70 103 139 175 214 258 310
#     4   9  17  31  55  82 104 134 176 217 260 314
#     4   9  16  29  53  78  97 129 173 215 261 311
#     4   9  16  29  53  79 101 129 172 218 256 307
#
# _framework density 17.608039000000002
#
# number of rings (size 3 to 8) (size 9 to 14) (size 15 to 20)
#    0.000    2.500    2.500    1.500    0.000    2.000 
#    0.000    5.000    0.000    0.000    0.000    0.000 
#    0.000    0.000    0.000    0.000    0.000    0.000 
#
# Total GULP energy -396647.832645 kJ/mol
# GULP energy per Si atom -12395.244770 kJ/mol
# Density = 1.756796 g / cm^3
# Si number density = 17.608039 Si / 1000 Ang^3
#
#
#
# Elastic Constant Matrix: (Units=GPa)
#
#
# Indices 1 2 3 4 5 6 
#
# 1 120.1460 45.2865 76.2652 0.0000 -0.5054 0.0000
# 2 45.2865 63.6659 58.4309 0.0000 1.1140 0.0000
# 3 76.2652 58.4309 157.7627 0.0000 -6.6931 0.0000
# 4 0.0000 0.0000 0.0000 23.7917 0.0000 2.9211
# 5 -0.5054 1.1140 -6.6931 0.0000 26.6767 0.0000
# 6 0.0000 0.0000 0.0000 2.9211 0.0000 23.6675
#
#
#
# Elastic Compliance Matrix: (Units=1/GPa)
#
#
# Indices 1 2 3 4 5 6 
#
# 1 0.013105 -0.005259 -0.004415 0.000000 -0.000640 0.000000
# 2 -0.005259 0.026186 -0.007284 0.000000 -0.003021 0.000000
# 3 -0.004415 -0.007284 0.011300 0.000000 0.003056 0.000000
# 4 0.000000 0.000000 0.000000 0.042678 0.000000 -0.005267
# 5 -0.000640 -0.003021 0.003056 0.000000 0.038367 0.000000
# 6 0.000000 0.000000 0.000000 -0.005267 0.000000 0.042902
#
#
# Mechanical properties :
#
#
# Convention : Reuss Voigt Hill
#
# Bulk Modulus (GPa) = 59.96861 77.94887 68.95874
# Shear Modulus (GPa) = 23.36307 25.59998 24.48152
#
# Velocity S-wave (km/s) = 3.64653 3.81711 3.73280
# Velocity P-wave (km/s) = 7.20146 7.98700 7.60438
#
# Compressibility (1/GPa) = 0.01667539
#
# Stress axis : x y z
#
# Youngs Moduli (GPa) = 76.30662 38.18809 88.49327
#
# Poissons Ratio (x) = 0.20083 0.39066
# Poissons Ratio (y) = 0.40130 0.64463
# Poissons Ratio (z) = 0.33686 0.27818
#
# Static dielectric constant tensor:
#      x y z
#    x 3.184400 0.000000 -0.159840 
#    y 0.000000 3.036560 0.000000 
#    z -0.159840 0.000000 3.681980 
# 
# 
# High freq. dielectric constant tensor:
#      x y z
#    x 1.653770 0.000000 -0.010990 
#    y 0.000000 1.653600 0.000000 
#    z -0.010990 0.000000 1.700970 
# 
# From -- ./inp_files/66414.got.cif
#   From: 2010.06.25/outbox.cif.g09.slc.cpg/sg11_34_cif.got.tgz:66414.got - 2010.06.27 23:14:04.
