data_PCOD8069845
_publ_section_title
;
Structure prediction by ZEFSAII (Michael W. Deem and Ramdas Pophale) SiO2 
 PCOD8069845
Probable space group: P 21/M
;
_chemical_formula_sum "Si O2"
_cell_formula_units_Z 32
_cell_length_a 21.693134
_cell_length_b 8.417433
_cell_length_c 28.135247
_cell_angle_alpha 90.000000
_cell_angle_beta 18.838172
_cell_angle_gamma 90.000000
_cell_volume 1658.883079
_symmetry_space_group_name_H-M "P 21/M"
_symmetry_group_IT_number 11
_symmetry_cell_setting 'monoclinic'
loop_
_space_group_symop_operation_xyz
x,y,z
-x,1/2+y,-z
-x,-y,-z
x,1/2-y,z
loop_
_atom_site_type_symbol
_atom_site_label
_atom_site_fract_x
_atom_site_fract_y
_atom_site_fract_z
Si Si1 0.028741 0.065135 0.675201
Si Si2 0.708366 0.065343 0.593652
Si Si3 0.015042 0.565016 0.436169
Si Si4 0.390662 0.062345 0.680091
Si Si5 0.181716 0.937998 0.655750
Si Si6 0.083643 0.937573 0.831438
Si Si7 0.286740 0.437481 0.158809
Si Si8 0.684415 0.938974 0.159759
O O1 0.066743 0.250000 0.638320
O O2 0.189825 0.961479 0.531230
O O3 0.037941 0.022751 0.724033
O O4 0.822290 0.019363 0.805463
O O5 0.722770 0.250000 0.596790
O O6 0.489280 0.008343 0.747989
O O7 0.811690 0.964130 0.559083
O O8 0.061110 0.750000 0.403809
O O9 0.185807 0.480401 0.282567
O O10 0.000000 0.500000 0.500000
O O11 0.366668 0.250000 0.694811
O O12 0.602994 0.008672 0.511899
O O13 0.343678 0.994374 0.766580
O O14 0.248427 0.984317 0.746946
O O15 0.155758 0.750000 0.670573
O O16 0.129317 0.003935 0.745917
O O17 0.068540 0.750000 0.840682
O O18 0.880928 0.009986 0.995963
O O19 0.282497 0.250000 0.155414
O O20 0.500000 0.500000 0.000000
O O21 0.686807 0.750000 0.160702
#
# Coordination Sequence:
#
# PCOD8069845 Si02
#       8
#     4   4   4   4   4   4   4   4
#     4  11  21  35  58  86 113 145 192 237 277 334
#     4  10  18  35  60  82 111 150 189 233 283 337
#     4  11  22  39  61  90 122 157 198 241 290 344
#     4  10  19  34  55  76 104 145 184 226 280 339
#     4  10  20  36  55  76 108 146 186 228 281 337
#     4  10  21  35  52  79 109 141 181 230 281 336
#     4  11  22  40  64  91 122 156 194 239 289 347
#     4   9  18  34  55  78 108 143 181 225 278 335
#
# _framework density 19.290087
#
# number of rings (size 3 to 8) (size 9 to 14) (size 15 to 20)
#    0.000    1.750    1.250    6.000    0.000    1.000 
#    2.250    1.250    0.000    0.000    0.000    0.000 
#    0.000    0.000    0.000    0.000    0.000    0.000 
#
# Total GULP energy -396862.157393 kJ/mol
# GULP energy per Si atom -12401.942419 kJ/mol
# Density = 1.924618 g / cm^3
# Si number density = 19.290087 Si / 1000 Ang^3
#
#
#
# Elastic Constant Matrix: (Units=GPa)
#
#
# Indices 1 2 3 4 5 6 
#
# 1 149.8125 16.3911 82.8850 0.0000 4.5517 0.0000
# 2 16.3911 47.8221 15.9261 0.0000 -0.0490 0.0000
# 3 82.8850 15.9261 138.4341 0.0000 0.8752 0.0000
# 4 0.0000 0.0000 0.0000 19.6071 0.0000 -6.0250
# 5 4.5517 -0.0490 0.8752 0.0000 32.2382 0.0000
# 6 0.0000 0.0000 0.0000 -6.0250 0.0000 32.6702
#
#
#
# Elastic Compliance Matrix: (Units=1/GPa)
#
#
# Indices 1 2 3 4 5 6 
#
# 1 0.010136 -0.001515 -0.005887 0.000000 -0.001274 0.000000
# 2 -0.001515 0.021971 -0.001622 0.000000 0.000291 0.000000
# 3 -0.005887 -0.001622 0.010931 0.000000 0.000532 0.000000
# 4 0.000000 0.000000 0.000000 0.054066 0.000000 0.009971
# 5 -0.001274 0.000291 0.000532 0.000000 0.031185 0.000000
# 6 0.000000 0.000000 0.000000 0.009971 0.000000 0.032448
#
#
# Mechanical properties :
#
#
# Convention : Reuss Voigt Hill
#
# Bulk Modulus (GPa) = 40.01536 62.94145 51.47841
# Shear Modulus (GPa) = 26.72155 31.62754 29.17454
#
# Velocity S-wave (km/s) = 3.72593 4.05356 3.89319
# Velocity P-wave (km/s) = 6.26890 7.38974 6.85227
#
# Compressibility (1/GPa) = 0.02499040
#
# Stress axis : x y z
#
# Youngs Moduli (GPa) = 98.65569 45.51518 91.47958
#
# Poissons Ratio (x) = 0.06896 0.53850
# Poissons Ratio (y) = 0.14948 0.14841
# Poissons Ratio (z) = 0.58074 0.07384
#
# Static dielectric constant tensor:
#      x y z
#    x 3.662520 0.000000 -0.005730 
#    y 0.000000 3.240690 0.000000 
#    z -0.005730 0.000000 3.676550 
# 
# 
# High freq. dielectric constant tensor:
#      x y z
#    x 1.759920 0.000000 -0.007500 
#    y 0.000000 1.740940 0.000000 
#    z -0.007500 0.000000 1.747620 
# 
# From -- ./inp_files/72095.got.cif
#   From: 2010.06.25/outbox.cif.g09.slc.cpg/sg11_37_cif.got.tgz:72095.got - 2010.06.27 23:14:04.
