data_PCOD8069936
_publ_section_title
;
Structure prediction by ZEFSAII (Michael W. Deem and Ramdas Pophale) SiO2 
 PCOD8069936
Probable space group: P 21/M
;
_chemical_formula_sum "Si O2"
_cell_formula_units_Z 28
_cell_length_a 16.019707
_cell_length_b 9.099524
_cell_length_c 15.914216
_cell_angle_alpha 90.000000
_cell_angle_beta 129.785160
_cell_angle_gamma 90.000000
_cell_volume 1782.681287
_symmetry_space_group_name_H-M "P 21/M"
_symmetry_group_IT_number 11
_symmetry_cell_setting 'monoclinic'
loop_
_space_group_symop_operation_xyz
x,y,z
-x,1/2+y,-z
-x,-y,-z
x,1/2-y,z
loop_
_atom_site_type_symbol
_atom_site_label
_atom_site_fract_x
_atom_site_fract_y
_atom_site_fract_z
Si Si1 0.875030 0.582520 0.846493
Si Si2 0.607390 0.420080 0.098060
Si Si3 0.514386 0.082591 0.209687
Si Si4 0.289088 0.076762 0.975624
Si Si5 0.654064 0.581048 0.626125
Si Si6 0.118945 0.579707 0.979241
Si Si7 0.481128 0.422259 0.618520
O O1 0.869209 0.750000 0.876943
O O2 0.783095 0.554188 0.716856
O O3 0.991349 0.553301 0.878672
O O4 0.853139 0.473395 0.909214
O O5 0.603717 0.250000 0.068961
O O6 0.609571 0.435135 0.200853
O O7 0.500000 0.500000 0.000000
O O8 0.706702 0.500367 0.114148
O O9 0.506727 0.250000 0.235523
O O10 0.396846 0.034409 0.097726
O O11 0.549277 0.983215 0.310012
O O12 0.278777 0.250000 0.956351
O O13 0.183509 0.015883 0.953708
O O14 0.623194 0.750000 0.622351
O O15 0.594620 0.488274 0.659869
O O16 0.614947 0.533017 0.508147
O O17 0.151568 0.750000 0.992073
O O18 0.495474 0.250000 0.635388
#
# Coordination Sequence:
#
# PCOD8069936 Si02
#       7
#     4   4   4   4   4   4   4
#     4   9  18  32  46  60  85 118 146 176 215 256
#     4   9  17  29  44  63  87 115 145 175 211 255
#     4   9  18  30  43  61  88 118 141 167 210 257
#     4  10  19  30  44  63  89 119 145 173 213 257
#     4   9  18  32  45  59  85 117 145 175 213 253
#     4  10  19  29  44  66  87 111 146 181 213 253
#     4  10  19  28  43  66  86 110 146 180 209 247
#
# _framework density 15.706677000000001
#
# number of rings (size 3 to 8) (size 9 to 14) (size 15 to 20)
#    0.000    2.571    0.000    3.429    0.000    8.571 
#    0.000    0.000    0.000    0.000    0.000    1.000 
#    0.000    0.000    0.000    0.000    0.000    0.000 
#
# Total GULP energy -347128.803702 kJ/mol
# GULP energy per Si atom -12397.457275 kJ/mol
# Density = 1.567093 g / cm^3
# Si number density = 15.706677 Si / 1000 Ang^3
#
#
#
# Elastic Constant Matrix: (Units=GPa)
#
#
# Indices 1 2 3 4 5 6 
#
# 1 105.0931 51.4325 47.4436 0.0000 -9.8501 0.0000
# 2 51.4325 86.8686 39.1406 0.0000 -10.2043 0.0000
# 3 47.4436 39.1406 77.1205 0.0000 -1.9817 0.0000
# 4 0.0000 0.0000 0.0000 22.9097 0.0000 -5.8466
# 5 -9.8501 -10.2043 -1.9817 0.0000 24.2871 0.0000
# 6 0.0000 0.0000 0.0000 -5.8466 0.0000 30.2196
#
#
#
# Elastic Compliance Matrix: (Units=1/GPa)
#
#
# Indices 1 2 3 4 5 6 
#
# 1 0.015697 -0.005951 -0.006551 0.000000 0.003332 0.000000
# 2 -0.005951 0.018001 -0.005354 0.000000 0.004713 0.000000
# 3 -0.006551 -0.005354 0.019629 0.000000 -0.003305 0.000000
# 4 0.000000 0.000000 0.000000 0.045917 0.000000 0.008884
# 5 0.003332 0.004713 -0.003305 0.000000 0.044236 0.000000
# 6 0.000000 0.000000 0.000000 0.008884 0.000000 0.034810
#
#
# Mechanical properties :
#
#
# Convention : Reuss Voigt Hill
#
# Bulk Modulus (GPa) = 56.76715 60.56842 58.66779
# Shear Modulus (GPa) = 22.74035 24.22098 23.48067
#
# Velocity S-wave (km/s) = 3.80914 3.93119 3.87065
# Velocity P-wave (km/s) = 7.45430 7.69751 7.57688
#
# Compressibility (1/GPa) = 0.01761582
#
# Stress axis : x y z
#
# Youngs Moduli (GPa) = 63.70469 55.55255 50.94468
#
# Poissons Ratio (x) = 0.33059 0.33374
# Poissons Ratio (y) = 0.37910 0.27275
# Poissons Ratio (z) = 0.41733 0.29742
#
# Static dielectric constant tensor:
#      x y z
#    x 2.962790 0.000000 -0.086260 
#    y 0.000000 3.165380 0.000000 
#    z -0.086260 0.000000 2.888040 
# 
# 
# High freq. dielectric constant tensor:
#      x y z
#    x 1.593210 0.000000 -0.011520 
#    y 0.000000 1.618150 0.000000 
#    z -0.011520 0.000000 1.573260 
# 
# From -- ./inp_files/51096.got.cif
#   From: 2010.06.25/outbox.cif.g09.slc.cpg/sg11_26_cif.got.tgz:51096.got - 2010.06.27 23:14:04.
