data_PCOD8069282
_publ_section_title
;
Structure prediction by ZEFSAII (Michael W. Deem and Ramdas Pophale) SiO2 
 PCOD8069282
Probable space group: P 21/M
;
_chemical_formula_sum "Si O2"
_cell_formula_units_Z 32
_cell_length_a 14.881158
_cell_length_b 9.121562
_cell_length_c 22.961800
_cell_angle_alpha 90.000000
_cell_angle_beta 140.884617
_cell_angle_gamma 90.000000
_cell_volume 1966.352987
_symmetry_space_group_name_H-M "P 21/M"
_symmetry_group_IT_number 11
_symmetry_cell_setting 'monoclinic'
loop_
_space_group_symop_operation_xyz
x,y,z
-x,1/2+y,-z
-x,-y,-z
x,1/2-y,z
loop_
_atom_site_type_symbol
_atom_site_label
_atom_site_fract_x
_atom_site_fract_y
_atom_site_fract_z
Si Si1 0.293616 0.417288 0.213775
Si Si2 0.288239 0.080720 0.076041
Si Si3 0.532382 0.079646 0.925623
Si Si4 0.465106 0.578726 0.394474
Si Si5 0.985073 0.919788 0.746470
Si Si6 0.699177 0.417389 0.125505
Si Si7 0.291131 0.921393 0.421718
Si Si8 0.012846 0.921375 0.893325
O O1 0.319643 0.250000 0.246907
O O2 0.325138 0.439325 0.162038
O O3 0.401137 0.521781 0.302050
O O4 0.131190 0.461146 0.145318
O O5 0.280652 0.250000 0.054266
O O6 0.415625 0.003720 0.105416
O O7 0.136789 0.009327 0.986956
O O8 0.520040 0.250000 0.904891
O O9 0.377106 0.021220 0.866073
O O10 0.645925 0.047110 0.033597
O O11 0.496095 0.750000 0.405350
O O12 0.613838 0.497605 0.481068
O O13 0.353808 0.541791 0.389692
O O14 0.939678 0.750000 0.722262
O O15 0.132768 0.946577 0.787035
O O16 0.999213 0.973538 0.819929
O O17 0.867387 0.014638 0.654060
O O18 0.661624 0.250000 0.122138
O O19 0.287478 0.750000 0.432754
O O20 0.051363 0.750000 0.915689
#
# Coordination Sequence:
#
# PCOD8069282 Si02
#       8
#     4   4   4   4   4   4   4   4
#     4  10  21  35  50  69  98 135 171 208 247 284
#     4  11  22  33  48  71  99 134 172 208 245 288
#     4  10  19  33  50  70  95 129 166 205 250 291
#     4  10  20  33  50  72  96 129 168 206 247 290
#     4  10  18  31  51  73 100 133 164 199 246 295
#     4   9  18  32  49  71  97 127 162 203 250 293
#     4  10  20  32  49  73 100 128 162 204 249 295
#     4  10  19  33  49  68  99 136 171 205 240 284
#
# _framework density 16.273782000000001
#
# number of rings (size 3 to 8) (size 9 to 14) (size 15 to 20)
#    0.000    2.000    2.500    1.875    0.000    4.000 
#    0.000    0.000    0.000    0.000    0.000    0.875 
#    0.000    0.000    0.000    0.000    0.000    0.000 
#
# Total GULP energy -396953.105520 kJ/mol
# GULP energy per Si atom -12404.784548 kJ/mol
# Density = 1.623674 g / cm^3
# Si number density = 16.273782 Si / 1000 Ang^3
#
#
#
# Elastic Constant Matrix: (Units=GPa)
#
#
# Indices 1 2 3 4 5 6 
#
# 1 86.0620 47.2233 40.0257 0.0000 4.1000 0.0000
# 2 47.2233 92.6267 56.6276 0.0000 4.2963 0.0000
# 3 40.0257 56.6276 87.5180 0.0000 9.5476 0.0000
# 4 0.0000 0.0000 0.0000 31.5839 0.0000 3.6505
# 5 4.1000 4.2963 9.5476 0.0000 19.7132 0.0000
# 6 0.0000 0.0000 0.0000 3.6505 0.0000 27.0493
#
#
#
# Elastic Compliance Matrix: (Units=1/GPa)
#
#
# Indices 1 2 3 4 5 6 
#
# 1 0.016772 -0.006402 -0.003484 0.000000 -0.000406 0.000000
# 2 -0.006402 0.020366 -0.010464 0.000000 0.001961 0.000000
# 3 -0.003484 -0.010464 0.020548 0.000000 -0.006947 0.000000
# 4 0.000000 0.000000 0.000000 0.032163 0.000000 -0.004341
# 5 -0.000406 0.001961 -0.006947 0.000000 0.053749 0.000000
# 6 0.000000 0.000000 0.000000 -0.004341 0.000000 0.037555
#
#
# Mechanical properties :
#
#
# Convention : Reuss Voigt Hill
#
# Bulk Modulus (GPa) = 58.86969 61.55111 60.21040
# Shear Modulus (GPa) = 21.97662 23.82464 22.90063
#
# Velocity S-wave (km/s) = 3.67881 3.83036 3.75535
# Velocity P-wave (km/s) = 7.36871 7.58067 7.47544
#
# Compressibility (1/GPa) = 0.01698667
#
# Stress axis : x y z
#
# Youngs Moduli (GPa) = 59.62295 49.10166 48.66722
#
# Poissons Ratio (x) = 0.31435 0.16955
# Poissons Ratio (y) = 0.38171 0.50923
# Poissons Ratio (z) = 0.20772 0.51378
#
# Static dielectric constant tensor:
#      x y z
#    x 2.973620 0.000000 0.076370 
#    y 0.000000 3.118430 0.000000 
#    z 0.076370 0.000000 2.898410 
# 
# 
# High freq. dielectric constant tensor:
#      x y z
#    x 1.611360 0.000000 0.011040 
#    y 0.000000 1.635800 0.000000 
#    z 0.011040 0.000000 1.607900 
# 
# From -- ./inp_files/51364.got.cif
#   From: 2010.06.25/outbox.cif.g09.slc.cpg/sg11_26_cif.got.tgz:51364.got - 2010.06.27 23:14:04.
