data_PCOD8069743
_publ_section_title
;
Structure prediction by ZEFSAII (Michael W. Deem and Ramdas Pophale) SiO2 
 PCOD8069743
Probable space group: P 21/M
;
_chemical_formula_sum "Si O2"
_cell_formula_units_Z 32
_cell_length_a 17.438329
_cell_length_b 9.163669
_cell_length_c 23.324733
_cell_angle_alpha 90.000000
_cell_angle_beta 148.654176
_cell_angle_gamma 90.000000
_cell_volume 1938.934911
_symmetry_space_group_name_H-M "P 21/M"
_symmetry_group_IT_number 11
_symmetry_cell_setting 'monoclinic'
loop_
_space_group_symop_operation_xyz
x,y,z
-x,1/2+y,-z
-x,-y,-z
x,1/2-y,z
loop_
_atom_site_type_symbol
_atom_site_label
_atom_site_fract_x
_atom_site_fract_y
_atom_site_fract_z
Si Si1 0.119053 0.922110 0.807502
Si Si2 0.614045 0.081120 0.612895
Si Si3 0.388180 0.084450 0.559271
Si Si4 0.166531 0.419428 0.313898
Si Si5 0.665366 0.416976 0.244824
Si Si6 0.959511 0.421434 0.367932
Si Si7 0.450351 0.922992 0.026224
Si Si8 0.258837 0.918157 0.578985
O O1 0.106602 0.750000 0.794131
O O2 0.083274 0.985811 0.721733
O O3 0.998289 0.976133 0.776754
O O4 0.281510 0.968885 0.931257
O O5 0.619131 0.250000 0.598868
O O6 0.553871 0.062309 0.639531
O O7 0.500000 0.000000 0.500000
O O8 0.774264 0.009196 0.703729
O O9 0.367006 0.250000 0.567145
O O10 0.266682 0.049446 0.433415
O O11 0.367175 0.977984 0.599195
O O12 0.169737 0.250000 0.299259
O O13 0.630609 0.250000 0.204835
O O14 0.827861 0.459857 0.327075
O O15 0.545541 0.522828 0.140366
O O16 0.656688 0.439370 0.307211
O O17 0.991603 0.250000 0.386094
O O18 0.105091 0.498369 0.483594
O O19 0.466944 0.750000 0.029249
O O20 0.500000 0.000000 0.000000
O O21 0.225136 0.750000 0.545204
#
# Coordination Sequence:
#
# PCOD8069743 Si02
#       8
#     4   4   4   4   4   4   4   4
#     4   9  17  31  51  72  96 130 162 195 244 293
#     4   9  17  28  43  66  95 127 159 192 233 285
#     4   9  17  30  47  66  95 135 163 184 236 300
#     4   9  16  29  47  68  95 127 159 192 237 290
#     4  10  22  38  51  68  98 133 167 209 251 285
#     4  10  18  34  53  66  96 136 164 197 246 297
#     4  11  21  35  55  75  96 127 168 208 247 292
#     4  11  22  32  47  74 102 127 166 211 244 283
#
# _framework density 16.503907999999999
#
# number of rings (size 3 to 8) (size 9 to 14) (size 15 to 20)
#    0.000    2.250    2.500    2.250    0.000    4.000 
#    0.000    1.250    0.000    0.000    0.000    0.875 
#    0.000    0.000    0.000    0.000    0.000    0.000 
#
# Total GULP energy -396719.542703 kJ/mol
# GULP energy per Si atom -12397.485709 kJ/mol
# Density = 1.646634 g / cm^3
# Si number density = 16.503908 Si / 1000 Ang^3
#
#
#
# Elastic Constant Matrix: (Units=GPa)
#
#
# Indices 1 2 3 4 5 6 
#
# 1 120.3358 53.6565 50.5851 0.0000 23.5654 0.0000
# 2 53.6565 78.0179 43.7034 0.0000 7.4911 0.0000
# 3 50.5851 43.7034 74.9798 0.0000 8.5642 0.0000
# 4 0.0000 0.0000 0.0000 23.3993 0.0000 1.4477
# 5 23.5654 7.4911 8.5642 0.0000 23.6193 0.0000
# 6 0.0000 0.0000 0.0000 1.4477 0.0000 29.6217
#
#
#
# Elastic Compliance Matrix: (Units=1/GPa)
#
#
# Indices 1 2 3 4 5 6 
#
# 1 0.015924 -0.006766 -0.005456 0.000000 -0.011764 0.000000
# 2 -0.006766 0.022007 -0.008592 0.000000 0.002886 0.000000
# 3 -0.005456 -0.008592 0.022004 0.000000 0.000190 0.000000
# 4 0.000000 0.000000 0.000000 0.042866 0.000000 -0.002095
# 5 -0.011764 0.002886 0.000190 0.000000 0.053091 0.000000
# 6 0.000000 0.000000 0.000000 -0.002095 0.000000 0.033861
#
#
# Mechanical properties :
#
#
# Convention : Reuss Voigt Hill
#
# Bulk Modulus (GPa) = 54.62363 63.24707 58.93535
# Shear Modulus (GPa) = 21.05410 23.68727 22.37068
#
# Velocity S-wave (km/s) = 3.57557 3.79258 3.68568
# Velocity P-wave (km/s) = 7.08629 7.58841 7.34164
#
# Compressibility (1/GPa) = 0.01830710
#
# Stress axis : x y z
#
# Youngs Moduli (GPa) = 62.79781 45.44061 45.44613
#
# Poissons Ratio (x) = 0.30745 0.24795
# Poissons Ratio (y) = 0.42489 0.39048
# Poissons Ratio (z) = 0.34262 0.39043
#
# Static dielectric constant tensor:
#      x y z
#    x 3.604660 0.000000 0.338890 
#    y 0.000000 3.125500 0.000000 
#    z 0.338890 0.000000 2.969360 
# 
# 
# High freq. dielectric constant tensor:
#      x y z
#    x 1.641560 0.000000 0.018220 
#    y 0.000000 1.631710 0.000000 
#    z 0.018220 0.000000 1.599160 
# 
# From -- ./inp_files/43766.got.cif
#   From: 2010.06.25/outbox.cif.g09.slc.cpg/sg11_22_cif.got.tgz:43766.got - 2010.06.27 23:14:04.
