data_PCOD8069023
_publ_section_title
;
Structure prediction by ZEFSAII (Michael W. Deem and Ramdas Pophale) SiO2 
 PCOD8069023
Probable space group: P 21/M
;
_chemical_formula_sum "Si O2"
_cell_formula_units_Z 28
_cell_length_a 10.234483
_cell_length_b 9.037473
_cell_length_c 32.479649
_cell_angle_alpha 90.000000
_cell_angle_beta 147.128675
_cell_angle_gamma 90.000000
_cell_volume 1630.524849
_symmetry_space_group_name_H-M "P 21/M"
_symmetry_group_IT_number 11
_symmetry_cell_setting 'monoclinic'
loop_
_space_group_symop_operation_xyz
x,y,z
-x,1/2+y,-z
-x,-y,-z
x,1/2-y,z
loop_
_atom_site_type_symbol
_atom_site_label
_atom_site_fract_x
_atom_site_fract_y
_atom_site_fract_z
Si Si1 0.008436 0.423200 0.045803
Si Si2 0.784292 0.080696 0.659307
Si Si3 0.394209 0.925262 0.512174
Si Si4 0.521233 0.425965 0.961685
Si Si5 0.926386 0.914420 0.348859
Si Si6 0.792265 0.426054 0.189416
Si Si7 0.469529 0.577886 0.796547
O O1 0.012714 0.250000 0.038036
O O2 0.252734 0.471980 0.134148
O O3 0.000000 0.500000 0.000000
O O4 0.782868 0.470048 0.013579
O O5 0.749563 0.250000 0.664538
O O6 0.919058 0.071221 0.651640
O O7 0.522068 0.001542 0.585455
O O8 0.938447 0.989817 0.733628
O O9 0.448040 0.750000 0.525754
O O10 0.104211 0.955525 0.434185
O O11 0.500000 0.000000 0.500000
O O12 0.487066 0.250000 0.955297
O O13 0.315626 0.496044 0.879066
O O14 0.500000 0.500000 0.000000
O O15 0.828453 0.750000 0.328689
O O16 0.687350 0.013296 0.282653
O O17 0.801398 0.250000 0.185692
O O18 0.628610 0.474124 0.184952
O O19 0.438383 0.750000 0.784215
#
# Coordination Sequence:
#
# PCOD8069023 Si02
#       7
#     4   4   4   4   4   4   4
#     4  10  20  34  52  74  97 126 163 206 248 294
#     4   9  16  25  38  58  85 118 157 195 235 284
#     4   9  15  23  34  52  81 118 157 192 233 283
#     4  11  23  37  53  72  99 131 165 206 252 297
#     4   8  15  24  35  55  85 119 153 190 233 280
#     4  10  18  30  48  68  93 123 159 200 244 293
#     4   9  17  28  44  67  92 119 156 197 239 287
#
# _framework density 17.172384000000001
#
# number of rings (size 3 to 8) (size 9 to 14) (size 15 to 20)
#    0.000    2.571    1.429    2.571    0.000    5.714 
#    0.000    0.000    0.000    0.000    0.000    0.000 
#    0.000    1.143    0.000    3.429    0.000    6.286 
#
# Total GULP energy -347015.099084 kJ/mol
# GULP energy per Si atom -12393.396396 kJ/mol
# Density = 1.713330 g / cm^3
# Si number density = 17.172384 Si / 1000 Ang^3
#
#
#
# Elastic Constant Matrix: (Units=GPa)
#
#
# Indices 1 2 3 4 5 6 
#
# 1 50.9264 32.9994 48.6826 0.0000 2.2773 0.0000
# 2 32.9994 81.2380 66.0567 0.0000 0.9964 0.0000
# 3 48.6826 66.0567 180.3319 0.0000 13.0518 0.0000
# 4 0.0000 0.0000 0.0000 39.2951 0.0000 0.5309
# 5 2.2773 0.9964 13.0518 0.0000 12.3415 0.0000
# 6 0.0000 0.0000 0.0000 0.5309 0.0000 13.7183
#
#
#
# Elastic Compliance Matrix: (Units=1/GPa)
#
#
# Indices 1 2 3 4 5 6 
#
# 1 0.029633 -0.007837 -0.005175 0.000000 0.000638 0.000000
# 2 -0.007837 0.019999 -0.005629 0.000000 0.005784 0.000000
# 3 -0.005175 -0.005629 0.009640 0.000000 -0.008786 0.000000
# 4 0.000000 0.000000 0.000000 0.025462 0.000000 -0.000985
# 5 0.000638 0.005784 -0.008786 0.000000 0.089734 0.000000
# 6 0.000000 0.000000 0.000000 -0.000985 0.000000 0.072934
#
#
# Mechanical properties :
#
#
# Convention : Reuss Voigt Hill
#
# Bulk Modulus (GPa) = 45.47430 67.55263 56.51347
# Shear Modulus (GPa) = 17.12254 24.05481 20.58868
#
# Velocity S-wave (km/s) = 3.16111 3.74677 3.46633
# Velocity P-wave (km/s) = 6.31364 7.62503 7.00011
#
# Compressibility (1/GPa) = 0.02199044
#
# Stress axis : x y z
#
# Youngs Moduli (GPa) = 33.74618 50.00320 103.73304
#
# Poissons Ratio (x) = 0.39186 0.53684
# Poissons Ratio (y) = 0.26446 0.58388
# Poissons Ratio (z) = 0.17464 0.28145
#
# Static dielectric constant tensor:
#      x y z
#    x 2.632730 0.000000 0.199670 
#    y 0.000000 3.298190 0.000000 
#    z 0.199670 0.000000 4.039160 
# 
# 
# High freq. dielectric constant tensor:
#      x y z
#    x 1.583490 0.000000 0.019200 
#    y 0.000000 1.673710 0.000000 
#    z 0.019200 0.000000 1.688450 
# 
# From -- ./inp_files/70893.got.cif
#   From: 2010.06.25/outbox.cif.g09.slc.cpg/sg11_36_cif.got.tgz:70893.got - 2010.06.27 23:14:04.
