data_PCOD8069234
_publ_section_title
;
Structure prediction by ZEFSAII (Michael W. Deem and Ramdas Pophale) SiO2 
 PCOD8069234
Probable space group: P 21/M
;
_chemical_formula_sum "Si O2"
_cell_formula_units_Z 32
_cell_length_a 21.944068
_cell_length_b 8.501565
_cell_length_c 16.196542
_cell_angle_alpha 90.000000
_cell_angle_beta 140.836261
_cell_angle_gamma 90.000000
_cell_volume 1908.263369
_symmetry_space_group_name_H-M "P 21/M"
_symmetry_group_IT_number 11
_symmetry_cell_setting 'monoclinic'
loop_
_space_group_symop_operation_xyz
x,y,z
-x,1/2+y,-z
-x,-y,-z
x,1/2-y,z
loop_
_atom_site_type_symbol
_atom_site_label
_atom_site_fract_x
_atom_site_fract_y
_atom_site_fract_z
Si Si1 0.198401 0.435318 0.926879
Si Si2 0.074204 0.934262 0.143924
Si Si3 0.346062 0.933934 0.205349
Si Si4 0.465688 0.562656 0.551705
Si Si5 0.075405 0.922344 0.469199
Si Si6 0.002120 0.431595 0.235550
Si Si7 0.139472 0.076481 0.690101
Si Si8 0.725016 0.934581 0.698128
O O1 0.218602 0.250000 0.954532
O O2 0.196903 0.492993 0.829499
O O3 0.095697 0.467693 0.862023
O O4 0.282631 0.533431 0.058212
O O5 0.057298 0.750000 0.137916
O O6 0.059891 0.022369 0.214959
O O7 0.181174 0.966317 0.224781
O O8 0.000000 0.000000 0.000000
O O9 0.346808 0.750000 0.227636
O O10 0.455148 0.995271 0.300615
O O11 0.302227 0.029932 0.235924
O O12 0.500000 0.500000 0.500000
O O13 0.461984 0.750000 0.551080
O O14 0.359119 0.490923 0.453647
O O15 0.106729 0.750000 0.470961
O O16 0.971873 0.915167 0.402609
O O17 0.072550 0.037471 0.387548
O O18 0.152487 0.976601 0.619924
O O19 0.973077 0.250000 0.202672
O O20 0.178662 0.250000 0.711709
O O21 0.744298 0.750000 0.707651
#
# Coordination Sequence:
#
# PCOD8069234 Si02
#       8
#     4   4   4   4   4   4   4   4
#     4  10  19  31  45  65  93 124 155 189 229 273
#     4  12  24  38  51  67  91 121 157 194 231 269
#     4  11  20  31  47  69  94 122 153 187 229 275
#     4  10  18  31  49  69  90 116 149 187 229 272
#     4   9  16  27  43  62  85 115 150 187 225 266
#     4  11  21  33  47  65  89 121 158 193 229 269
#     4   8  15  26  41  61  86 116 149 184 224 269
#     4  11  21  35  51  68  90 119 154 192 231 271
#
# _framework density 16.769175000000001
#
# number of rings (size 3 to 8) (size 9 to 14) (size 15 to 20)
#    0.000    1.750    0.000    9.375    0.000    3.500 
#    0.000    0.000    0.000    0.000    0.000    0.000 
#    0.000    1.000    0.000    3.750    0.000    6.000 
#
# Total GULP energy -396714.665955 kJ/mol
# GULP energy per Si atom -12397.333311 kJ/mol
# Density = 1.673101 g / cm^3
# Si number density = 16.769175 Si / 1000 Ang^3
#
#
#
# Elastic Constant Matrix: (Units=GPa)
#
#
# Indices 1 2 3 4 5 6 
#
# 1 41.8127 10.1207 38.6633 0.0000 -2.0057 0.0000
# 2 10.1207 87.8030 19.4785 0.0000 -7.7650 0.0000
# 3 38.6633 19.4785 117.9821 0.0000 -5.5707 0.0000
# 4 0.0000 0.0000 0.0000 30.5255 0.0000 -1.5992
# 5 -2.0057 -7.7650 -5.5707 0.0000 23.7751 0.0000
# 6 0.0000 0.0000 0.0000 -1.5992 0.0000 21.5425
#
#
#
# Elastic Compliance Matrix: (Units=1/GPa)
#
#
# Indices 1 2 3 4 5 6 
#
# 1 0.034510 -0.001540 -0.011064 0.000000 -0.000184 0.000000
# 2 -0.001540 0.012176 -0.001339 0.000000 0.003533 0.000000
# 3 -0.011064 -0.001339 0.012395 0.000000 0.001534 0.000000
# 4 0.000000 0.000000 0.000000 0.032887 0.000000 0.002441
# 5 -0.000184 0.003533 0.001534 0.000000 0.043559 0.000000
# 6 0.000000 0.000000 0.000000 0.002441 0.000000 0.046601
#
#
# Mechanical properties :
#
#
# Convention : Reuss Voigt Hill
#
# Bulk Modulus (GPa) = 32.05446 42.68032 37.36739
# Shear Modulus (GPa) = 22.68478 27.12432 24.90455
#
# Velocity S-wave (km/s) = 3.68199 4.02619 3.85793
# Velocity P-wave (km/s) = 6.10186 6.86444 6.49435
#
# Compressibility (1/GPa) = 0.03119691
#
# Stress axis : x y z
#
# Youngs Moduli (GPa) = 28.97670 82.12816 80.67798
#
# Poissons Ratio (x) = 0.12646 0.89260
# Poissons Ratio (y) = 0.04462 0.10801
# Poissons Ratio (z) = 0.32059 0.10996
#
# Static dielectric constant tensor:
#      x y z
#    x 2.869190 0.000000 0.028120 
#    y 0.000000 3.331050 0.000000 
#    z 0.028120 0.000000 3.635350 
# 
# 
# High freq. dielectric constant tensor:
#      x y z
#    x 1.588220 0.000000 -0.011540 
#    y 0.000000 1.666340 0.000000 
#    z -0.011540 0.000000 1.651070 
# 
# From -- ./inp_files/54311.got.cif
#   From: 2010.06.25/outbox.cif.g09.slc.cpg/sg11_28_cif.got.tgz:54311.got - 2010.06.27 23:14:04.
