data_PCOD8069163
_publ_section_title
;
Structure prediction by ZEFSAII (Michael W. Deem and Ramdas Pophale) SiO2 
 PCOD8069163
Probable space group: P 21/M
;
_chemical_formula_sum "Si O2"
_cell_formula_units_Z 32
_cell_length_a 9.594655
_cell_length_b 13.533811
_cell_length_c 14.232184
_cell_angle_alpha 90.000000
_cell_angle_beta 64.272773
_cell_angle_gamma 90.000000
_cell_volume 1664.882361
_symmetry_space_group_name_H-M "P 21/M"
_symmetry_group_IT_number 11
_symmetry_cell_setting 'monoclinic'
loop_
_space_group_symop_operation_xyz
x,y,z
-x,1/2+y,-z
-x,-y,-z
x,1/2-y,z
loop_
_atom_site_type_symbol
_atom_site_label
_atom_site_fract_x
_atom_site_fract_y
_atom_site_fract_z
Si Si1 0.951732 0.865244 0.050362
Si Si2 0.629624 0.867082 0.236462
Si Si3 0.305545 0.940823 0.280857
Si Si4 0.123881 0.929470 0.509347
Si Si5 0.050486 0.864051 0.821964
Si Si6 0.211933 0.018514 0.662607
Si Si7 0.919590 0.363961 0.793773
Si Si8 0.144835 0.357959 0.296806
O O1 0.946520 0.750000 0.030685
O O2 0.780286 0.897350 0.132484
O O3 0.074328 0.890446 0.097218
O O4 0.006055 0.914128 0.936143
O O5 0.600512 0.750000 0.249448
O O6 0.487994 0.923836 0.229851
O O7 0.656714 0.908149 0.335058
O O8 0.228619 0.885736 0.394213
O O9 0.246088 0.890536 0.202107
O O10 0.264679 0.057931 0.295744
O O11 0.018841 0.852341 0.598272
O O12 0.244557 0.983262 0.546438
O O13 0.000000 0.000000 0.500000
O O14 0.101790 0.750000 0.815735
O O15 0.899772 0.876012 0.799222
O O16 0.194924 0.925067 0.738119
O O17 0.046535 0.073188 0.700831
O O18 0.961426 0.250000 0.767292
O O19 0.224138 0.250000 0.285686
#
# Coordination Sequence:
#
# PCOD8069163 Si02
#       8
#     4   4   4   4   4   4   4   4
#     4   8  17  33  54  79 104 134 174 218 264 314
#     4  10  22  36  51  75 111 144 172 212 265 314
#     4  11  20  36  51  78 110 142 174 218 262 309
#     4   9  17  33  54  79 105 127 171 222 255 300
#     4   9  16  32  59  81 103 134 173 223 264 303
#     4  10  18  35  54  79 105 133 174 218 258 313
#     4  10  18  30  51  76 102 134 179 221 256 303
#     4   9  18  33  54  80 105 134 177 222 265 310
#
# _framework density 19.220578
#
# number of rings (size 3 to 8) (size 9 to 14) (size 15 to 20)
#    0.000    2.500    3.750    1.500    0.000    3.500 
#    0.000    1.875    0.000    0.000    0.000    0.875 
#    0.000    0.000    0.000    0.000    0.000    0.000 
#
# Total GULP energy -396534.014164 kJ/mol
# GULP energy per Si atom -12391.687943 kJ/mol
# Density = 1.917683 g / cm^3
# Si number density = 19.220578 Si / 1000 Ang^3
#
#
#
# Elastic Constant Matrix: (Units=GPa)
#
#
# Indices 1 2 3 4 5 6 
#
# 1 116.7357 31.6492 42.3206 0.0000 15.4848 0.0000
# 2 31.6492 79.2090 23.3614 0.0000 9.0104 0.0000
# 3 42.3206 23.3614 92.7724 0.0000 25.3187 0.0000
# 4 0.0000 0.0000 0.0000 12.4837 0.0000 3.5577
# 5 15.4848 9.0104 25.3187 0.0000 21.1258 0.0000
# 6 0.0000 0.0000 0.0000 3.5577 0.0000 28.1825
#
#
#
# Elastic Compliance Matrix: (Units=1/GPa)
#
#
# Indices 1 2 3 4 5 6 
#
# 1 0.011025 -0.003067 -0.003579 0.000000 -0.002483 0.000000
# 2 -0.003067 0.014582 -0.001767 0.000000 -0.001854 0.000000
# 3 -0.003579 -0.001767 0.017736 0.000000 -0.017879 0.000000
# 4 0.000000 0.000000 0.000000 0.083094 0.000000 -0.010490
# 5 -0.002483 -0.001854 -0.017879 0.000000 0.071374 0.000000
# 6 0.000000 0.000000 0.000000 -0.010490 0.000000 0.036807
#
#
# Mechanical properties :
#
#
# Convention : Reuss Voigt Hill
#
# Bulk Modulus (GPa) = 37.71187 53.70883 45.71035
# Shear Modulus (GPa) = 19.20980 25.11747 22.16364
#
# Velocity S-wave (km/s) = 3.16482 3.61889 3.39945
# Velocity P-wave (km/s) = 5.74612 6.74284 6.26434
#
# Compressibility (1/GPa) = 0.02651685
#
# Stress axis : x y z
#
# Youngs Moduli (GPa) = 90.70384 68.57611 56.38165
#
# Poissons Ratio (x) = 0.21033 0.20180
# Poissons Ratio (y) = 0.27819 0.09963
# Poissons Ratio (z) = 0.32465 0.12118
#
# Static dielectric constant tensor:
#      x y z
#    x 3.349250 0.000000 0.355620 
#    y 0.000000 3.701900 0.000000 
#    z 0.355620 0.000000 3.805190 
# 
# 
# High freq. dielectric constant tensor:
#      x y z
#    x 1.722850 0.000000 0.037270 
#    y 0.000000 1.755810 0.000000 
#    z 0.037270 0.000000 1.727550 
# 
# From -- ./inp_files/47604.got.cif
#   From: 2010.06.25/outbox.cif.g09.slc.cpg/sg11_24_cif.got.tgz:47604.got - 2010.06.27 23:14:04.
