data_PCOD8069453
_publ_section_title
;
Structure prediction by ZEFSAII (Michael W. Deem and Ramdas Pophale) SiO2 
 PCOD8069453
Probable space group: P 21/M
;
_chemical_formula_sum "Si O2"
_cell_formula_units_Z 28
_cell_length_a 25.866305
_cell_length_b 11.023287
_cell_length_c 25.912716
_cell_angle_alpha 90.000000
_cell_angle_beta 11.369373
_cell_angle_gamma 90.000000
_cell_volume 1456.526772
_symmetry_space_group_name_H-M "P 21/M"
_symmetry_group_IT_number 11
_symmetry_cell_setting 'monoclinic'
loop_
_space_group_symop_operation_xyz
x,y,z
-x,1/2+y,-z
-x,-y,-z
x,1/2-y,z
loop_
_atom_site_type_symbol
_atom_site_label
_atom_site_fract_x
_atom_site_fract_y
_atom_site_fract_z
Si Si1 0.712788 0.032234 0.719188
Si Si2 0.568470 0.042827 0.516675
Si Si3 0.644442 0.388240 0.673275
Si Si4 0.113587 0.110945 0.031663
Si Si5 0.199282 0.387175 0.790936
Si Si6 0.886102 0.605234 0.851547
Si Si7 0.774496 0.115259 0.770241
O O1 0.684729 0.110210 0.695204
O O2 0.740135 0.119196 0.741843
O O3 0.963381 0.948717 0.468797
O O4 0.462144 0.948865 0.969996
O O5 0.433097 0.120957 0.603809
O O6 0.829656 0.107310 0.282529
O O7 0.666314 0.914920 0.396267
O O8 0.340519 0.028131 0.783104
O O9 0.633231 0.250000 0.666501
O O10 0.879649 0.451788 0.411750
O O11 0.375817 0.450793 0.917657
O O12 0.213652 0.250000 0.932340
O O13 0.084499 0.062401 0.118297
O O14 0.071324 0.250000 0.914264
O O15 0.000000 0.500000 0.000000
O O16 0.887814 0.750000 0.845914
O O17 0.786024 0.250000 0.780118
#
# Coordination Sequence:
#
# PCOD8069453 Si02
#       7
#     4   4   4   4   4   4   4
#     4  10  20  32  52  75 103 140 173 210 270 320
#     4  11  23  37  57  87 115 157 189 231 282 338
#     4  10  18  32  50  77 109 141 174 220 278 331
#     4  11  20  35  56  84 116 149 185 230 285 342
#     4  11  24  41  61  90 125 159 197 238 283 343
#     4   9  19  31  50  78 111 141 175 223 277 334
#     4  10  20  34  49  74 105 136 176 217 255 317
#
# _framework density 19.223814999999998
#
# number of rings (size 3 to 8) (size 9 to 14) (size 15 to 20)
#    0.000    1.714    1.429    3.857    0.000    5.143 
#    0.000    4.286    0.000    0.000    0.000   20.000 
#    0.000    0.000    0.000    0.000    0.000    0.000 
#
# Total GULP energy -346983.746505 kJ/mol
# GULP energy per Si atom -12392.276661 kJ/mol
# Density = 1.918006 g / cm^3
# Si number density = 19.223815 Si / 1000 Ang^3
#
#
#
# Elastic Constant Matrix: (Units=GPa)
#
#
# Indices 1 2 3 4 5 6 
#
# 1 113.2070 9.0484 48.9537 0.0000 6.3946 0.0000
# 2 9.0484 68.9064 31.8107 0.0000 -0.4200 0.0000
# 3 48.9537 31.8107 168.3856 0.0000 5.1598 0.0000
# 4 0.0000 0.0000 0.0000 33.0282 0.0000 2.0602
# 5 6.3946 -0.4200 5.1598 0.0000 45.5184 0.0000
# 6 0.0000 0.0000 0.0000 2.0602 0.0000 19.7327
#
#
#
# Elastic Compliance Matrix: (Units=1/GPa)
#
#
# Indices 1 2 3 4 5 6 
#
# 1 0.010158 0.000008 -0.002921 0.000000 -0.001096 0.000000
# 2 0.000008 0.015910 -0.003023 0.000000 0.000488 0.000000
# 3 -0.002921 -0.003023 0.007373 0.000000 -0.000453 0.000000
# 4 0.000000 0.000000 0.000000 0.030476 0.000000 -0.003182
# 5 -0.001096 0.000488 -0.000453 0.000000 0.022179 0.000000
# 6 0.000000 0.000000 0.000000 -0.003182 0.000000 0.051009
#
#
# Mechanical properties :
#
#
# Convention : Reuss Voigt Hill
#
# Bulk Modulus (GPa) = 46.36365 58.90275 52.63320
# Shear Modulus (GPa) = 32.01717 37.03494 34.52605
#
# Velocity S-wave (km/s) = 4.08548 4.39397 4.24253
# Velocity P-wave (km/s) = 6.81359 7.51330 7.17198
#
# Compressibility (1/GPa) = 0.02156862
#
# Stress axis : x y z
#
# Youngs Moduli (GPa) = 98.44684 62.85396 135.63139
#
# Poissons Ratio (x) = -0.00050 0.39618
# Poissons Ratio (y) = -0.00078 0.41000
# Poissons Ratio (z) = 0.28757 0.19000
#
# Static dielectric constant tensor:
#      x y z
#    x 3.563530 0.000000 0.034570 
#    y 0.000000 3.077360 0.000000 
#    z 0.034570 0.000000 3.873060 
# 
# 
# High freq. dielectric constant tensor:
#      x y z
#    x 1.749970 0.000000 -0.000210 
#    y 0.000000 1.690960 0.000000 
#    z -0.000210 0.000000 1.773090 
# 
# From -- ./inp_files/72382.got.cif
#   From: 2010.06.25/outbox.cif.g09.slc.cpg/sg11_37_cif.got.tgz:72382.got - 2010.06.27 23:14:04.
