data_PCOD8069749
_publ_section_title
;
Structure prediction by ZEFSAII (Michael W. Deem and Ramdas Pophale) SiO2 
 PCOD8069749
Probable space group: P 21/M
;
_chemical_formula_sum "Si O2"
_cell_formula_units_Z 32
_cell_length_a 13.430176
_cell_length_b 13.484256
_cell_length_c 13.911525
_cell_angle_alpha 90.000000
_cell_angle_beta 45.295511
_cell_angle_gamma 90.000000
_cell_volume 1790.592896
_symmetry_space_group_name_H-M "P 21/M"
_symmetry_group_IT_number 11
_symmetry_cell_setting 'monoclinic'
loop_
_space_group_symop_operation_xyz
x,y,z
-x,1/2+y,-z
-x,-y,-z
x,1/2-y,z
loop_
_atom_site_type_symbol
_atom_site_label
_atom_site_fract_x
_atom_site_fract_y
_atom_site_fract_z
Si Si1 0.606654 0.487095 0.130096
Si Si2 0.043296 0.999758 0.743607
Si Si3 0.222646 0.362356 0.505715
Si Si4 0.366407 0.362729 0.211195
Si Si5 0.503169 0.060546 0.400066
Si Si6 0.212724 0.642163 0.745646
Si Si7 0.125890 0.863611 0.011852
Si Si8 0.225391 0.134068 0.103830
O O1 0.490802 0.441694 0.137356
O O2 0.542244 0.507251 0.280166
O O3 0.728038 0.405670 0.049135
O O4 0.665915 0.590688 0.048558
O O5 0.178094 0.939013 0.689096
O O6 0.921438 0.923547 0.798787
O O7 0.095280 0.063350 0.617178
O O8 0.000930 0.075385 0.856237
O O9 0.173961 0.250000 0.558613
O O10 0.255347 0.378564 0.371855
O O11 0.358344 0.383053 0.479899
O O12 0.425504 0.250000 0.174806
O O13 0.287996 0.383834 0.165875
O O14 0.626609 0.140295 0.328864
O O15 0.500000 0.000000 0.500000
O O16 0.183663 0.750000 0.720565
O O17 0.112525 0.625640 0.905969
O O18 0.114839 0.750000 0.052148
O O19 0.201239 0.250000 0.097431
#
# Coordination Sequence:
#
# PCOD8069749 Si02
#       8
#     4   4   4   4   4   4   4   4
#     4   9  18  32  57  78 100 129 168 214 256 304
#     4  11  20  32  50  71 105 138 170 209 251 304
#     4  10  20  34  54  78 102 132 174 218 257 302
#     4   9  18  34  57  79 101 131 170 216 264 306
#     4  10  18  34  54  76 103 129 164 208 258 302
#     4  10  19  32  50  69  97 136 171 202 246 305
#     4   9  18  31  49  74  99 128 169 212 251 294
#     4  10  21  36  52  75 105 138 174 212 257 308
#
# _framework density 17.871175999999998
#
# number of rings (size 3 to 8) (size 9 to 14) (size 15 to 20)
#    0.000    2.250    1.250    2.250    0.000    3.500 
#    0.000    1.250    0.000    0.750    0.000    0.000 
#    0.000    0.000    0.000    0.000    0.000    0.000 
#
# Total GULP energy -396733.284062 kJ/mol
# GULP energy per Si atom -12397.915127 kJ/mol
# Density = 1.783050 g / cm^3
# Si number density = 17.871176 Si / 1000 Ang^3
#
#
#
# Elastic Constant Matrix: (Units=GPa)
#
#
# Indices 1 2 3 4 5 6 
#
# 1 63.5242 41.3130 27.0048 0.0000 6.9761 0.0000
# 2 41.3130 125.2588 54.5553 0.0000 2.7542 0.0000
# 3 27.0048 54.5553 80.2936 0.0000 2.1513 0.0000
# 4 0.0000 0.0000 0.0000 28.0446 0.0000 1.2064
# 5 6.9761 2.7542 2.1513 0.0000 24.8547 0.0000
# 6 0.0000 0.0000 0.0000 1.2064 0.0000 24.8180
#
#
#
# Elastic Compliance Matrix: (Units=1/GPa)
#
#
# Indices 1 2 3 4 5 6 
#
# 1 0.021254 -0.005460 -0.003303 0.000000 -0.005075 0.000000
# 2 -0.005460 0.012750 -0.006846 0.000000 0.000712 0.000000
# 3 -0.003303 -0.006846 0.018214 0.000000 0.000109 0.000000
# 4 0.000000 0.000000 0.000000 0.035732 0.000000 -0.001737
# 5 -0.005075 0.000712 0.000109 0.000000 0.041570 0.000000
# 6 0.000000 0.000000 0.000000 -0.001737 0.000000 0.040378
#
#
# Mechanical properties :
#
#
# Convention : Reuss Voigt Hill
#
# Bulk Modulus (GPa) = 47.61667 57.20251 52.40959
# Shear Modulus (GPa) = 24.02515 25.29037 24.65776
#
# Velocity S-wave (km/s) = 3.67052 3.76593 3.71853
# Velocity P-wave (km/s) = 6.68325 7.14054 6.91568
#
# Compressibility (1/GPa) = 0.02100105
#
# Stress axis : x y z
#
# Youngs Moduli (GPa) = 47.04937 78.42931 54.90431
#
# Poissons Ratio (x) = 0.42824 0.18132
# Poissons Ratio (y) = 0.25690 0.37587
# Poissons Ratio (z) = 0.15538 0.53692
#
# Static dielectric constant tensor:
#      x y z
#    x 3.184770 0.000000 0.022020 
#    y 0.000000 3.312010 0.000000 
#    z 0.022020 0.000000 3.406530 
# 
# 
# High freq. dielectric constant tensor:
#      x y z
#    x 1.684310 0.000000 -0.000720 
#    y 0.000000 1.690600 0.000000 
#    z -0.000720 0.000000 1.690350 
# 
# From -- ./inp_files/43154.got.cif
#   From: 2010.06.25/outbox.cif.g09.slc.cpg/sg11_22_cif.got.tgz:43154.got - 2010.06.27 23:14:04.
