data_PCOD8069492
_publ_section_title
;
Structure prediction by ZEFSAII (Michael W. Deem and Ramdas Pophale) SiO2 
 PCOD8069492
Probable space group: P 21/M
;
_chemical_formula_sum "Si O2"
_cell_formula_units_Z 32
_cell_length_a 16.330842
_cell_length_b 18.047271
_cell_length_c 10.436779
_cell_angle_alpha 90.000000
_cell_angle_beta 144.052223
_cell_angle_gamma 90.000000
_cell_volume 1805.759611
_symmetry_space_group_name_H-M "P 21/M"
_symmetry_group_IT_number 11
_symmetry_cell_setting 'monoclinic'
loop_
_space_group_symop_operation_xyz
x,y,z
-x,1/2+y,-z
-x,-y,-z
x,1/2-y,z
loop_
_atom_site_type_symbol
_atom_site_label
_atom_site_fract_x
_atom_site_fract_y
_atom_site_fract_z
Si Si1 0.393906 0.335975 0.119700
Si Si2 0.473445 0.837259 0.972976
Si Si3 0.194554 0.835925 0.498969
Si Si4 0.401817 0.162437 0.606758
Si Si5 0.133196 0.091707 0.180598
Si Si6 0.885289 0.665440 0.108882
Si Si7 0.177813 0.579133 0.219353
Si Si8 0.461578 0.585238 0.461501
O O1 0.436316 0.250000 0.189531
O O2 0.438436 0.366857 0.037197
O O3 0.226630 0.346764 0.920244
O O4 0.470050 0.382230 0.324839
O O5 0.492429 0.750000 0.005523
O O6 0.310706 0.860052 0.750231
O O7 0.532553 0.871224 0.179539
O O8 0.213799 0.750000 0.490172
O O9 0.222965 0.878350 0.403886
O O10 0.040015 0.852780 0.358844
O O11 0.417251 0.250000 0.617466
O O12 0.238414 0.140956 0.397835
O O13 0.485367 0.127999 0.594984
O O14 0.152137 0.111701 0.055458
O O15 0.172156 0.006731 0.249579
O O16 0.973588 0.107054 0.022619
O O17 0.879273 0.750000 0.049864
O O18 0.293596 0.594108 0.257433
O O19 0.500000 0.500000 0.500000
#
# Coordination Sequence:
#
# PCOD8069492 Si02
#       8
#     4   4   4   4   4   4   4   4
#     4  10  18  32  53  76 103 139 185 226 261 319
#     4   9  19  34  52  76 107 142 179 222 266 314
#     4   9  17  31  51  75 103 137 181 226 265 312
#     4  11  22  37  56  81 115 146 174 221 280 324
#     4  10  19  34  52  78 111 141 175 220 275 326
#     4   9  16  28  51  77  99 134 181 225 266 314
#     4  10  20  33  54  79 107 141 180 225 267 316
#     4  12  21  34  54  83 110 140 182 229 271 320
#
# _framework density 17.721073000000001
#
# number of rings (size 3 to 8) (size 9 to 14) (size 15 to 20)
#    0.000    2.000    3.750    0.750    0.000    1.000 
#    0.000    3.750    0.000    3.000    0.000    7.000 
#    0.000    0.000    0.000    0.000    0.000    0.000 
#
# Total GULP energy -396711.135054 kJ/mol
# GULP energy per Si atom -12397.222970 kJ/mol
# Density = 1.768074 g / cm^3
# Si number density = 17.721073 Si / 1000 Ang^3
#
#
#
# Elastic Constant Matrix: (Units=GPa)
#
#
# Indices 1 2 3 4 5 6 
#
# 1 109.6191 31.5810 83.3026 0.0000 8.1318 0.0000
# 2 31.5810 60.9717 38.1166 0.0000 -3.2946 0.0000
# 3 83.3026 38.1166 152.6582 0.0000 5.5787 0.0000
# 4 0.0000 0.0000 0.0000 13.4868 0.0000 12.1051
# 5 8.1318 -3.2946 5.5787 0.0000 33.3215 0.0000
# 6 0.0000 0.0000 0.0000 12.1051 0.0000 9.1660
#
#
#
# Elastic Compliance Matrix: (Units=1/GPa)
#
#
# Indices 1 2 3 4 5 6 
#
# 1 0.016454 -0.003726 -0.007937 0.000000 -0.003055 0.000000
# 2 -0.003726 0.020532 -0.003221 0.000000 0.003479 0.000000
# 3 -0.007937 -0.003221 0.011698 0.000000 -0.000340 0.000000
# 4 0.000000 0.000000 0.000000 -0.400014 0.000000 0.528281
# 5 -0.003055 0.003479 -0.000340 0.000000 0.031157 0.000000
# 6 0.000000 0.000000 0.000000 0.528281 0.000000 -0.588578
#
#
# Mechanical properties :
#
#
# Convention : Reuss Voigt Hill
#
# Bulk Modulus (GPa) = 52.86005 69.91660 61.38833
# Shear Modulus (GPa) = -5.72948 22.54479 8.40765
#
# Velocity S-wave (km/s) = -1.80005 3.57066 2.18054
# Velocity P-wave (km/s) = 5.05702 7.51925 6.40752
#
# Compressibility (1/GPa) = 0.01891788
#
# Stress axis : x y z
#
# Youngs Moduli (GPa) = 60.77644 48.70383 85.48519
#
# Poissons Ratio (x) = 0.18147 0.67845
# Poissons Ratio (y) = 0.22645 0.27531
# Poissons Ratio (z) = 0.48235 0.15685
#
# Static dielectric constant tensor:
#      x y z
#    x 3.423990 0.000000 0.256780 
#    y 0.000000 3.245060 0.000000 
#    z 0.256780 0.000000 3.629990 
# 
# 
# High freq. dielectric constant tensor:
#      x y z
#    x 1.673390 0.000000 0.026760 
#    y 0.000000 1.676440 0.000000 
#    z 0.026760 0.000000 1.688890 
# 
# From -- ./inp_files/41871.got.cif
#   From: 2010.06.25/outbox.cif.g09.slc.cpg/sg11_21_cif.got.tgz:41871.got - 2010.06.27 23:14:04.
