data_PCOD8069346
_publ_section_title
;
Structure prediction by ZEFSAII (Michael W. Deem and Ramdas Pophale) SiO2 
 PCOD8069346
Probable space group: P 21/M
;
_chemical_formula_sum "Si O2"
_cell_formula_units_Z 32
_cell_length_a 19.725210
_cell_length_b 21.179888
_cell_length_c 10.657584
_cell_angle_alpha 90.000000
_cell_angle_beta 157.730136
_cell_angle_gamma 90.000000
_cell_volume 1687.362084
_symmetry_space_group_name_H-M "P 21/M"
_symmetry_group_IT_number 11
_symmetry_cell_setting 'monoclinic'
loop_
_space_group_symop_operation_xyz
x,y,z
-x,1/2+y,-z
-x,-y,-z
x,1/2-y,z
loop_
_atom_site_type_symbol
_atom_site_label
_atom_site_fract_x
_atom_site_fract_y
_atom_site_fract_z
Si Si1 0.596267 0.137543 0.136129
Si Si2 0.039856 0.362458 0.136124
Si Si3 0.694579 0.558627 0.731050
Si Si4 0.655747 0.319148 0.510444
Si Si5 0.078196 0.939988 0.285705
Si Si6 0.707513 0.939988 0.285708
Si Si7 0.645303 0.680852 0.489551
Si Si8 0.463521 0.058627 0.268938
O O1 0.591789 0.177190 0.256996
O O2 0.799656 0.117666 0.452412
O O3 0.474403 0.074841 0.949530
O O4 0.519045 0.177791 0.889565
O O5 0.152752 0.382333 0.452408
O O6 0.165204 0.322812 0.256992
O O7 0.975118 0.425159 0.949521
O O8 0.870517 0.322209 0.889563
O O9 0.625362 0.624850 0.556018
O O10 0.654104 0.557134 0.808206
O O11 0.600684 0.500000 0.499993
O O12 0.907268 0.551255 0.081639
O O13 0.597282 0.250000 0.461800
O O14 0.569336 0.375150 0.443969
O O15 0.204651 0.000000 0.500001
O O16 0.674383 0.948745 0.081656
O O17 0.635481 0.750000 0.538191
#
# Coordination Sequence:
#
# PCOD8069346 Si02
#       8
#     4   4   4   4   4   4   4   4
#     4   9  19  31  50  83 111 132 165 209 263 317
#     4   9  19  31  50  83 111 132 165 209 263 317
#     4  10  22  38  54  74 102 139 182 221 256 299
#     4  10  19  34  56  79 106 137 169 209 259 314
#     4  10  18  31  52  78 109 140 169 211 261 311
#     4  10  18  31  52  78 109 140 169 211 261 311
#     4  10  19  34  56  79 106 137 169 209 259 314
#     4  10  22  38  54  74 102 139 182 221 256 299
#
# _framework density 18.964511999999999
#
# number of rings (size 3 to 8) (size 9 to 14) (size 15 to 20)
#    0.000    2.250    0.000    3.000    0.000    8.000 
#    0.000    2.500    0.000    0.000    0.000    0.000 
#    0.000    0.000    0.000    0.000    0.000    0.000 
#
# Total GULP energy -396719.418179 kJ/mol
# GULP energy per Si atom -12397.481818 kJ/mol
# Density = 1.892135 g / cm^3
# Si number density = 18.964512 Si / 1000 Ang^3
#
#
#
# Elastic Constant Matrix: (Units=GPa)
#
#
# Indices 1 2 3 4 5 6 
#
# 1 60.5346 34.9857 37.5379 0.0000 -2.1799 0.0000
# 2 34.9857 138.7025 41.2552 0.0000 -0.5852 0.0000
# 3 37.5379 41.2552 115.9299 0.0000 -2.9840 0.0000
# 4 0.0000 0.0000 0.0000 17.1925 0.0000 -0.1407
# 5 -2.1799 -0.5852 -2.9840 0.0000 23.2654 0.0000
# 6 0.0000 0.0000 0.0000 -0.1407 0.0000 15.6817
#
#
#
# Elastic Compliance Matrix: (Units=1/GPa)
#
#
# Indices 1 2 3 4 5 6 
#
# 1 0.022454 -0.003920 -0.005843 0.000000 0.001256 0.000000
# 2 -0.003920 0.008748 -0.001854 0.000000 -0.000385 0.000000
# 3 -0.005843 -0.001854 0.011199 0.000000 0.000842 0.000000
# 4 0.000000 0.000000 0.000000 0.058169 0.000000 0.000522
# 5 0.001256 -0.000385 0.000842 0.000000 0.043198 0.000000
# 6 0.000000 0.000000 0.000000 0.000522 0.000000 0.063773
#
#
# Mechanical properties :
#
#
# Convention : Reuss Voigt Hill
#
# Bulk Modulus (GPa) = 52.17296 60.30272 56.23784
# Shear Modulus (GPa) = 21.08234 24.65380 22.86807
#
# Velocity S-wave (km/s) = 3.33779 3.60946 3.47628
# Velocity P-wave (km/s) = 6.51345 7.01695 6.76988
#
# Compressibility (1/GPa) = 0.01916702
#
# Stress axis : x y z
#
# Youngs Moduli (GPa) = 44.53587 114.30840 89.29199
#
# Poissons Ratio (x) = 0.44814 0.52174
# Poissons Ratio (y) = 0.17460 0.16552
# Poissons Ratio (z) = 0.26023 0.21189
#
# Static dielectric constant tensor:
#      x y z
#    x 3.057900 0.000000 -0.067490 
#    y 0.000000 3.470230 0.000000 
#    z -0.067490 0.000000 3.782180 
# 
# 
# High freq. dielectric constant tensor:
#      x y z
#    x 1.694870 0.000000 -0.005530 
#    y 0.000000 1.740110 0.000000 
#    z -0.005530 0.000000 1.754200 
# 
# From -- ./inp_files/43567.got.cif
#   From: 2010.06.25/outbox.cif.g09.slc.cpg/sg11_22_cif.got.tgz:43567.got - 2010.06.27 23:14:04.
