data_PCOD8069554
_publ_section_title
;
Structure prediction by ZEFSAII (Michael W. Deem and Ramdas Pophale) SiO2 
 PCOD8069554
Probable space group: P 21/M
;
_chemical_formula_sum "Si O2"
_cell_formula_units_Z 28
_cell_length_a 15.750048
_cell_length_b 8.980524
_cell_length_c 18.986544
_cell_angle_alpha 90.000000
_cell_angle_beta 32.868061
_cell_angle_gamma 90.000000
_cell_volume 1457.452349
_symmetry_space_group_name_H-M "P 21/M"
_symmetry_group_IT_number 11
_symmetry_cell_setting 'monoclinic'
loop_
_space_group_symop_operation_xyz
x,y,z
-x,1/2+y,-z
-x,-y,-z
x,1/2-y,z
loop_
_atom_site_type_symbol
_atom_site_label
_atom_site_fract_x
_atom_site_fract_y
_atom_site_fract_z
Si Si1 0.675383 0.414391 0.949131
Si Si2 0.157806 0.574834 0.416626
Si Si3 0.531396 0.425889 0.403086
Si Si4 0.328822 0.079982 0.903554
Si Si5 0.363031 0.918304 0.397838
Si Si6 0.315001 0.086251 0.188458
Si Si7 0.834125 0.424955 0.105665
O O1 0.749764 0.250000 0.910936
O O2 0.761388 0.496902 0.824101
O O3 0.690618 0.521508 0.004615
O O4 0.497673 0.390732 0.050007
O O5 0.148779 0.750000 0.410856
O O6 0.202293 0.539715 0.467859
O O7 0.294134 0.507112 0.273876
O O8 0.000000 0.500000 0.500000
O O9 0.500000 0.500000 0.500000
O O10 0.519022 0.250000 0.420139
O O11 0.398047 0.475919 0.439957
O O12 0.703600 0.474351 0.254752
O O13 0.269119 0.250000 0.941421
O O14 0.505483 0.067631 0.753713
O O15 0.220899 0.974129 0.932386
O O16 0.355217 0.750000 0.432673
O O17 0.234052 0.250000 0.250001
O O18 0.856747 0.250000 0.092332
O O19 0.000000 0.500000 0.000000
#
# Coordination Sequence:
#
# PCOD8069554 Si02
#       7
#     4   4   4   4   4   4   4
#     4  10  19  31  51  78 107 137 174 222 268 317
#     4  11  22  37  55  78 109 147 190 235 281 333
#     4  10  21  37  61  89 117 148 189 235 286 344
#     4  10  18  32  55  81 109 143 182 226 276 331
#     4   9  19  35  56  80 109 144 187 232 277 331
#     4  10  20  33  51  75 105 140 177 220 270 320
#     4  10  21  37  57  85 116 149 187 231 284 343
#
# _framework density 19.211606
#
# number of rings (size 3 to 8) (size 9 to 14) (size 15 to 20)
#    0.000    2.000    1.429    2.571    0.000    4.571 
#    0.000    1.429    0.000    5.143    0.000    0.000 
#    0.000    0.000    0.000    0.000    0.000    0.000 
#
# Total GULP energy -347049.437308 kJ/mol
# GULP energy per Si atom -12394.622761 kJ/mol
# Density = 1.916788 g / cm^3
# Si number density = 19.211606 Si / 1000 Ang^3
#
#
#
# Elastic Constant Matrix: (Units=GPa)
#
#
# Indices 1 2 3 4 5 6 
#
# 1 117.2436 56.5972 49.8877 0.0000 12.1837 0.0000
# 2 56.5972 116.5797 42.2656 0.0000 9.6358 0.0000
# 3 49.8877 42.2656 51.1128 0.0000 12.2151 0.0000
# 4 0.0000 0.0000 0.0000 29.2617 0.0000 4.4017
# 5 12.1837 9.6358 12.2151 0.0000 35.7408 0.0000
# 6 0.0000 0.0000 0.0000 4.4017 0.0000 38.3364
#
#
#
# Elastic Compliance Matrix: (Units=1/GPa)
#
#
# Indices 1 2 3 4 5 6 
#
# 1 0.015229 -0.002864 -0.012457 0.000000 -0.000162 0.000000
# 2 -0.002864 0.012790 -0.007830 0.000000 0.000204 0.000000
# 3 -0.012457 -0.007830 0.039941 0.000000 -0.007293 0.000000
# 4 0.000000 0.000000 0.000000 0.034775 0.000000 -0.003993
# 5 -0.000162 0.000204 -0.007293 0.000000 0.030472 0.000000
# 6 0.000000 0.000000 0.000000 -0.003993 0.000000 0.026543
#
#
# Mechanical properties :
#
#
# Convention : Reuss Voigt Hill
#
# Bulk Modulus (GPa) = 46.17213 64.71524 55.44368
# Shear Modulus (GPa) = 23.44432 29.74681 26.59556
#
# Velocity S-wave (km/s) = 3.49710 3.93921 3.72472
# Velocity P-wave (km/s) = 6.35546 7.37892 6.88623
#
# Compressibility (1/GPa) = 0.02165809
#
# Stress axis : x y z
#
# Youngs Moduli (GPa) = 65.66353 78.18682 25.03704
#
# Poissons Ratio (x) = 0.22390 0.31190
# Poissons Ratio (y) = 0.18804 0.19603
# Poissons Ratio (z) = 0.81800 0.61218
#
# Static dielectric constant tensor:
#      x y z
#    x 2.646730 0.000000 0.336880 
#    y 0.000000 3.687600 0.000000 
#    z 0.336880 0.000000 3.293330 
# 
# 
# High freq. dielectric constant tensor:
#      x y z
#    x 1.745540 0.000000 0.014430 
#    y 0.000000 1.765390 0.000000 
#    z 0.014430 0.000000 1.717110 
# 
# From -- ./inp_files/60078.got.cif
#   From: 2010.06.25/outbox.cif.g09.slc.cpg/sg11_31_cif.got.tgz:60078.got - 2010.06.27 23:14:04.
