data_PCOD8069177
_publ_section_title
;
Structure prediction by ZEFSAII (Michael W. Deem and Ramdas Pophale) SiO2 
 PCOD8069177
Probable space group: P 21/M
;
_chemical_formula_sum "Si O2"
_cell_formula_units_Z 32
_cell_length_a 30.509668
_cell_length_b 8.558101
_cell_length_c 21.746476
_cell_angle_alpha 90.000000
_cell_angle_beta 162.346214
_cell_angle_gamma 90.000000
_cell_volume 1721.969432
_symmetry_space_group_name_H-M "P 21/M"
_symmetry_group_IT_number 11
_symmetry_cell_setting 'monoclinic'
loop_
_space_group_symop_operation_xyz
x,y,z
-x,1/2+y,-z
-x,-y,-z
x,1/2-y,z
loop_
_atom_site_type_symbol
_atom_site_label
_atom_site_fract_x
_atom_site_fract_y
_atom_site_fract_z
Si Si1 0.452329 0.434270 0.871766
Si Si2 0.255898 0.933527 0.442562
Si Si3 0.150885 0.067954 0.948468
Si Si4 0.141086 0.435095 0.405256
Si Si5 0.653397 0.066856 0.685832
Si Si6 0.661657 0.066318 0.903039
Si Si7 0.445689 0.933523 0.116240
Si Si8 0.665032 0.931943 0.571663
O O1 0.460405 0.250000 0.886200
O O2 0.289934 0.486382 0.637587
O O3 0.563506 0.497456 0.966516
O O4 0.500000 0.500000 0.000000
O O5 0.276835 0.750000 0.478787
O O6 0.132232 0.995664 0.323732
O O7 0.396597 0.029547 0.648600
O O8 0.230392 0.977196 0.336913
O O9 0.164747 0.250000 0.982408
O O10 0.231238 0.966472 0.107134
O O11 0.219344 0.033532 0.973404
O O12 0.985102 0.014375 0.723919
O O13 0.121550 0.250000 0.377104
O O14 0.637476 0.250000 0.654414
O O15 0.500000 0.000000 0.500000
O O16 0.710072 0.988009 0.699335
O O17 0.696120 0.250000 0.942984
O O18 0.667834 0.008047 0.983465
O O19 0.504029 0.028894 0.664483
O O20 0.431165 0.750000 0.094472
O O21 0.696500 0.750000 0.606840
#
# Coordination Sequence:
#
# PCOD8069177 Si02
#       8
#     4   4   4   4   4   4   4   4
#     4   9  18  33  57  86 112 139 170 214 263 315
#     4  10  18  30  51  78 105 135 175 223 271 315
#     4  12  24  36  53  78 108 141 179 225 275 322
#     4  10  21  39  57  76 107 145 182 215 261 324
#     4  12  23  36  53  76 106 142 183 228 274 319
#     4   9  17  31  52  74 102 140 181 221 263 312
#     4   8  16  31  50  75 107 141 178 214 258 312
#     4  10  19  33  53  76 104 139 180 226 274 318
#
# _framework density 18.583373000000002
#
# number of rings (size 3 to 8) (size 9 to 14) (size 15 to 20)
#    0.000    2.000    1.250    5.625    0.000    4.500 
#    0.000    0.625    0.000    0.750    0.000    0.000 
#    0.000    0.000    0.000    0.000    0.000    0.000 
#
# Total GULP energy -396587.023760 kJ/mol
# GULP energy per Si atom -12393.344493 kJ/mol
# Density = 1.854108 g / cm^3
# Si number density = 18.583373 Si / 1000 Ang^3
#
#
#
# Elastic Constant Matrix: (Units=GPa)
#
#
# Indices 1 2 3 4 5 6 
#
# 1 173.3292 18.2975 48.4649 0.0000 7.3544 0.0000
# 2 18.2975 222.9050 1.3985 0.0000 20.8782 0.0000
# 3 48.4649 1.3985 57.0113 0.0000 8.8212 0.0000
# 4 0.0000 0.0000 0.0000 20.1761 0.0000 0.7380
# 5 7.3544 20.8782 8.8212 0.0000 25.1101 0.0000
# 6 0.0000 0.0000 0.0000 0.7380 0.0000 34.3714
#
#
#
# Elastic Compliance Matrix: (Units=1/GPa)
#
#
# Indices 1 2 3 4 5 6 
#
# 1 0.007652 -0.000644 -0.006583 0.000000 0.000607 0.000000
# 2 -0.000644 0.004935 0.001091 0.000000 -0.004298 0.000000
# 3 -0.006583 0.001091 0.024271 0.000000 -0.007506 0.000000
# 4 0.000000 0.000000 0.000000 0.049603 0.000000 -0.001065
# 5 0.000607 -0.004298 -0.007506 0.000000 0.045857 0.000000
# 6 0.000000 0.000000 0.000000 -0.001065 0.000000 0.029117
#
#
# Mechanical properties :
#
#
# Convention : Reuss Voigt Hill
#
# Bulk Modulus (GPa) = 40.67219 65.50748 53.08984
# Shear Modulus (GPa) = 27.48727 41.60381 34.54554
#
# Velocity S-wave (km/s) = 3.85012 4.73669 4.31623
# Velocity P-wave (km/s) = 6.45743 8.07726 7.31234
#
# Compressibility (1/GPa) = 0.02458683
#
# Stress axis : x y z
#
# Youngs Moduli (GPa) = 130.67904 202.64383 41.20084
#
# Poissons Ratio (x) = 0.13044 0.27124
# Poissons Ratio (y) = 0.08411 -0.04496
# Poissons Ratio (z) = 0.86030 -0.22111
#
# Static dielectric constant tensor:
#      x y z
#    x 4.367650 0.000000 0.107980 
#    y 0.000000 3.352770 0.000000 
#    z 0.107980 0.000000 3.098570 
# 
# 
# High freq. dielectric constant tensor:
#      x y z
#    x 1.745210 0.000000 0.017420 
#    y 0.000000 1.724460 0.000000 
#    z 0.017420 0.000000 1.665820 
# 
# From -- ./inp_files/67278.got.cif
#   From: 2010.06.25/outbox.cif.g09.slc.cpg/sg11_34_cif.got.tgz:67278.got - 2010.06.27 23:14:04.
