data_PCOD8069462
_publ_section_title
;
Structure prediction by ZEFSAII (Michael W. Deem and Ramdas Pophale) SiO2 
 PCOD8069462
Probable space group: P 21/M
;
_chemical_formula_sum "Si O2"
_cell_formula_units_Z 32
_cell_length_a 14.542915
_cell_length_b 14.242239
_cell_length_c 11.383534
_cell_angle_alpha 90.000000
_cell_angle_beta 137.852895
_cell_angle_gamma 90.000000
_cell_volume 1582.169186
_symmetry_space_group_name_H-M "P 21/M"
_symmetry_group_IT_number 11
_symmetry_cell_setting 'monoclinic'
loop_
_space_group_symop_operation_xyz
x,y,z
-x,1/2+y,-z
-x,-y,-z
x,1/2-y,z
loop_
_atom_site_type_symbol
_atom_site_label
_atom_site_fract_x
_atom_site_fract_y
_atom_site_fract_z
Si Si1 0.958344 0.582508 0.043512
Si Si2 0.749135 0.145914 0.670924
Si Si3 0.336491 0.144619 0.278288
Si Si4 0.670383 0.360093 0.342728
Si Si5 0.122669 0.024916 0.775780
Si Si6 0.452867 0.859296 0.326364
Si Si7 0.420563 0.474470 0.137977
Si Si8 0.935981 0.359348 0.438428
O O1 0.932186 0.541118 0.146583
O O2 0.086953 0.652451 0.164544
O O3 0.826631 0.633476 0.865045
O O4 0.000000 0.500000 0.000000
O O5 0.687871 0.250000 0.610897
O O6 0.708633 0.099864 0.508388
O O7 0.673092 0.099271 0.711325
O O8 0.369986 0.250000 0.270239
O O9 0.404984 0.124077 0.469463
O O10 0.402408 0.079810 0.242816
O O11 0.632187 0.250000 0.305798
O O12 0.542245 0.424124 0.179673
O O13 0.797609 0.378808 0.378801
O O14 0.066021 0.107292 0.638102
O O15 0.071485 0.921960 0.686297
O O16 0.287233 0.029923 0.929566
O O17 0.431662 0.750000 0.272236
O O18 0.454400 0.917771 0.206263
O O19 0.954348 0.250000 0.423018
#
# Coordination Sequence:
#
# PCOD8069462 Si02
#       8
#     4   4   4   4   4   4   4   4
#     4  11  22  34  55  86 120 154 189 239 289 346
#     4  10  18  32  51  79 111 148 196 238 277 334
#     4  10  20  33  50  79 116 154 193 236 284 336
#     4  10  20  34  59  86 105 142 195 246 289 331
#     4  10  23  39  60  91 113 150 198 234 295 353
#     4  10  21  35  53  80 120 164 196 225 286 358
#     4  11  21  34  58  84 118 150 187 245 291 345
#     4  10  22  43  65  83 114 152 195 249 292 338
#
# _framework density 20.225397000000001
#
# number of rings (size 3 to 8) (size 9 to 14) (size 15 to 20)
#    0.000    1.750    2.500    2.625    1.750    3.500 
#    0.000    1.250    0.000    4.500    0.000    0.000 
#    0.000    0.000    0.000    0.000    0.000    0.000 
#
# Total GULP energy -396737.867337 kJ/mol
# GULP energy per Si atom -12398.058354 kJ/mol
# Density = 2.017936 g / cm^3
# Si number density = 20.225397 Si / 1000 Ang^3
#
#
#
# Elastic Constant Matrix: (Units=GPa)
#
#
# Indices 1 2 3 4 5 6 
#
# 1 47.5729 26.4515 41.9824 0.0000 14.4218 0.0000
# 2 26.4515 98.4540 42.8070 0.0000 6.9461 0.0000
# 3 41.9824 42.8070 129.7856 0.0000 31.6119 0.0000
# 4 0.0000 0.0000 0.0000 25.7258 0.0000 4.6349
# 5 14.4218 6.9461 31.6119 0.0000 26.6127 0.0000
# 6 0.0000 0.0000 0.0000 4.6349 0.0000 25.4113
#
#
#
# Elastic Compliance Matrix: (Units=1/GPa)
#
#
# Indices 1 2 3 4 5 6 
#
# 1 0.032338 -0.005168 -0.006777 0.000000 -0.008126 0.000000
# 2 -0.005168 0.012774 -0.003393 0.000000 0.003497 0.000000
# 3 -0.006777 -0.003393 0.013939 0.000000 -0.012000 0.000000
# 4 0.000000 0.000000 0.000000 0.040192 0.000000 -0.007331
# 5 -0.008126 0.003497 -0.012000 0.000000 0.055320 0.000000
# 6 0.000000 0.000000 0.000000 -0.007331 0.000000 0.040690
#
#
# Mechanical properties :
#
#
# Convention : Reuss Voigt Hill
#
# Bulk Modulus (GPa) = 35.24318 55.36603 45.30461
# Shear Modulus (GPa) = 21.24152 26.52138 23.88145
#
# Velocity S-wave (km/s) = 3.24426 3.62510 3.43995
# Velocity P-wave (km/s) = 5.61219 6.70491 6.18273
#
# Compressibility (1/GPa) = 0.02837428
#
# Stress axis : x y z
#
# Youngs Moduli (GPa) = 30.92368 78.28235 71.74111
#
# Poissons Ratio (x) = 0.40460 0.48616
# Poissons Ratio (y) = 0.15983 0.24344
# Poissons Ratio (z) = 0.20956 0.26564
#
# Static dielectric constant tensor:
#      x y z
#    x 3.358500 0.000000 0.179350 
#    y 0.000000 3.615950 0.000000 
#    z 0.179350 0.000000 3.637460 
# 
# 
# High freq. dielectric constant tensor:
#      x y z
#    x 1.767870 0.000000 0.019970 
#    y 0.000000 1.790420 0.000000 
#    z 0.019970 0.000000 1.795770 
# 
# From -- ./inp_files/39670.got.cif
#   From: 2010.06.25/outbox.cif.g09.slc.cpg/sg11_20_cif.got.tgz:39670.got - 2010.06.27 23:14:04.
