data_PCOD8069266
_publ_section_title
;
Structure prediction by ZEFSAII (Michael W. Deem and Ramdas Pophale) SiO2 
 PCOD8069266
Probable space group: P 21/M
;
_chemical_formula_sum "Si O2"
_cell_formula_units_Z 28
_cell_length_a 9.894761
_cell_length_b 8.667139
_cell_length_c 30.357327
_cell_angle_alpha 90.000000
_cell_angle_beta 143.764312
_cell_angle_gamma 90.000000
_cell_volume 1538.904159
_symmetry_space_group_name_H-M "P 21/M"
_symmetry_group_IT_number 11
_symmetry_cell_setting 'monoclinic'
loop_
_space_group_symop_operation_xyz
x,y,z
-x,1/2+y,-z
-x,-y,-z
x,1/2-y,z
loop_
_atom_site_type_symbol
_atom_site_label
_atom_site_fract_x
_atom_site_fract_y
_atom_site_fract_z
Si Si1 0.528190 0.566183 0.148468
Si Si2 0.857752 0.933488 0.002999
Si Si3 0.657168 0.069446 0.728243
Si Si4 0.447904 0.933030 0.439185
Si Si5 0.042050 0.932829 0.273917
Si Si6 0.245406 0.070473 0.558372
Si Si7 0.242962 0.068685 0.153206
O O1 0.515837 0.750000 0.144213
O O2 0.418875 0.507295 0.165103
O O3 0.786942 0.502648 0.213354
O O4 0.398579 0.498214 0.071158
O O5 0.856594 0.750000 0.003332
O O6 0.985914 0.998401 0.080024
O O7 0.000000 0.000000 0.000000
O O8 0.684563 0.250000 0.746970
O O9 0.851504 0.014198 0.744813
O O10 0.407670 0.034577 0.642566
O O11 0.675286 0.967035 0.776373
O O12 0.451313 0.750000 0.442364
O O13 0.201082 0.990693 0.356183
O O14 0.640218 0.995353 0.456079
O O15 0.500000 0.000000 0.500000
O O16 0.040495 0.750000 0.273783
O O17 0.213512 0.250000 0.544425
O O18 0.000000 0.000000 0.500000
O O19 0.237071 0.250000 0.142934
#
# Coordination Sequence:
#
# PCOD8069266 Si02
#       7
#     4   4   4   4   4   4   4
#     4  10  18  32  54  78 100 129 166 207 250 297
#     4  10  18  31  50  73 101 133 165 204 248 293
#     4   9  18  36  55  72  97 134 170 206 249 295
#     4   9  18  34  52  74 100 131 166 204 246 294
#     4   8  17  34  55  73  97 131 168 204 247 297
#     4   9  19  34  53  74 101 132 167 206 249 296
#     4  11  21  33  50  76 104 132 166 207 247 294
#
# _framework density 18.194766000000001
#
# number of rings (size 3 to 8) (size 9 to 14) (size 15 to 20)
#    0.000    2.571    0.000    6.429    0.000    2.286 
#    0.000   10.000    0.000    0.000    0.000    0.000 
#    0.000    0.000    0.000    0.000    0.000    0.000 
#
# Total GULP energy -347063.386996 kJ/mol
# GULP energy per Si atom -12395.120964 kJ/mol
# Density = 1.815335 g / cm^3
# Si number density = 18.194766 Si / 1000 Ang^3
#
#
#
# Elastic Constant Matrix: (Units=GPa)
#
#
# Indices 1 2 3 4 5 6 
#
# 1 85.5738 29.8135 80.9966 0.0000 9.6124 0.0000
# 2 29.8135 80.0038 47.7571 0.0000 2.8494 0.0000
# 3 80.9966 47.7571 156.4618 0.0000 16.6585 0.0000
# 4 0.0000 0.0000 0.0000 33.5446 0.0000 -3.1022
# 5 9.6124 2.8494 16.6585 0.0000 34.4445 0.0000
# 6 0.0000 0.0000 0.0000 -3.1022 0.0000 21.8303
#
#
#
# Elastic Compliance Matrix: (Units=1/GPa)
#
#
# Indices 1 2 3 4 5 6 
#
# 1 0.023145 -0.001829 -0.011335 0.000000 -0.000826 0.000000
# 2 -0.001829 0.015465 -0.003892 0.000000 0.001113 0.000000
# 3 -0.011335 -0.003892 0.013786 0.000000 -0.003182 0.000000
# 4 0.000000 0.000000 0.000000 0.030208 0.000000 0.004293
# 5 -0.000826 0.001113 -0.003182 0.000000 0.030710 0.000000
# 6 0.000000 0.000000 0.000000 0.004293 0.000000 0.046418
#
#
# Mechanical properties :
#
#
# Convention : Reuss Voigt Hill
#
# Bulk Modulus (GPa) = 54.69619 71.01930 62.85774
# Shear Modulus (GPa) = 25.00776 28.86204 26.93490
#
# Velocity S-wave (km/s) = 3.71138 3.98714 3.85173
# Velocity P-wave (km/s) = 6.96366 7.76620 7.37585
#
# Compressibility (1/GPa) = 0.01828281
#
# Stress axis : x y z
#
# Youngs Moduli (GPa) = 43.20623 64.66377 72.53671
#
# Poissons Ratio (x) = 0.11827 0.82223
# Poissons Ratio (y) = 0.07903 0.28231
# Poissons Ratio (z) = 0.48976 0.25167
#
# Static dielectric constant tensor:
#      x y z
#    x 3.202570 0.000000 -0.165970 
#    y 0.000000 4.266700 0.000000 
#    z -0.165970 0.000000 4.486610 
# 
# 
# High freq. dielectric constant tensor:
#      x y z
#    x 1.684720 0.000000 0.001200 
#    y 0.000000 1.694640 0.000000 
#    z 0.001200 0.000000 1.722390 
# 
# From -- ./inp_files/49020.got.cif
#   From: 2010.06.25/outbox.cif.g09.slc.cpg/sg11_25_cif.got.tgz:49020.got - 2010.06.27 23:14:04.
