data_PCOD8069188
_publ_section_title
;
Structure prediction by ZEFSAII (Michael W. Deem and Ramdas Pophale) SiO2 
 PCOD8069188
Probable space group: P 21/M
;
_chemical_formula_sum "Si O2"
_cell_formula_units_Z 32
_cell_length_a 12.791809
_cell_length_b 12.394403
_cell_length_c 19.395308
_cell_angle_alpha 90.000000
_cell_angle_beta 150.081675
_cell_angle_gamma 90.000000
_cell_volume 1533.734576
_symmetry_space_group_name_H-M "P 21/M"
_symmetry_group_IT_number 11
_symmetry_cell_setting 'monoclinic'
loop_
_space_group_symop_operation_xyz
x,y,z
-x,1/2+y,-z
-x,-y,-z
x,1/2-y,z
loop_
_atom_site_type_symbol
_atom_site_label
_atom_site_fract_x
_atom_site_fract_y
_atom_site_fract_z
Si Si1 0.391643 0.873102 0.586177
Si Si2 0.840762 0.378228 0.884147
Si Si3 0.941206 0.481222 0.687772
Si Si4 0.691758 0.877293 0.874720
Si Si5 0.218662 0.625424 0.000733
Si Si6 0.765358 0.543812 0.724104
Si Si7 0.312410 0.877697 0.904287
Si Si8 0.691695 0.875120 0.028168
O O1 0.323768 0.750000 0.554823
O O2 0.179525 0.938519 0.448526
O O3 0.497041 0.917685 0.716906
O O4 0.561652 0.883985 0.622097
O O5 0.806467 0.250000 0.854440
O O6 0.755036 0.437486 0.767417
O O7 0.722346 0.420291 0.887873
O O8 0.088425 0.403924 0.037431
O O9 0.764450 0.512284 0.642911
O O10 0.091270 0.578884 0.747706
O O11 0.087806 0.390523 0.807365
O O12 0.671695 0.750000 0.872472
O O13 0.693883 0.931417 0.952771
O O14 0.283548 0.750000 0.038480
O O15 0.325578 0.574853 0.991504
O O16 0.969584 0.616672 0.852126
O O17 0.304164 0.750000 0.900460
O O18 0.505955 0.921852 0.970025
O O19 0.651652 0.750000 0.993559
#
# Coordination Sequence:
#
# PCOD8069188 Si02
#       8
#     4   4   4   4   4   4   4   4
#     4  11  23  37  53  79 113 145 178 217 274 330
#     4  10  18  30  51  81 111 140 180 226 265 312
#     4  11  22  36  54  82 111 143 182 226 268 319
#     4   9  18  33  55  81 108 141 177 220 269 320
#     4   9  17  30  50  79 110 136 173 223 270 316
#     4  11  20  32  52  78 108 148 178 215 265 330
#     4   9  20  36  56  79 106 145 185 225 270 319
#     4  10  19  36  60  83 108 139 183 230 269 311
#
# _framework density 20.864106
#
# number of rings (size 3 to 8) (size 9 to 14) (size 15 to 20)
#    0.000    2.000    2.500    1.875    0.000    1.000 
#    0.000    1.250    0.000    0.000    0.000    6.125 
#    0.000    0.000    0.000    0.000    0.000    0.000 
#
# Total GULP energy -396638.748716 kJ/mol
# GULP energy per Si atom -12394.960897 kJ/mol
# Density = 2.081662 g / cm^3
# Si number density = 20.864106 Si / 1000 Ang^3
#
#
#
# Elastic Constant Matrix: (Units=GPa)
#
#
# Indices 1 2 3 4 5 6 
#
# 1 121.0839 38.1808 32.4284 0.0000 -0.2094 0.0000
# 2 38.1808 36.4732 21.7477 0.0000 -9.9494 0.0000
# 3 32.4284 21.7477 93.0561 0.0000 -17.9784 0.0000
# 4 0.0000 0.0000 0.0000 29.9905 0.0000 -2.9361
# 5 -0.2094 -9.9494 -17.9784 0.0000 22.7218 0.0000
# 6 0.0000 0.0000 0.0000 -2.9361 0.0000 32.1763
#
#
#
# Elastic Compliance Matrix: (Units=1/GPa)
#
#
# Indices 1 2 3 4 5 6 
#
# 1 0.013797 -0.015069 -0.002994 0.000000 -0.008841 0.000000
# 2 -0.015069 0.050158 -0.002661 0.000000 0.019719 0.000000
# 3 -0.002994 -0.002661 0.014379 0.000000 0.010185 0.000000
# 4 0.000000 0.000000 0.000000 0.033644 0.000000 0.003070
# 5 -0.008841 0.019719 0.010185 0.000000 0.060622 0.000000
# 6 0.000000 0.000000 0.000000 0.003070 0.000000 0.031359
#
#
# Mechanical properties :
#
#
# Convention : Reuss Voigt Hill
#
# Bulk Modulus (GPa) = 27.11139 48.36966 37.74053
# Shear Modulus (GPa) = 19.40211 27.52814 23.46513
#
# Velocity S-wave (km/s) = 3.05278 3.63630 3.35724
# Velocity P-wave (km/s) = 5.04464 6.39248 5.75813
#
# Compressibility (1/GPa) = 0.03688486
#
# Stress axis : x y z
#
# Youngs Moduli (GPa) = 72.47907 19.93703 69.54479
#
# Poissons Ratio (x) = 0.30044 0.20824
# Poissons Ratio (y) = 1.09221 0.18507
# Poissons Ratio (z) = 0.21702 0.05306
#
# Static dielectric constant tensor:
#      x y z
#    x 4.268300 0.000000 -0.197230 
#    y 0.000000 4.173250 0.000000 
#    z -0.197230 0.000000 3.375560 
# 
# 
# High freq. dielectric constant tensor:
#      x y z
#    x 1.821340 0.000000 -0.015280 
#    y 0.000000 1.856110 0.000000 
#    z -0.015280 0.000000 1.768280 
# 
# From -- ./inp_files/27811.got.cif
#   From: 2010.06.25/outbox.cif.g09.slc.cpg/sg11_14_cif.got.tgz:27811.got - 2010.06.27 23:14:04.
