data_PCOD8069661
_publ_section_title
;
Structure prediction by ZEFSAII (Michael W. Deem and Ramdas Pophale) SiO2 
 PCOD8069661
Probable space group: P 21/M
;
_chemical_formula_sum "Si O2"
_cell_formula_units_Z 28
_cell_length_a 11.062853
_cell_length_b 14.521950
_cell_length_c 8.860179
_cell_angle_alpha 90.000000
_cell_angle_beta 113.807005
_cell_angle_gamma 90.000000
_cell_volume 1302.306184
_symmetry_space_group_name_H-M "P 21/M"
_symmetry_group_IT_number 11
_symmetry_cell_setting 'monoclinic'
loop_
_space_group_symop_operation_xyz
x,y,z
-x,1/2+y,-z
-x,-y,-z
x,1/2-y,z
loop_
_atom_site_type_symbol
_atom_site_label
_atom_site_fract_x
_atom_site_fract_y
_atom_site_fract_z
Si Si1 0.978951 0.106382 0.015032
Si Si2 0.439176 0.985280 0.132406
Si Si3 0.251462 0.148900 0.048678
Si Si4 0.132620 0.145515 0.663419
Si Si5 0.711453 0.485610 0.379515
Si Si6 0.248037 0.857054 0.889842
Si Si7 0.150600 0.648626 0.357696
O O1 0.890058 0.147270 0.836685
O O2 0.903402 0.129081 0.132427
O O3 0.123865 0.151868 0.093954
O O4 0.000000 0.000000 0.000000
O O5 0.357292 0.073212 0.151058
O O6 0.562029 0.974157 0.309294
O O7 0.500000 0.000000 0.000000
O O8 0.344833 0.895666 0.072118
O O9 0.318300 0.250000 0.086401
O O10 0.203048 0.123026 0.857178
O O11 0.164107 0.250000 0.627807
O O12 0.976330 0.130767 0.599763
O O13 0.189825 0.072646 0.573353
O O14 0.732226 0.414611 0.252191
O O15 0.740850 0.429041 0.547914
O O16 0.279674 0.750000 0.876390
O O17 0.208774 0.750000 0.421450
#
# Coordination Sequence:
#
# PCOD8069661 Si02
#       7
#     4   4   4   4   4   4   4
#     4  11  20  38  63  84 112 147 194 243 285 338
#     4  10  20  34  51  83 118 150 195 233 283 334
#     4  10  18  33  55  81 111 148 193 236 280 339
#     4   9  17  31  53  78 109 147 188 236 282 332
#     4  11  21  37  55  87 120 153 190 232 293 346
#     4  11  21  35  57  87 117 148 194 247 287 331
#     4  10  21  36  56  86 117 151 190 230 291 352
#
# _framework density 21.500321
#
# number of rings (size 3 to 8) (size 9 to 14) (size 15 to 20)
#    0.000    1.714    4.286    3.857    0.000    3.429 
#    0.000    0.714    0.000    1.714    0.000    0.000 
#    0.000    0.000    0.000    0.000    0.000    0.000 
#
# Total GULP energy -347138.817148 kJ/mol
# GULP energy per Si atom -12397.814898 kJ/mol
# Density = 2.145139 g / cm^3
# Si number density = 21.500321 Si / 1000 Ang^3
#
#
#
# Elastic Constant Matrix: (Units=GPa)
#
#
# Indices 1 2 3 4 5 6 
#
# 1 69.4407 10.6040 5.8088 0.0000 3.8075 0.0000
# 2 10.6040 121.5036 -0.0949 0.0000 5.8601 0.0000
# 3 5.8088 -0.0949 19.3791 0.0000 8.0524 0.0000
# 4 0.0000 0.0000 0.0000 25.3903 0.0000 -0.4588
# 5 3.8075 5.8601 8.0524 0.0000 21.0147 0.0000
# 6 0.0000 0.0000 0.0000 -0.4588 0.0000 18.7492
#
#
#
# Elastic Compliance Matrix: (Units=1/GPa)
#
#
# Indices 1 2 3 4 5 6 
#
# 1 0.014987 -0.001275 -0.004184 0.000000 -0.000757 0.000000
# 2 -0.001275 0.008474 0.001558 0.000000 -0.002729 0.000000
# 3 -0.004184 0.001558 0.062715 0.000000 -0.023707 0.000000
# 4 0.000000 0.000000 0.000000 0.039403 0.000000 0.000964
# 5 -0.000757 -0.002729 -0.023707 0.000000 0.057568 0.000000
# 6 0.000000 0.000000 0.000000 0.000964 0.000000 0.053359
#
#
# Mechanical properties :
#
#
# Convention : Reuss Voigt Hill
#
# Bulk Modulus (GPa) = 12.75946 26.99546 19.87746
# Shear Modulus (GPa) = 18.48890 25.96453 22.22672
#
# Velocity S-wave (km/s) = 2.93565 3.47887 3.21874
# Velocity P-wave (km/s) = 4.17590 5.35909 4.80406
#
# Compressibility (1/GPa) = 0.07837321
#
# Stress axis : x y z
#
# Youngs Moduli (GPa) = 66.72477 118.00392 15.94524
#
# Poissons Ratio (x) = 0.15042 0.06672
# Poissons Ratio (y) = 0.08506 -0.02484
# Poissons Ratio (z) = 0.27919 -0.18380
#
# Static dielectric constant tensor:
#      x y z
#    x 4.175390 0.000000 0.306620 
#    y 0.000000 4.064570 0.000000 
#    z 0.306620 0.000000 3.576490 
# 
# 
# High freq. dielectric constant tensor:
#      x y z
#    x 1.833770 0.000000 0.012510 
#    y 0.000000 1.858670 0.000000 
#    z 0.012510 0.000000 1.798740 
# 
# From -- ./inp_files/17803.got.cif
#   From: 2010.06.25/outbox.cif.g09.slc.cpg/sg11_9_cif.got.tgz:17803.got - 2010.06.27 23:14:04.
