data_PCOD8069252
_publ_section_title
;
Structure prediction by ZEFSAII (Michael W. Deem and Ramdas Pophale) SiO2 
 PCOD8069252
Probable space group: P 21/M
;
_chemical_formula_sum "Si O2"
_cell_formula_units_Z 32
_cell_length_a 21.102966
_cell_length_b 9.143265
_cell_length_c 30.115061
_cell_angle_alpha 90.000000
_cell_angle_beta 19.621117
_cell_angle_gamma 90.000000
_cell_volume 1951.226261
_symmetry_space_group_name_H-M "P 21/M"
_symmetry_group_IT_number 11
_symmetry_cell_setting 'monoclinic'
loop_
_space_group_symop_operation_xyz
x,y,z
-x,1/2+y,-z
-x,-y,-z
x,1/2-y,z
loop_
_atom_site_type_symbol
_atom_site_label
_atom_site_fract_x
_atom_site_fract_y
_atom_site_fract_z
Si Si1 0.317555 0.079292 0.528374
Si Si2 0.401761 0.420544 0.605610
Si Si3 0.716038 0.080007 0.702792
Si Si4 0.941230 0.579915 0.381775
Si Si5 0.941031 0.580560 0.221813
Si Si6 0.340103 0.579394 0.078004
Si Si7 0.975264 0.080148 0.448468
Si Si8 0.649107 0.422276 0.032159
O O1 0.355940 0.250000 0.510886
O O2 0.172191 0.015499 0.661211
O O3 0.233963 0.048431 0.535163
O O4 0.518275 0.994176 0.401955
O O5 0.500000 0.500000 0.500000
O O6 0.451969 0.250000 0.572172
O O7 0.175657 0.443740 0.747230
O O8 0.702390 0.250000 0.723648
O O9 0.812577 0.052508 0.591743
O O10 0.833639 0.002446 0.664147
O O11 0.510235 0.009428 0.836079
O O12 0.949539 0.750000 0.389413
O O13 0.134764 0.530129 0.230635
O O14 0.900804 0.483469 0.451531
O O15 0.967192 0.750000 0.215939
O O16 0.152339 0.516907 0.079017
O O17 0.368469 0.750000 0.066374
O O18 0.500000 0.500000 0.000000
O O19 0.359303 0.536736 0.014030
O O20 0.024608 0.250000 0.410899
O O21 0.620294 0.250000 0.059146
#
# Coordination Sequence:
#
# PCOD8069252 Si02
#       8
#     4   4   4   4   4   4   4   4
#     4   9  16  29  46  66  96 129 156 187 229 279
#     4   9  16  26  43  65  92 126 160 193 229 271
#     4  10  21  36  51  69  93 120 156 203 247 279
#     4  10  19  32  50  70  96 127 157 192 236 280
#     4   8  14  27  45  65  93 126 156 186 225 275
#     4  10  20  31  44  64  93 126 155 186 228 277
#     4  10  21  36  52  69  91 121 159 202 242 281
#     4  10  18  31  50  69  92 125 160 190 230 282
#
# _framework density 16.399941999999999
#
# number of rings (size 3 to 8) (size 9 to 14) (size 15 to 20)
#    0.000    2.500    1.250    2.625    0.000    5.000 
#    0.000    3.125    0.000    0.000    0.000    0.875 
#    0.000    0.000    0.000    0.000    0.000    0.000 
#
# Total GULP energy -396693.731433 kJ/mol
# GULP energy per Si atom -12396.679107 kJ/mol
# Density = 1.636262 g / cm^3
# Si number density = 16.399942 Si / 1000 Ang^3
#
#
#
# Elastic Constant Matrix: (Units=GPa)
#
#
# Indices 1 2 3 4 5 6 
#
# 1 93.0322 52.2773 54.6795 0.0000 -22.8197 0.0000
# 2 52.2773 73.9137 46.0421 0.0000 -12.1421 0.0000
# 3 54.6795 46.0421 85.4985 0.0000 -22.1552 0.0000
# 4 0.0000 0.0000 0.0000 24.2386 0.0000 -2.5077
# 5 -22.8197 -12.1421 -22.1552 0.0000 28.0021 0.0000
# 6 0.0000 0.0000 0.0000 -2.5077 0.0000 29.9458
#
#
#
# Elastic Compliance Matrix: (Units=1/GPa)
#
#
# Indices 1 2 3 4 5 6 
#
# 1 0.022643 -0.010487 -0.006579 0.000000 0.008699 0.000000
# 2 -0.010487 0.025217 -0.007867 0.000000 -0.003836 0.000000
# 3 -0.006579 -0.007867 0.022474 0.000000 0.009009 0.000000
# 4 0.000000 0.000000 0.000000 0.041617 0.000000 0.003485
# 5 0.008699 -0.003836 0.009009 0.000000 0.048266 0.000000
# 6 0.000000 0.000000 0.000000 0.003485 0.000000 0.033686
#
#
# Mechanical properties :
#
#
# Convention : Reuss Voigt Hill
#
# Bulk Modulus (GPa) = 48.85645 62.04911 55.45278
# Shear Modulus (GPa) = 19.95282 23.06700 21.50991
#
# Velocity S-wave (km/s) = 3.49182 3.75444 3.62551
# Velocity P-wave (km/s) = 6.79061 7.53071 7.17021
#
# Compressibility (1/GPa) = 0.02046813
#
# Stress axis : x y z
#
# Youngs Moduli (GPa) = 44.16415 39.65613 44.49493
#
# Poissons Ratio (x) = 0.41589 0.29273
# Poissons Ratio (y) = 0.46317 0.35002
# Poissons Ratio (z) = 0.29056 0.31196
#
# Static dielectric constant tensor:
#      x y z
#    x 3.236290 0.000000 -0.316560 
#    y 0.000000 3.090550 0.000000 
#    z -0.316560 0.000000 3.096870 
# 
# 
# High freq. dielectric constant tensor:
#      x y z
#    x 1.624000 0.000000 -0.024600 
#    y 0.000000 1.625500 0.000000 
#    z -0.024600 0.000000 1.610750 
# 
# From -- ./inp_files/42561.got.cif
#   From: 2010.06.25/outbox.cif.g09.slc.cpg/sg11_22_cif.got.tgz:42561.got - 2010.06.27 23:14:04.
