data_PCOD8069201
_publ_section_title
;
Structure prediction by ZEFSAII (Michael W. Deem and Ramdas Pophale) SiO2 
 PCOD8069201
Probable space group: P 21/M
;
_chemical_formula_sum "Si O2"
_cell_formula_units_Z 28
_cell_length_a 22.608980
_cell_length_b 8.622296
_cell_length_c 18.625772
_cell_angle_alpha 90.000000
_cell_angle_beta 22.866325
_cell_angle_gamma 90.000000
_cell_volume 1410.916719
_symmetry_space_group_name_H-M "P 21/M"
_symmetry_group_IT_number 11
_symmetry_cell_setting 'monoclinic'
loop_
_space_group_symop_operation_xyz
x,y,z
-x,1/2+y,-z
-x,-y,-z
x,1/2-y,z
loop_
_atom_site_type_symbol
_atom_site_label
_atom_site_fract_x
_atom_site_fract_y
_atom_site_fract_z
Si Si1 0.689956 0.567927 0.605782
Si Si2 0.336138 0.566859 0.664077
Si Si3 0.413216 0.069102 0.437803
Si Si4 0.265263 0.069287 0.883976
Si Si5 0.877960 0.066697 0.690851
Si Si6 0.985614 0.931892 0.718413
Si Si7 0.552953 0.566693 0.015897
O O1 0.683530 0.750000 0.629711
O O2 0.661846 0.530941 0.554125
O O3 0.561604 0.481402 0.793851
O O4 0.850803 0.500240 0.448015
O O5 0.500000 0.500000 0.500000
O O6 0.333663 0.750000 0.667305
O O7 0.300124 0.505540 0.624215
O O8 0.224511 0.503419 0.851260
O O9 0.425778 0.250000 0.438790
O O10 0.583328 0.001693 0.250194
O O11 0.294812 0.250000 0.841460
O O12 0.122470 0.032515 0.093619
O O13 0.874447 0.250000 0.688017
O O14 0.916812 0.018975 0.727732
O O15 0.000000 0.000000 0.500000
O O16 0.716203 0.999697 0.851364
O O17 0.997630 0.750000 0.688361
O O18 0.562260 0.750000 0.000339
O O19 0.500000 0.500000 0.000000
#
# Coordination Sequence:
#
# PCOD8069201 Si02
#       7
#     4   4   4   4   4   4   4
#     4  11  24  41  61  87 119 157 198 243 294 349
#     4  10  18  30  53  82 113 148 190 238 290 346
#     4  10  20  35  57  84 115 150 192 240 292 348
#     4  10  20  35  57  84 115 150 192 240 292 348
#     4  12  25  43  66  92 123 157 196 241 290 346
#     4  11  24  41  61  87 119 157 198 243 294 349
#     4  12  25  43  66  92 123 157 196 241 290 346
#
# _framework density 19.845254000000001
#
# number of rings (size 3 to 8) (size 9 to 14) (size 15 to 20)
#    0.000    1.143    0.000    9.000    0.000    6.857 
#    0.000    0.714    0.000    0.000    0.000    0.000 
#    0.000    0.000    0.000    0.000    0.000    0.000 
#
# Total GULP energy -347274.650888 kJ/mol
# GULP energy per Si atom -12402.666103 kJ/mol
# Density = 1.980009 g / cm^3
# Si number density = 19.845254 Si / 1000 Ang^3
#
#
#
# Elastic Constant Matrix: (Units=GPa)
#
#
# Indices 1 2 3 4 5 6 
#
# 1 146.7408 93.8277 86.7403 0.0000 7.9749 0.0000
# 2 93.8277 179.0683 71.7129 0.0000 9.3363 0.0000
# 3 86.7403 71.7129 133.0470 0.0000 -2.2194 0.0000
# 4 0.0000 0.0000 0.0000 35.9196 0.0000 1.7642
# 5 7.9749 9.3363 -2.2194 0.0000 35.4818 0.0000
# 6 0.0000 0.0000 0.0000 1.7642 0.0000 37.7476
#
#
#
# Elastic Compliance Matrix: (Units=1/GPa)
#
#
# Indices 1 2 3 4 5 6 
#
# 1 0.013623 -0.004393 -0.006552 0.000000 -0.002316 0.000000
# 2 -0.004393 0.008701 -0.001849 0.000000 -0.001418 0.000000
# 3 -0.006552 -0.001849 0.012831 0.000000 0.002762 0.000000
# 4 0.000000 0.000000 0.000000 0.027904 0.000000 -0.001304
# 5 -0.002316 -0.001418 0.002762 0.000000 0.029250 0.000000
# 6 0.000000 0.000000 0.000000 -0.001304 0.000000 0.026553
#
#
# Mechanical properties :
#
#
# Convention : Reuss Voigt Hill
#
# Bulk Modulus (GPa) = 104.54677 107.04644 105.79660
# Shear Modulus (GPa) = 33.86663 35.60149 34.73406
#
# Velocity S-wave (km/s) = 4.13551 4.24011 4.18813
# Velocity P-wave (km/s) = 8.69474 8.83340 8.76435
#
# Compressibility (1/GPa) = 0.00956510
#
# Stress axis : x y z
#
# Youngs Moduli (GPa) = 73.40715 114.92968 77.93911
#
# Poissons Ratio (x) = 0.50492 0.51065
# Poissons Ratio (y) = 0.32250 0.14413
# Poissons Ratio (z) = 0.48096 0.21254
#
# Static dielectric constant tensor:
#      x y z
#    x 4.081620 0.000000 0.350370 
#    y 0.000000 3.886530 0.000000 
#    z 0.350370 0.000000 3.702050 
# 
# 
# High freq. dielectric constant tensor:
#      x y z
#    x 1.790630 0.000000 0.018510 
#    y 0.000000 1.797640 0.000000 
#    z 0.018510 0.000000 1.771070 
# 
# From -- ./inp_files/66690.got.cif
#   From: 2010.06.25/outbox.cif.g09.slc.cpg/sg11_34_cif.got.tgz:66690.got - 2010.06.27 23:14:04.
