data_PCOD8069584
_publ_section_title
;
Structure prediction by ZEFSAII (Michael W. Deem and Ramdas Pophale) SiO2 
 PCOD8069584
Probable space group: P 21/M
;
_chemical_formula_sum "Si O2"
_cell_formula_units_Z 28
_cell_length_a 21.729322
_cell_length_b 8.780266
_cell_length_c 27.204644
_cell_angle_alpha 90.000000
_cell_angle_beta 162.262131
_cell_angle_gamma 90.000000
_cell_volume 1581.306676
_symmetry_space_group_name_H-M "P 21/M"
_symmetry_group_IT_number 11
_symmetry_cell_setting 'monoclinic'
loop_
_space_group_symop_operation_xyz
x,y,z
-x,1/2+y,-z
-x,-y,-z
x,1/2-y,z
loop_
_atom_site_type_symbol
_atom_site_label
_atom_site_fract_x
_atom_site_fract_y
_atom_site_fract_z
Si Si1 0.223750 0.425681 0.527550
Si Si2 0.360492 0.429887 0.435198
Si Si3 0.447046 0.925202 0.139058
Si Si4 0.026993 0.078307 0.836051
Si Si5 0.298803 0.922626 0.485325
Si Si6 0.464620 0.572286 0.895859
Si Si7 0.195760 0.072363 0.768814
O O1 0.158421 0.250000 0.473736
O O2 0.381485 0.453071 0.690603
O O3 0.326999 0.478668 0.555565
O O4 0.031426 0.529710 0.391423
O O5 0.500000 0.500000 0.500000
O O6 0.382728 0.250000 0.452598
O O7 0.126199 0.478421 0.246658
O O8 0.428758 0.499557 0.540127
O O9 0.388077 0.750000 0.088897
O O10 0.531926 0.983817 0.152352
O O11 0.250159 0.013733 0.006823
O O12 0.031813 0.250000 0.860457
O O13 0.937605 0.077599 0.712033
O O14 0.374637 0.750000 0.552014
O O15 0.451399 0.750000 0.874437
O O16 0.266064 0.521206 0.774540
O O17 0.663935 0.529108 0.078271
O O18 0.211746 0.250000 0.768699
#
# Coordination Sequence:
#
# PCOD8069584 Si02
#       7
#     4   4   4   4   4   4   4
#     4  11  23  36  52  77 109 145 183 222 269 324
#     4  10  18  32  56  86 115 142 175 220 264 310
#     4  11  23  36  52  77 109 145 183 222 269 324
#     4   9  19  34  54  81 108 139 179 221 264 315
#     4   9  19  34  54  81 108 139 179 221 264 315
#     4  10  21  37  57  79 103 135 178 227 277 328
#     4  10  21  37  57  79 103 135 178 227 277 328
#
# _framework density 17.706875
#
# number of rings (size 3 to 8) (size 9 to 14) (size 15 to 20)
#    0.857    1.143    0.000    4.286    0.000    8.000 
#    0.000    0.000    0.000    0.857    0.000    0.000 
#    0.000    0.000    0.000    0.000    0.000    0.000 
#
# Total GULP energy -347142.299411 kJ/mol
# GULP energy per Si atom -12397.939265 kJ/mol
# Density = 1.766657 g / cm^3
# Si number density = 17.706875 Si / 1000 Ang^3
#
#
#
# Elastic Constant Matrix: (Units=GPa)
#
#
# Indices 1 2 3 4 5 6 
#
# 1 106.8196 33.6311 48.6865 0.0000 8.4221 0.0000
# 2 33.6311 91.6024 36.1926 0.0000 -8.8268 0.0000
# 3 48.6865 36.1926 38.8609 0.0000 -5.6906 0.0000
# 4 0.0000 0.0000 0.0000 28.5810 0.0000 4.7720
# 5 8.4221 -8.8268 -5.6906 0.0000 14.4463 0.0000
# 6 0.0000 0.0000 0.0000 4.7720 0.0000 34.9034
#
#
#
# Elastic Compliance Matrix: (Units=1/GPa)
#
#
# Indices 1 2 3 4 5 6 
#
# 1 0.037008 0.004990 -0.057014 0.000000 -0.040986 0.000000
# 2 0.004990 0.018223 -0.023366 0.000000 -0.000979 0.000000
# 3 -0.057014 -0.023366 0.129151 0.000000 0.069837 0.000000
# 4 0.000000 0.000000 0.000000 0.035806 0.000000 -0.004895
# 5 -0.040986 -0.000979 0.069837 0.000000 0.120028 0.000000
# 6 0.000000 0.000000 0.000000 -0.004895 0.000000 0.029320
#
#
# Mechanical properties :
#
#
# Convention : Reuss Voigt Hill
#
# Bulk Modulus (GPa) = 29.76161 52.70036 41.23099
# Shear Modulus (GPa) = 9.40704 23.50432 16.45568
#
# Velocity S-wave (km/s) = 2.30742 3.64732 3.05181
# Velocity P-wave (km/s) = 4.89319 6.89670 5.97946
#
# Compressibility (1/GPa) = 0.03360033
#
# Stress axis : x y z
#
# Youngs Moduli (GPa) = 27.02109 54.87713 7.74286
#
# Poissons Ratio (x) = -0.27384 0.44145
# Poissons Ratio (y) = -0.13484 0.18092
# Poissons Ratio (z) = 1.54059 1.28228
#
# Static dielectric constant tensor:
#      x y z
#    x 3.218170 0.000000 0.011440 
#    y 0.000000 3.600770 0.000000 
#    z 0.011440 0.000000 3.046100 
# 
# 
# High freq. dielectric constant tensor:
#      x y z
#    x 1.680440 0.000000 0.006200 
#    y 0.000000 1.706190 0.000000 
#    z 0.006200 0.000000 1.658920 
# 
# From -- ./inp_files/71949.got.cif
#   From: 2010.06.25/outbox.cif.g09.slc.cpg/sg11_36_cif.got.tgz:71949.got - 2010.06.27 23:14:04.
