data_PCOD8069316
_publ_section_title
;
Structure prediction by ZEFSAII (Michael W. Deem and Ramdas Pophale) SiO2 
 PCOD8069316
Probable space group: P 21/M
;
_chemical_formula_sum "Si O2"
_cell_formula_units_Z 32
_cell_length_a 24.938670
_cell_length_b 8.840820
_cell_length_c 20.150954
_cell_angle_alpha 90.000000
_cell_angle_beta 22.917806
_cell_angle_gamma 90.000000
_cell_volume 1730.090351
_symmetry_space_group_name_H-M "P 21/M"
_symmetry_group_IT_number 11
_symmetry_cell_setting 'monoclinic'
loop_
_space_group_symop_operation_xyz
x,y,z
-x,1/2+y,-z
-x,-y,-z
x,1/2-y,z
loop_
_atom_site_type_symbol
_atom_site_label
_atom_site_fract_x
_atom_site_fract_y
_atom_site_fract_z
Si Si1 0.627531 0.071096 0.151434
Si Si2 0.349697 0.570580 0.517298
Si Si3 0.860487 0.425900 0.355929
Si Si4 0.423726 0.572821 0.935529
Si Si5 0.274943 0.428671 0.370194
Si Si6 0.647407 0.427919 0.843773
Si Si7 0.827065 0.575271 0.020081
Si Si8 0.354733 0.071920 0.647588
O O1 0.604799 0.250000 0.181484
O O2 0.637071 0.011408 0.064396
O O3 0.502802 0.988243 0.330065
O O4 0.767973 0.025155 0.027480
O O5 0.351637 0.750000 0.522023
O O6 0.248235 0.515665 0.574700
O O7 0.295716 0.498846 0.647193
O O8 0.838259 0.250000 0.395835
O O9 0.840784 0.515328 0.447062
O O10 0.011993 0.460576 0.155763
O O11 0.444278 0.750000 0.906046
O O12 0.577195 0.506964 0.773252
O O13 0.319907 0.535921 0.115477
O O14 0.269764 0.250000 0.370455
O O15 0.245204 0.496514 0.330172
O O16 0.641931 0.250000 0.837125
O O17 0.500000 0.500000 0.000000
O O18 0.800424 0.750000 0.033041
O O19 0.755468 0.530378 0.170482
O O20 0.374279 0.250000 0.617011
O O21 0.500000 0.000000 0.500000
#
# Coordination Sequence:
#
# PCOD8069316 Si02
#       8
#     4   4   4   4   4   4   4   4
#     4  11  20  34  57  83 110 144 184 227 274 325
#     4  11  22  36  57  84 110 142 184 228 274 329
#     4  10  22  39  57  79 111 149 185 226 278 332
#     4   8  16  29  48  77 110 139 175 225 273 317
#     4  10  18  31  51  78 111 145 181 227 276 329
#     4   9  16  28  46  74 110 146 181 224 275 327
#     4  10  23  41  57  79 111 145 184 229 277 331
#     4  11  22  37  59  83 111 145 183 229 276 329
#
# _framework density 18.496143
#
# number of rings (size 3 to 8) (size 9 to 14) (size 15 to 20)
#    0.000    2.000    2.500    2.625    0.000    2.000 
#    0.000    1.875    0.000    0.750    0.000    0.000 
#    0.000    0.000    0.000    0.000    0.000    0.000 
#
# Total GULP energy -396739.911134 kJ/mol
# GULP energy per Si atom -12398.122223 kJ/mol
# Density = 1.845404 g / cm^3
# Si number density = 18.496143 Si / 1000 Ang^3
#
#
#
# Elastic Constant Matrix: (Units=GPa)
#
#
# Indices 1 2 3 4 5 6 
#
# 1 99.5232 36.8172 43.4437 0.0000 29.6552 0.0000
# 2 36.8172 71.1616 33.4100 0.0000 14.6387 0.0000
# 3 43.4437 33.4100 88.0992 0.0000 20.2738 0.0000
# 4 0.0000 0.0000 0.0000 24.4370 0.0000 6.0094
# 5 29.6552 14.6387 20.2738 0.0000 36.2472 0.0000
# 6 0.0000 0.0000 0.0000 6.0094 0.0000 28.7657
#
#
#
# Elastic Compliance Matrix: (Units=1/GPa)
#
#
# Indices 1 2 3 4 5 6 
#
# 1 0.016297 -0.004582 -0.004196 0.000000 -0.009135 0.000000
# 2 -0.004582 0.018844 -0.004589 0.000000 -0.001295 0.000000
# 3 -0.004196 -0.004589 0.016004 0.000000 -0.003665 0.000000
# 4 0.000000 0.000000 0.000000 0.043138 0.000000 -0.009012
# 5 -0.009135 -0.001295 -0.003665 0.000000 0.037635 0.000000
# 6 0.000000 0.000000 0.000000 -0.009012 0.000000 0.036646
#
#
# Mechanical properties :
#
#
# Convention : Reuss Voigt Hill
#
# Bulk Modulus (GPa) = 40.96660 54.01397 47.49028
# Shear Modulus (GPa) = 24.57791 27.56419 26.07105
#
# Velocity S-wave (km/s) = 3.64924 3.86459 3.75846
# Velocity P-wave (km/s) = 6.32082 7.01282 6.67579
#
# Compressibility (1/GPa) = 0.02441013
#
# Stress axis : x y z
#
# Youngs Moduli (GPa) = 61.36123 53.06745 62.48554
#
# Poissons Ratio (x) = 0.24317 0.26221
# Poissons Ratio (y) = 0.28117 0.28672
# Poissons Ratio (z) = 0.25749 0.24351
#
# Static dielectric constant tensor:
#      x y z
#    x 3.793330 0.000000 0.416260 
#    y 0.000000 3.374120 0.000000 
#    z 0.416260 0.000000 3.359890 
# 
# 
# High freq. dielectric constant tensor:
#      x y z
#    x 1.719770 0.000000 0.030490 
#    y 0.000000 1.716400 0.000000 
#    z 0.030490 0.000000 1.696630 
# 
# From -- ./inp_files/66930.got.cif
#   From: 2010.06.25/outbox.cif.g09.slc.cpg/sg11_34_cif.got.tgz:66930.got - 2010.06.27 23:14:04.
