data_PCOD8069106
_publ_section_title
;
Structure prediction by ZEFSAII (Michael W. Deem and Ramdas Pophale) SiO2 
 PCOD8069106
Probable space group: P 21/M
;
_chemical_formula_sum "Si O2"
_cell_formula_units_Z 20
_cell_length_a 10.234204
_cell_length_b 8.567724
_cell_length_c 21.448178
_cell_angle_alpha 90.000000
_cell_angle_beta 35.038163
_cell_angle_gamma 90.000000
_cell_volume 1079.727275
_symmetry_space_group_name_H-M "P 21/M"
_symmetry_group_IT_number 11
_symmetry_cell_setting 'monoclinic'
loop_
_space_group_symop_operation_xyz
x,y,z
-x,1/2+y,-z
-x,-y,-z
x,1/2-y,z
loop_
_atom_site_type_symbol
_atom_site_label
_atom_site_fract_x
_atom_site_fract_y
_atom_site_fract_z
Si Si1 0.974945 0.066273 0.212310
Si Si2 0.970944 0.067080 0.443214
Si Si3 0.235836 0.566502 0.228127
Si Si4 0.486932 0.067651 0.573792
Si Si5 0.630131 0.434639 0.008700
O O1 0.995024 0.250000 0.199264
O O2 0.714319 0.013774 0.308902
O O3 0.075057 0.014501 0.239797
O O4 0.108999 0.990358 0.100982
O O5 0.023135 0.250000 0.421081
O O6 0.717335 0.029484 0.519866
O O7 0.000000 0.000000 0.500000
O O8 0.151491 0.978806 0.329332
O O9 0.223726 0.750000 0.222198
O O10 0.498426 0.507579 0.119539
O O11 0.437241 0.250000 0.588565
O O12 0.500000 0.000000 0.500000
O O13 0.617582 0.250000 0.016925
O O14 0.500000 0.500000 0.000000
#
# Coordination Sequence:
#
# PCOD8069106 Si02
#       5
#     4   4   4   4   4
#     4  11  20  32  52  81 114 145 184 230 280 332
#     4  11  24  40  58  82 113 150 191 231 278 336
#     4  11  20  33  54  79 111 147 186 230 279 331
#     4  11  22  36  57  83 113 148 187 231 281 333
#     4  10  18  30  49  76 110 144 182 227 279 331
#
# _framework density 18.523197
#
# number of rings (size 3 to 8) (size 9 to 14) (size 15 to 20)
#    0.000    1.200    2.000    9.000    0.000    2.400 
#    0.000    0.000    0.000    1.200    0.000    0.000 
#    0.000    0.000    0.000    0.000    0.000    0.000 
#
# Total GULP energy -248026.882058 kJ/mol
# GULP energy per Si atom -12401.344103 kJ/mol
# Density = 1.848104 g / cm^3
# Si number density = 18.523197 Si / 1000 Ang^3
#
#
#
# Elastic Constant Matrix: (Units=GPa)
#
#
# Indices 1 2 3 4 5 6 
#
# 1 62.7920 31.6780 36.8628 0.0000 3.8998 0.0000
# 2 31.6780 135.7293 57.4649 0.0000 -2.2170 0.0000
# 3 36.8628 57.4649 174.2903 0.0000 -0.3830 0.0000
# 4 0.0000 0.0000 0.0000 40.6618 0.0000 0.7435
# 5 3.8998 -2.2170 -0.3830 0.0000 19.6964 0.0000
# 6 0.0000 0.0000 0.0000 0.7435 0.0000 22.4249
#
#
#
# Elastic Compliance Matrix: (Units=1/GPa)
#
#
# Indices 1 2 3 4 5 6 
#
# 1 0.019694 -0.003370 -0.003064 0.000000 -0.004338 0.000000
# 2 -0.003370 0.009156 -0.002302 0.000000 0.001653 0.000000
# 3 -0.003064 -0.002302 0.007146 0.000000 0.000486 0.000000
# 4 0.000000 0.000000 0.000000 0.024608 0.000000 -0.000816
# 5 -0.004338 0.001653 0.000486 0.000000 0.051825 0.000000
# 6 0.000000 0.000000 0.000000 -0.000816 0.000000 0.044620
#
#
# Mechanical properties :
#
#
# Convention : Reuss Voigt Hill
#
# Bulk Modulus (GPa) = 53.98653 69.42476 61.70564
# Shear Modulus (GPa) = 27.67083 33.01034 30.34058
#
# Velocity S-wave (km/s) = 3.86923 4.22608 4.05158
# Velocity P-wave (km/s) = 7.01212 7.83417 7.43452
#
# Compressibility (1/GPa) = 0.01852314
#
# Stress axis : x y z
#
# Youngs Moduli (GPa) = 50.77740 109.21872 139.94425
#
# Poissons Ratio (x) = 0.36808 0.42874
# Poissons Ratio (y) = 0.17113 0.32220
# Poissons Ratio (z) = 0.15556 0.25146
#
# Static dielectric constant tensor:
#      x y z
#    x 2.752450 0.000000 0.188620 
#    y 0.000000 3.584630 0.000000 
#    z 0.188620 0.000000 3.775570 
# 
# 
# High freq. dielectric constant tensor:
#      x y z
#    x 1.657400 0.000000 -0.004750 
#    y 0.000000 1.743860 0.000000 
#    z -0.004750 0.000000 1.749280 
# 
# From -- ./inp_files/63137.got.cif
#   From: 2010.06.25/outbox.cif.g09.slc.cpg/sg11_32_cif.got.tgz:63137.got - 2010.06.27 23:14:04.
