data_PCOD8069907
_publ_section_title
;
Structure prediction by ZEFSAII (Michael W. Deem and Ramdas Pophale) SiO2 
 PCOD8069907
Probable space group: P 21/M
;
_chemical_formula_sum "Si O2"
_cell_formula_units_Z 24
_cell_length_a 9.424087
_cell_length_b 17.769421
_cell_length_c 8.534354
_cell_angle_alpha 90.000000
_cell_angle_beta 121.925159
_cell_angle_gamma 90.000000
_cell_volume 1212.991240
_symmetry_space_group_name_H-M "P 21/M"
_symmetry_group_IT_number 11
_symmetry_cell_setting 'monoclinic'
loop_
_space_group_symop_operation_xyz
x,y,z
-x,1/2+y,-z
-x,-y,-z
x,1/2-y,z
loop_
_atom_site_type_symbol
_atom_site_label
_atom_site_fract_x
_atom_site_fract_y
_atom_site_fract_z
Si Si1 0.109524 0.031530 0.924616
Si Si2 0.716037 0.250000 0.517666
Si Si3 0.030520 0.870888 0.409526
Si Si4 0.747590 0.750000 0.252138
Si Si5 0.593186 0.250000 0.098266
Si Si6 0.833456 0.119012 0.164911
Si Si7 0.148972 0.332078 0.146170
Si Si8 0.614597 0.750000 0.512399
O O1 0.995967 0.054328 0.708835
O O2 0.228605 0.963403 0.933413
O O3 0.202440 0.105880 0.047081
O O4 0.000000 0.000000 0.000000
O O5 0.618486 0.250000 0.297544
O O6 0.583653 0.250000 0.579807
O O7 0.829214 0.323665 0.599662
O O8 0.858517 0.824609 0.314856
O O9 0.090546 0.890413 0.617924
O O10 0.636730 0.750000 0.342310
O O11 0.606898 0.750000 0.035010
O O12 0.677987 0.175888 0.071692
O O13 0.978286 0.148575 0.135686
O O14 0.122416 0.250000 0.046419
O O15 0.299183 0.324457 0.360072
#
# Coordination Sequence:
#
# PCOD8069907 Si02
#       8
#     4   2   4   2   2   4   4   2
#     4  10  22  33  60  91 118 151 197 240 287 347
#     4   9  22  34  62  87 118 146 198 245 284 344
#     4  10  20  39  59  88 116 156 196 237 292 347
#     4  11  22  35  65  90 113 153 203 236 290 348
#     4  10  21  36  60  88 113 151 200 245 287 345
#     4  10  18  40  60  83 117 155 194 239 291 346
#     4   9  18  33  58  86 116 154 192 238 293 343
#     4  10  19  35  57  87 118 152 191 244 295 339
#
# _framework density 19.785796999999999
#
# number of rings (size 3 to 8) (size 9 to 14) (size 15 to 20)
#    0.500    1.667    2.500    1.000    4.667    2.667 
#    0.000    0.833    3.667    3.000    0.000    0.000 
#    0.000    0.000    0.000    0.000    0.000    0.000 
#
# Total GULP energy -297406.951901 kJ/mol
# GULP energy per Si atom -12391.956329 kJ/mol
# Density = 1.974076 g / cm^3
# Si number density = 19.785797 Si / 1000 Ang^3
#
#
#
# Elastic Constant Matrix: (Units=GPa)
#
#
# Indices 1 2 3 4 5 6 
#
# 1 93.8581 30.4127 21.5719 0.0000 10.2503 0.0000
# 2 30.4127 122.1735 28.4667 0.0000 -11.5487 0.0000
# 3 21.5719 28.4667 56.2560 0.0000 -0.3862 0.0000
# 4 0.0000 0.0000 0.0000 32.1864 0.0000 -11.7780
# 5 10.2503 -11.5487 -0.3862 0.0000 23.3637 0.0000
# 6 0.0000 0.0000 0.0000 -11.7780 0.0000 13.2030
#
#
#
# Elastic Compliance Matrix: (Units=1/GPa)
#
#
# Indices 1 2 3 4 5 6 
#
# 1 0.013322 -0.003199 -0.003541 0.000000 -0.007484 0.000000
# 2 -0.003199 0.010548 -0.004066 0.000000 0.006550 0.000000
# 3 -0.003541 -0.004066 0.021191 0.000000 -0.000106 0.000000
# 4 0.000000 0.000000 0.000000 0.046126 0.000000 0.041148
# 5 -0.007484 0.006550 -0.000106 0.000000 0.049321 0.000000
# 6 0.000000 0.000000 0.000000 0.041148 0.000000 0.112447
#
#
# Mechanical properties :
#
#
# Convention : Reuss Voigt Hill
#
# Bulk Modulus (GPa) = 42.64610 48.13225 45.38917
# Shear Modulus (GPa) = 17.70648 26.53971 22.12310
#
# Velocity S-wave (km/s) = 2.99475 3.66642 3.34747
# Velocity P-wave (km/s) = 5.79299 6.50408 6.15880
#
# Compressibility (1/GPa) = 0.02344880
#
# Stress axis : x y z
#
# Youngs Moduli (GPa) = 75.06321 94.80627 47.19087
#
# Poissons Ratio (x) = 0.30325 0.16712
# Poissons Ratio (y) = 0.24010 0.19187
# Poissons Ratio (z) = 0.26582 0.38547
#
# Static dielectric constant tensor:
#      x y z
#    x 3.434030 0.000000 -0.202790 
#    y 0.000000 4.089340 0.000000 
#    z -0.202790 0.000000 3.521750 
# 
# 
# High freq. dielectric constant tensor:
#      x y z
#    x 1.761140 0.000000 -0.024950 
#    y 0.000000 1.771510 0.000000 
#    z -0.024950 0.000000 1.763230 
# 
# From -- ./inp_files/14440.got.cif
#   From: 2010.06.25/outbox.cif.g09.slc.cpg/sg11_8_cif.got.tgz:14440.got - 2010.06.27 23:14:04.
