data_PCOD8069176
_publ_section_title
;
Structure prediction by ZEFSAII (Michael W. Deem and Ramdas Pophale) SiO2 
 PCOD8069176
Probable space group: P 21/M
;
_chemical_formula_sum "Si O2"
_cell_formula_units_Z 28
_cell_length_a 15.427232
_cell_length_b 8.902479
_cell_length_c 18.557214
_cell_angle_alpha 90.000000
_cell_angle_beta 145.159702
_cell_angle_gamma 90.000000
_cell_volume 1456.025906
_symmetry_space_group_name_H-M "P 21/M"
_symmetry_group_IT_number 11
_symmetry_cell_setting 'monoclinic'
loop_
_space_group_symop_operation_xyz
x,y,z
-x,1/2+y,-z
-x,-y,-z
x,1/2-y,z
loop_
_atom_site_type_symbol
_atom_site_label
_atom_site_fract_x
_atom_site_fract_y
_atom_site_fract_z
Si Si1 0.634807 0.581150 0.886285
Si Si2 0.371893 0.579134 0.599964
Si Si3 0.512297 0.423897 0.931791
Si Si4 0.832813 0.930159 0.886412
Si Si5 0.083256 0.415508 0.452024
Si Si6 0.568923 0.071775 0.618677
Si Si7 0.180313 0.085930 0.680690
O O1 0.676515 0.750000 0.936017
O O2 0.466077 0.571018 0.738045
O O3 0.640472 0.487129 0.964559
O O4 0.756497 0.522301 0.910502
O O5 0.374843 0.750000 0.571573
O O6 0.199178 0.529804 0.494038
O O7 0.445337 0.462595 0.595054
O O8 0.546582 0.250000 0.965634
O O9 0.352316 0.463876 0.786235
O O10 0.500000 0.500000 0.000000
O O11 0.837838 0.750000 0.881265
O O12 0.731075 0.997640 0.751648
O O13 0.000000 0.000000 0.000000
O O14 0.095998 0.250000 0.425325
O O15 0.107597 0.406110 0.553179
O O16 0.911483 0.477512 0.327073
O O17 0.590998 0.250000 0.624655
O O18 0.500000 0.000000 0.500000
O O19 0.175787 0.250000 0.714246
#
# Coordination Sequence:
#
# PCOD8069176 Si02
#       7
#     4   4   4   4   4   4   4
#     4   9  19  35  56  81 110 144 188 234 279 333
#     4  10  19  33  55  82 112 145 183 229 279 337
#     4  11  22  36  54  76 107 145 188 232 279 332
#     4  10  21  39  63  93 122 155 198 246 297 356
#     4  10  18  30  51  78 104 134 176 221 267 320
#     4  11  22  38  60  87 120 155 192 239 293 353
#     4   9  19  33  48  72 104 137 174 220 270 319
#
# _framework density 19.230426999999999
#
# number of rings (size 3 to 8) (size 9 to 14) (size 15 to 20)
#    0.000    2.000    1.429    3.857    0.000    4.571 
#    0.000    1.429    0.000    5.143    0.000    0.000 
#    0.000    0.000    0.000    0.000    0.000    0.000 
#
# Total GULP energy -347006.921934 kJ/mol
# GULP energy per Si atom -12393.104355 kJ/mol
# Density = 1.918666 g / cm^3
# Si number density = 19.230427 Si / 1000 Ang^3
#
#
#
# Elastic Constant Matrix: (Units=GPa)
#
#
# Indices 1 2 3 4 5 6 
#
# 1 98.8186 58.6873 46.1427 0.0000 4.6080 0.0000
# 2 58.6873 126.9499 49.3869 0.0000 0.8465 0.0000
# 3 46.1427 49.3869 65.0185 0.0000 0.9661 0.0000
# 4 0.0000 0.0000 0.0000 27.6120 0.0000 2.3339
# 5 4.6080 0.8465 0.9661 0.0000 30.6085 0.0000
# 6 0.0000 0.0000 0.0000 2.3339 0.0000 37.6167
#
#
#
# Elastic Compliance Matrix: (Units=1/GPa)
#
#
# Indices 1 2 3 4 5 6 
#
# 1 0.016855 -0.004452 -0.008548 0.000000 -0.002145 0.000000
# 2 -0.004452 0.012357 -0.006234 0.000000 0.000525 0.000000
# 3 -0.008548 -0.006234 0.026173 0.000000 0.000633 0.000000
# 4 0.000000 0.000000 0.000000 0.036407 0.000000 -0.002259
# 5 -0.002145 0.000525 0.000633 0.000000 0.032959 0.000000
# 6 0.000000 0.000000 0.000000 -0.002259 0.000000 0.026724
#
#
# Mechanical properties :
#
#
# Convention : Reuss Voigt Hill
#
# Bulk Modulus (GPa) = 59.11698 66.58010 62.84854
# Shear Modulus (GPa) = 25.56452 28.27214 26.91833
#
# Velocity S-wave (km/s) = 3.65002 3.83845 3.74542
# Velocity P-wave (km/s) = 6.96934 7.37173 7.17335
#
# Compressibility (1/GPa) = 0.01691562
#
# Stress axis : x y z
#
# Youngs Moduli (GPa) = 59.32894 80.92483 38.20735
#
# Poissons Ratio (x) = 0.36029 0.32661
# Poissons Ratio (y) = 0.26414 0.23820
# Poissons Ratio (z) = 0.50716 0.50452
#
# Static dielectric constant tensor:
#      x y z
#    x 3.459530 0.000000 0.070260 
#    y 0.000000 3.736120 0.000000 
#    z 0.070260 0.000000 3.100500 
# 
# 
# High freq. dielectric constant tensor:
#      x y z
#    x 1.743750 0.000000 0.012600 
#    y 0.000000 1.760490 0.000000 
#    z 0.012600 0.000000 1.721200 
# 
# From -- ./inp_files/60131.got.cif
#   From: 2010.06.25/outbox.cif.g09.slc.cpg/sg11_31_cif.got.tgz:60131.got - 2010.06.27 23:14:04.
