data_PCOD8069317
_publ_section_title
;
Structure prediction by ZEFSAII (Michael W. Deem and Ramdas Pophale) SiO2 
 PCOD8069317
Probable space group: P 21/M
;
_chemical_formula_sum "Si O2"
_cell_formula_units_Z 24
_cell_length_a 21.565915
_cell_length_b 8.541920
_cell_length_c 11.101850
_cell_angle_alpha 90.000000
_cell_angle_beta 147.219268
_cell_angle_gamma 90.000000
_cell_volume 1107.279998
_symmetry_space_group_name_H-M "P 21/M"
_symmetry_group_IT_number 11
_symmetry_cell_setting 'monoclinic'
loop_
_space_group_symop_operation_xyz
x,y,z
-x,1/2+y,-z
-x,-y,-z
x,1/2-y,z
loop_
_atom_site_type_symbol
_atom_site_label
_atom_site_fract_x
_atom_site_fract_y
_atom_site_fract_z
Si Si1 0.642644 0.064980 0.975565
Si Si2 0.762499 0.566378 0.937541
Si Si3 0.049540 0.566606 0.899834
Si Si4 0.438585 0.936239 0.517315
Si Si5 0.163684 0.934316 0.336347
Si Si6 0.627186 0.565533 0.199582
O O1 0.647254 0.250000 0.993155
O O2 0.724117 0.010287 0.000283
O O3 0.509701 0.009776 0.743810
O O4 0.685660 0.987573 0.169369
O O5 0.743033 0.750000 0.916376
O O6 0.691380 0.496166 0.706887
O O7 0.893640 0.522253 0.121789
O O8 0.055185 0.750000 0.884971
O O9 0.918233 0.512524 0.696705
O O10 0.118564 0.515484 0.131960
O O11 0.441358 0.750000 0.530675
O O12 0.500000 0.000000 0.500000
O O13 0.160921 0.750000 0.348877
O O14 0.293229 0.996199 0.564045
O O15 0.623518 0.750000 0.205077
O O16 0.500000 0.500000 0.000000
#
# Coordination Sequence:
#
# PCOD8069317 Si02
#       6
#     4   4   4   4   4   4
#     4  11  22  39  59  85 121 160 204 253 308 366
#     4  11  21  35  58  89 123 160 204 252 308 364
#     4  10  21  39  65  94 125 161 205 255 308 362
#     4  10  18  31  51  79 116 155 196 244 298 354
#     4  10  22  42  65  92 125 161 207 256 305 362
#     4  12  26  44  65  90 124 165 208 251 306 369
#
# _framework density 21.674734000000001
#
# number of rings (size 3 to 8) (size 9 to 14) (size 15 to 20)
#    0.000    1.333    0.000    9.000    2.333    2.000 
#    0.000    0.833    0.000    0.000    0.000    0.000 
#    0.000    0.000    0.000    0.000    0.000    0.000 
#
# Total GULP energy -297624.621135 kJ/mol
# GULP energy per Si atom -12401.025881 kJ/mol
# Density = 2.162540 g / cm^3
# Si number density = 21.674734 Si / 1000 Ang^3
#
#
#
# Elastic Constant Matrix: (Units=GPa)
#
#
# Indices 1 2 3 4 5 6 
#
# 1 66.9150 -3.7274 14.9078 0.0000 15.7545 0.0000
# 2 -3.7274 85.4313 16.8415 0.0000 -10.2061 0.0000
# 3 14.9078 16.8415 80.5874 0.0000 8.4708 0.0000
# 4 0.0000 0.0000 0.0000 36.7638 0.0000 3.2829
# 5 15.7545 -10.2061 8.4708 0.0000 31.7867 0.0000
# 6 0.0000 0.0000 0.0000 3.2829 0.0000 36.0465
#
#
#
# Elastic Compliance Matrix: (Units=1/GPa)
#
#
# Indices 1 2 3 4 5 6 
#
# 1 0.017355 0.000302 -0.002448 0.000000 -0.007853 0.000000
# 2 0.000302 0.012947 -0.003274 0.000000 0.004880 0.000000
# 3 -0.002448 -0.003274 0.013919 0.000000 -0.003547 0.000000
# 4 0.000000 0.000000 0.000000 0.027424 0.000000 -0.002498
# 5 -0.007853 0.004880 -0.003547 0.000000 0.037864 0.000000
# 6 0.000000 0.000000 0.000000 -0.002498 0.000000 0.027969
#
#
# Mechanical properties :
#
#
# Convention : Reuss Voigt Hill
#
# Bulk Modulus (GPa) = 29.95859 32.10860 31.03360
# Shear Modulus (GPa) = 31.35842 34.58017 32.96930
#
# Velocity S-wave (km/s) = 3.80777 3.99860 3.90435
# Velocity P-wave (km/s) = 5.76056 6.01368 5.88848
#
# Compressibility (1/GPa) = 0.03337941
#
# Stress axis : x y z
#
# Youngs Moduli (GPa) = 57.61900 77.23806 71.84447
#
# Poissons Ratio (x) = -0.02330 0.17589
# Poissons Ratio (y) = -0.01739 0.23525
# Poissons Ratio (z) = 0.14106 0.25291
#
# Static dielectric constant tensor:
#      x y z
#    x 4.300120 0.000000 0.250930 
#    y 0.000000 3.937480 0.000000 
#    z 0.250930 0.000000 3.886660 
# 
# 
# High freq. dielectric constant tensor:
#      x y z
#    x 1.855070 0.000000 0.009080 
#    y 0.000000 1.865950 0.000000 
#    z 0.009080 0.000000 1.834960 
# 
# From -- ./inp_files/44023.got.cif
#   From: 2010.06.25/outbox.cif.g09.slc.cpg/sg11_23_cif.got.tgz:44023.got - 2010.06.27 23:14:04.
