data_PCOD8069501
_publ_section_title
;
Structure prediction by ZEFSAII (Michael W. Deem and Ramdas Pophale) SiO2 
 PCOD8069501
Probable space group: P 21/M
;
_chemical_formula_sum "Si O2"
_cell_formula_units_Z 32
_cell_length_a 23.717148
_cell_length_b 8.728622
_cell_length_c 29.782623
_cell_angle_alpha 90.000000
_cell_angle_beta 16.259566
_cell_angle_gamma 90.000000
_cell_volume 1726.285117
_symmetry_space_group_name_H-M "P 21/M"
_symmetry_group_IT_number 11
_symmetry_cell_setting 'monoclinic'
loop_
_space_group_symop_operation_xyz
x,y,z
-x,1/2+y,-z
-x,-y,-z
x,1/2-y,z
loop_
_atom_site_type_symbol
_atom_site_label
_atom_site_fract_x
_atom_site_fract_y
_atom_site_fract_z
Si Si1 0.112192 0.570177 0.558088
Si Si2 0.088004 0.571316 0.888213
Si Si3 0.120466 0.569920 0.652447
Si Si4 0.501942 0.431620 0.787216
Si Si5 0.295130 0.569238 0.027558
Si Si6 0.518791 0.074191 0.366690
Si Si7 0.749794 0.429583 0.098609
Si Si8 0.334124 0.069376 0.094786
O O1 0.141003 0.750000 0.538330
O O2 0.152050 0.506736 0.577671
O O3 0.278746 0.505294 0.396495
O O4 0.885232 0.526551 0.716761
O O5 0.034165 0.750000 0.927094
O O6 0.330002 0.547050 0.706683
O O7 0.000000 0.500000 0.000000
O O8 0.982878 0.484093 0.926861
O O9 0.080962 0.750000 0.684570
O O10 0.320028 0.526739 0.527748
O O11 0.922634 0.488163 0.823496
O O12 0.498293 0.250000 0.797224
O O13 0.336462 0.476867 0.877068
O O14 0.461530 0.515678 0.864821
O O15 0.295671 0.750000 0.031556
O O16 0.355799 0.497649 0.028660
O O17 0.452428 0.250000 0.414784
O O18 0.624701 0.026917 0.238877
O O19 0.744759 0.250000 0.091869
O O20 0.362285 0.250000 0.070010
O O21 0.500000 0.000000 0.000000
#
# Coordination Sequence:
#
# PCOD8069501 Si02
#       8
#     4   4   4   4   4   4   4   4
#     4   8  17  32  54  82 109 137 177 221 262 310
#     4   9  17  28  42  66 100 138 179 225 275 326
#     4  10  18  32  53  78 104 139 182 226 273 325
#     4  11  20  35  56  80 109 145 181 225 273 321
#     4  11  23  38  55  81 113 146 179 222 268 318
#     4   9  17  28  45  72 104 136 177 228 275 321
#     4  10  19  30  46  73 106 141 179 223 274 328
#     4  10  20  39  63  89 114 144 180 217 261 315
#
# _framework density 18.536915
#
# number of rings (size 3 to 8) (size 9 to 14) (size 15 to 20)
#    0.000    2.250    1.250    4.500    0.000    2.500 
#    0.000    2.500    0.000    0.750    0.000    0.000 
#    0.000    0.000    0.000    0.000    0.000    0.000 
#
# Total GULP energy -396689.355072 kJ/mol
# GULP energy per Si atom -12396.542346 kJ/mol
# Density = 1.849472 g / cm^3
# Si number density = 18.536915 Si / 1000 Ang^3
#
#
#
# Elastic Constant Matrix: (Units=GPa)
#
#
# Indices 1 2 3 4 5 6 
#
# 1 78.3596 35.8632 56.8644 0.0000 -12.9432 0.0000
# 2 35.8632 89.6141 44.4053 0.0000 -7.4846 0.0000
# 3 56.8644 44.4053 116.6758 0.0000 -8.4511 0.0000
# 4 0.0000 0.0000 0.0000 27.5180 0.0000 -5.2224
# 5 -12.9432 -7.4846 -8.4511 0.0000 32.5877 0.0000
# 6 0.0000 0.0000 0.0000 -5.2224 0.0000 30.4764
#
#
#
# Elastic Compliance Matrix: (Units=1/GPa)
#
#
# Indices 1 2 3 4 5 6 
#
# 1 0.021809 -0.003943 -0.008731 0.000000 0.005492 0.000000
# 2 -0.003943 0.014574 -0.003563 0.000000 0.000857 0.000000
# 3 -0.008731 -0.003563 0.014137 0.000000 -0.000620 0.000000
# 4 0.000000 0.000000 0.000000 0.037561 0.000000 0.006436
# 5 0.005492 0.000857 -0.000620 0.000000 0.032904 0.000000
# 6 0.000000 0.000000 0.000000 0.006436 0.000000 0.033915
#
#
# Mechanical properties :
#
#
# Convention : Reuss Voigt Hill
#
# Bulk Modulus (GPa) = 55.41094 62.10171 58.75632
# Shear Modulus (GPa) = 25.85455 27.95088 26.90271
#
# Velocity S-wave (km/s) = 3.73870 3.88732 3.81373
# Velocity P-wave (km/s) = 6.97096 7.32958 7.15252
#
# Compressibility (1/GPa) = 0.01804698
#
# Stress axis : x y z
#
# Youngs Moduli (GPa) = 45.85213 68.61535 70.73673
#
# Poissons Ratio (x) = 0.27055 0.61758
# Poissons Ratio (y) = 0.18080 0.25203
# Poissons Ratio (z) = 0.40032 0.24447
#
# Static dielectric constant tensor:
#      x y z
#    x 3.281420 0.000000 -0.208250 
#    y 0.000000 3.399500 0.000000 
#    z -0.208250 0.000000 3.619310 
# 
# 
# High freq. dielectric constant tensor:
#      x y z
#    x 1.693060 0.000000 -0.020000 
#    y 0.000000 1.722280 0.000000 
#    z -0.020000 0.000000 1.714150 
# 
# From -- ./inp_files/72071.got.cif
#   From: 2010.06.25/outbox.cif.g09.slc.cpg/sg11_37_cif.got.tgz:72071.got - 2010.06.27 23:14:04.
