data_PCOD8069290
_publ_section_title
;
Structure prediction by ZEFSAII (Michael W. Deem and Ramdas Pophale) SiO2 
 PCOD8069290
Probable space group: P 21/M
;
_chemical_formula_sum "Si O2"
_cell_formula_units_Z 28
_cell_length_a 20.735042
_cell_length_b 8.729431
_cell_length_c 18.220540
_cell_angle_alpha 90.000000
_cell_angle_beta 152.736048
_cell_angle_gamma 90.000000
_cell_volume 1510.787128
_symmetry_space_group_name_H-M "P 21/M"
_symmetry_group_IT_number 11
_symmetry_cell_setting 'monoclinic'
loop_
_space_group_symop_operation_xyz
x,y,z
-x,1/2+y,-z
-x,-y,-z
x,1/2-y,z
loop_
_atom_site_type_symbol
_atom_site_label
_atom_site_fract_x
_atom_site_fract_y
_atom_site_fract_z
Si Si1 0.338397 0.078175 0.259946
Si Si2 0.844255 0.432409 0.344880
Si Si3 0.326898 0.578757 0.393752
Si Si4 0.855095 0.931875 0.503663
Si Si5 0.672139 0.928579 0.456476
Si Si6 0.837384 0.569392 0.190688
Si Si7 0.652999 0.428363 0.880240
O O1 0.283294 0.250000 0.190633
O O2 0.505454 0.075007 0.436004
O O3 0.270130 0.015577 0.266212
O O4 0.291652 0.971252 0.144940
O O5 0.843251 0.250000 0.342176
O O6 0.778362 0.494346 0.354393
O O7 0.767979 0.499136 0.195142
O O8 0.000000 0.500000 0.500000
O O9 0.268796 0.750000 0.327652
O O10 0.268791 0.509099 0.410690
O O11 0.858546 0.750000 0.498170
O O12 0.764391 0.984950 0.481495
O O13 0.012264 0.993351 0.673504
O O14 0.688204 0.750000 0.486590
O O15 0.510659 0.971288 0.277324
O O16 0.856990 0.750000 0.219523
O O17 0.733508 0.532327 0.019678
O O18 0.682399 0.250000 0.924789
#
# Coordination Sequence:
#
# PCOD8069290 Si02
#       7
#     4   4   4   4   4   4   4
#     4   9  16  27  44  68  97 129 165 203 242 286
#     4  10  18  31  51  74  97 126 164 205 244 286
#     4   9  16  26  44  69  97 129 165 203 241 284
#     4  10  19  34  54  76 100 129 164 203 246 292
#     4   9  19  33  51  74 102 132 163 202 248 294
#     4  11  21  34  52  75 100 130 166 203 244 292
#     4  10  19  33  51  74 102 131 164 204 248 292
#
# _framework density 18.533386
#
# number of rings (size 3 to 8) (size 9 to 14) (size 15 to 20)
#    0.000    2.286    0.000    6.000    0.000    5.143 
#    0.000    0.714    0.000    0.857    0.000    0.000 
#    0.000    0.000    0.000    0.000    0.000    0.000 
#
# Total GULP energy -347146.100467 kJ/mol
# GULP energy per Si atom -12398.075017 kJ/mol
# Density = 1.849120 g / cm^3
# Si number density = 18.533386 Si / 1000 Ang^3
#
#
#
# Elastic Constant Matrix: (Units=GPa)
#
#
# Indices 1 2 3 4 5 6 
#
# 1 158.7180 55.5812 38.4379 0.0000 -29.2002 0.0000
# 2 55.5812 105.7455 11.2612 0.0000 -7.0371 0.0000
# 3 38.4379 11.2612 -24.3697 0.0000 15.9867 0.0000
# 4 0.0000 0.0000 0.0000 24.7863 0.0000 -11.6894
# 5 -29.2002 -7.0371 15.9867 0.0000 6.9263 0.0000
# 6 0.0000 0.0000 0.0000 -11.6894 0.0000 32.7468
#
#
#
# Elastic Compliance Matrix: (Units=1/GPa)
#
#
# Indices 1 2 3 4 5 6 
#
# 1 0.005888 -0.003897 0.008421 0.000000 0.001426 0.000000
# 2 -0.003897 0.011593 -0.001527 0.000000 -0.001125 0.000000
# 3 0.008421 -0.001527 -0.002460 0.000000 0.039630 0.000000
# 4 0.000000 0.000000 0.000000 0.048512 0.000000 0.017317
# 5 0.001426 -0.001125 0.039630 0.000000 0.057775 0.000000
# 6 0.000000 0.000000 0.000000 0.017317 0.000000 0.036719
#
#
# Mechanical properties :
#
#
# Convention : Reuss Voigt Hill
#
# Bulk Modulus (GPa) = 47.58354 50.07271 48.82813
# Shear Modulus (GPa) = 31.43945 21.87944 26.65945
#
# Velocity S-wave (km/s) = 4.12317 3.43963 3.79681
# Velocity P-wave (km/s) = 6.95684 6.54606 6.75457
#
# Compressibility (1/GPa) = 0.02101567
#
# Stress axis : x y z
#
# Youngs Moduli (GPa) = 169.84096 86.26198 -406.51947
#
# Poissons Ratio (x) = 0.33614 3.42347
# Poissons Ratio (y) = 0.66182 -0.62082
# Poissons Ratio (z) = -1.43030 0.13174
#
# Static dielectric constant tensor:
#      x y z
#    x 3.811540 0.000000 -0.452810 
#    y 0.000000 3.507440 0.000000 
#    z -0.452810 0.000000 3.136860 
# 
# 
# High freq. dielectric constant tensor:
#      x y z
#    x 1.721930 0.000000 -0.038380 
#    y 0.000000 1.734820 0.000000 
#    z -0.038380 0.000000 1.677350 
# 
# From -- ./inp_files/61287.got.cif
#   From: 2010.06.25/outbox.cif.g09.slc.cpg/sg11_31_cif.got.tgz:61287.got - 2010.06.27 23:14:04.
