data_PCOD8069018
_publ_section_title
;
Structure prediction by ZEFSAII (Michael W. Deem and Ramdas Pophale) SiO2 
 PCOD8069018
Probable space group: P 21/M
;
_chemical_formula_sum "Si O2"
_cell_formula_units_Z 32
_cell_length_a 10.406555
_cell_length_b 9.546112
_cell_length_c 24.650419
_cell_angle_alpha 90.000000
_cell_angle_beta 127.535771
_cell_angle_gamma 90.000000
_cell_volume 1941.852696
_symmetry_space_group_name_H-M "P 21/M"
_symmetry_group_IT_number 11
_symmetry_cell_setting 'monoclinic'
loop_
_space_group_symop_operation_xyz
x,y,z
-x,1/2+y,-z
-x,-y,-z
x,1/2-y,z
loop_
_atom_site_type_symbol
_atom_site_label
_atom_site_fract_x
_atom_site_fract_y
_atom_site_fract_z
Si Si1 0.270985 0.415405 0.342989
Si Si2 0.551834 0.906323 0.934335
Si Si3 0.828116 0.583476 0.562901
Si Si4 0.258800 0.593610 0.943756
Si Si5 0.802389 0.084251 0.356873
Si Si6 0.312094 0.582889 0.785893
Si Si7 0.363439 0.582929 0.576021
Si Si8 0.961541 0.417137 0.204894
O O1 0.260535 0.250000 0.340397
O O2 0.221900 0.467344 0.390118
O O3 0.449651 0.464796 0.372522
O O4 0.142295 0.473008 0.265133
O O5 0.620281 0.750000 0.944117
O O6 0.407467 0.905879 0.940417
O O7 0.478954 0.965493 0.858521
O O8 0.701291 0.000251 0.993385
O O9 0.804756 0.750000 0.548755
O O10 0.713896 0.498397 0.493555
O O11 0.011836 0.535678 0.598692
O O12 0.225179 0.750000 0.956497
O O13 0.101396 0.532934 0.870784
O O14 0.794234 0.250000 0.353693
O O15 0.700585 0.025768 0.279004
O O16 0.722101 0.028132 0.391248
O O17 0.306726 0.750000 0.785647
O O18 0.157063 0.524442 0.778752
O O19 0.345083 0.750000 0.562978
O O20 0.953828 0.250000 0.203313
#
# Coordination Sequence:
#
# PCOD8069018 Si02
#       8
#     4   4   4   4   4   4   4   4
#     4   9  16  27  43  63  83 106 138 172 203 237
#     4   8  13  20  33  54  78 101 125 158 196 231
#     4  10  18  30  48  62  77 110 144 164 195 254
#     4   8  13  20  33  54  78 101 125 158 196 231
#     4   9  16  27  43  63  83 106 138 172 203 237
#     4   8  12  21  38  58  77 102 138 168 189 229
#     4  10  20  30  42  64  89 104 126 176 221 236
#     4   8  12  21  38  58  77 102 138 168 189 229
#
# _framework density 16.479106999999999
#
# number of rings (size 3 to 8) (size 9 to 14) (size 15 to 20)
#    0.000    3.250    1.250    2.250    0.000    0.000 
#    0.000    0.000    0.000    3.000    0.000    0.875 
#    0.000    0.000    0.000    0.000    0.000    0.000 
#
# Total GULP energy -396483.996094 kJ/mol
# GULP energy per Si atom -12390.124878 kJ/mol
# Density = 1.644160 g / cm^3
# Si number density = 16.479107 Si / 1000 Ang^3
#
#
#
# Elastic Constant Matrix: (Units=GPa)
#
#
# Indices 1 2 3 4 5 6 
#
# 1 72.2902 11.3117 36.5053 0.0000 13.9014 0.0000
# 2 11.3117 26.9085 33.7890 0.0000 7.0915 0.0000
# 3 36.5053 33.7890 148.5426 0.0000 31.7802 0.0000
# 4 0.0000 0.0000 0.0000 24.5451 0.0000 1.5602
# 5 13.9014 7.0915 31.7802 0.0000 10.9742 0.0000
# 6 0.0000 0.0000 0.0000 1.5602 0.0000 5.9977
#
#
#
# Elastic Compliance Matrix: (Units=1/GPa)
#
#
# Indices 1 2 3 4 5 6 
#
# 1 0.018554 -0.003098 0.001958 0.000000 -0.027173 0.000000
# 2 -0.003098 0.052552 -0.012530 0.000000 0.006251 0.000000
# 3 0.001958 -0.012530 0.020764 0.000000 -0.054515 0.000000
# 4 0.000000 0.000000 0.000000 0.041426 0.000000 -0.010777
# 5 -0.027173 0.006251 -0.054515 0.000000 0.279372 0.000000
# 6 0.000000 0.000000 0.000000 -0.010777 0.000000 0.169535
#
#
# Mechanical properties :
#
#
# Convention : Reuss Voigt Hill
#
# Bulk Modulus (GPa) = 15.49629 45.66147 30.57888
# Shear Modulus (GPa) = 7.92326 19.37908 13.65117
#
# Velocity S-wave (km/s) = 2.19511 3.43297 2.88130
# Velocity P-wave (km/s) = 3.98104 6.59413 5.44662
#
# Compressibility (1/GPa) = 0.06453157
#
# Stress axis : x y z
#
# Youngs Moduli (GPa) = 53.89599 19.02882 48.15973
#
# Poissons Ratio (x) = 0.05895 -0.09431
# Poissons Ratio (y) = 0.16695 0.60344
# Poissons Ratio (z) = -0.10554 0.23843
#
# Static dielectric constant tensor:
#      x y z
#    x 3.115190 0.000000 0.109130 
#    y 0.000000 2.476510 0.000000 
#    z 0.109130 0.000000 3.619500 
# 
# 
# High freq. dielectric constant tensor:
#      x y z
#    x 1.595870 0.000000 0.009500 
#    y 0.000000 1.578410 0.000000 
#    z 0.009500 0.000000 1.657310 
# 
# From -- ./inp_files/61433.got.cif
#   From: 2010.06.25/outbox.cif.g09.slc.cpg/sg11_31_cif.got.tgz:61433.got - 2010.06.27 23:14:04.
