data_PCOD8069870
_publ_section_title
;
Structure prediction by ZEFSAII (Michael W. Deem and Ramdas Pophale) SiO2 
 PCOD8069870
Probable space group: P 21/M
;
_chemical_formula_sum "Si O2"
_cell_formula_units_Z 24
_cell_length_a 9.134820
_cell_length_b 14.132880
_cell_length_c 9.816169
_cell_angle_alpha 90.000000
_cell_angle_beta 88.343852
_cell_angle_gamma 90.000000
_cell_volume 1266.750947
_symmetry_space_group_name_H-M "P 21/M"
_symmetry_group_IT_number 11
_symmetry_cell_setting 'monoclinic'
loop_
_space_group_symop_operation_xyz
x,y,z
-x,1/2+y,-z
-x,-y,-z
x,1/2-y,z
loop_
_atom_site_type_symbol
_atom_site_label
_atom_site_fract_x
_atom_site_fract_y
_atom_site_fract_z
Si Si1 0.875677 0.750000 0.504060
Si Si2 0.114550 0.250000 0.805539
Si Si3 0.120059 0.048358 0.155138
Si Si4 0.815215 0.957584 0.145852
Si Si5 0.001428 0.250000 0.089047
Si Si6 0.315499 0.075221 0.400156
Si Si7 0.642750 0.429803 0.362219
Si Si8 0.170823 0.750000 0.662714
O O1 0.941421 0.750000 0.348489
O O2 0.774676 0.659046 0.528287
O O3 0.008561 0.750000 0.604808
O O4 0.209321 0.345012 0.830203
O O5 0.983761 0.250000 0.924080
O O6 0.233832 0.031812 0.272479
O O7 0.090284 0.159239 0.137853
O O8 0.190982 0.011232 0.012281
O O9 0.974438 0.989457 0.198383
O O10 0.686611 0.012956 0.225584
O O11 0.844867 0.250000 0.170729
O O12 0.477234 0.108015 0.349522
O O13 0.334416 0.992598 0.506734
O O14 0.745578 0.341537 0.387924
#
# Coordination Sequence:
#
# PCOD8069870 Si02
#       8
#     2   2   4   4   2   4   4   2
#     4  12  21  37  63  86 110 153 189 236 287 339
#     4  10  22  33  57  88 114 141 187 241 294 328
#     4  10  20  36  61  86 115 148 194 238 282 335
#     4  10  20  37  60  86 112 150 193 243 283 327
#     4  10  18  36  58  87 113 140 184 245 282 328
#     4  11  23  39  57  84 122 154 190 227 288 345
#     4  11  24  39  56  84 119 156 188 235 282 346
#     4  12  23  38  62  87 111 144 200 238 283 335
#
# _framework density 18.946107999999999
#
# number of rings (size 3 to 8) (size 9 to 14) (size 15 to 20)
#    0.000    1.333    5.000    0.500    2.333    2.000 
#    0.000    0.000    0.000    0.000    0.000    0.000 
#    0.000    0.000    0.000    0.000    0.000    0.000 
#
# Total GULP energy -297556.693471 kJ/mol
# GULP energy per Si atom -12398.195561 kJ/mol
# Density = 1.890299 g / cm^3
# Si number density = 18.946108 Si / 1000 Ang^3
#
#
#
# Elastic Constant Matrix: (Units=GPa)
#
#
# Indices 1 2 3 4 5 6 
#
# 1 112.4823 39.6165 54.9463 0.0000 -7.7863 0.0000
# 2 39.6165 88.7278 12.7129 0.0000 -10.5281 0.0000
# 3 54.9463 12.7129 113.7982 0.0000 -7.3898 0.0000
# 4 0.0000 0.0000 0.0000 8.7896 0.0000 8.1674
# 5 -7.7863 -10.5281 -7.3898 0.0000 27.6371 0.0000
# 6 0.0000 0.0000 0.0000 8.1674 0.0000 15.9973
#
#
#
# Elastic Compliance Matrix: (Units=1/GPa)
#
#
# Indices 1 2 3 4 5 6 
#
# 1 0.013679 -0.005216 -0.006005 0.000000 0.000261 0.000000
# 2 -0.005216 0.013916 0.001234 0.000000 0.004162 0.000000
# 3 -0.006005 0.001234 0.011672 0.000000 0.001899 0.000000
# 4 0.000000 0.000000 0.000000 0.216466 0.000000 -0.110517
# 5 0.000261 0.004162 0.001899 0.000000 0.038350 0.000000
# 6 0.000000 0.000000 0.000000 -0.110517 0.000000 0.118935
#
#
# Mechanical properties :
#
#
# Convention : Reuss Voigt Hill
#
# Bulk Modulus (GPa) = 51.83054 58.83997 55.33525
# Shear Modulus (GPa) = 11.37854 24.33363 17.85609
#
# Velocity S-wave (km/s) = 2.45332 3.58769 3.07329
# Velocity P-wave (km/s) = 5.95326 6.94881 6.47021
#
# Compressibility (1/GPa) = 0.01929364
#
# Stress axis : x y z
#
# Youngs Moduli (GPa) = 73.10530 71.85761 85.67202
#
# Poissons Ratio (x) = 0.37482 0.51446
# Poissons Ratio (y) = 0.38133 -0.10573
# Poissons Ratio (z) = 0.43900 -0.08868
#
# Static dielectric constant tensor:
#      x y z
#    x 3.384040 0.000000 -0.270380 
#    y 0.000000 3.593560 0.000000 
#    z -0.270380 0.000000 3.768330 
# 
# 
# High freq. dielectric constant tensor:
#      x y z
#    x 1.705590 0.000000 -0.020740 
#    y 0.000000 1.749410 0.000000 
#    z -0.020740 0.000000 1.751660 
# 
# From -- ./inp_files/12582.got.cif
#   From: 2010.06.25/outbox.cif.g09.slc.cpg/sg11_7_cif.got.tgz:12582.got - 2010.06.27 23:14:04.
