data_PCOD8069537
_publ_section_title
;
Structure prediction by ZEFSAII (Michael W. Deem and Ramdas Pophale) SiO2 
 PCOD8069537
Probable space group: P 21/M
;
_chemical_formula_sum "Si O2"
_cell_formula_units_Z 28
_cell_length_a 11.819697
_cell_length_b 8.747678
_cell_length_c 19.900464
_cell_angle_alpha 90.000000
_cell_angle_beta 138.582140
_cell_angle_gamma 90.000000
_cell_volume 1361.200674
_symmetry_space_group_name_H-M "P 21/M"
_symmetry_group_IT_number 11
_symmetry_cell_setting 'monoclinic'
loop_
_space_group_symop_operation_xyz
x,y,z
-x,1/2+y,-z
-x,-y,-z
x,1/2-y,z
loop_
_atom_site_type_symbol
_atom_site_label
_atom_site_fract_x
_atom_site_fract_y
_atom_site_fract_z
Si Si1 0.489752 0.069874 0.295346
Si Si2 0.943555 0.925125 0.155504
Si Si3 0.303862 0.569206 0.737313
Si Si4 0.598191 0.931060 0.481005
Si Si5 0.859057 0.071584 0.888960
Si Si6 0.021352 0.430382 0.330589
Si Si7 0.433757 0.070792 0.038095
O O1 0.480340 0.250000 0.304634
O O2 0.652092 0.026223 0.320127
O O3 0.505746 0.981082 0.371939
O O4 0.319143 0.016643 0.180524
O O5 0.939572 0.750000 0.178226
O O6 0.089903 0.952682 0.166032
O O7 0.976109 0.029110 0.234281
O O8 0.765002 0.971132 0.040521
O O9 0.300736 0.750000 0.743900
O O10 0.120726 0.502073 0.680634
O O11 0.455380 0.501681 0.851450
O O12 0.592275 0.750000 0.484471
O O13 0.792379 0.995478 0.566983
O O14 0.500000 0.000000 0.500000
O O15 0.838719 0.250000 0.897036
O O16 0.000000 0.000000 0.000000
O O17 0.024525 0.250000 0.337758
O O18 0.461568 0.250000 0.046269
O O19 0.500000 0.000000 0.000000
#
# Coordination Sequence:
#
# PCOD8069537 Si02
#       7
#     4   4   4   4   4   4   4
#     4  11  23  41  64  88 120 161 197 241 304 361
#     4  10  21  35  55  85 119 153 192 243 298 351
#     4   9  19  37  59  84 119 158 195 239 298 359
#     4  11  24  42  64  90 118 152 201 253 303 359
#     4  11  23  40  61  87 121 159 201 247 295 353
#     4  10  21  38  61  86 113 152 200 246 293 355
#     4  10  18  32  54  81 115 153 190 230 282 344
#
# _framework density 20.570077000000001
#
# number of rings (size 3 to 8) (size 9 to 14) (size 15 to 20)
#    0.000    1.714    1.429    3.000    0.000    7.429 
#    0.000    4.286    0.000    0.000    0.000    0.000 
#    0.000    0.000    0.000    0.000    0.000    0.000 
#
# Total GULP energy -347201.877205 kJ/mol
# GULP energy per Si atom -12400.067043 kJ/mol
# Density = 2.052326 g / cm^3
# Si number density = 20.570077 Si / 1000 Ang^3
#
#
#
# Elastic Constant Matrix: (Units=GPa)
#
#
# Indices 1 2 3 4 5 6 
#
# 1 127.0582 30.2871 53.0514 0.0000 7.4630 0.0000
# 2 30.2871 45.7494 25.1680 0.0000 5.1264 0.0000
# 3 53.0514 25.1680 120.8028 0.0000 10.0670 0.0000
# 4 0.0000 0.0000 0.0000 31.9006 0.0000 -2.9100
# 5 7.4630 5.1264 10.0670 0.0000 39.3777 0.0000
# 6 0.0000 0.0000 0.0000 -2.9100 0.0000 28.9367
#
#
#
# Elastic Compliance Matrix: (Units=1/GPa)
#
#
# Indices 1 2 3 4 5 6 
#
# 1 0.010575 -0.004989 -0.003568 0.000000 -0.000443 0.000000
# 2 -0.004989 0.027187 -0.003328 0.000000 -0.001743 0.000000
# 3 -0.003568 -0.003328 0.010673 0.000000 -0.001619 0.000000
# 4 0.000000 0.000000 0.000000 0.031638 0.000000 0.003182
# 5 -0.000443 -0.001743 -0.001619 0.000000 0.026120 0.000000
# 6 0.000000 0.000000 0.000000 0.003182 0.000000 0.034878
#
#
# Mechanical properties :
#
#
# Convention : Reuss Voigt Hill
#
# Bulk Modulus (GPa) = 40.54161 56.73595 48.63878
# Shear Modulus (GPa) = 28.89129 32.38325 30.63727
#
# Velocity S-wave (km/s) = 3.75177 3.97204 3.86347
# Velocity P-wave (km/s) = 6.20641 6.97694 6.60293
#
# Compressibility (1/GPa) = 0.02466601
#
# Stress axis : x y z
#
# Youngs Moduli (GPa) = 94.55956 36.78233 93.69282
#
# Poissons Ratio (x) = 0.18349 0.33430
# Poissons Ratio (y) = 0.47172 0.31182
# Poissons Ratio (z) = 0.33739 0.12241
#
# Static dielectric constant tensor:
#      x y z
#    x 4.043670 0.000000 0.289680 
#    y 0.000000 3.509280 0.000000 
#    z 0.289680 0.000000 3.901140 
# 
# 
# High freq. dielectric constant tensor:
#      x y z
#    x 1.820450 0.000000 0.007930 
#    y 0.000000 1.784710 0.000000 
#    z 0.007930 0.000000 1.807610 
# 
# From -- ./inp_files/64477.got.cif
#   From: 2010.06.25/outbox.cif.g09.slc.cpg/sg11_33_cif.got.tgz:64477.got - 2010.06.27 23:14:04.
