data_PCOD8069664
_publ_section_title
;
Structure prediction by ZEFSAII (Michael W. Deem and Ramdas Pophale) SiO2 
 PCOD8069664
Probable space group: P 21/M
;
_chemical_formula_sum "Si O2"
_cell_formula_units_Z 32
_cell_length_a 13.835235
_cell_length_b 16.812595
_cell_length_c 13.793989
_cell_angle_alpha 90.000000
_cell_angle_beta 147.327587
_cell_angle_gamma 90.000000
_cell_volume 1732.097253
_symmetry_space_group_name_H-M "P 21/M"
_symmetry_group_IT_number 11
_symmetry_cell_setting 'monoclinic'
loop_
_space_group_symop_operation_xyz
x,y,z
-x,1/2+y,-z
-x,-y,-z
x,1/2-y,z
loop_
_atom_site_type_symbol
_atom_site_label
_atom_site_fract_x
_atom_site_fract_y
_atom_site_fract_z
Si Si1 0.740133 0.006928 0.538860
Si Si2 0.993873 0.441391 0.584538
Si Si3 0.646946 0.009383 0.836379
Si Si4 0.123015 0.162192 0.349783
Si Si5 0.664243 0.020263 0.071594
Si Si6 0.154771 0.839151 0.055765
Si Si7 0.890026 0.161982 0.337197
Si Si8 0.001247 0.066091 0.920398
O O1 0.530039 0.028965 0.361727
O O2 0.743268 0.910898 0.554646
O O3 0.830931 0.035424 0.516387
O O4 0.839862 0.052409 0.709312
O O5 0.959739 0.355645 0.506124
O O6 0.000000 0.500000 0.500000
O O7 0.184527 0.450439 0.799368
O O8 0.600295 0.030510 0.907683
O O9 0.694948 0.091971 0.821528
O O10 0.803819 0.942158 0.965211
O O11 0.211804 0.250000 0.408006
O O12 0.958985 0.150452 0.137871
O O13 0.054864 0.155500 0.402099
O O14 0.735322 0.103569 0.171775
O O15 0.500000 0.000000 0.000000
O O16 0.237184 0.750000 0.129892
O O17 0.033262 0.851312 0.050874
O O18 0.807681 0.250000 0.267711
O O19 0.000000 0.000000 0.000000
#
# Coordination Sequence:
#
# PCOD8069664 Si02
#       8
#     4   4   4   4   4   4   4   4
#     4  12  20  36  59  86 116 152 188 243 282 346
#     4  10  18  34  55  80 114 150 198 234 280 342
#     4  11  21  34  61  86 113 148 196 235 287 343
#     4  10  18  33  55  82 116 145 178 235 299 338
#     4  11  20  34  57  87 117 156 196 242 286 346
#     4  10  20  38  60  82 115 151 184 238 297 344
#     4  10  19  34  55  80 114 153 188 240 294 340
#     4  10  20  38  57  82 112 148 192 235 288 338
#
# _framework density 18.474713000000001
#
# number of rings (size 3 to 8) (size 9 to 14) (size 15 to 20)
#    0.000    1.500    7.500    1.500    0.000    2.500 
#    0.000    1.250    0.000    3.000    0.000    0.000 
#    0.000    0.000    0.000    0.000    0.000    0.000 
#
# Total GULP energy -396538.349783 kJ/mol
# GULP energy per Si atom -12391.823431 kJ/mol
# Density = 1.843266 g / cm^3
# Si number density = 18.474713 Si / 1000 Ang^3
#
#
#
# Elastic Constant Matrix: (Units=GPa)
#
#
# Indices 1 2 3 4 5 6 
#
# 1 90.2838 27.9150 34.9100 0.0000 0.6046 0.0000
# 2 27.9150 57.5279 23.5632 0.0000 -2.4703 0.0000
# 3 34.9100 23.5632 108.0554 0.0000 7.9427 0.0000
# 4 0.0000 0.0000 0.0000 11.9863 0.0000 0.3559
# 5 0.6046 -2.4703 7.9427 0.0000 32.0115 0.0000
# 6 0.0000 0.0000 0.0000 0.3559 0.0000 24.0198
#
#
#
# Elastic Compliance Matrix: (Units=1/GPa)
#
#
# Indices 1 2 3 4 5 6 
#
# 1 0.014058 -0.005436 -0.003367 0.000000 0.000151 0.000000
# 2 -0.005436 0.021397 -0.003095 0.000000 0.002522 0.000000
# 3 -0.003367 -0.003095 0.011235 0.000000 -0.002963 0.000000
# 4 0.000000 0.000000 0.000000 0.083465 0.000000 -0.001237
# 5 0.000151 0.002522 -0.002963 0.000000 0.032166 0.000000
# 6 0.000000 0.000000 0.000000 -0.001237 0.000000 0.041651
#
#
# Mechanical properties :
#
#
# Convention : Reuss Voigt Hill
#
# Bulk Modulus (GPa) = 43.68133 47.62706 45.65420
# Shear Modulus (GPa) = 21.24052 24.90210 23.07131
#
# Velocity S-wave (km/s) = 3.39441 3.67536 3.53768
# Velocity P-wave (km/s) = 6.24963 6.62168 6.43834
#
# Compressibility (1/GPa) = 0.02289307
#
# Stress axis : x y z
#
# Youngs Moduli (GPa) = 71.13393 46.73649 89.00607
#
# Poissons Ratio (x) = 0.25405 0.29973
# Poissons Ratio (y) = 0.38667 0.27548
# Poissons Ratio (z) = 0.23954 0.14465
#
# Static dielectric constant tensor:
#      x y z
#    x 3.203270 0.000000 0.436200 
#    y 0.000000 4.185300 0.000000 
#    z 0.436200 0.000000 2.707890 
# 
# 
# High freq. dielectric constant tensor:
#      x y z
#    x 1.720410 0.000000 -0.015670 
#    y 0.000000 1.690940 0.000000 
#    z -0.015670 0.000000 1.706260 
# 
# From -- ./inp_files/52596.got.cif
#   From: 2010.06.25/outbox.cif.g09.slc.cpg/sg11_27_cif.got.tgz:52596.got - 2010.06.27 23:14:04.
