data_PCOD8069092
_publ_section_title
;
Structure prediction by ZEFSAII (Michael W. Deem and Ramdas Pophale) SiO2 
 PCOD8069092
Probable space group: P 21/M
;
_chemical_formula_sum "Si O2"
_cell_formula_units_Z 28
_cell_length_a 30.783773
_cell_length_b 9.122879
_cell_length_c 9.505968
_cell_angle_alpha 90.000000
_cell_angle_beta 35.247592
_cell_angle_gamma 90.000000
_cell_volume 1540.669069
_symmetry_space_group_name_H-M "P 21/M"
_symmetry_group_IT_number 11
_symmetry_cell_setting 'monoclinic'
loop_
_space_group_symop_operation_xyz
x,y,z
-x,1/2+y,-z
-x,-y,-z
x,1/2-y,z
loop_
_atom_site_type_symbol
_atom_site_label
_atom_site_fract_x
_atom_site_fract_y
_atom_site_fract_z
Si Si1 0.202431 0.583899 0.171676
Si Si2 0.591429 0.080742 0.135883
Si Si3 0.078396 0.580281 0.278386
Si Si4 0.685942 0.919729 0.314641
Si Si5 0.448415 0.920140 0.440003
Si Si6 0.760871 0.418560 0.615529
Si Si7 0.192607 0.420829 0.779159
O O1 0.232375 0.750000 0.066630
O O2 0.122086 0.560158 0.310313
O O3 0.193112 0.555514 0.362085
O O4 0.263524 0.473520 0.948646
O O5 0.573569 0.250000 0.155367
O O6 0.584871 0.045088 0.318216
O O7 0.531920 0.986155 0.204377
O O8 0.674177 0.036783 0.866597
O O9 0.065153 0.750000 0.277658
O O10 0.000000 0.500000 0.500000
O O11 0.124848 0.508982 0.028883
O O12 0.669031 0.750000 0.336486
O O13 0.729445 0.950970 0.344939
O O14 0.606784 0.005188 0.527787
O O15 0.453013 0.750000 0.393500
O O16 0.767024 0.250000 0.549886
O O17 0.798282 0.524126 0.403197
O O18 0.171679 0.250000 0.835794
#
# Coordination Sequence:
#
# PCOD8069092 Si02
#       7
#     4   4   4   4   4   4   4
#     4   9  18  34  56  81 106 137 177 217 260 312
#     4   9  18  31  48  73 105 137 173 223 272 316
#     4  10  20  37  62  86 111 140 172 213 259 311
#     4  10  19  32  51  75 104 138 179 225 265 310
#     4  10  18  30  49  74 103 136 180 227 269 315
#     4  10  19  35  55  78 108 140 176 218 268 318
#     4  10  22  37  54  80 111 141 177 217 261 315
#
# _framework density 18.173922000000001
#
# number of rings (size 3 to 8) (size 9 to 14) (size 15 to 20)
#    0.000    2.286    1.429    1.714    0.000    4.000 
#    0.000    1.429    0.000    0.000    0.000    0.000 
#    0.000    0.000    0.000    0.000    0.000    0.000 
#
# Total GULP energy -347276.063068 kJ/mol
# GULP energy per Si atom -12402.716538 kJ/mol
# Density = 1.813256 g / cm^3
# Si number density = 18.173922 Si / 1000 Ang^3
#
#
#
# Elastic Constant Matrix: (Units=GPa)
#
#
# Indices 1 2 3 4 5 6 
#
# 1 91.5522 52.8923 52.7977 0.0000 -5.0850 0.0000
# 2 52.8923 100.3707 50.7311 0.0000 -6.5545 0.0000
# 3 52.7977 50.7311 90.3681 0.0000 -3.4833 0.0000
# 4 0.0000 0.0000 0.0000 33.2406 0.0000 -3.1360
# 5 -5.0850 -6.5545 -3.4833 0.0000 28.1414 0.0000
# 6 0.0000 0.0000 0.0000 -3.1360 0.0000 29.3122
#
#
#
# Elastic Compliance Matrix: (Units=1/GPa)
#
#
# Indices 1 2 3 4 5 6 
#
# 1 0.018834 -0.006024 -0.007581 0.000000 0.001062 0.000000
# 2 -0.006024 0.015984 -0.005378 0.000000 0.001969 0.000000
# 3 -0.007581 -0.005378 0.018501 0.000000 -0.000332 0.000000
# 4 0.000000 0.000000 0.000000 0.030390 0.000000 0.003251
# 5 0.001062 0.001969 -0.000332 0.000000 0.036144 0.000000
# 6 0.000000 0.000000 0.000000 0.003251 0.000000 0.034463
#
#
# Mechanical properties :
#
#
# Convention : Reuss Voigt Hill
#
# Bulk Modulus (GPa) = 65.13072 66.12590 65.62831
# Shear Modulus (GPa) = 25.32919 26.53018 25.92968
#
# Velocity S-wave (km/s) = 3.73729 3.82487 3.78134
# Velocity P-wave (km/s) = 7.38501 7.48132 7.43332
#
# Compressibility (1/GPa) = 0.01535374
#
# Stress axis : x y z
#
# Youngs Moduli (GPa) = 53.09615 62.56184 54.04994
#
# Poissons Ratio (x) = 0.37685 0.40976
# Poissons Ratio (y) = 0.31984 0.29068
# Poissons Ratio (z) = 0.40253 0.33646
#
# Static dielectric constant tensor:
#      x y z
#    x 3.439300 0.000000 -0.091860 
#    y 0.000000 3.423570 0.000000 
#    z -0.091860 0.000000 3.088470 
# 
# 
# High freq. dielectric constant tensor:
#      x y z
#    x 1.704110 0.000000 -0.009180 
#    y 0.000000 1.713250 0.000000 
#    z -0.009180 0.000000 1.677760 
# 
# From -- ./inp_files/28294.got.cif
#   From: 2010.06.25/outbox.cif.g09.slc.cpg/sg11_15_cif.got.tgz:28294.got - 2010.06.27 23:14:04.
