data_PCOD8069040
_publ_section_title
;
Structure prediction by ZEFSAII (Michael W. Deem and Ramdas Pophale) SiO2 
 PCOD8069040
Probable space group: P 21/M
;
_chemical_formula_sum "Si O2"
_cell_formula_units_Z 32
_cell_length_a 11.799697
_cell_length_b 8.974086
_cell_length_c 21.375193
_cell_angle_alpha 90.000000
_cell_angle_beta 52.309469
_cell_angle_gamma 90.000000
_cell_volume 1791.124550
_symmetry_space_group_name_H-M "P 21/M"
_symmetry_group_IT_number 11
_symmetry_cell_setting 'monoclinic'
loop_
_space_group_symop_operation_xyz
x,y,z
-x,1/2+y,-z
-x,-y,-z
x,1/2-y,z
loop_
_atom_site_type_symbol
_atom_site_label
_atom_site_fract_x
_atom_site_fract_y
_atom_site_fract_z
Si Si1 0.059655 0.917385 0.661913
Si Si2 0.651293 0.925612 0.209459
Si Si3 0.348662 0.924385 0.266078
Si Si4 0.846600 0.923013 0.252741
Si Si5 0.838391 0.076926 0.906023
Si Si6 0.741266 0.582252 0.821857
Si Si7 0.041285 0.574726 0.421673
Si Si8 0.851874 0.572654 0.030616
O O1 0.111572 0.750000 0.629817
O O2 0.901513 0.919191 0.742529
O O3 0.164507 0.989521 0.678011
O O4 0.063230 0.012140 0.596937
O O5 0.669482 0.750000 0.206307
O O6 0.484834 0.972884 0.262027
O O7 0.722977 0.988665 0.248855
O O8 0.733728 0.982519 0.120199
O O9 0.351494 0.750000 0.249445
O O10 0.205996 0.967624 0.351942
O O11 0.360060 0.009504 0.196287
O O12 0.825514 0.750000 0.275565
O O13 0.996594 0.949778 0.167290
O O14 0.805367 0.250000 0.927629
O O15 0.733820 0.014857 0.887356
O O16 0.801241 0.986000 0.980652
O O17 0.689285 0.750000 0.853262
O O18 0.018360 0.750000 0.433931
O O19 0.000000 0.500000 0.500000
O O20 0.868980 0.750000 0.023354
O O21 0.000000 0.500000 0.000000
#
# Coordination Sequence:
#
# PCOD8069040 Si02
#       8
#     4   4   4   4   4   4   4   4
#     4   9  17  29  47  74 103 128 159 202 242 285
#     4   9  18  33  51  71  98 133 169 206 248 295
#     4   9  18  34  54  74  98 131 168 200 240 298
#     4   9  16  29  48  70  97 130 165 203 247 290
#     4  10  18  30  48  71  96 127 169 213 255 296
#     4   9  17  30  48  71  98 128 162 207 256 295
#     4  10  19  32  54  81 104 129 158 196 242 291
#     4  11  20  32  48  70  99 131 168 212 256 295
#
# _framework density 17.865870999999999
#
# number of rings (size 3 to 8) (size 9 to 14) (size 15 to 20)
#    0.000    2.500    1.250    1.875    0.000    4.000 
#    0.000    2.500    0.000    0.750    0.000    0.000 
#    0.000    0.000    0.000    0.000    0.000    0.000 
#
# Total GULP energy -396776.628266 kJ/mol
# GULP energy per Si atom -12399.269633 kJ/mol
# Density = 1.782521 g / cm^3
# Si number density = 17.865871 Si / 1000 Ang^3
#
#
#
# Elastic Constant Matrix: (Units=GPa)
#
#
# Indices 1 2 3 4 5 6 
#
# 1 141.7201 53.5859 60.0711 0.0000 27.1842 0.0000
# 2 53.5859 91.8247 44.4216 0.0000 16.3458 0.0000
# 3 60.0711 44.4216 80.4400 0.0000 25.9738 0.0000
# 4 0.0000 0.0000 0.0000 24.7996 0.0000 12.3597
# 5 27.1842 16.3458 25.9738 0.0000 30.5162 0.0000
# 6 0.0000 0.0000 0.0000 12.3597 0.0000 27.6639
#
#
#
# Elastic Compliance Matrix: (Units=1/GPa)
#
#
# Indices 1 2 3 4 5 6 
#
# 1 0.011321 -0.003324 -0.005429 0.000000 -0.003683 0.000000
# 2 -0.003324 0.015877 -0.006199 0.000000 -0.000267 0.000000
# 3 -0.005429 -0.006199 0.023823 0.000000 -0.012120 0.000000
# 4 0.000000 0.000000 0.000000 0.051874 0.000000 -0.023176
# 5 -0.003683 -0.000267 -0.012120 0.000000 0.046509 0.000000
# 6 0.000000 0.000000 0.000000 -0.023176 0.000000 0.046503
#
#
# Mechanical properties :
#
#
# Convention : Reuss Voigt Hill
#
# Bulk Modulus (GPa) = 47.35895 70.01579 58.68737
# Shear Modulus (GPa) = 21.47313 26.98969 24.23141
#
# Velocity S-wave (km/s) = 3.47062 3.89097 3.68679
# Velocity P-wave (km/s) = 6.52885 7.71109 7.14447
#
# Compressibility (1/GPa) = 0.02111533
#
# Stress axis : x y z
#
# Youngs Moduli (GPa) = 88.33224 62.98578 41.97687
#
# Poissons Ratio (x) = 0.20939 0.22790
# Poissons Ratio (y) = 0.29366 0.26021
# Poissons Ratio (z) = 0.47956 0.39044
#
# Static dielectric constant tensor:
#      x y z
#    x 3.503390 0.000000 0.252310 
#    y 0.000000 3.343340 0.000000 
#    z 0.252310 0.000000 3.101540 
# 
# 
# High freq. dielectric constant tensor:
#      x y z
#    x 1.692730 0.000000 0.026820 
#    y 0.000000 1.690330 0.000000 
#    z 0.026820 0.000000 1.657610 
# 
# From -- ./inp_files/42553.got.cif
#   From: 2010.06.25/outbox.cif.g09.slc.cpg/sg11_22_cif.got.tgz:42553.got - 2010.06.27 23:14:04.
