data_PCOD8069958
_publ_section_title
;
Structure prediction by ZEFSAII (Michael W. Deem and Ramdas Pophale) SiO2 
 PCOD8069958
Probable space group: P 21/M
;
_chemical_formula_sum "Si O2"
_cell_formula_units_Z 28
_cell_length_a 15.182374
_cell_length_b 9.152484
_cell_length_c 12.709796
_cell_angle_alpha 90.000000
_cell_angle_beta 87.280281
_cell_angle_gamma 90.000000
_cell_volume 1764.118606
_symmetry_space_group_name_H-M "P 21/M"
_symmetry_group_IT_number 11
_symmetry_cell_setting 'monoclinic'
loop_
_space_group_symop_operation_xyz
x,y,z
-x,1/2+y,-z
-x,-y,-z
x,1/2-y,z
loop_
_atom_site_type_symbol
_atom_site_label
_atom_site_fract_x
_atom_site_fract_y
_atom_site_fract_z
Si Si1 0.602287 0.080348 0.712269
Si Si2 0.592148 0.079422 0.482437
Si Si3 0.070285 0.911483 0.130174
Si Si4 0.265050 0.079228 0.903907
Si Si5 0.264848 0.575691 0.121950
Si Si6 0.403495 0.419991 0.716911
Si Si7 0.093237 0.587368 0.880418
O O1 0.597704 0.250000 0.738368
O O2 0.641256 0.054502 0.591965
O O3 0.668588 0.011274 0.794042
O O4 0.502734 0.018162 0.730614
O O5 0.578452 0.250000 0.461047
O O6 0.500000 0.000000 0.500000
O O7 0.640958 0.005599 0.379777
O O8 0.049415 0.750000 0.175591
O O9 0.165783 0.966440 0.165367
O O10 0.074738 0.905785 0.004499
O O11 0.992343 0.018575 0.172729
O O12 0.247822 0.250000 0.924264
O O13 0.347548 0.050412 0.823784
O O14 0.178721 0.011390 0.853589
O O15 0.288915 0.001672 0.011537
O O16 0.270768 0.750000 0.104407
O O17 0.406031 0.250000 0.686447
O O18 0.108806 0.750000 0.834214
#
# Coordination Sequence:
#
# PCOD8069958 Si02
#       7
#     4   4   4   4   4   4   4
#     4   8  15  29  46  63  85 113 143 175 211 250
#     4   9  16  28  47  66  84 108 142 183 219 250
#     4   8  14  24  39  59  81 107 138 172 209 248
#     4  10  19  29  41  61  90 118 144 176 212 250
#     4   9  17  29  44  62  87 117 145 171 205 256
#     4   9  18  31  45  62  87 117 146 178 214 249
#     4   9  16  26  41  59  80 109 142 175 211 252
#
# _framework density 15.871949000000001
#
# number of rings (size 3 to 8) (size 9 to 14) (size 15 to 20)
#    0.000    3.143    0.000    3.000    0.000    5.143 
#    0.000    3.571    0.000    0.000    0.000    1.000 
#    0.000    0.000    0.000    0.000    0.000    0.000 
#
# Total GULP energy -346956.530409 kJ/mol
# GULP energy per Si atom -12391.304657 kJ/mol
# Density = 1.583582 g / cm^3
# Si number density = 15.871949 Si / 1000 Ang^3
#
#
#
# Elastic Constant Matrix: (Units=GPa)
#
#
# Indices 1 2 3 4 5 6 
#
# 1 99.6318 41.3096 55.2993 0.0000 14.1245 0.0000
# 2 41.3096 75.0795 44.0777 0.0000 6.0127 0.0000
# 3 55.2993 44.0777 81.3955 0.0000 11.4136 0.0000
# 4 0.0000 0.0000 0.0000 21.0351 0.0000 -2.5026
# 5 14.1245 6.0127 11.4136 0.0000 5.0135 0.0000
# 6 0.0000 0.0000 0.0000 -2.5026 0.0000 20.9218
#
#
#
# Elastic Compliance Matrix: (Units=1/GPa)
#
#
# Indices 1 2 3 4 5 6 
#
# 1 0.021049 -0.004800 -0.006159 0.000000 -0.039523 0.000000
# 2 -0.004800 0.020625 -0.009307 0.000000 0.009975 0.000000
# 3 -0.006159 -0.009307 0.025723 0.000000 -0.030048 0.000000
# 4 0.000000 0.000000 0.000000 0.048226 0.000000 0.005769
# 5 -0.039523 0.009975 -0.030048 0.000000 0.367254 0.000000
# 6 0.000000 0.000000 0.000000 0.005769 0.000000 0.048487
#
#
# Mechanical properties :
#
#
# Convention : Reuss Voigt Hill
#
# Bulk Modulus (GPa) = 37.22225 59.72000 48.47112
# Shear Modulus (GPa) = 8.60807 17.08874 12.84841
#
# Velocity S-wave (km/s) = 2.33136 3.28481 2.84827
# Velocity P-wave (km/s) = 5.54522 7.21765 6.43599
#
# Compressibility (1/GPa) = 0.02686565
#
# Stress axis : x y z
#
# Youngs Moduli (GPa) = 47.50906 48.48417 38.87565
#
# Poissons Ratio (x) = 0.23274 0.23942
# Poissons Ratio (y) = 0.22806 0.36180
# Poissons Ratio (z) = 0.29259 0.45122
#
# Static dielectric constant tensor:
#      x y z
#    x 3.215430 0.000000 0.123390 
#    y 0.000000 3.148270 0.000000 
#    z 0.123390 0.000000 3.064020 
# 
# 
# High freq. dielectric constant tensor:
#      x y z
#    x 1.597870 0.000000 0.005420 
#    y 0.000000 1.608270 0.000000 
#    z 0.005420 0.000000 1.575890 
# 
# From -- ./inp_files/37687.got.cif
#   From: 2010.06.25/outbox.cif.g09.slc.cpg/sg11_19_cif.got.tgz:37687.got - 2010.06.27 23:14:04.
