data_PCOD8069593
_publ_section_title
;
Structure prediction by ZEFSAII (Michael W. Deem and Ramdas Pophale) SiO2 
 PCOD8069593
Probable space group: P 21/M
;
_chemical_formula_sum "Si O2"
_cell_formula_units_Z 32
_cell_length_a 11.514234
_cell_length_b 14.199059
_cell_length_c 15.114048
_cell_angle_alpha 90.000000
_cell_angle_beta 41.620776
_cell_angle_gamma 90.000000
_cell_volume 1641.241675
_symmetry_space_group_name_H-M "P 21/M"
_symmetry_group_IT_number 11
_symmetry_cell_setting 'monoclinic'
loop_
_space_group_symop_operation_xyz
x,y,z
-x,1/2+y,-z
-x,-y,-z
x,1/2-y,z
loop_
_atom_site_type_symbol
_atom_site_label
_atom_site_fract_x
_atom_site_fract_y
_atom_site_fract_z
Si Si1 0.206082 0.647846 0.132993
Si Si2 0.675474 0.858273 0.711754
Si Si3 0.402488 0.970003 0.764664
Si Si4 0.184952 0.861808 0.744719
Si Si5 0.580442 0.601337 0.952778
Si Si6 0.818370 0.958260 0.963108
Si Si7 0.352142 0.517989 0.514057
Si Si8 0.880181 0.857826 0.427300
O O1 0.148673 0.750000 0.124598
O O2 0.173378 0.563585 0.082746
O O3 0.085477 0.627686 0.288687
O O4 0.407229 0.665371 0.048860
O O5 0.630573 0.750000 0.729251
O O6 0.497965 0.910868 0.786349
O O7 0.710298 0.883805 0.794656
O O8 0.839409 0.883952 0.553894
O O9 0.323366 0.897537 0.738384
O O10 0.547488 0.037864 0.635546
O O11 0.259064 0.034765 0.893835
O O12 0.168604 0.750000 0.757659
O O13 0.239553 0.893427 0.613745
O O14 0.004407 0.911863 0.870369
O O15 0.700512 0.613121 0.971129
O O16 0.500000 0.500000 0.000000
O O17 0.500000 0.500000 0.500000
O O18 0.231606 0.425068 0.573332
O O19 0.821437 0.750000 0.442572
#
# Coordination Sequence:
#
# PCOD8069593 Si02
#       8
#     4   4   4   4   4   4   4   4
#     4  10  19  34  58  85 116 151 194 241 290 340
#     4  10  18  32  57  86 113 144 192 242 285 341
#     4  10  20  37  61  84 114 146 201 241 292 334
#     4  11  23  39  59  84 118 160 196 237 290 350
#     4  10  20  34  53  83 113 150 189 232 296 345
#     4  11  22  39  58  86 123 153 194 237 295 352
#     4   9  19  35  56  82 113 153 191 241 290 340
#     4   9  18  33  56  87 116 146 193 250 292 333
#
# _framework density 19.497432
#
# number of rings (size 3 to 8) (size 9 to 14) (size 15 to 20)
#    0.000    2.000    3.750    1.125    0.000    4.500 
#    0.000    4.375    0.000    1.500    0.000    0.000 
#    0.000    0.000    0.000    0.000    0.000    0.000 
#
# Total GULP energy -396431.105974 kJ/mol
# GULP energy per Si atom -12388.472062 kJ/mol
# Density = 1.945306 g / cm^3
# Si number density = 19.497432 Si / 1000 Ang^3
#
#
#
# Elastic Constant Matrix: (Units=GPa)
#
#
# Indices 1 2 3 4 5 6 
#
# 1 44.6996 21.8543 24.4632 0.0000 6.8014 0.0000
# 2 21.8543 81.1339 49.7410 0.0000 10.6404 0.0000
# 3 24.4632 49.7410 146.1698 0.0000 15.3038 0.0000
# 4 0.0000 0.0000 0.0000 20.4862 0.0000 2.8159
# 5 6.8014 10.6404 15.3038 0.0000 20.6435 0.0000
# 6 0.0000 0.0000 0.0000 2.8159 0.0000 21.9366
#
#
#
# Elastic Compliance Matrix: (Units=1/GPa)
#
#
# Indices 1 2 3 4 5 6 
#
# 1 0.026854 -0.005280 -0.002229 0.000000 -0.004473 0.000000
# 2 -0.005280 0.016998 -0.004516 0.000000 -0.003674 0.000000
# 3 -0.002229 -0.004516 0.009140 0.000000 -0.003714 0.000000
# 4 0.000000 0.000000 0.000000 0.049690 0.000000 -0.006378
# 5 -0.004473 -0.003674 -0.003714 0.000000 0.054562 0.000000
# 6 0.000000 0.000000 0.000000 -0.006378 0.000000 0.046405
#
#
# Mechanical properties :
#
#
# Convention : Reuss Voigt Hill
#
# Bulk Modulus (GPa) = 34.55265 51.56890 43.06078
# Shear Modulus (GPa) = 21.06630 24.34292 22.70461
#
# Velocity S-wave (km/s) = 3.29061 3.53727 3.41617
# Velocity P-wave (km/s) = 5.67429 6.57188 6.13951
#
# Compressibility (1/GPa) = 0.02894134
#
# Stress axis : x y z
#
# Youngs Moduli (GPa) = 37.23884 58.83042 109.40871
#
# Poissons Ratio (x) = 0.31063 0.24389
# Poissons Ratio (y) = 0.19662 0.49409
# Poissons Ratio (z) = 0.08301 0.26568
#
# Static dielectric constant tensor:
#      x y z
#    x 3.933790 0.000000 -0.024160 
#    y 0.000000 3.978660 0.000000 
#    z -0.024160 0.000000 4.106950 
# 
# 
# High freq. dielectric constant tensor:
#      x y z
#    x 1.730840 0.000000 -0.004280 
#    y 0.000000 1.745110 0.000000 
#    z -0.004280 0.000000 1.785120 
# 
# From -- ./inp_files/50385.got.cif
#   From: 2010.06.25/outbox.cif.g09.slc.cpg/sg11_26_cif.got.tgz:50385.got - 2010.06.27 23:14:04.
