data_PCOD8069021
_publ_section_title
;
Structure prediction by ZEFSAII (Michael W. Deem and Ramdas Pophale) SiO2 
 PCOD8069021
Probable space group: P 21/M
;
_chemical_formula_sum "Si O2"
_cell_formula_units_Z 32
_cell_length_a 21.084315
_cell_length_b 9.043035
_cell_length_c 20.363543
_cell_angle_alpha 90.000000
_cell_angle_beta 151.436142
_cell_angle_gamma 90.000000
_cell_volume 1856.437148
_symmetry_space_group_name_H-M "P 21/M"
_symmetry_group_IT_number 11
_symmetry_cell_setting 'monoclinic'
loop_
_space_group_symop_operation_xyz
x,y,z
-x,1/2+y,-z
-x,-y,-z
x,1/2-y,z
loop_
_atom_site_type_symbol
_atom_site_label
_atom_site_fract_x
_atom_site_fract_y
_atom_site_fract_z
Si Si1 0.627821 0.577883 0.088151
Si Si2 0.328526 0.582809 0.399613
Si Si3 0.728812 0.076169 0.394007
Si Si4 0.135581 0.074280 0.602670
Si Si5 0.421886 0.079431 0.102243
Si Si6 0.300798 0.082440 0.502145
Si Si7 0.356908 0.083282 0.297397
Si Si8 0.614936 0.415860 0.803878
O O1 0.600620 0.750000 0.071838
O O2 0.757580 0.527335 0.245254
O O3 0.500000 0.500000 0.000000
O O4 0.648151 0.537854 0.030011
O O5 0.274212 0.750000 0.350006
O O6 0.259323 0.493158 0.395826
O O7 0.485737 0.582136 0.551460
O O8 0.289227 0.505693 0.295425
O O9 0.760015 0.250000 0.420593
O O10 0.577296 0.041233 0.237181
O O11 0.822546 0.990439 0.429146
O O12 0.762142 0.013247 0.496399
O O13 0.119839 0.250000 0.583183
O O14 0.000000 0.000000 0.500000
O O15 0.404091 0.250000 0.104901
O O16 0.350283 0.986212 0.094021
O O17 0.246097 0.250000 0.454460
O O18 0.458302 0.082001 0.651519
O O19 0.302199 0.250000 0.248079
O O20 0.315573 0.007588 0.191183
O O21 0.671054 0.250000 0.853089
#
# Coordination Sequence:
#
# PCOD8069021 Si02
#       8
#     4   4   4   4   4   4   4   4
#     4  10  20  34  53  75  97 124 159 201 245 291
#     4   9  15  22  32  48  71 103 145 187 226 271
#     4  10  18  30  48  67  90 119 153 194 241 287
#     4  11  23  37  53  73  99 129 162 199 245 296
#     4   9  17  29  45  66  90 116 149 192 238 283
#     4   9  16  25  37  55  80 109 146 188 230 276
#     4   9  15  22  32  46  70 106 144 183 227 273
#     4   9  16  24  35  54  79 109 145 185 227 274
#
# _framework density 17.237318999999999
#
# number of rings (size 3 to 8) (size 9 to 14) (size 15 to 20)
#    0.000    2.500    1.250    2.250    0.000    7.500 
#    0.000    0.000    0.000    0.000    0.000    0.000 
#    0.000    0.000    0.000    1.125    0.000   14.750 
#
# Total GULP energy -396790.605689 kJ/mol
# GULP energy per Si atom -12399.706428 kJ/mol
# Density = 1.719809 g / cm^3
# Si number density = 17.237319 Si / 1000 Ang^3
#
#
#
# Elastic Constant Matrix: (Units=GPa)
#
#
# Indices 1 2 3 4 5 6 
#
# 1 136.8578 68.8196 49.6314 0.0000 -30.6976 0.0000
# 2 68.8196 123.0219 36.3161 0.0000 -13.1012 0.0000
# 3 49.6314 36.3161 49.0288 0.0000 -8.7849 0.0000
# 4 0.0000 0.0000 0.0000 13.8593 0.0000 -6.4002
# 5 -30.6976 -13.1012 -8.7849 0.0000 17.3547 0.0000
# 6 0.0000 0.0000 0.0000 -6.4002 0.0000 38.7394
#
#
#
# Elastic Compliance Matrix: (Units=1/GPa)
#
#
# Indices 1 2 3 4 5 6 
#
# 1 0.019666 -0.004833 -0.011821 0.000000 0.025154 0.000000
# 2 -0.004833 0.011898 -0.004226 0.000000 -0.001706 0.000000
# 3 -0.011821 -0.004226 0.034284 0.000000 -0.006745 0.000000
# 4 0.000000 0.000000 0.000000 0.078113 0.000000 0.012905
# 5 0.025154 -0.001706 -0.006745 0.000000 0.097412 0.000000
# 6 0.000000 0.000000 0.000000 0.012905 0.000000 0.027946
#
#
# Mechanical properties :
#
#
# Convention : Reuss Voigt Hill
#
# Bulk Modulus (GPa) = 41.51455 68.71584 55.11520
# Shear Modulus (GPa) = 15.66865 24.26679 19.96772
#
# Velocity S-wave (km/s) = 3.01823 3.75614 3.40722
# Velocity P-wave (km/s) = 6.02351 7.66568 6.89367
#
# Compressibility (1/GPa) = 0.02408794
#
# Stress axis : x y z
#
# Youngs Moduli (GPa) = 50.84886 84.04609 29.16796
#
# Poissons Ratio (x) = 0.40621 0.34479
# Poissons Ratio (y) = 0.24576 0.12327
# Poissons Ratio (z) = 0.60108 0.35520
#
# Static dielectric constant tensor:
#      x y z
#    x 3.177660 0.000000 -0.318340 
#    y 0.000000 3.390770 0.000000 
#    z -0.318340 0.000000 2.716650 
# 
# 
# High freq. dielectric constant tensor:
#      x y z
#    x 1.671840 0.000000 -0.038410 
#    y 0.000000 1.682410 0.000000 
#    z -0.038410 0.000000 1.593410 
# 
# From -- ./inp_files/66419.got.cif
#   From: 2010.06.25/outbox.cif.g09.slc.cpg/sg11_34_cif.got.tgz:66419.got - 2010.06.27 23:14:04.
