data_PCOD8069563
_publ_section_title
;
Structure prediction by ZEFSAII (Michael W. Deem and Ramdas Pophale) SiO2 
 PCOD8069563
Probable space group: P 21/M
;
_chemical_formula_sum "Si O2"
_cell_formula_units_Z 32
_cell_length_a 14.704842
_cell_length_b 15.465920
_cell_length_c 9.175858
_cell_angle_alpha 90.000000
_cell_angle_beta 125.172188
_cell_angle_gamma 90.000000
_cell_volume 1705.809442
_symmetry_space_group_name_H-M "P 21/M"
_symmetry_group_IT_number 11
_symmetry_cell_setting 'monoclinic'
loop_
_space_group_symop_operation_xyz
x,y,z
-x,1/2+y,-z
-x,-y,-z
x,1/2-y,z
loop_
_atom_site_type_symbol
_atom_site_label
_atom_site_fract_x
_atom_site_fract_y
_atom_site_fract_z
Si Si1 0.941636 0.507072 0.100188
Si Si2 0.658107 0.155175 0.923519
Si Si3 0.070303 0.652848 0.385404
Si Si4 0.549096 0.411926 0.096980
Si Si5 0.303374 0.594328 0.509907
Si Si6 0.537468 0.845531 0.705786
Si Si7 0.302938 0.004084 0.230801
Si Si8 0.908430 0.347167 0.257357
O O1 0.969273 0.418353 0.212859
O O2 0.986165 0.588490 0.229935
O O3 0.810507 0.523875 0.959334
O O4 0.000000 0.500000 0.000000
O O5 0.638507 0.250000 0.833655
O O6 0.779553 0.149462 0.102684
O O7 0.574213 0.146940 0.981319
O O8 0.637935 0.079864 0.787038
O O9 0.025151 0.750000 0.322922
O O10 0.191872 0.650208 0.422548
O O11 0.074946 0.627888 0.559154
O O12 0.659727 0.435984 0.294100
O O13 0.459424 0.362412 0.116369
O O14 0.500000 0.500000 0.000000
O O15 0.407556 0.647573 0.536217
O O16 0.277657 0.514559 0.377554
O O17 0.582867 0.750000 0.711686
O O18 0.614424 0.914831 0.695832
O O19 0.955073 0.250000 0.268266
#
# Coordination Sequence:
#
# PCOD8069563 Si02
#       8
#     4   4   4   4   4   4   4   4
#     4  11  23  38  56  86 123 155 194 239 291 346
#     4  10  18  32  55  85 115 147 187 238 287 335
#     4  11  21  37  61  88 115 151 196 242 292 344
#     4  10  19  34  57  85 116 149 187 237 296 344
#     4  10  21  36  60  84 118 146 194 242 290 339
#     4  10  21  35  58  84 113 152 191 232 286 345
#     4  11  22  39  56  85 120 156 191 235 290 351
#     4   9  19  36  59  84 111 148 194 243 289 335
#
# _framework density 18.759423999999999
#
# number of rings (size 3 to 8) (size 9 to 14) (size 15 to 20)
#    0.750    1.000    3.750    1.500    0.000    2.000 
#    0.000    0.000    0.000    0.750    0.000    0.000 
#    0.000    0.000    0.000    0.000    0.000    0.000 
#
# Total GULP energy -396562.128255 kJ/mol
# GULP energy per Si atom -12392.566508 kJ/mol
# Density = 1.871673 g / cm^3
# Si number density = 18.759424 Si / 1000 Ang^3
#
#
#
# Elastic Constant Matrix: (Units=GPa)
#
#
# Indices 1 2 3 4 5 6 
#
# 1 66.9572 45.7085 19.9778 0.0000 -12.0621 0.0000
# 2 45.7085 150.7190 47.7189 0.0000 -3.7779 0.0000
# 3 19.9778 47.7189 60.8405 0.0000 -4.8825 0.0000
# 4 0.0000 0.0000 0.0000 22.5819 0.0000 -0.6313
# 5 -12.0621 -3.7779 -4.8825 0.0000 27.1343 0.0000
# 6 0.0000 0.0000 0.0000 -0.6313 0.0000 31.5970
#
#
#
# Elastic Compliance Matrix: (Units=1/GPa)
#
#
# Indices 1 2 3 4 5 6 
#
# 1 0.020691 -0.005490 -0.001838 0.000000 0.008103 0.000000
# 2 -0.005490 0.010283 -0.006437 0.000000 -0.002167 0.000000
# 3 -0.001838 -0.006437 0.022273 0.000000 0.002294 0.000000
# 4 0.000000 0.000000 0.000000 0.044308 0.000000 0.000885
# 5 0.008103 -0.002167 0.002294 0.000000 0.040567 0.000000
# 6 0.000000 0.000000 0.000000 0.000885 0.000000 0.031666
#
#
# Mechanical properties :
#
#
# Convention : Reuss Voigt Hill
#
# Bulk Modulus (GPa) = 38.88410 56.14746 47.51578
# Shear Modulus (GPa) = 24.28489 27.27007 25.77748
#
# Velocity S-wave (km/s) = 3.60188 3.81684 3.71092
# Velocity P-wave (km/s) = 6.17016 7.02991 6.61402
#
# Compressibility (1/GPa) = 0.02571745
#
# Stress axis : x y z
#
# Youngs Moduli (GPa) = 48.33111 97.24416 44.89817
#
# Poissons Ratio (x) = 0.53385 0.08252
# Poissons Ratio (y) = 0.26533 0.28900
# Poissons Ratio (z) = 0.08883 0.62594
#
# Static dielectric constant tensor:
#      x y z
#    x 2.757950 0.000000 0.429320 
#    y 0.000000 3.703140 0.000000 
#    z 0.429320 0.000000 2.950630 
# 
# 
# High freq. dielectric constant tensor:
#      x y z
#    x 1.708810 0.000000 -0.013060 
#    y 0.000000 1.724620 0.000000 
#    z -0.013060 0.000000 1.729410 
# 
# From -- ./inp_files/21580.got.cif
#   From: 2010.06.25/outbox.cif.g09.slc.cpg/sg11_11_cif.got.tgz:21580.got - 2010.06.27 23:14:04.
