data_PCOD8069542
_publ_section_title
;
Structure prediction by ZEFSAII (Michael W. Deem and Ramdas Pophale) SiO2 
 PCOD8069542
Probable space group: P 21/M
;
_chemical_formula_sum "Si O2"
_cell_formula_units_Z 32
_cell_length_a 12.826263
_cell_length_b 14.138616
_cell_length_c 18.486859
_cell_angle_alpha 90.000000
_cell_angle_beta 29.430472
_cell_angle_gamma 90.000000
_cell_volume 1647.313204
_symmetry_space_group_name_H-M "P 21/M"
_symmetry_group_IT_number 11
_symmetry_cell_setting 'monoclinic'
loop_
_space_group_symop_operation_xyz
x,y,z
-x,1/2+y,-z
-x,-y,-z
x,1/2-y,z
loop_
_atom_site_type_symbol
_atom_site_label
_atom_site_fract_x
_atom_site_fract_y
_atom_site_fract_z
Si Si1 0.448917 0.861144 0.290607
Si Si2 0.378162 0.980667 0.468838
Si Si3 0.886964 0.358600 0.959720
Si Si4 0.940860 0.639192 0.990744
Si Si5 0.171226 0.987503 0.739906
Si Si6 0.819408 0.034316 0.662061
Si Si7 0.395104 0.146040 0.230117
Si Si8 0.836421 0.643509 0.476594
O O1 0.412392 0.750000 0.320629
O O2 0.343745 0.896681 0.280170
O O3 0.334814 0.911399 0.427604
O O4 0.694824 0.889372 0.140175
O O5 0.623143 0.977069 0.341425
O O6 0.314123 0.088088 0.487846
O O7 0.234004 0.947254 0.623349
O O8 0.956644 0.250000 0.907907
O O9 0.017095 0.421615 0.823904
O O10 0.947591 0.396991 0.003065
O O11 0.639919 0.373465 0.096967
O O12 0.972192 0.750000 0.964489
O O13 0.052616 0.594983 0.853894
O O14 0.931843 0.092228 0.659003
O O15 0.696436 0.939270 0.764515
O O16 0.000000 0.000000 0.500000
O O17 0.362587 0.250000 0.213260
O O18 0.274754 0.144053 0.378663
O O19 0.867827 0.750000 0.428596
#
# Coordination Sequence:
#
# PCOD8069542 Si02
#       8
#     4   4   4   4   4   4   4   4
#     4  11  21  36  57  83 113 144 185 235 279 325
#     4  11  23  37  52  85 113 153 183 223 280 335
#     4  10  19  33  55  82 109 147 191 228 271 325
#     4  10  21  35  57  82 108 148 190 226 274 327
#     4  11  23  35  56  80 120 149 183 223 276 334
#     4  10  18  32  54  84 113 137 186 231 286 324
#     4   9  17  29  53  84 112 137 178 235 275 318
#     4  10  20  36  55  81 112 144 189 236 279 329
#
# _framework density 19.42557
#
# number of rings (size 3 to 8) (size 9 to 14) (size 15 to 20)
#    0.000    1.750    3.750    2.250    0.000    3.000 
#    0.000    2.500    0.000    3.000    0.000    3.500 
#    0.000    0.000    0.000    0.000    0.000    0.000 
#
# Total GULP energy -396765.716620 kJ/mol
# GULP energy per Si atom -12398.928644 kJ/mol
# Density = 1.938136 g / cm^3
# Si number density = 19.425570 Si / 1000 Ang^3
#
#
#
# Elastic Constant Matrix: (Units=GPa)
#
#
# Indices 1 2 3 4 5 6 
#
# 1 24.2833 21.8168 27.5449 0.0000 -11.2187 0.0000
# 2 21.8168 94.5555 52.3034 0.0000 -11.2810 0.0000
# 3 27.5449 52.3034 87.3152 0.0000 -11.4552 0.0000
# 4 0.0000 0.0000 0.0000 26.3079 0.0000 -10.4241
# 5 -11.2187 -11.2810 -11.4552 0.0000 30.2719 0.0000
# 6 0.0000 0.0000 0.0000 -10.4241 0.0000 28.7819
#
#
#
# Elastic Compliance Matrix: (Units=1/GPa)
#
#
# Indices 1 2 3 4 5 6 
#
# 1 0.075141 -0.004984 -0.018213 0.000000 0.019098 0.000000
# 2 -0.004984 0.016319 -0.008047 0.000000 0.001189 0.000000
# 3 -0.018213 -0.008047 0.021823 0.000000 -0.001491 0.000000
# 4 0.000000 0.000000 0.000000 0.044380 0.000000 0.016073
# 5 0.019098 0.001189 -0.001491 0.000000 0.039991 0.000000
# 6 0.000000 0.000000 0.000000 0.016073 0.000000 0.040565
#
#
# Mechanical properties :
#
#
# Convention : Reuss Voigt Hill
#
# Bulk Modulus (GPa) = 19.68722 45.49823 32.59272
# Shear Modulus (GPa) = 15.74110 24.03827 19.88968
#
# Velocity S-wave (km/s) = 2.84972 3.52156 3.20330
# Velocity P-wave (km/s) = 4.58089 6.32518 5.52234
#
# Compressibility (1/GPa) = 0.05079436
#
# Stress axis : x y z
#
# Youngs Moduli (GPa) = 13.30828 61.27888 45.82301
#
# Poissons Ratio (x) = 0.30543 0.83459
# Poissons Ratio (y) = 0.06633 0.36873
# Poissons Ratio (z) = 0.24239 0.49311
#
# Static dielectric constant tensor:
#      x y z
#    x 3.549210 0.000000 -0.362990 
#    y 0.000000 4.024890 0.000000 
#    z -0.362990 0.000000 3.528880 
# 
# 
# High freq. dielectric constant tensor:
#      x y z
#    x 1.729260 0.000000 -0.030360 
#    y 0.000000 1.772050 0.000000 
#    z -0.030360 0.000000 1.746080 
# 
# From -- ./inp_files/59452.got.cif
#   From: 2010.06.25/outbox.cif.g09.slc.cpg/sg11_30_cif.got.tgz:59452.got - 2010.06.27 23:14:04.
