data_PCOD8069240
_publ_section_title
;
Structure prediction by ZEFSAII (Michael W. Deem and Ramdas Pophale) SiO2 
 PCOD8069240
Probable space group: P 21/M
;
_chemical_formula_sum "Si O2"
_cell_formula_units_Z 32
_cell_length_a 14.584995
_cell_length_b 8.987278
_cell_length_c 19.697909
_cell_angle_alpha 90.000000
_cell_angle_beta 135.265383
_cell_angle_gamma 90.000000
_cell_volume 1817.266727
_symmetry_space_group_name_H-M "P 21/M"
_symmetry_group_IT_number 11
_symmetry_cell_setting 'monoclinic'
loop_
_space_group_symop_operation_xyz
x,y,z
-x,1/2+y,-z
-x,-y,-z
x,1/2-y,z
loop_
_atom_site_type_symbol
_atom_site_label
_atom_site_fract_x
_atom_site_fract_y
_atom_site_fract_z
Si Si1 0.560643 0.075857 0.717552
Si Si2 0.652654 0.924030 0.888630
Si Si3 0.621572 0.574649 0.028472
Si Si4 0.085871 0.917228 0.961546
Si Si5 0.116052 0.580722 0.816760
Si Si6 0.861549 0.419319 0.667272
Si Si7 0.162871 0.916563 0.185516
Si Si8 0.595650 0.573977 0.495566
O O1 0.561855 0.250000 0.734155
O O2 0.695749 0.017580 0.756274
O O3 0.449828 0.036474 0.604863
O O4 0.542327 0.987920 0.779178
O O5 0.668519 0.750000 0.887137
O O6 0.612262 0.964197 0.943878
O O7 0.790207 0.999702 0.941065
O O8 0.621557 0.750000 0.041284
O O9 0.500000 0.500000 0.000000
O O10 0.751472 0.506932 0.130526
O O11 0.087513 0.750000 0.989609
O O12 0.093440 0.923562 0.884741
O O13 0.950084 0.992857 0.912792
O O14 0.126659 0.750000 0.795788
O O15 0.995887 0.499469 0.715366
O O16 0.859137 0.250000 0.638372
O O17 0.854806 0.421105 0.743982
O O18 0.740532 0.510623 0.574522
O O19 0.151492 0.750000 0.151996
O O20 0.500000 0.500000 0.500000
O O21 0.594431 0.750000 0.508831
#
# Coordination Sequence:
#
# PCOD8069240 Si02
#       8
#     4   4   4   4   4   4   4   4
#     4  10  21  35  48  66  95 132 172 213 255 297
#     4  10  21  35  50  71  98 129 163 203 248 297
#     4  10  20  35  56  82 108 133 162 200 247 305
#     4   9  17  29  46  67  92 127 167 204 244 292
#     4   9  17  30  49  76 104 132 166 205 249 300
#     4  10  18  31  49  71 100 134 172 218 261 296
#     4   9  17  30  45  64  92 128 169 211 250 289
#     4  11  21  34  50  71  97 132 178 224 264 300
#
# _framework density 17.608861999999998
#
# number of rings (size 3 to 8) (size 9 to 14) (size 15 to 20)
#    0.000    2.250    1.250    2.250    0.000    7.000 
#    0.000    0.000    0.000    0.000    0.000    0.875 
#    0.000    0.000    0.000    0.000    0.000    0.000 
#
# Total GULP energy -396771.809441 kJ/mol
# GULP energy per Si atom -12399.119045 kJ/mol
# Density = 1.756878 g / cm^3
# Si number density = 17.608862 Si / 1000 Ang^3
#
#
#
# Elastic Constant Matrix: (Units=GPa)
#
#
# Indices 1 2 3 4 5 6 
#
# 1 57.0259 40.3938 44.9073 0.0000 21.7024 0.0000
# 2 40.3938 118.2471 71.3219 0.0000 10.9357 0.0000
# 3 44.9073 71.3219 131.6735 0.0000 18.9381 0.0000
# 4 0.0000 0.0000 0.0000 31.5163 0.0000 6.9885
# 5 21.7024 10.9357 18.9381 0.0000 24.2685 0.0000
# 6 0.0000 0.0000 0.0000 6.9885 0.0000 24.2910
#
#
#
# Elastic Compliance Matrix: (Units=1/GPa)
#
#
# Indices 1 2 3 4 5 6 
#
# 1 0.035879 -0.007028 -0.004811 0.000000 -0.025164 0.000000
# 2 -0.007028 0.013940 -0.005806 0.000000 0.004534 0.000000
# 3 -0.004811 -0.005806 0.012825 0.000000 -0.003089 0.000000
# 4 0.000000 0.000000 0.000000 0.033892 0.000000 -0.009751
# 5 -0.025164 0.004534 -0.003089 0.000000 0.064077 0.000000
# 6 0.000000 0.000000 0.000000 -0.009751 0.000000 0.043973
#
#
# Mechanical properties :
#
#
# Convention : Reuss Voigt Hill
#
# Bulk Modulus (GPa) = 36.55645 68.91026 52.73335
# Shear Modulus (GPa) = 20.08092 26.03674 23.05883
#
# Velocity S-wave (km/s) = 3.38063 3.84945 3.62263
# Velocity P-wave (km/s) = 6.00362 7.67961 6.89275
#
# Compressibility (1/GPa) = 0.02735496
#
# Stress axis : x y z
#
# Youngs Moduli (GPa) = 27.87142 71.73466 77.97566
#
# Poissons Ratio (x) = 0.50412 0.37512
# Poissons Ratio (y) = 0.19587 0.45274
# Poissons Ratio (z) = 0.13408 0.41650
#
# Static dielectric constant tensor:
#      x y z
#    x 2.964240 0.000000 0.102370 
#    y 0.000000 3.446970 0.000000 
#    z 0.102370 0.000000 3.398590 
# 
# 
# High freq. dielectric constant tensor:
#      x y z
#    x 1.638690 0.000000 0.008650 
#    y 0.000000 1.694160 0.000000 
#    z 0.008650 0.000000 1.682180 
# 
# From -- ./inp_files/54353.got.cif
#   From: 2010.06.25/outbox.cif.g09.slc.cpg/sg11_28_cif.got.tgz:54353.got - 2010.06.27 23:14:04.
