data_PCOD8069264
_publ_section_title
;
Structure prediction by ZEFSAII (Michael W. Deem and Ramdas Pophale) SiO2 
 PCOD8069264
Probable space group: P 21/M
;
_chemical_formula_sum "Si O2"
_cell_formula_units_Z 32
_cell_length_a 11.872368
_cell_length_b 8.671432
_cell_length_c 21.879310
_cell_angle_alpha 90.000000
_cell_angle_beta 127.747843
_cell_angle_gamma 90.000000
_cell_volume 1781.067853
_symmetry_space_group_name_H-M "P 21/M"
_symmetry_group_IT_number 11
_symmetry_cell_setting 'monoclinic'
loop_
_space_group_symop_operation_xyz
x,y,z
-x,1/2+y,-z
-x,-y,-z
x,1/2-y,z
loop_
_atom_site_type_symbol
_atom_site_label
_atom_site_fract_x
_atom_site_fract_y
_atom_site_fract_z
Si Si1 0.446827 0.429160 0.168713
Si Si2 0.349861 0.068528 0.469917
Si Si3 0.664004 0.067644 0.406259
Si Si4 0.554238 0.432810 0.080776
Si Si5 0.273721 0.428002 0.691052
Si Si6 0.843367 0.572974 0.221933
Si Si7 0.860374 0.568736 0.709063
Si Si8 0.648008 0.933579 0.739391
O O1 0.418433 0.250000 0.152827
O O2 0.448643 0.498207 0.100257
O O3 0.601403 0.457180 0.248052
O O4 0.337501 0.494456 0.184606
O O5 0.367896 0.250000 0.483752
O O6 0.233280 0.026342 0.380599
O O7 0.500000 0.000000 0.500000
O O8 0.292112 0.993123 0.512824
O O9 0.683849 0.250000 0.410219
O O10 0.501550 0.012541 0.339763
O O11 0.769721 0.987208 0.391172
O O12 0.547500 0.250000 0.075685
O O13 0.715833 0.480392 0.147765
O O14 0.500000 0.500000 0.000000
O O15 0.323933 0.250000 0.705485
O O16 0.152088 0.448876 0.702493
O O17 0.819760 0.750000 0.196738
O O18 0.990465 0.516827 0.242919
O O19 0.888114 0.750000 0.722364
O O20 0.778575 0.505037 0.742215
O O21 0.648029 0.750000 0.738419
#
# Coordination Sequence:
#
# PCOD8069264 Si02
#       8
#     4   4   4   4   4   4   4   4
#     4   8  15  28  49  75 102 131 165 203 249 303
#     4  11  21  33  49  73 103 135 174 220 266 310
#     4  10  18  31  50  72  98 130 172 219 265 308
#     4  10  19  33  56  84 109 136 166 203 252 304
#     4   9  17  30  48  71  98 128 165 213 261 302
#     4  10  21  36  53  76 106 136 171 212 253 306
#     4  10  20  34  51  72 102 138 173 210 258 311
#     4   8  14  28  48  71  98 129 166 209 252 297
#
# _framework density 17.966750000000001
#
# number of rings (size 3 to 8) (size 9 to 14) (size 15 to 20)
#    0.000    2.500    1.250    2.625    0.000    3.000 
#    0.000    1.250    0.000    0.750    0.000    0.000 
#    0.000    0.000    0.000    0.000    0.000    0.000 
#
# Total GULP energy -396430.046191 kJ/mol
# GULP energy per Si atom -12388.438943 kJ/mol
# Density = 1.792586 g / cm^3
# Si number density = 17.966750 Si / 1000 Ang^3
#
#
#
# Elastic Constant Matrix: (Units=GPa)
#
#
# Indices 1 2 3 4 5 6 
#
# 1 138.5697 35.2934 67.1113 0.0000 -30.9146 0.0000
# 2 35.2934 45.2862 35.8574 0.0000 -6.6859 0.0000
# 3 67.1113 35.8574 88.6043 0.0000 -30.3434 0.0000
# 4 0.0000 0.0000 0.0000 26.0411 0.0000 -2.7360
# 5 -30.9146 -6.6859 -30.3434 0.0000 33.5202 0.0000
# 6 0.0000 0.0000 0.0000 -2.7360 0.0000 25.4462
#
#
#
# Elastic Compliance Matrix: (Units=1/GPa)
#
#
# Indices 1 2 3 4 5 6 
#
# 1 0.012257 -0.004188 -0.005803 0.000000 0.005216 0.000000
# 2 -0.004188 0.035419 -0.014587 0.000000 -0.010002 0.000000
# 3 -0.005803 -0.014587 0.027182 0.000000 0.016345 0.000000
# 4 0.000000 0.000000 0.000000 0.038840 0.000000 0.004176
# 5 0.005216 -0.010002 0.016345 0.000000 0.047444 0.000000
# 6 0.000000 0.000000 0.000000 0.004176 0.000000 0.039748
#
#
# Mechanical properties :
#
#
# Convention : Reuss Voigt Hill
#
# Bulk Modulus (GPa) = 38.90665 60.99825 49.95245
# Shear Modulus (GPa) = 19.33391 25.94802 22.64097
#
# Velocity S-wave (km/s) = 3.28395 3.80442 3.55372
# Velocity P-wave (km/s) = 6.00674 7.30222 6.68593
#
# Compressibility (1/GPa) = 0.02570255
#
# Stress axis : x y z
#
# Youngs Moduli (GPa) = 81.58326 28.23356 36.78900
#
# Poissons Ratio (x) = 0.11824 0.21348
# Poissons Ratio (y) = 0.34166 0.53665
# Poissons Ratio (z) = 0.47342 0.41185
#
# Static dielectric constant tensor:
#      x y z
#    x 3.719170 0.000000 -0.563080 
#    y 0.000000 3.252760 0.000000 
#    z -0.563080 0.000000 3.289240 
# 
# 
# High freq. dielectric constant tensor:
#      x y z
#    x 1.699960 0.000000 -0.039790 
#    y 0.000000 1.690910 0.000000 
#    z -0.039790 0.000000 1.661760 
# 
# From -- ./inp_files/43837.got.cif
#   From: 2010.06.25/outbox.cif.g09.slc.cpg/sg11_22_cif.got.tgz:43837.got - 2010.06.27 23:14:04.
