data_PCOD8069448
_publ_section_title
;
Structure prediction by ZEFSAII (Michael W. Deem and Ramdas Pophale) SiO2 
 PCOD8069448
Probable space group: P 21/M
;
_chemical_formula_sum "Si O2"
_cell_formula_units_Z 32
_cell_length_a 28.273029
_cell_length_b 10.089678
_cell_length_c 18.743586
_cell_angle_alpha 90.000000
_cell_angle_beta 158.796886
_cell_angle_gamma 90.000000
_cell_volume 1933.842532
_symmetry_space_group_name_H-M "P 21/M"
_symmetry_group_IT_number 11
_symmetry_cell_setting 'monoclinic'
loop_
_space_group_symop_operation_xyz
x,y,z
-x,1/2+y,-z
-x,-y,-z
x,1/2-y,z
loop_
_atom_site_type_symbol
_atom_site_label
_atom_site_fract_x
_atom_site_fract_y
_atom_site_fract_z
Si Si1 0.977063 0.598051 0.070897
Si Si2 0.565496 0.595678 0.282551
Si Si3 0.879164 0.398813 0.203266
Si Si4 0.605394 0.599740 0.179265
Si Si5 0.067901 0.398510 0.830998
Si Si6 0.821026 0.903252 0.714115
Si Si7 0.848961 0.990594 0.437524
Si Si8 0.277791 0.594360 0.882473
O O1 0.029196 0.750000 0.141022
O O2 0.927249 0.561956 0.079351
O O3 0.090830 0.496984 0.210841
O O4 0.855617 0.578944 0.845903
O O5 0.540001 0.750000 0.252772
O O6 0.626083 0.560206 0.290741
O O7 0.670510 0.551742 0.490260
O O8 0.422857 0.528321 0.093362
O O9 0.829378 0.250000 0.116765
O O10 0.813857 0.459797 0.182781
O O11 0.840811 0.496848 0.083700
O O12 0.037361 0.395475 0.434733
O O13 0.551420 0.750000 0.096462
O O14 0.743064 0.592603 0.332497
O O15 0.500000 0.500000 0.000000
O O16 0.121720 0.250000 0.895686
O O17 0.919205 0.406099 0.590769
O O18 0.841515 0.750000 0.718554
O O19 0.779740 0.064778 0.275643
O O20 0.284575 0.750000 0.900398
#
# Coordination Sequence:
#
# PCOD8069448 Si02
#       8
#     4   4   4   4   4   4   4   4
#     4   9  17  31  49  73 101 124 155 196 241 290
#     4   9  18  31  49  71  96 128 162 194 231 284
#     4   9  20  33  50  72  94 123 167 210 239 276
#     4  11  21  33  48  68  99 130 162 195 235 284
#     4   9  19  31  48  71  97 126 154 195 247 291
#     4   9  17  30  51  74  95 126 161 196 236 280
#     4  10  19  31  50  70  97 126 160 201 243 281
#     4  10  18  32  50  70  97 129 164 203 239 282
#
# _framework density 16.547366
#
# number of rings (size 3 to 8) (size 9 to 14) (size 15 to 20)
#    0.750    1.750    1.250    1.875    0.000    1.000 
#    0.000    1.250    0.000    0.750    0.000    0.000 
#    0.000    0.000    0.000    0.000    0.000    0.000 
#
# Total GULP energy -396495.675420 kJ/mol
# GULP energy per Si atom -12390.489857 kJ/mol
# Density = 1.650970 g / cm^3
# Si number density = 16.547366 Si / 1000 Ang^3
#
#
#
# Elastic Constant Matrix: (Units=GPa)
#
#
# Indices 1 2 3 4 5 6 
#
# 1 125.6737 35.8941 59.0935 0.0000 -0.1811 0.0000
# 2 35.8941 55.1450 23.1630 0.0000 -6.8948 0.0000
# 3 59.0935 23.1630 90.3707 0.0000 -7.2743 0.0000
# 4 0.0000 0.0000 0.0000 18.5583 0.0000 -3.0132
# 5 -0.1811 -6.8948 -7.2743 0.0000 26.4098 0.0000
# 6 0.0000 0.0000 0.0000 -3.0132 0.0000 24.7284
#
#
#
# Elastic Compliance Matrix: (Units=1/GPa)
#
#
# Indices 1 2 3 4 5 6 
#
# 1 0.013070 -0.005864 -0.007322 0.000000 -0.003458 0.000000
# 2 -0.005864 0.023366 -0.001704 0.000000 0.005590 0.000000
# 3 -0.007322 -0.001704 0.016619 0.000000 0.004082 0.000000
# 4 0.000000 0.000000 0.000000 0.054972 0.000000 0.006699
# 5 -0.003458 0.005590 0.004082 0.000000 0.040425 0.000000
# 6 0.000000 0.000000 0.000000 0.006699 0.000000 0.041256
#
#
# Mechanical properties :
#
#
# Convention : Reuss Voigt Hill
#
# Bulk Modulus (GPa) = 42.96647 56.38783 49.67715
# Shear Modulus (GPa) = 22.00273 24.14190 23.07232
#
# Velocity S-wave (km/s) = 3.65044 3.82377 3.73811
# Velocity P-wave (km/s) = 6.61738 7.32432 6.97980
#
# Compressibility (1/GPa) = 0.02327396
#
# Stress axis : x y z
#
# Youngs Moduli (GPa) = 76.51268 42.79750 60.17362
#
# Poissons Ratio (x) = 0.25097 0.44057
# Poissons Ratio (y) = 0.44868 0.10256
# Poissons Ratio (z) = 0.56020 0.07294
#
# Static dielectric constant tensor:
#      x y z
#    x 3.246800 0.000000 0.030020 
#    y 0.000000 2.953030 0.000000 
#    z 0.030020 0.000000 3.193640 
# 
# 
# High freq. dielectric constant tensor:
#      x y z
#    x 1.635670 0.000000 -0.008660 
#    y 0.000000 1.623040 0.000000 
#    z -0.008660 0.000000 1.622090 
# 
# From -- ./inp_files/62392.got.cif
#   From: 2010.06.25/outbox.cif.g09.slc.cpg/sg11_32_cif.got.tgz:62392.got - 2010.06.27 23:14:04.
