data_PCOD8069778
_publ_section_title
;
Structure prediction by ZEFSAII (Michael W. Deem and Ramdas Pophale) SiO2 
 PCOD8069778
Probable space group: P 21/M
;
_chemical_formula_sum "Si O2"
_cell_formula_units_Z 32
_cell_length_a 20.012027
_cell_length_b 8.992328
_cell_length_c 12.177488
_cell_angle_alpha 90.000000
_cell_angle_beta 125.098356
_cell_angle_gamma 90.000000
_cell_volume 1792.926443
_symmetry_space_group_name_H-M "P 21/M"
_symmetry_group_IT_number 11
_symmetry_cell_setting 'monoclinic'
loop_
_space_group_symop_operation_xyz
x,y,z
-x,1/2+y,-z
-x,-y,-z
x,1/2-y,z
loop_
_atom_site_type_symbol
_atom_site_label
_atom_site_fract_x
_atom_site_fract_y
_atom_site_fract_z
Si Si1 0.624473 0.424373 0.605017
Si Si2 0.006299 0.922710 0.682009
Si Si3 0.883544 0.080520 0.412199
Si Si4 0.547126 0.576078 0.142267
Si Si5 0.783034 0.074657 0.645080
Si Si6 0.035448 0.572772 0.141806
Si Si7 0.714966 0.421808 0.348837
Si Si8 0.501856 0.422916 0.666229
O O1 0.617452 0.250000 0.581876
O O2 0.719265 0.472891 0.681445
O O3 0.586925 0.472988 0.687541
O O4 0.574122 0.493240 0.457816
O O5 0.997818 0.750000 0.704374
O O6 0.086295 0.953616 0.682831
O O7 0.926213 0.972646 0.539790
O O8 0.016628 0.017298 0.802862
O O9 0.906548 0.250000 0.467215
O O10 0.786176 0.057804 0.325306
O O11 0.551441 0.750000 0.123970
O O12 0.638745 0.516988 0.237355
O O13 0.494935 0.538900 0.202393
O O14 0.500000 0.500000 0.000000
O O15 0.792338 0.250000 0.644527
O O16 0.872047 0.010349 0.756910
O O17 0.749013 0.015438 0.496698
O O18 0.030822 0.750000 0.128495
O O19 0.000000 0.500000 0.000000
O O20 0.688127 0.250000 0.333781
O O21 0.486109 0.250000 0.631360
#
# Coordination Sequence:
#
# PCOD8069778 Si02
#       8
#     4   4   4   4   4   4   4   4
#     4   9  16  30  53  78 101 131 168 209 257 311
#     4  10  19  32  53  81 109 142 180 219 269 326
#     4   9  18  33  54  80 110 140 176 223 272 321
#     4  11  23  37  52  76 109 145 179 219 267 320
#     4   9  17  31  55  80 103 134 175 216 260 315
#     4  11  22  38  55  77 110 146 182 224 273 326
#     4  10  18  34  57  81 105 137 179 222 267 315
#     4   9  18  31  49  76 106 131 165 212 260 305
#
# _framework density 17.847916000000001
#
# number of rings (size 3 to 8) (size 9 to 14) (size 15 to 20)
#    0.000    2.250    2.500    1.125    0.000    1.500 
#    0.000    2.500    0.000    4.500    0.000    0.000 
#    0.000    0.000    0.000    0.000    0.000    0.000 
#
# Total GULP energy -396712.233789 kJ/mol
# GULP energy per Si atom -12397.257306 kJ/mol
# Density = 1.780729 g / cm^3
# Si number density = 17.847916 Si / 1000 Ang^3
#
#
#
# Elastic Constant Matrix: (Units=GPa)
#
#
# Indices 1 2 3 4 5 6 
#
# 1 138.0101 45.4003 73.5555 0.0000 -7.2105 0.0000
# 2 45.4003 64.5940 48.9014 0.0000 -7.6596 0.0000
# 3 73.5555 48.9014 125.0676 0.0000 -4.9477 0.0000
# 4 0.0000 0.0000 0.0000 29.6911 0.0000 -1.1199
# 5 -7.2105 -7.6596 -4.9477 0.0000 24.9474 0.0000
# 6 0.0000 0.0000 0.0000 -1.1199 0.0000 25.6747
#
#
#
# Elastic Compliance Matrix: (Units=1/GPa)
#
#
# Indices 1 2 3 4 5 6 
#
# 1 0.011305 -0.004006 -0.005041 0.000000 0.001038 0.000000
# 2 -0.004006 0.024070 -0.006863 0.000000 0.004871 0.000000
# 3 -0.005041 -0.006863 0.013610 0.000000 -0.000865 0.000000
# 4 0.000000 0.000000 0.000000 0.033736 0.000000 0.001472
# 5 0.001038 0.004871 -0.000865 0.000000 0.041708 0.000000
# 6 0.000000 0.000000 0.000000 0.001472 0.000000 0.039013
#
#
# Mechanical properties :
#
#
# Convention : Reuss Voigt Hill
#
# Bulk Modulus (GPa) = 58.25933 73.70956 65.98444
# Shear Modulus (GPa) = 24.87780 26.71696 25.79738
#
# Velocity S-wave (km/s) = 3.73752 3.87321 3.80597
# Velocity P-wave (km/s) = 7.16508 7.83522 7.50763
#
# Compressibility (1/GPa) = 0.01716463
#
# Stress axis : x y z
#
# Youngs Moduli (GPa) = 88.45871 41.54546 73.47783
#
# Poissons Ratio (x) = 0.16644 0.37041
# Poissons Ratio (y) = 0.35437 0.50425
# Poissons Ratio (z) = 0.44593 0.28511
#
# Static dielectric constant tensor:
#      x y z
#    x 3.686980 0.000000 -0.165790 
#    y 0.000000 3.247780 0.000000 
#    z -0.165790 0.000000 2.999290 
# 
# 
# High freq. dielectric constant tensor:
#      x y z
#    x 1.711270 0.000000 -0.008400 
#    y 0.000000 1.682690 0.000000 
#    z -0.008400 0.000000 1.657960 
# 
# From -- ./inp_files/42878.got.cif
#   From: 2010.06.25/outbox.cif.g09.slc.cpg/sg11_22_cif.got.tgz:42878.got - 2010.06.27 23:14:04.
