data_PCOD8069811
_publ_section_title
;
Structure prediction by ZEFSAII (Michael W. Deem and Ramdas Pophale) SiO2 
 PCOD8069811
Probable space group: P 21/M
;
_chemical_formula_sum "Si O2"
_cell_formula_units_Z 32
_cell_length_a 10.002241
_cell_length_b 17.871163
_cell_length_c 16.078588
_cell_angle_alpha 90.000000
_cell_angle_beta 36.456631
_cell_angle_gamma 90.000000
_cell_volume 1707.815803
_symmetry_space_group_name_H-M "P 21/M"
_symmetry_group_IT_number 11
_symmetry_cell_setting 'monoclinic'
loop_
_space_group_symop_operation_xyz
x,y,z
-x,1/2+y,-z
-x,-y,-z
x,1/2-y,z
loop_
_atom_site_type_symbol
_atom_site_label
_atom_site_fract_x
_atom_site_fract_y
_atom_site_fract_z
Si Si1 0.066411 0.928644 0.520472
Si Si2 0.279117 0.661180 0.100733
Si Si3 0.840872 0.836978 0.038218
Si Si4 0.652030 0.338980 0.748301
Si Si5 0.842696 0.662676 0.223694
Si Si6 0.584883 0.429788 0.508451
Si Si7 0.091319 0.834189 0.757800
Si Si8 0.264963 0.335364 0.207771
O O1 0.171814 0.867655 0.406946
O O2 0.240660 0.951998 0.506038
O O3 0.842705 0.890663 0.670427
O O4 0.000000 0.000000 0.500000
O O5 0.290958 0.750000 0.096170
O O6 0.289616 0.629919 0.189168
O O7 0.043040 0.633057 0.181639
O O8 0.487267 0.633256 0.939765
O O9 0.820075 0.750000 0.025650
O O10 0.592408 0.871640 0.153019
O O11 0.930633 0.850311 0.085930
O O12 0.015577 0.871361 0.883844
O O13 0.660889 0.250000 0.740063
O O14 0.786137 0.750000 0.267006
O O15 0.620881 0.615067 0.349153
O O16 0.500000 0.500000 0.500000
O O17 0.699721 0.378467 0.382294
O O18 0.178357 0.750000 0.726776
O O19 0.877054 0.836616 0.805321
O O20 0.274509 0.250000 0.237879
#
# Coordination Sequence:
#
# PCOD8069811 Si02
#       8
#     4   4   4   4   4   4   4   4
#     4  11  24  39  56  80 112 149 190 232 270 322
#     4   9  18  33  57  88 115 136 172 232 287 326
#     4   9  16  31  57  87 109 131 180 235 273 318
#     4  10  18  34  61  86 107 139 185 232 273 321
#     4  10  20  36  59  85 112 144 181 224 277 332
#     4  11  24  40  55  77 115 154 186 224 274 331
#     4   9  17  34  62  87 106 138 185 231 271 322
#     4   9  17  35  61  86 109 139 181 229 278 323
#
# _framework density 18.737383000000001
#
# number of rings (size 3 to 8) (size 9 to 14) (size 15 to 20)
#    0.000    2.250    2.500    0.750    1.750    1.000 
#    2.250    2.500    0.000    0.000    0.000    0.000 
#    0.000    0.000    0.000    0.000    0.000    0.000 
#
# Total GULP energy -396738.730180 kJ/mol
# GULP energy per Si atom -12398.085318 kJ/mol
# Density = 1.869474 g / cm^3
# Si number density = 18.737383 Si / 1000 Ang^3
#
#
#
# Elastic Constant Matrix: (Units=GPa)
#
#
# Indices 1 2 3 4 5 6 
#
# 1 100.2212 30.3910 38.6538 0.0000 7.9400 0.0000
# 2 30.3910 56.8393 34.2652 0.0000 5.1590 0.0000
# 3 38.6538 34.2652 123.0878 0.0000 13.9606 0.0000
# 4 0.0000 0.0000 0.0000 4.4393 0.0000 1.9100
# 5 7.9400 5.1590 13.9606 0.0000 30.3841 0.0000
# 6 0.0000 0.0000 0.0000 1.9100 0.0000 24.5291
#
#
#
# Elastic Compliance Matrix: (Units=1/GPa)
#
#
# Indices 1 2 3 4 5 6 
#
# 1 0.012560 -0.005177 -0.002353 0.000000 -0.001322 0.000000
# 2 -0.005177 0.023300 -0.004816 0.000000 -0.000390 0.000000
# 3 -0.002353 -0.004816 0.010594 0.000000 -0.003435 0.000000
# 4 0.000000 0.000000 0.000000 0.233069 0.000000 -0.018148
# 5 -0.001322 -0.000390 -0.003435 0.000000 0.034902 0.000000
# 6 0.000000 0.000000 0.000000 -0.018148 0.000000 0.042181
#
#
# Mechanical properties :
#
#
# Convention : Reuss Voigt Hill
#
# Bulk Modulus (GPa) = 45.95370 54.08535 50.01953
# Shear Modulus (GPa) = 12.86827 23.65971 18.26399
#
# Velocity S-wave (km/s) = 2.62347 3.55731 3.12546
# Velocity P-wave (km/s) = 5.80992 6.76758 6.30695
#
# Compressibility (1/GPa) = 0.02176103
#
# Stress axis : x y z
#
# Youngs Moduli (GPa) = 79.61691 42.91756 94.39664
#
# Poissons Ratio (x) = 0.22219 0.22213
# Poissons Ratio (y) = 0.41219 0.45464
# Poissons Ratio (z) = 0.18735 0.20670
#
# Static dielectric constant tensor:
#      x y z
#    x 3.505720 0.000000 0.063150 
#    y 0.000000 3.161360 0.000000 
#    z 0.063150 0.000000 3.663430 
# 
# 
# High freq. dielectric constant tensor:
#      x y z
#    x 1.725320 0.000000 0.008000 
#    y 0.000000 1.691240 0.000000 
#    z 0.008000 0.000000 1.744220 
# 
# From -- ./inp_files/43559.got.cif
#   From: 2010.06.25/outbox.cif.g09.slc.cpg/sg11_22_cif.got.tgz:43559.got - 2010.06.27 23:14:04.
