data_PCOD8069670
_publ_section_title
;
Structure prediction by ZEFSAII (Michael W. Deem and Ramdas Pophale) SiO2 
 PCOD8069670
Probable space group: P 21/M
;
_chemical_formula_sum "Si O2"
_cell_formula_units_Z 32
_cell_length_a 9.462448
_cell_length_b 18.128110
_cell_length_c 21.846073
_cell_angle_alpha 90.000000
_cell_angle_beta 151.856427
_cell_angle_gamma 90.000000
_cell_volume 1767.580761
_symmetry_space_group_name_H-M "P 21/M"
_symmetry_group_IT_number 11
_symmetry_cell_setting 'monoclinic'
loop_
_space_group_symop_operation_xyz
x,y,z
-x,1/2+y,-z
-x,-y,-z
x,1/2-y,z
loop_
_atom_site_type_symbol
_atom_site_label
_atom_site_fract_x
_atom_site_fract_y
_atom_site_fract_z
Si Si1 0.591180 0.915708 0.038975
Si Si2 0.854767 0.068132 0.675901
Si Si3 0.345785 0.664340 0.828795
Si Si4 0.280349 0.098948 0.393182
Si Si5 0.365597 0.665685 0.584257
Si Si6 0.264678 0.665606 0.024654
Si Si7 0.390300 0.162351 0.196371
Si Si8 0.846901 0.832115 0.306848
O O1 0.527278 0.876668 0.950842
O O2 0.392378 0.878689 0.015921
O O3 0.951369 0.908896 0.190141
O O4 0.500000 0.000000 0.000000
O O5 0.510918 0.097725 0.539650
O O6 0.029190 0.102227 0.686004
O O7 0.864244 0.980561 0.672595
O O8 0.421966 0.750000 0.863630
O O9 0.462599 0.630432 0.809113
O O10 0.987704 0.654764 0.695117
O O11 0.448425 0.121300 0.395325
O O12 0.478000 0.750000 0.624307
O O13 0.423588 0.632980 0.673811
O O14 0.006351 0.659941 0.434062
O O15 0.225392 0.750000 0.987828
O O16 0.486430 0.660388 0.168567
O O17 0.948713 0.632748 0.925884
O O18 0.399819 0.250000 0.196539
O O19 0.931142 0.750000 0.312548
#
# Coordination Sequence:
#
# PCOD8069670 Si02
#       8
#     4   4   4   4   4   4   4   4
#     4  11  20  34  55  81 108 141 179 222 269 319
#     4   9  19  32  52  80 110 135 172 218 275 310
#     4  11  22  36  54  80 111 142 175 220 268 314
#     4  10  18  33  56  78 106 140 174 220 266 319
#     4   9  16  29  51  77  98 130 178 218 254 310
#     4   9  17  32  53  75 100 136 177 218 261 315
#     4   9  19  33  50  75 107 138 175 218 261 308
#     4   8  15  28  50  75  99 128 172 219 260 309
#
# _framework density 18.103840000000002
#
# number of rings (size 3 to 8) (size 9 to 14) (size 15 to 20)
#    0.000    2.500    1.250    1.500    0.000    2.000 
#    0.000    1.875    0.000    9.750    0.000    0.000 
#    0.000    0.000    0.000    0.000    0.000    0.000 
#
# Total GULP energy -396464.529505 kJ/mol
# GULP energy per Si atom -12389.516547 kJ/mol
# Density = 1.806264 g / cm^3
# Si number density = 18.103840 Si / 1000 Ang^3
#
#
#
# Elastic Constant Matrix: (Units=GPa)
#
#
# Indices 1 2 3 4 5 6 
#
# 1 96.4435 23.8995 68.8477 0.0000 -17.7133 0.0000
# 2 23.8995 59.1585 30.9323 0.0000 -12.1049 0.0000
# 3 68.8477 30.9323 171.5889 0.0000 -24.3308 0.0000
# 4 0.0000 0.0000 0.0000 22.5743 0.0000 -2.4628
# 5 -17.7133 -12.1049 -24.3308 0.0000 14.1832 0.0000
# 6 0.0000 0.0000 0.0000 -2.4628 0.0000 2.1721
#
#
#
# Elastic Compliance Matrix: (Units=1/GPa)
#
#
# Indices 1 2 3 4 5 6 
#
# 1 0.016068 -0.001930 -0.004608 0.000000 0.010515 0.000000
# 2 -0.001930 0.021052 -0.001076 0.000000 0.013709 0.000000
# 3 -0.004608 -0.001076 0.009150 0.000000 0.009023 0.000000
# 4 0.000000 0.000000 0.000000 0.050551 0.000000 0.057317
# 5 0.010515 0.013709 0.009023 0.000000 0.110817 0.000000
# 6 0.000000 0.000000 0.000000 0.057317 0.000000 0.525375
#
#
# Mechanical properties :
#
#
# Convention : Reuss Voigt Hill
#
# Bulk Modulus (GPa) = 32.21655 63.83888 48.02772
# Shear Modulus (GPa) = 6.59117 21.35334 13.97226
#
# Velocity S-wave (km/s) = 1.91015 3.43810 2.78111
# Velocity P-wave (km/s) = 4.76434 7.14842 6.07449
#
# Compressibility (1/GPa) = 0.03103995
#
# Stress axis : x y z
#
# Youngs Moduli (GPa) = 62.23611 47.50228 109.28531
#
# Poissons Ratio (x) = 0.09170 0.50360
# Poissons Ratio (y) = 0.12014 0.11764
# Poissons Ratio (z) = 0.28679 0.05114
#
# Static dielectric constant tensor:
#      x y z
#    x 3.083580 0.000000 -0.086580 
#    y 0.000000 3.270120 0.000000 
#    z -0.086580 0.000000 4.063250 
# 
# 
# High freq. dielectric constant tensor:
#      x y z
#    x 1.653970 0.000000 -0.005610 
#    y 0.000000 1.692110 0.000000 
#    z -0.005610 0.000000 1.732740 
# 
# From -- ./inp_files/64010.got.cif
#   From: 2010.06.25/outbox.cif.g09.slc.cpg/sg11_33_cif.got.tgz:64010.got - 2010.06.27 23:14:04.
