data_PCOD8069792
_publ_section_title
;
Structure prediction by ZEFSAII (Michael W. Deem and Ramdas Pophale) SiO2 
 PCOD8069792
Probable space group: P 21/M
;
_chemical_formula_sum "Si O2"
_cell_formula_units_Z 32
_cell_length_a 27.831797
_cell_length_b 8.928739
_cell_length_c 21.461304
_cell_angle_alpha 90.000000
_cell_angle_beta 160.945360
_cell_angle_gamma 90.000000
_cell_volume 1741.126639
_symmetry_space_group_name_H-M "P 21/M"
_symmetry_group_IT_number 11
_symmetry_cell_setting 'monoclinic'
loop_
_space_group_symop_operation_xyz
x,y,z
-x,1/2+y,-z
-x,-y,-z
x,1/2-y,z
loop_
_atom_site_type_symbol
_atom_site_label
_atom_site_fract_x
_atom_site_fract_y
_atom_site_fract_z
Si Si1 0.695826 0.073211 0.626963
Si Si2 0.559485 0.079159 0.012179
Si Si3 0.365453 0.427219 0.215477
Si Si4 0.834055 0.075290 0.665668
Si Si5 0.411275 0.077168 0.703556
Si Si6 0.829324 0.926117 0.910362
Si Si7 0.688382 0.573580 0.988050
Si Si8 0.847128 0.428348 0.292872
O O1 0.696161 0.250000 0.636062
O O2 0.530329 0.007141 0.422921
O O3 0.775508 0.025495 0.661232
O O4 0.786594 0.002712 0.794011
O O5 0.580625 0.250000 0.056424
O O6 0.717861 0.017964 0.181799
O O7 0.437634 0.056955 0.809387
O O8 0.500000 0.000000 0.000000
O O9 0.375177 0.250000 0.231296
O O10 0.288128 0.471114 0.055414
O O11 0.269907 0.491765 0.155263
O O12 0.804918 0.250000 0.617773
O O13 0.004108 0.033709 0.868762
O O14 0.752232 0.979129 0.512301
O O15 0.434724 0.250000 0.713110
O O16 0.523023 0.973499 0.802296
O O17 0.807304 0.750000 0.875280
O O18 0.707383 0.750000 0.022840
O O19 0.807648 0.484650 0.175176
O O20 0.859699 0.250000 0.306992
O O21 0.000000 0.500000 0.500000
#
# Coordination Sequence:
#
# PCOD8069792 Si02
#       8
#     4   4   4   4   4   4   4   4
#     4  10  19  34  54  75 102 139 180 221 265 322
#     4   9  20  37  57  83 113 143 181 225 270 324
#     4   9  18  34  54  76 107 139 175 220 266 319
#     4  10  20  35  54  76 105 141 181 217 267 327
#     4  10  20  35  56  82 110 138 182 229 263 315
#     4  10  21  35  51  77 107 138 176 221 270 322
#     4  10  18  34  59  81 108 146 182 222 271 319
#     4  10  21  38  58  86 117 147 186 228 270 325
#
# _framework density 18.378903999999999
#
# number of rings (size 3 to 8) (size 9 to 14) (size 15 to 20)
#    0.000    2.250    1.250    2.625    0.000    4.000 
#    2.250    1.250    0.000    0.000    0.000    0.000 
#    0.000    0.000    0.000    0.000    0.000    0.000 
#
# Total GULP energy -396816.287329 kJ/mol
# GULP energy per Si atom -12400.508979 kJ/mol
# Density = 1.833707 g / cm^3
# Si number density = 18.378904 Si / 1000 Ang^3
#
#
#
# Elastic Constant Matrix: (Units=GPa)
#
#
# Indices 1 2 3 4 5 6 
#
# 1 83.6769 33.6059 30.1216 0.0000 -1.7298 0.0000
# 2 33.6059 54.2978 38.4476 0.0000 -6.6194 0.0000
# 3 30.1216 38.4476 85.9369 0.0000 -9.2471 0.0000
# 4 0.0000 0.0000 0.0000 30.9811 0.0000 -8.1702
# 5 -1.7298 -6.6194 -9.2471 0.0000 28.3068 0.0000
# 6 0.0000 0.0000 0.0000 -8.1702 0.0000 24.8477
#
#
#
# Elastic Compliance Matrix: (Units=1/GPa)
#
#
# Indices 1 2 3 4 5 6 
#
# 1 0.016156 -0.008881 -0.001873 0.000000 -0.001701 0.000000
# 2 -0.008881 0.032003 -0.010839 0.000000 0.003400 0.000000
# 3 -0.001873 -0.010839 0.017471 0.000000 0.003058 0.000000
# 4 0.000000 0.000000 0.000000 0.035342 0.000000 0.011621
# 5 -0.001701 0.003400 0.003058 0.000000 0.037017 0.000000
# 6 0.000000 0.000000 0.000000 0.011621 0.000000 0.044066
#
#
# Mechanical properties :
#
#
# Convention : Reuss Voigt Hill
#
# Bulk Modulus (GPa) = 44.55317 47.58465 46.06891
# Shear Modulus (GPa) = 21.48463 24.94288 23.21375
#
# Velocity S-wave (km/s) = 3.42275 3.68794 3.55782
# Velocity P-wave (km/s) = 6.31778 6.63940 6.48059
#
# Compressibility (1/GPa) = 0.02244509
#
# Stress axis : x y z
#
# Youngs Moduli (GPa) = 61.89508 31.24696 57.23635
#
# Poissons Ratio (x) = 0.27750 0.10719
# Poissons Ratio (y) = 0.54967 0.62040
# Poissons Ratio (z) = 0.11592 0.33870
#
# Static dielectric constant tensor:
#      x y z
#    x 3.485260 0.000000 0.016700 
#    y 0.000000 3.317140 0.000000 
#    z 0.016700 0.000000 3.498320 
# 
# 
# High freq. dielectric constant tensor:
#      x y z
#    x 1.710980 0.000000 -0.007900 
#    y 0.000000 1.701280 0.000000 
#    z -0.007900 0.000000 1.718820 
# 
# From -- ./inp_files/67255.got.cif
#   From: 2010.06.25/outbox.cif.g09.slc.cpg/sg11_34_cif.got.tgz:67255.got - 2010.06.27 23:14:04.
