data_PCOD8069005
_publ_section_title
;
Structure prediction by ZEFSAII (Michael W. Deem and Ramdas Pophale) SiO2 
 PCOD8069005
Probable space group: P 21/M
;
_chemical_formula_sum "Si O2"
_cell_formula_units_Z 32
_cell_length_a 26.478338
_cell_length_b 9.048095
_cell_length_c 21.283995
_cell_angle_alpha 90.000000
_cell_angle_beta 158.640862
_cell_angle_gamma 90.000000
_cell_volume 1857.188940
_symmetry_space_group_name_H-M "P 21/M"
_symmetry_group_IT_number 11
_symmetry_cell_setting 'monoclinic'
loop_
_space_group_symop_operation_xyz
x,y,z
-x,1/2+y,-z
-x,-y,-z
x,1/2-y,z
loop_
_atom_site_type_symbol
_atom_site_label
_atom_site_fract_x
_atom_site_fract_y
_atom_site_fract_z
Si Si1 0.896557 0.416710 0.465005
Si Si2 0.204023 0.417084 0.765982
Si Si3 0.578040 0.574985 0.532959
Si Si4 0.893495 0.923046 0.922187
Si Si5 0.101981 0.078921 0.930697
Si Si6 0.405902 0.077358 0.230837
Si Si7 0.996321 0.915996 0.694218
Si Si8 0.696227 0.417363 0.004121
O O1 0.841577 0.250000 0.408269
O O2 0.794608 0.504721 0.300279
O O3 0.893528 0.493482 0.529733
O O4 0.050558 0.417667 0.616132
O O5 0.258335 0.250000 0.821441
O O6 0.307035 0.505583 0.931488
O O7 0.500000 0.500000 0.500000
O O8 0.552714 0.750000 0.506692
O O9 0.738893 0.533419 0.723334
O O10 0.524661 0.509207 0.405646
O O11 0.916072 0.750000 0.943293
O O12 0.922914 0.976081 0.027377
O O13 0.000000 0.000000 0.000000
O O14 0.066001 0.250000 0.879935
O O15 0.262018 0.049962 0.099905
O O16 0.999295 0.988348 0.766589
O O17 0.442465 0.250000 0.269275
O O18 0.401255 0.010656 0.155416
O O19 0.939403 0.750000 0.634177
O O20 0.148779 0.917973 0.842144
O O21 0.640462 0.250000 0.945383
#
# Coordination Sequence:
#
# PCOD8069005 Si02
#       8
#     4   4   4   4   4   4   4   4
#     4   9  15  22  32  47  70 105 144 184 228 273
#     4   9  15  22  32  47  71 106 145 186 227 272
#     4  11  21  35  53  75  99 125 160 202 245 291
#     4  10  22  38  53  73  99 128 161 200 245 296
#     4   9  17  31  46  63  90 119 150 192 238 284
#     4  10  18  30  47  68  92 119 154 197 241 284
#     4   9  16  24  36  56  78 105 146 189 228 275
#     4   9  16  25  36  55  81 111 147 187 231 280
#
# _framework density 17.230342
#
# number of rings (size 3 to 8) (size 9 to 14) (size 15 to 20)
#    0.000    2.500    1.250    2.250    0.000    8.000 
#    0.000    0.000    0.000    0.000    0.000    0.000 
#    0.000    0.000    0.000    1.125    0.000   15.750 
#
# Total GULP energy -396796.469873 kJ/mol
# GULP energy per Si atom -12399.889684 kJ/mol
# Density = 1.719112 g / cm^3
# Si number density = 17.230342 Si / 1000 Ang^3
#
#
#
# Elastic Constant Matrix: (Units=GPa)
#
#
# Indices 1 2 3 4 5 6 
#
# 1 87.9129 61.3694 67.4269 0.0000 -37.4297 0.0000
# 2 61.3694 134.2916 60.6665 0.0000 -26.9173 0.0000
# 3 67.4269 60.6665 83.3855 0.0000 -35.7185 0.0000
# 4 0.0000 0.0000 0.0000 27.9653 0.0000 -13.2441
# 5 -37.4297 -26.9173 -35.7185 0.0000 36.1698 0.0000
# 6 0.0000 0.0000 0.0000 -13.2441 0.0000 28.2715
#
#
#
# Elastic Compliance Matrix: (Units=1/GPa)
#
#
# Indices 1 2 3 4 5 6 
#
# 1 0.035323 -0.004677 -0.019053 0.000000 0.014258 0.000000
# 2 -0.004677 0.011717 -0.005339 0.000000 -0.001393 0.000000
# 3 -0.019053 -0.005339 0.036631 0.000000 0.012484 0.000000
# 4 0.000000 0.000000 0.000000 0.045954 0.000000 0.021528
# 5 0.014258 -0.001393 0.012484 0.000000 0.053694 0.000000
# 6 0.000000 0.000000 0.000000 0.021528 0.000000 0.045456
#
#
# Mechanical properties :
#
#
# Convention : Reuss Voigt Hill
#
# Bulk Modulus (GPa) = 39.16504 76.05731 57.61118
# Shear Modulus (GPa) = 16.92486 26.22312 21.57399
#
# Velocity S-wave (km/s) = 3.13752 3.90541 3.54233
# Velocity P-wave (km/s) = 5.99208 8.03577 7.08797
#
# Compressibility (1/GPa) = 0.02553297
#
# Stress axis : x y z
#
# Youngs Moduli (GPa) = 28.30986 85.34908 27.29949
#
# Poissons Ratio (x) = 0.39921 0.52013
# Poissons Ratio (y) = 0.13242 0.14575
# Poissons Ratio (z) = 0.53938 0.45567
#
# Static dielectric constant tensor:
#      x y z
#    x 3.079500 0.000000 -0.930430 
#    y 0.000000 3.511300 0.000000 
#    z -0.930430 0.000000 4.519260 
# 
# 
# High freq. dielectric constant tensor:
#      x y z
#    x 1.631230 0.000000 -0.055720 
#    y 0.000000 1.681610 0.000000 
#    z -0.055720 0.000000 1.634450 
# 
# From -- ./inp_files/67305.got.cif
#   From: 2010.06.25/outbox.cif.g09.slc.cpg/sg11_34_cif.got.tgz:67305.got - 2010.06.27 23:14:04.
