data_PCOD8069100
_publ_section_title
;
Structure prediction by ZEFSAII (Michael W. Deem and Ramdas Pophale) SiO2 
 PCOD8069100
Probable space group: P 21/M
;
_chemical_formula_sum "Si O2"
_cell_formula_units_Z 28
_cell_length_a 9.559945
_cell_length_b 8.975315
_cell_length_c 31.327956
_cell_angle_alpha 90.000000
_cell_angle_beta 145.109631
_cell_angle_gamma 90.000000
_cell_volume 1537.585445
_symmetry_space_group_name_H-M "P 21/M"
_symmetry_group_IT_number 11
_symmetry_cell_setting 'monoclinic'
loop_
_space_group_symop_operation_xyz
x,y,z
-x,1/2+y,-z
-x,-y,-z
x,1/2-y,z
loop_
_atom_site_type_symbol
_atom_site_label
_atom_site_fract_x
_atom_site_fract_y
_atom_site_fract_z
Si Si1 0.282186 0.426051 0.188312
Si Si2 0.871451 0.924723 0.757586
Si Si3 0.944978 0.922346 0.552409
Si Si4 0.627337 0.076744 0.407389
Si Si5 0.188677 0.926159 0.079016
Si Si6 0.256813 0.079925 0.798454
Si Si7 0.796019 0.923583 0.310953
O O1 0.290475 0.250000 0.182142
O O2 0.133118 0.467474 0.193701
O O3 0.144917 0.507059 0.115078
O O4 0.556275 0.483799 0.263013
O O5 0.865881 0.750000 0.750816
O O6 0.633094 0.987861 0.673326
O O7 0.119981 0.984507 0.799631
O O8 0.904564 0.750000 0.553056
O O9 0.182679 0.950216 0.583150
O O10 0.705507 0.984325 0.468660
O O11 0.979826 0.013320 0.605099
O O12 0.617007 0.250000 0.417145
O O13 0.149453 0.750000 0.071189
O O14 0.460133 0.968294 0.131375
O O15 0.000000 0.000000 0.000000
O O16 0.231895 0.250000 0.806101
O O17 0.138349 0.052862 0.722286
O O18 0.747683 0.750000 0.308559
#
# Coordination Sequence:
#
# PCOD8069100 Si02
#       7
#     4   4   4   4   4   4   4
#     4  10  19  34  56  83 110 139 178 222 261 313
#     4  10  20  35  54  79 110 142 178 219 268 319
#     4  10  18  30  49  75 103 136 182 230 275 318
#     4   9  18  32  47  72 107 138 175 226 273 317
#     4  10  21  39  61  87 112 140 176 216 260 311
#     4   9  21  37  54  79 110 139 175 218 263 316
#     4  10  19  33  52  76 105 141 183 228 270 315
#
# _framework density 18.210370000000001
#
# number of rings (size 3 to 8) (size 9 to 14) (size 15 to 20)
#    0.000    2.286    1.429    2.571    0.000    5.714 
#    0.000    1.429    0.000    0.000    0.000    0.000 
#    0.000    0.000    0.000    0.000    0.000    0.000 
#
# Total GULP energy -347241.493280 kJ/mol
# GULP energy per Si atom -12401.481903 kJ/mol
# Density = 1.816892 g / cm^3
# Si number density = 18.210370 Si / 1000 Ang^3
#
#
#
# Elastic Constant Matrix: (Units=GPa)
#
#
# Indices 1 2 3 4 5 6 
#
# 1 99.4266 45.5177 57.0103 0.0000 -10.9733 0.0000
# 2 45.5177 73.5750 58.8570 0.0000 -13.1170 0.0000
# 3 57.0103 58.8570 148.0083 0.0000 -19.0317 0.0000
# 4 0.0000 0.0000 0.0000 34.3865 0.0000 -2.3942
# 5 -10.9733 -13.1170 -19.0317 0.0000 19.2627 0.0000
# 6 0.0000 0.0000 0.0000 -2.3942 0.0000 29.7137
#
#
#
# Elastic Compliance Matrix: (Units=1/GPa)
#
#
# Indices 1 2 3 4 5 6 
#
# 1 0.014928 -0.006685 -0.002960 0.000000 0.001028 0.000000
# 2 -0.006685 0.023681 -0.006023 0.000000 0.006366 0.000000
# 3 -0.002960 -0.006023 0.010937 0.000000 0.005018 0.000000
# 4 0.000000 0.000000 0.000000 0.029245 0.000000 0.002356
# 5 0.001028 0.006366 0.005018 0.000000 0.061793 0.000000
# 6 0.000000 0.000000 0.000000 0.002356 0.000000 0.033844
#
#
# Mechanical properties :
#
#
# Convention : Reuss Voigt Hill
#
# Bulk Modulus (GPa) = 54.91396 71.53110 63.22253
# Shear Modulus (GPa) = 23.60340 27.31423 25.45881
#
# Velocity S-wave (km/s) = 3.60412 3.87709 3.74309
# Velocity P-wave (km/s) = 6.89495 7.70767 7.31261
#
# Compressibility (1/GPa) = 0.01821031
#
# Stress axis : x y z
#
# Youngs Moduli (GPa) = 66.98601 42.22883 91.43308
#
# Poissons Ratio (x) = 0.28228 0.27062
# Poissons Ratio (y) = 0.44778 0.55074
# Poissons Ratio (z) = 0.19827 0.25436
#
# Static dielectric constant tensor:
#      x y z
#    x 3.196950 0.000000 -0.143670 
#    y 0.000000 3.364880 0.000000 
#    z -0.143670 0.000000 3.413270 
# 
# 
# High freq. dielectric constant tensor:
#      x y z
#    x 1.683280 0.000000 -0.015120 
#    y 0.000000 1.712530 0.000000 
#    z -0.015120 0.000000 1.704860 
# 
# From -- ./inp_files/28222.got.cif
#   From: 2010.06.25/outbox.cif.g09.slc.cpg/sg11_15_cif.got.tgz:28222.got - 2010.06.27 23:14:04.
