data_PCOD8069470
_publ_section_title
;
Structure prediction by ZEFSAII (Michael W. Deem and Ramdas Pophale) SiO2 
 PCOD8069470
Probable space group: P 21/M
;
_chemical_formula_sum "Si O2"
_cell_formula_units_Z 32
_cell_length_a 9.897417
_cell_length_b 13.742812
_cell_length_c 14.256812
_cell_angle_alpha 90.000000
_cell_angle_beta 57.937565
_cell_angle_gamma 90.000000
_cell_volume 1643.403860
_symmetry_space_group_name_H-M "P 21/M"
_symmetry_group_IT_number 11
_symmetry_cell_setting 'monoclinic'
loop_
_space_group_symop_operation_xyz
x,y,z
-x,1/2+y,-z
-x,-y,-z
x,1/2-y,z
loop_
_atom_site_type_symbol
_atom_site_label
_atom_site_fract_x
_atom_site_fract_y
_atom_site_fract_z
Si Si1 0.264278 0.861756 0.485471
Si Si2 0.485706 0.046210 0.866664
Si Si3 0.172503 0.448064 0.617495
Si Si4 0.842312 0.438626 0.667337
Si Si5 0.404679 0.451681 0.687592
Si Si6 0.208678 0.353464 0.308982
Si Si7 0.570928 0.856284 0.607576
Si Si8 0.438004 0.356910 0.069317
O O1 0.244874 0.750000 0.526243
O O2 0.173766 0.873979 0.419327
O O3 0.452059 0.885194 0.404515
O O4 0.187061 0.936084 0.589009
O O5 0.675886 0.062823 0.784326
O O6 0.390260 0.060211 0.804719
O O7 0.451828 0.939308 0.922713
O O8 0.419961 0.124678 0.964547
O O9 0.239006 0.424746 0.697590
O O10 0.272460 0.385430 0.507273
O O11 0.991202 0.407001 0.677530
O O12 0.888071 0.551452 0.622556
O O13 0.434718 0.563677 0.645781
O O14 0.116543 0.250000 0.362017
O O15 0.377004 0.354028 0.302934
O O16 0.260617 0.359422 0.180673
O O17 0.507399 0.750000 0.598750
O O18 0.515283 0.250000 0.055165
#
# Coordination Sequence:
#
# PCOD8069470 Si02
#       8
#     4   4   4   4   4   4   4   4
#     4  10  20  34  51  70  99 138 180 214 241 281
#     4   9  18  33  53  75  99 125 164 212 253 296
#     4  11  22  33  49  74 109 142 169 200 248 301
#     4  10  19  35  48  75 107 134 170 210 244 299
#     4  10  20  35  50  74 105 136 172 208 244 301
#     4   9  16  30  55  79  98 124 166 215 255 289
#     4  10  18  32  52  73  99 136 174 209 243 284
#     4   9  16  30  55  80  93 117 164 218 261 291
#
# _framework density 19.471782000000001
#
# number of rings (size 3 to 8) (size 9 to 14) (size 15 to 20)
#    0.000    2.250    5.000    1.875    0.000    5.000 
#    0.000    0.000    0.000    6.750    0.000    3.500 
#    0.000    0.000    0.000    0.000    0.000    0.000 
#
# Total GULP energy -396427.715458 kJ/mol
# GULP energy per Si atom -12388.366108 kJ/mol
# Density = 1.942746 g / cm^3
# Si number density = 19.471782 Si / 1000 Ang^3
#
#
#
# Elastic Constant Matrix: (Units=GPa)
#
#
# Indices 1 2 3 4 5 6 
#
# 1 138.4408 5.0873 31.4020 0.0000 13.1628 0.0000
# 2 5.0873 73.7980 14.2338 0.0000 1.0820 0.0000
# 3 31.4020 14.2338 55.4285 0.0000 20.5466 0.0000
# 4 0.0000 0.0000 0.0000 13.2945 0.0000 5.6251
# 5 13.1628 1.0820 20.5466 0.0000 16.8566 0.0000
# 6 0.0000 0.0000 0.0000 5.6251 0.0000 5.3602
#
#
#
# Elastic Compliance Matrix: (Units=1/GPa)
#
#
# Indices 1 2 3 4 5 6 
#
# 1 0.008311 0.000278 -0.004319 0.000000 -0.001243 0.000000
# 2 0.000278 0.014664 -0.006374 0.000000 0.006610 0.000000
# 3 -0.004319 -0.006374 0.037804 0.000000 -0.042298 0.000000
# 4 0.000000 0.000000 0.000000 0.135295 0.000000 -0.141982
# 5 -0.001243 0.006610 -0.042298 0.000000 0.111428 0.000000
# 6 0.000000 0.000000 0.000000 -0.141982 0.000000 0.335560
#
#
# Mechanical properties :
#
#
# Convention : Reuss Voigt Hill
#
# Bulk Modulus (GPa) = 25.03118 41.01262 33.02190
# Shear Modulus (GPa) = 7.38326 21.56519 14.47423
#
# Velocity S-wave (km/s) = 1.94936 3.33154 2.72939
# Velocity P-wave (km/s) = 4.23671 5.99226 5.18926
#
# Compressibility (1/GPa) = 0.03995018
#
# Stress axis : x y z
#
# Youngs Moduli (GPa) = 120.32324 68.19551 26.45203
#
# Poissons Ratio (x) = -0.01898 0.11425
# Poissons Ratio (y) = -0.03349 0.16860
# Poissons Ratio (z) = 0.51969 0.43465
#
# Static dielectric constant tensor:
#      x y z
#    x 3.366190 0.000000 0.234520 
#    y 0.000000 3.769010 0.000000 
#    z 0.234520 0.000000 3.342510 
# 
# 
# High freq. dielectric constant tensor:
#      x y z
#    x 1.726880 0.000000 0.024010 
#    y 0.000000 1.766460 0.000000 
#    z 0.024010 0.000000 1.726280 
# 
# From -- ./inp_files/47624.got.cif
#   From: 2010.06.25/outbox.cif.g09.slc.cpg/sg11_24_cif.got.tgz:47624.got - 2010.06.27 23:14:04.
