data_PCOD8069957
_publ_section_title
;
Structure prediction by ZEFSAII (Michael W. Deem and Ramdas Pophale) SiO2 
 PCOD8069957
Probable space group: P 21/M
;
_chemical_formula_sum "Si O2"
_cell_formula_units_Z 32
_cell_length_a 23.688772
_cell_length_b 9.100664
_cell_length_c 16.533531
_cell_angle_alpha 90.000000
_cell_angle_beta 29.170328
_cell_angle_gamma 90.000000
_cell_volume 1737.294628
_symmetry_space_group_name_H-M "P 21/M"
_symmetry_group_IT_number 11
_symmetry_cell_setting 'monoclinic'
loop_
_space_group_symop_operation_xyz
x,y,z
-x,1/2+y,-z
-x,-y,-z
x,1/2-y,z
loop_
_atom_site_type_symbol
_atom_site_label
_atom_site_fract_x
_atom_site_fract_y
_atom_site_fract_z
Si Si1 0.903643 0.918571 0.895787
Si Si2 0.751679 0.921215 0.486293
Si Si3 0.468624 0.588666 0.276075
Si Si4 0.988675 0.579360 0.098668
Si Si5 0.132970 0.921179 0.514968
Si Si6 0.214439 0.922533 0.240992
Si Si7 0.562512 0.912612 0.989502
Si Si8 0.274614 0.421478 0.013221
O O1 0.913337 0.750000 0.911437
O O2 0.781280 0.949099 0.004787
O O3 0.004894 0.957726 0.705926
O O4 0.913002 0.018861 0.963379
O O5 0.731542 0.750000 0.525788
O O6 0.862692 0.954524 0.292198
O O7 0.641994 0.983344 0.572457
O O8 0.771818 0.993594 0.549626
O O9 0.445844 0.750000 0.344263
O O10 0.474918 0.608896 0.172397
O O11 0.591306 0.521950 0.156420
O O12 0.011281 0.750000 0.057631
O O13 0.000000 0.500000 0.000000
O O14 0.164486 0.750000 0.482862
O O15 0.134858 0.969121 0.417569
O O16 0.208917 0.750000 0.232629
O O17 0.340699 0.975254 0.104867
O O18 0.189855 0.001846 0.185811
O O19 0.606894 0.750000 0.906047
O O20 0.500000 0.000000 0.000000
O O21 0.277067 0.250000 0.034036
#
# Coordination Sequence:
#
# PCOD8069957 Si02
#       8
#     4   4   4   4   4   4   4   4
#     4   9  18  35  56  75 100 134 167 203 250 300
#     4  10  20  32  50  77 103 127 161 205 249 294
#     4   9  18  31  46  66  95 131 168 204 244 293
#     4  10  21  37  58  85 109 127 153 192 242 299
#     4   9  18  31  47  69  98 133 171 211 258 304
#     4  10  19  29  42  64  95 132 175 217 252 290
#     4  10  19  29  41  60  88 125 170 216 259 299
#     4   9  19  34  50  70  98 136 178 212 247 292
#
# _framework density 18.419443000000001
#
# number of rings (size 3 to 8) (size 9 to 14) (size 15 to 20)
#    0.000    2.500    0.000    3.000    0.000    9.000 
#    0.000    0.000    0.000    0.750    0.000    0.000 
#    0.000    0.000    0.000    0.000    0.000    0.000 
#
# Total GULP energy -396528.196502 kJ/mol
# GULP energy per Si atom -12391.506141 kJ/mol
# Density = 1.837752 g / cm^3
# Si number density = 18.419443 Si / 1000 Ang^3
#
#
#
# Elastic Constant Matrix: (Units=GPa)
#
#
# Indices 1 2 3 4 5 6 
#
# 1 115.0828 53.1564 41.7311 0.0000 -4.8827 0.0000
# 2 53.1564 71.7218 31.6884 0.0000 -1.4492 0.0000
# 3 41.7311 31.6884 44.1137 0.0000 -9.4565 0.0000
# 4 0.0000 0.0000 0.0000 25.7430 0.0000 1.7727
# 5 -4.8827 -1.4492 -9.4565 0.0000 26.7359 0.0000
# 6 0.0000 0.0000 0.0000 1.7727 0.0000 27.6946
#
#
#
# Elastic Compliance Matrix: (Units=1/GPa)
#
#
# Indices 1 2 3 4 5 6 
#
# 1 0.015496 -0.007229 -0.009677 0.000000 -0.000985 0.000000
# 2 -0.007229 0.024291 -0.011482 0.000000 -0.004065 0.000000
# 3 -0.009677 -0.011482 0.042805 0.000000 0.012750 0.000000
# 4 0.000000 0.000000 0.000000 0.039017 0.000000 -0.002498
# 5 -0.000985 -0.004065 0.012750 0.000000 0.041513 0.000000
# 6 0.000000 0.000000 0.000000 -0.002498 0.000000 0.036268
#
#
# Mechanical properties :
#
#
# Convention : Reuss Voigt Hill
#
# Bulk Modulus (GPa) = 38.73701 53.78557 46.26129
# Shear Modulus (GPa) = 18.88419 22.99085 20.93752
#
# Velocity S-wave (km/s) = 3.20540 3.53680 3.37517
# Velocity P-wave (km/s) = 5.89708 6.77808 6.35287
#
# Compressibility (1/GPa) = 0.02581511
#
# Stress axis : x y z
#
# Youngs Moduli (GPa) = 64.53388 41.16667 23.36196
#
# Poissons Ratio (x) = 0.29759 0.22608
# Poissons Ratio (y) = 0.46651 0.26825
# Poissons Ratio (z) = 0.62450 0.47269
#
# Static dielectric constant tensor:
#      x y z
#    x 3.201550 0.000000 -0.076770 
#    y 0.000000 3.521110 0.000000 
#    z -0.076770 0.000000 3.253540 
# 
# 
# High freq. dielectric constant tensor:
#      x y z
#    x 1.703230 0.000000 -0.013680 
#    y 0.000000 1.717410 0.000000 
#    z -0.013680 0.000000 1.689370 
# 
# From -- ./inp_files/61770.got.cif
#   From: 2010.06.25/outbox.cif.g09.slc.cpg/sg11_31_cif.got.tgz:61770.got - 2010.06.27 23:14:04.
