data_PCOD8069254
_publ_section_title
;
Structure prediction by ZEFSAII (Michael W. Deem and Ramdas Pophale) SiO2 
 PCOD8069254
Probable space group: P 21/M
;
_chemical_formula_sum "Si O2"
_cell_formula_units_Z 32
_cell_length_a 29.149759
_cell_length_b 8.973881
_cell_length_c 23.978170
_cell_angle_alpha 90.000000
_cell_angle_beta 162.414613
_cell_angle_gamma 90.000000
_cell_volume 1895.049348
_symmetry_space_group_name_H-M "P 21/M"
_symmetry_group_IT_number 11
_symmetry_cell_setting 'monoclinic'
loop_
_space_group_symop_operation_xyz
x,y,z
-x,1/2+y,-z
-x,-y,-z
x,1/2-y,z
loop_
_atom_site_type_symbol
_atom_site_label
_atom_site_fract_x
_atom_site_fract_y
_atom_site_fract_z
Si Si1 0.492921 0.423342 0.124015
Si Si2 0.797112 0.427482 0.417019
Si Si3 0.909289 0.573740 0.177935
Si Si4 0.650516 0.924138 0.152500
Si Si5 0.024505 0.926428 0.193637
Si Si6 0.965689 0.581294 0.903248
Si Si7 0.412185 0.072191 0.151970
Si Si8 0.696219 0.919307 0.518331
O O1 0.518223 0.250000 0.162839
O O2 0.652437 0.487127 0.285139
O O3 0.447997 0.492536 0.131689
O O4 0.352601 0.450976 0.918173
O O5 0.794438 0.250000 0.408385
O O6 0.791015 0.497624 0.347339
O O7 0.949838 0.488375 0.622863
O O8 0.912216 0.750000 0.185924
O O9 0.924743 0.525791 0.131240
O O10 0.751950 0.510321 0.019698
O O11 0.649161 0.750000 0.164958
O O12 0.500000 0.000000 0.000000
O O13 0.035948 0.750000 0.200348
O O14 0.950510 0.997560 0.051620
O O15 0.195188 0.992715 0.399942
O O16 0.026463 0.750000 0.977109
O O17 0.783547 0.577778 0.679571
O O18 0.000000 0.500000 0.000000
O O19 0.417232 0.250000 0.161285
O O20 0.536247 0.003902 0.337971
O O21 0.671901 0.750000 0.469843
#
# Coordination Sequence:
#
# PCOD8069254 Si02
#       8
#     4   4   4   4   4   4   4   4
#     4   8  15  27  46  66  88 119 157 199 242 289
#     4   9  16  29  46  66  92 121 158 202 244 288
#     4   9  18  30  48  73  98 127 165 202 240 288
#     4   9  16  28  44  65  88 116 155 200 249 294
#     4   9  16  30  51  73  98 128 160 196 236 280
#     4   9  18  31  51  79 106 127 158 197 237 278
#     4  10  18  31  50  70  94 130 168 200 239 289
#     4   9  19  32  47  73 102 126 158 198 239 281
#
# _framework density 16.886104
#
# number of rings (size 3 to 8) (size 9 to 14) (size 15 to 20)
#    0.750    2.250    0.000    2.625    0.000    2.000 
#    0.000    9.375    0.000    0.750    0.000    0.000 
#    0.000    0.000    0.000    0.000    0.000    0.000 
#
# Total GULP energy -396418.123797 kJ/mol
# GULP energy per Si atom -12388.066369 kJ/mol
# Density = 1.684767 g / cm^3
# Si number density = 16.886104 Si / 1000 Ang^3
#
#
#
# Elastic Constant Matrix: (Units=GPa)
#
#
# Indices 1 2 3 4 5 6 
#
# 1 83.9001 33.6804 70.1453 0.0000 -5.0467 0.0000
# 2 33.6804 68.1723 33.8348 0.0000 -5.7071 0.0000
# 3 70.1453 33.8348 94.3260 0.0000 -3.1516 0.0000
# 4 0.0000 0.0000 0.0000 25.0366 0.0000 -7.8485
# 5 -5.0467 -5.7071 -3.1516 0.0000 26.6509 0.0000
# 6 0.0000 0.0000 0.0000 -7.8485 0.0000 16.0115
#
#
#
# Elastic Compliance Matrix: (Units=1/GPa)
#
#
# Indices 1 2 3 4 5 6 
#
# 1 0.033017 -0.004813 -0.022742 0.000000 0.002532 0.000000
# 2 -0.004813 0.018802 -0.003073 0.000000 0.002752 0.000000
# 3 -0.022742 -0.003073 0.028563 0.000000 -0.001587 0.000000
# 4 0.000000 0.000000 0.000000 0.047193 0.000000 0.023133
# 5 0.002532 0.002752 -0.001587 0.000000 0.038403 0.000000
# 6 0.000000 0.000000 0.000000 0.023133 0.000000 0.073795
#
#
# Mechanical properties :
#
#
# Convention : Reuss Voigt Hill
#
# Bulk Modulus (GPa) = 52.28569 57.96882 55.12725
# Shear Modulus (GPa) = 16.26519 20.78899 18.52709
#
# Velocity S-wave (km/s) = 3.10696 3.51255 3.31596
# Velocity P-wave (km/s) = 6.62585 7.13124 6.88318
#
# Compressibility (1/GPa) = 0.01912569
#
# Stress axis : x y z
#
# Youngs Moduli (GPa) = 30.28754 53.18529 35.01039
#
# Poissons Ratio (x) = 0.25597 0.79621
# Poissons Ratio (y) = 0.14577 0.10760
# Poissons Ratio (z) = 0.68880 0.16346
#
# Static dielectric constant tensor:
#      x y z
#    x 3.185730 0.000000 -0.142320 
#    y 0.000000 3.031630 0.000000 
#    z -0.142320 0.000000 3.161230 
# 
# 
# High freq. dielectric constant tensor:
#      x y z
#    x 1.630210 0.000000 -0.020660 
#    y 0.000000 1.637660 0.000000 
#    z -0.020660 0.000000 1.635820 
# 
# From -- ./inp_files/70421.got.cif
#   From: 2010.06.25/outbox.cif.g09.slc.cpg/sg11_36_cif.got.tgz:70421.got - 2010.06.27 23:14:04.
