data_PCOD8069283
_publ_section_title
;
Structure prediction by ZEFSAII (Michael W. Deem and Ramdas Pophale) SiO2 
 PCOD8069283
Probable space group: P 21/M
;
_chemical_formula_sum "Si O2"
_cell_formula_units_Z 20
_cell_length_a 10.361197
_cell_length_b 8.696757
_cell_length_c 21.700955
_cell_angle_alpha 90.000000
_cell_angle_beta 144.995454
_cell_angle_gamma 90.000000
_cell_volume 1121.725574
_symmetry_space_group_name_H-M "P 21/M"
_symmetry_group_IT_number 11
_symmetry_cell_setting 'monoclinic'
loop_
_space_group_symop_operation_xyz
x,y,z
-x,1/2+y,-z
-x,-y,-z
x,1/2-y,z
loop_
_atom_site_type_symbol
_atom_site_label
_atom_site_fract_x
_atom_site_fract_y
_atom_site_fract_z
Si Si1 0.745213 0.932008 0.269041
Si Si2 0.523640 0.430574 0.717304
Si Si3 0.992994 0.932128 0.064719
Si Si4 0.114589 0.068534 0.484939
Si Si5 0.464288 0.432239 0.052796
O O1 0.737738 0.750000 0.259033
O O2 0.591403 0.996802 0.265156
O O3 0.663336 0.008257 0.174101
O O4 0.004530 0.985903 0.382474
O O5 0.520877 0.250000 0.726208
O O6 0.381003 0.470975 0.599409
O O7 0.780399 0.489045 0.811107
O O8 0.984896 0.750000 0.056210
O O9 0.776063 0.993787 0.016283
O O10 0.000000 0.000000 0.000000
O O11 0.073794 0.250000 0.464527
O O12 0.000000 0.000000 0.500000
O O13 0.470264 0.250000 0.052152
O O14 0.500000 0.500000 0.000000
#
# Coordination Sequence:
#
# PCOD8069283 Si02
#       5
#     4   4   4   4   4
#     4  10  18  31  51  73 103 137 170 214 260 305
#     4   8  15  28  48  74 104 132 161 206 260 304
#     4  10  19  33  53  78 104 135 171 212 261 309
#     4   9  16  27  45  72 104 135 167 207 257 310
#     4  11  23  36  53  76 105 141 178 214 257 312
#
# _framework density 17.829674000000001
#
# number of rings (size 3 to 8) (size 9 to 14) (size 15 to 20)
#    0.000    2.400    2.000    3.000    0.000    0.800 
#    0.000    1.000    0.000    1.200    0.000    0.000 
#    0.000    0.000    0.000    0.000    0.000    0.000 
#
# Total GULP energy -247830.848940 kJ/mol
# GULP energy per Si atom -12391.542447 kJ/mol
# Density = 1.778909 g / cm^3
# Si number density = 17.829674 Si / 1000 Ang^3
#
#
#
# Elastic Constant Matrix: (Units=GPa)
#
#
# Indices 1 2 3 4 5 6 
#
# 1 88.0673 27.3431 66.5015 0.0000 -6.0324 0.0000
# 2 27.3431 54.0005 37.2615 0.0000 -2.6385 0.0000
# 3 66.5015 37.2615 194.3648 0.0000 -5.1191 0.0000
# 4 0.0000 0.0000 0.0000 29.2011 0.0000 -6.4996
# 5 -6.0324 -2.6385 -5.1191 0.0000 22.5986 0.0000
# 6 0.0000 0.0000 0.0000 -6.4996 0.0000 19.1426
#
#
#
# Elastic Compliance Matrix: (Units=1/GPa)
#
#
# Indices 1 2 3 4 5 6 
#
# 1 0.016629 -0.005080 -0.004642 0.000000 0.002794 0.000000
# 2 -0.005080 0.022949 -0.002642 0.000000 0.000725 0.000000
# 3 -0.004642 -0.002642 0.007242 0.000000 0.000093 0.000000
# 4 0.000000 0.000000 0.000000 0.037045 0.000000 0.012578
# 5 0.002794 0.000725 0.000093 0.000000 0.045102 0.000000
# 6 0.000000 0.000000 0.000000 0.012578 0.000000 0.056510
#
#
# Mechanical properties :
#
#
# Convention : Reuss Voigt Hill
#
# Bulk Modulus (GPa) = 45.26692 66.51610 55.89151
# Shear Modulus (GPa) = 22.98097 27.87689 25.42893
#
# Velocity S-wave (km/s) = 3.59404 3.95842 3.78062
# Velocity P-wave (km/s) = 6.53196 7.63410 7.10443
#
# Compressibility (1/GPa) = 0.02209119
#
# Stress axis : x y z
#
# Youngs Moduli (GPa) = 60.13584 43.57398 138.07941
#
# Poissons Ratio (x) = 0.22138 0.64097
# Poissons Ratio (y) = 0.30552 0.36484
# Poissons Ratio (z) = 0.27915 0.11513
#
# Static dielectric constant tensor:
#      x y z
#    x 3.137870 0.000000 0.532890 
#    y 0.000000 3.253790 0.000000 
#    z 0.532890 0.000000 4.729760 
# 
# 
# High freq. dielectric constant tensor:
#      x y z
#    x 1.631650 0.000000 0.004130 
#    y 0.000000 1.683210 0.000000 
#    z 0.004130 0.000000 1.720030 
# 
# From -- ./inp_files/23851.got.cif
#   From: 2010.06.25/outbox.cif.g09.slc.cpg/sg11_12_cif.got.tgz:23851.got - 2010.06.27 23:14:04.
