data_PCOD8069917
_publ_section_title
;
Structure prediction by ZEFSAII (Michael W. Deem and Ramdas Pophale) SiO2 
 PCOD8069917
Probable space group: P 21/M
;
_chemical_formula_sum "Si O2"
_cell_formula_units_Z 32
_cell_length_a 22.530945
_cell_length_b 9.265747
_cell_length_c 15.135120
_cell_angle_alpha 90.000000
_cell_angle_beta 138.826593
_cell_angle_gamma 90.000000
_cell_volume 2080.156772
_symmetry_space_group_name_H-M "P 21/M"
_symmetry_group_IT_number 11
_symmetry_cell_setting 'monoclinic'
loop_
_space_group_symop_operation_xyz
x,y,z
-x,1/2+y,-z
-x,-y,-z
x,1/2-y,z
loop_
_atom_site_type_symbol
_atom_site_label
_atom_site_fract_x
_atom_site_fract_y
_atom_site_fract_z
Si Si1 0.749115 0.078333 0.371822
Si Si2 0.419215 0.418142 0.142625
Si Si3 0.299061 0.921498 0.875831
Si Si4 0.102842 0.908485 0.700542
Si Si5 0.942726 0.409280 0.555510
Si Si6 0.401525 0.913674 0.295669
Si Si7 0.629222 0.417403 0.399461
Si Si8 0.384949 0.413210 0.444867
O O1 0.755089 0.250000 0.375536
O O2 0.703443 0.027751 0.229097
O O3 0.852111 0.019136 0.495998
O O4 0.689884 0.023070 0.387159
O O5 0.393769 0.250000 0.120046
O O6 0.377048 0.499803 0.179610
O O7 0.525967 0.440611 0.257201
O O8 0.379463 0.489624 0.010134
O O9 0.315750 0.750000 0.902781
O O10 0.205287 0.966934 0.818570
O O11 0.099917 0.750000 0.739512
O O12 0.071174 0.901365 0.564467
O O13 0.033464 0.003321 0.680386
O O14 0.957665 0.250000 0.611408
O O15 0.364139 0.750000 0.247736
O O16 0.507893 0.911290 0.428843
O O17 0.354690 0.996390 0.324925
O O18 0.648647 0.250000 0.441657
O O19 0.656357 0.509344 0.515562
O O20 0.347526 0.250000 0.396284
#
# Coordination Sequence:
#
# PCOD8069917 Si02
#       8
#     4   4   4   4   4   4   4   4
#     4   8  15  28  43  57  77 109 144 171 197 236
#     4  10  19  28  39  58  82 107 138 175 206 231
#     4   9  17  29  42  55  77 111 144 170 200 240
#     4   8  14  24  38  56  76  98 126 163 207 247
#     4   8  13  23  40  58  74  96 128 165 204 242
#     4   9  16  27  43  59  76 102 132 162 203 250
#     4   9  17  29  42  56  79 111 142 169 199 237
#     4   9  16  26  41  61  81  99 126 167 208 242
#
# _framework density 15.383455
#
# number of rings (size 3 to 8) (size 9 to 14) (size 15 to 20)
#    0.000    3.250    0.000    2.625    0.000    4.500 
#    0.000    3.125    0.000    0.000    0.000    0.000 
#    0.000    1.000    0.000    3.000    0.000    4.625 
#
# Total GULP energy -396606.401402 kJ/mol
# GULP energy per Si atom -12393.950044 kJ/mol
# Density = 1.534844 g / cm^3
# Si number density = 15.383455 Si / 1000 Ang^3
#
#
#
# Elastic Constant Matrix: (Units=GPa)
#
#
# Indices 1 2 3 4 5 6 
#
# 1 96.9995 48.9033 44.2577 0.0000 -17.9056 0.0000
# 2 48.9033 81.8461 26.1560 0.0000 -11.2868 0.0000
# 3 44.2577 26.1560 29.5856 0.0000 -17.0805 0.0000
# 4 0.0000 0.0000 0.0000 23.4564 0.0000 -0.8692
# 5 -17.9056 -11.2868 -17.0805 0.0000 17.6566 0.0000
# 6 0.0000 0.0000 0.0000 -0.8692 0.0000 18.5885
#
#
#
# Elastic Compliance Matrix: (Units=1/GPa)
#
#
# Indices 1 2 3 4 5 6 
#
# 1 0.044141 -0.004686 -0.085558 0.000000 -0.040998 0.000000
# 2 -0.004686 0.018086 -0.011434 0.000000 -0.004252 0.000000
# 3 -0.085558 -0.011434 0.266325 0.000000 0.163561 0.000000
# 4 0.000000 0.000000 0.000000 0.042706 0.000000 0.001997
# 5 -0.040998 -0.004252 0.163561 0.000000 0.170566 0.000000
# 6 0.000000 0.000000 0.000000 0.001997 0.000000 0.053890
#
#
# Mechanical properties :
#
#
# Convention : Reuss Voigt Hill
#
# Bulk Modulus (GPa) = 7.98752 49.67393 28.83073
# Shear Modulus (GPa) = 5.94670 17.88124 11.91397
#
# Velocity S-wave (km/s) = 1.96826 3.41305 2.78594
# Velocity P-wave (km/s) = 3.22008 6.92044 5.39729
#
# Compressibility (1/GPa) = 0.12519525
#
# Stress axis : x y z
#
# Youngs Moduli (GPa) = 22.65459 55.29258 3.75481
#
# Poissons Ratio (x) = 0.25910 0.32125
# Poissons Ratio (y) = 0.10616 0.04293
# Poissons Ratio (z) = 1.93829 0.63223
#
# Static dielectric constant tensor:
#      x y z
#    x 3.002020 0.000000 -0.055370 
#    y 0.000000 3.051190 0.000000 
#    z -0.055370 0.000000 2.682830 
# 
# 
# High freq. dielectric constant tensor:
#      x y z
#    x 1.570890 0.000000 -0.006920 
#    y 0.000000 1.587460 0.000000 
#    z -0.006920 0.000000 1.551920 
# 
# From -- ./inp_files/42538.got.cif
#   From: 2010.06.25/outbox.cif.g09.slc.cpg/sg11_22_cif.got.tgz:42538.got - 2010.06.27 23:14:04.
