data_PCOD8069127
_publ_section_title
;
Structure prediction by ZEFSAII (Michael W. Deem and Ramdas Pophale) SiO2 
 PCOD8069127
Probable space group: P 21/M
;
_chemical_formula_sum "Si O2"
_cell_formula_units_Z 32
_cell_length_a 21.869424
_cell_length_b 14.707481
_cell_length_c 15.362601
_cell_angle_alpha 90.000000
_cell_angle_beta 160.539727
_cell_angle_gamma 90.000000
_cell_volume 1646.206675
_symmetry_space_group_name_H-M "P 21/M"
_symmetry_group_IT_number 11
_symmetry_cell_setting 'monoclinic'
loop_
_space_group_symop_operation_xyz
x,y,z
-x,1/2+y,-z
-x,-y,-z
x,1/2-y,z
loop_
_atom_site_type_symbol
_atom_site_label
_atom_site_fract_x
_atom_site_fract_y
_atom_site_fract_z
Si Si1 0.064582 0.020252 0.991187
Si Si2 0.866940 0.853166 0.173312
Si Si3 0.449320 0.353285 0.010568
Si Si4 0.716259 0.352876 0.212239
Si Si5 0.211448 0.479741 0.784856
Si Si6 0.326678 0.353287 0.265285
Si Si7 0.724241 0.352879 0.728187
Si Si8 0.745590 0.353181 0.551928
O O1 0.119962 0.921682 0.024762
O O2 0.899862 0.075857 0.724567
O O3 0.249887 0.082229 0.239025
O O4 0.000000 0.000000 0.000000
O O5 0.810361 0.750000 0.124350
O O6 0.749375 0.924136 0.074083
O O7 0.085362 0.866289 0.476503
O O8 0.809496 0.872174 0.997960
O O9 0.380892 0.250000 0.914266
O O10 0.563014 0.377869 0.077379
O O11 0.567279 0.372082 0.255625
O O12 0.271487 0.417800 0.782256
O O13 0.692869 0.250000 0.146394
O O14 0.689499 0.421688 0.094240
O O15 0.000000 0.500000 0.500000
O O16 0.313918 0.250000 0.280345
O O17 0.534296 0.377841 0.519970
O O18 0.785810 0.250000 0.832170
O O19 0.696651 0.366325 0.587683
O O20 0.817482 0.250000 0.631551
#
# Coordination Sequence:
#
# PCOD8069127 Si02
#       8
#     4   4   4   4   4   4   4   4
#     4  10  19  30  46  70 101 131 157 191 241 295
#     4   9  17  30  49  74  99 123 156 201 248 287
#     4  10  18  30  50  74  98 124 159 204 250 289
#     4   9  18  30  45  68  98 130 164 200 237 283
#     4  10  19  30  46  70 101 131 157 191 241 295
#     4  10  18  30  50  74  98 124 159 204 250 289
#     4   9  18  30  45  68  98 130 164 200 237 283
#     4   9  17  30  49  74  99 123 156 201 248 287
#
# _framework density 19.438628999999999
#
# number of rings (size 3 to 8) (size 9 to 14) (size 15 to 20)
#    0.000    2.500    0.000    3.000    0.000    5.000 
#    0.000    0.000    0.000    1.500    0.000   14.000 
#    0.000    0.000    0.000    0.000    0.000    0.000 
#
# Total GULP energy -396471.429626 kJ/mol
# GULP energy per Si atom -12389.732176 kJ/mol
# Density = 1.939439 g / cm^3
# Si number density = 19.438629 Si / 1000 Ang^3
#
#
#
# Elastic Constant Matrix: (Units=GPa)
#
#
# Indices 1 2 3 4 5 6 
#
# 1 75.4236 61.3219 29.4794 0.0000 29.3322 0.0000
# 2 61.3219 134.9708 50.3946 0.0000 28.9023 0.0000
# 3 29.4794 50.3946 55.1166 0.0000 24.2492 0.0000
# 4 0.0000 0.0000 0.0000 30.1409 0.0000 15.1983
# 5 29.3322 28.9023 24.2492 0.0000 30.8613 0.0000
# 6 0.0000 0.0000 0.0000 15.1983 0.0000 35.8810
#
#
#
# Elastic Compliance Matrix: (Units=1/GPa)
#
#
# Indices 1 2 3 4 5 6 
#
# 1 0.027211 -0.009080 0.002118 0.000000 -0.019023 0.000000
# 2 -0.009080 0.014571 -0.009566 0.000000 0.002501 0.000000
# 3 0.002118 -0.009566 0.034695 0.000000 -0.020316 0.000000
# 4 0.000000 0.000000 0.000000 0.042188 0.000000 -0.017870
# 5 -0.019023 0.002501 -0.020316 0.000000 0.064104 0.000000
# 6 0.000000 0.000000 0.000000 -0.017870 0.000000 0.035439
#
#
# Mechanical properties :
#
#
# Convention : Reuss Voigt Hill
#
# Bulk Modulus (GPa) = 23.03085 60.87808 41.95447
# Shear Modulus (GPa) = 18.81541 27.66432 23.23986
#
# Velocity S-wave (km/s) = 3.11455 3.77657 3.46142
# Velocity P-wave (km/s) = 4.98072 7.09949 6.13231
#
# Compressibility (1/GPa) = 0.04342001
#
# Stress axis : x y z
#
# Youngs Moduli (GPa) = 36.74928 68.63145 28.82232
#
# Poissons Ratio (x) = 0.62318 -0.06103
# Poissons Ratio (y) = 0.33369 0.27572
# Poissons Ratio (z) = -0.07782 0.65653
#
# Static dielectric constant tensor:
#      x y z
#    x 3.551450 0.000000 0.375890 
#    y 0.000000 4.158970 0.000000 
#    z 0.375890 0.000000 3.409450 
# 
# 
# High freq. dielectric constant tensor:
#      x y z
#    x 1.742920 0.000000 0.049490 
#    y 0.000000 1.772290 0.000000 
#    z 0.049490 0.000000 1.724180 
# 
# From -- ./inp_files/47431.got.cif
#   From: 2010.06.25/outbox.cif.g09.slc.cpg/sg11_24_cif.got.tgz:47431.got - 2010.06.27 23:14:04.
