data_PCOD8069742
_publ_section_title
;
Structure prediction by ZEFSAII (Michael W. Deem and Ramdas Pophale) SiO2 
 PCOD8069742
Probable space group: P 21/M
;
_chemical_formula_sum "Si O2"
_cell_formula_units_Z 28
_cell_length_a 4.964968
_cell_length_b 15.457964
_cell_length_c 17.409431
_cell_angle_alpha 90.000000
_cell_angle_beta 104.876797
_cell_angle_gamma 90.000000
_cell_volume 1291.356796
_symmetry_space_group_name_H-M "P 21/M"
_symmetry_group_IT_number 11
_symmetry_cell_setting 'monoclinic'
loop_
_space_group_symop_operation_xyz
x,y,z
-x,1/2+y,-z
-x,-y,-z
x,1/2-y,z
loop_
_atom_site_type_symbol
_atom_site_label
_atom_site_fract_x
_atom_site_fract_y
_atom_site_fract_z
Si Si1 0.669046 0.897452 0.343884
Si Si2 0.816094 0.059408 0.431853
Si Si3 0.925897 0.349437 0.753829
Si Si4 0.399629 0.079986 0.883446
Si Si5 0.664131 0.845868 0.518560
Si Si6 0.252889 0.062510 0.043539
Si Si7 0.757220 0.750000 0.974452
Si Si8 0.661998 0.250000 0.921594
O O1 0.927060 0.853596 0.318754
O O2 0.648361 0.854186 0.425557
O O3 0.388340 0.883973 0.274828
O O4 0.720727 0.001188 0.352707
O O5 0.544390 0.088229 0.457246
O O6 0.022779 0.137928 0.425267
O O7 0.000000 0.000000 0.500000
O O8 0.926958 0.250000 0.783587
O O9 0.093503 0.414314 0.823594
O O10 0.572816 0.164194 0.866947
O O11 0.556140 0.988172 0.879213
O O12 0.409203 0.085448 0.976189
O O13 0.575660 0.750000 0.535636
O O14 0.196239 0.160529 0.072440
O O15 0.000000 0.000000 0.000000
O O16 0.469744 0.750000 0.001957
O O17 0.005443 0.750000 0.054820
#
# Coordination Sequence:
#
# PCOD8069742 Si02
#       8
#     4   4   4   4   4   4   2   2
#     4  11  23  38  55  85 124 162 187 230 290 363
#     4  10  20  36  57  82 117 158 199 241 291 339
#     4  12  24  37  56  85 123 163 190 223 291 371
#     4  10  22  36  54  86 115 150 195 232 290 351
#     4  11  20  35  60  90 118 148 200 255 292 335
#     4  10  20  36  59  82 113 147 192 251 294 336
#     4  10  20  32  56  82 106 138 176 238 297 333
#     4  10  18  34  52  78 116 140 172 228 273 345
#
# _framework density 21.682618999999999
#
# number of rings (size 3 to 8) (size 9 to 14) (size 15 to 20)
#    0.000    1.429    2.143    6.000    2.000    0.000 
#    0.000    0.000    0.000    0.000   11.143    0.000 
#    0.000    0.000    0.000    0.000    0.000    0.000 
#
# Total GULP energy -346930.863647 kJ/mol
# GULP energy per Si atom -12390.387987 kJ/mol
# Density = 2.163327 g / cm^3
# Si number density = 21.682619 Si / 1000 Ang^3
#
#
#
# Elastic Constant Matrix: (Units=GPa)
#
#
# Indices 1 2 3 4 5 6 
#
# 1 55.1220 13.3247 11.4321 0.0000 19.8694 0.0000
# 2 13.3247 169.1508 41.9962 0.0000 22.2571 0.0000
# 3 11.4321 41.9962 61.6262 0.0000 21.7910 0.0000
# 4 0.0000 0.0000 0.0000 31.2302 0.0000 6.2292
# 5 19.8694 22.2571 21.7910 0.0000 27.4797 0.0000
# 6 0.0000 0.0000 0.0000 6.2292 0.0000 37.7530
#
#
#
# Elastic Compliance Matrix: (Units=1/GPa)
#
#
# Indices 1 2 3 4 5 6 
#
# 1 0.024794 0.000071 0.002379 0.000000 -0.019871 0.000000
# 2 0.000071 0.007259 -0.003979 0.000000 -0.002776 0.000000
# 3 0.002379 -0.003979 0.024966 0.000000 -0.018295 0.000000
# 4 0.000000 0.000000 0.000000 0.033110 0.000000 -0.005463
# 5 -0.019871 -0.002776 -0.018295 0.000000 0.067514 0.000000
# 6 0.000000 0.000000 0.000000 -0.005463 0.000000 0.027389
#
#
# Mechanical properties :
#
#
# Convention : Reuss Voigt Hill
#
# Bulk Modulus (GPa) = 18.53184 46.60057 32.56620
# Shear Modulus (GPa) = 24.26264 33.90232 29.08248
#
# Velocity S-wave (km/s) = 3.34876 3.95849 3.66632
# Velocity P-wave (km/s) = 4.84950 6.51396 5.74236
#
# Compressibility (1/GPa) = 0.05396119
#
# Stress axis : x y z
#
# Youngs Moduli (GPa) = 40.33255 137.75326 40.05446
#
# Poissons Ratio (x) = -0.00978 -0.09527
# Poissons Ratio (y) = -0.00286 0.15936
# Poissons Ratio (z) = -0.09593 0.54806
#
# Static dielectric constant tensor:
#      x y z
#    x 4.137230 0.000000 0.257980 
#    y 0.000000 4.999520 0.000000 
#    z 0.257980 0.000000 3.637520 
# 
# 
# High freq. dielectric constant tensor:
#      x y z
#    x 1.867510 0.000000 0.014470 
#    y 0.000000 1.865280 0.000000 
#    z 0.014470 0.000000 1.795750 
# 
# From -- ./inp_files/57136.got.cif
#   From: 2010.06.25/outbox.cif.g09.slc.cpg/sg11_29_cif.got.tgz:57136.got - 2010.06.27 23:14:04.
