data_PCOD8069598
_publ_section_title
;
Structure prediction by ZEFSAII (Michael W. Deem and Ramdas Pophale) SiO2 
 PCOD8069598
Probable space group: P 21/M
;
_chemical_formula_sum "Si O2"
_cell_formula_units_Z 26
_cell_length_a 9.251825
_cell_length_b 20.425950
_cell_length_c 11.647202
_cell_angle_alpha 90.000000
_cell_angle_beta 36.140993
_cell_angle_gamma 90.000000
_cell_volume 1298.126813
_symmetry_space_group_name_H-M "P 21/M"
_symmetry_group_IT_number 11
_symmetry_cell_setting 'monoclinic'
loop_
_space_group_symop_operation_xyz
x,y,z
-x,1/2+y,-z
-x,-y,-z
x,1/2-y,z
loop_
_atom_site_type_symbol
_atom_site_label
_atom_site_fract_x
_atom_site_fract_y
_atom_site_fract_z
Si Si1 0.296841 0.329603 0.949946
Si Si2 0.169916 0.879627 0.383314
Si Si3 0.019378 0.354661 0.909286
Si Si4 0.902596 0.750000 0.513101
Si Si5 0.623728 0.250000 0.192588
Si Si6 0.755128 0.057681 0.910211
Si Si7 0.221517 0.419009 0.199626
Si Si8 0.722142 0.750000 0.391247
O O1 0.300213 0.250000 0.939239
O O2 0.556386 0.362867 0.752537
O O3 0.104590 0.363193 0.985550
O O4 0.217267 0.351705 0.128553
O O5 0.159613 0.910506 0.264190
O O6 0.022836 0.813102 0.487801
O O7 0.022854 0.926352 0.565957
O O8 0.243024 0.315694 0.705247
O O9 0.942610 0.420576 0.891381
O O10 0.771633 0.313750 0.065655
O O11 0.617120 0.750000 0.732433
O O12 0.931666 0.750000 0.355777
O O13 0.547393 0.250000 0.377411
O O14 0.775021 0.979486 0.891606
O O15 0.470794 0.077525 0.116821
#
# Coordination Sequence:
#
# PCOD8069598 Si02
#       8
#     4   4   4   2   2   4   4   2
#     4  11  24  39  55  88 125 160 189 243 306 353
#     4  11  21  39  60  87 120 154 196 246 297 352
#     4  11  20  38  60  82 123 155 190 249 294 347
#     4  10  18  32  57  91 105 146 197 240 291 340
#     4   9  19  31  54  89 113 143 191 238 290 341
#     4  10  21  41  65  86 118 154 205 253 289 350
#     4  10  24  40  61  90 117 160 200 243 304 355
#     4   9  19  33  51  90 110 145 196 234 297 337
#
# _framework density 20.028860000000002
#
# number of rings (size 3 to 8) (size 9 to 14) (size 15 to 20)
#    0.462    1.231    3.846    1.385    1.077    1.846 
#    1.385    0.769    0.000    0.000    0.000    0.000 
#    0.000    0.000    0.000    0.000    0.000    0.000 
#
# Total GULP energy -322238.121418 kJ/mol
# GULP energy per Si atom -12393.773901 kJ/mol
# Density = 1.998327 g / cm^3
# Si number density = 20.028860 Si / 1000 Ang^3
#
#
#
# Elastic Constant Matrix: (Units=GPa)
#
#
# Indices 1 2 3 4 5 6 
#
# 1 81.3723 27.5951 3.7095 0.0000 -8.9033 0.0000
# 2 27.5951 69.8825 14.0117 0.0000 -4.6155 0.0000
# 3 3.7095 14.0117 94.8047 0.0000 -4.9837 0.0000
# 4 0.0000 0.0000 0.0000 25.9219 0.0000 13.8350
# 5 -8.9033 -4.6155 -4.9837 0.0000 19.6186 0.0000
# 6 0.0000 0.0000 0.0000 13.8350 0.0000 37.8726
#
#
#
# Elastic Compliance Matrix: (Units=1/GPa)
#
#
# Indices 1 2 3 4 5 6 
#
# 1 0.014758 -0.005570 0.000536 0.000000 0.005523 0.000000
# 2 -0.005570 0.017020 -0.002250 0.000000 0.000905 0.000000
# 3 0.000536 -0.002250 0.010991 0.000000 0.002506 0.000000
# 4 0.000000 0.000000 0.000000 0.047921 0.000000 -0.017506
# 5 0.005523 0.000905 0.002506 0.000000 0.054328 0.000000
# 6 0.000000 0.000000 0.000000 -0.017506 0.000000 0.032799
#
#
# Mechanical properties :
#
#
# Convention : Reuss Voigt Hill
#
# Bulk Modulus (GPa) = 35.45943 37.41024 36.43483
# Shear Modulus (GPa) = 24.77869 30.06548 27.42208
#
# Velocity S-wave (km/s) = 3.52113 3.87862 3.70419
# Velocity P-wave (km/s) = 5.85438 6.22711 6.04362
#
# Compressibility (1/GPa) = 0.02820124
#
# Stress axis : x y z
#
# Youngs Moduli (GPa) = 67.75929 58.75353 90.98098
#
# Poissons Ratio (x) = 0.32728 -0.04878
# Poissons Ratio (y) = 0.37745 0.20471
# Poissons Ratio (z) = -0.03633 0.13220
#
# Static dielectric constant tensor:
#      x y z
#    x 3.462570 0.000000 -0.047630 
#    y 0.000000 3.642810 0.000000 
#    z -0.047630 0.000000 3.678140 
# 
# 
# High freq. dielectric constant tensor:
#      x y z
#    x 1.764680 0.000000 -0.002550 
#    y 0.000000 1.775360 0.000000 
#    z -0.002550 0.000000 1.783530 
# 
# From -- ./inp_files/32977.got.cif
#   From: 2010.06.25/outbox.cif.g09.slc.cpg/sg11_17_cif.got.tgz:32977.got - 2010.06.27 23:14:04.
