data_PCOD8069570
_publ_section_title
;
Structure prediction by ZEFSAII (Michael W. Deem and Ramdas Pophale) SiO2 
 PCOD8069570
Probable space group: P 21/M
;
_chemical_formula_sum "Si O2"
_cell_formula_units_Z 20
_cell_length_a 26.269989
_cell_length_b 7.576025
_cell_length_c 10.932051
_cell_angle_alpha 90.000000
_cell_angle_beta 148.557535
_cell_angle_gamma 90.000000
_cell_volume 1134.946983
_symmetry_space_group_name_H-M "P 21/M"
_symmetry_group_IT_number 11
_symmetry_cell_setting 'monoclinic'
loop_
_space_group_symop_operation_xyz
x,y,z
-x,1/2+y,-z
-x,-y,-z
x,1/2-y,z
loop_
_atom_site_type_symbol
_atom_site_label
_atom_site_fract_x
_atom_site_fract_y
_atom_site_fract_z
Si Si1 0.128244 0.750000 0.679432
Si Si2 0.008992 0.750000 0.203924
Si Si3 0.600975 0.548741 0.768570
Si Si4 0.796505 0.250000 0.555507
Si Si5 0.791140 0.546915 0.002653
Si Si6 0.176217 0.056145 0.203275
Si Si7 0.321525 0.750000 0.918648
O O1 0.129833 0.574062 0.765645
O O2 0.220135 0.750000 0.779679
O O3 0.033720 0.750000 0.399220
O O4 0.102319 0.750000 0.309486
O O5 0.942554 0.575638 0.042554
O O6 0.500000 0.500000 0.500000
O O7 0.601627 0.750000 0.816237
O O8 0.684033 0.515179 0.837897
O O9 0.617634 0.424849 0.920757
O O10 0.789264 0.423567 0.622518
O O11 0.702212 0.250000 0.274230
O O12 0.825053 0.750000 0.085160
O O13 0.786651 0.488288 0.852147
O O14 0.222527 0.250000 0.325870
#
# Coordination Sequence:
#
# PCOD8069570 Si02
#       7
#     2   2   4   2   4   4   2
#     4   9  17  32  48  70 107 128 159 216 247 296
#     4   9  20  34  47  75  99 127 182 213 239 288
#     4  10  18  32  56  81 103 125 154 203 252 305
#     4  11  19  36  54  66 100 140 171 214 234 280
#     4   9  18  33  49  76 103 131 164 198 257 308
#     4   9  20  34  49  73  96 135 177 202 246 286
#     4   9  20  32  49  79 100 129 168 195 252 294
#
# _framework density 17.621970000000001
#
# number of rings (size 3 to 8) (size 9 to 14) (size 15 to 20)
#    0.600    2.000    1.000    1.200    0.000    1.600 
#    1.800    2.000    0.000    1.200    0.000    0.000 
#    0.000    0.000    0.000    0.000    0.000    0.000 
#
# Total GULP energy -247901.234161 kJ/mol
# GULP energy per Si atom -12395.061708 kJ/mol
# Density = 1.758186 g / cm^3
# Si number density = 17.621970 Si / 1000 Ang^3
#
#
#
# Elastic Constant Matrix: (Units=GPa)
#
#
# Indices 1 2 3 4 5 6 
#
# 1 48.1000 33.7718 34.0103 0.0000 -23.7355 0.0000
# 2 33.7718 120.0008 73.0601 0.0000 -26.1421 0.0000
# 3 34.0103 73.0601 136.0885 0.0000 -28.8763 0.0000
# 4 0.0000 0.0000 0.0000 27.8389 0.0000 -8.0823
# 5 -23.7355 -26.1421 -28.8763 0.0000 27.7498 0.0000
# 6 0.0000 0.0000 0.0000 -8.0823 0.0000 22.0889
#
#
#
# Elastic Compliance Matrix: (Units=1/GPa)
#
#
# Indices 1 2 3 4 5 6 
#
# 1 0.038083 -0.003723 -0.001734 0.000000 0.027262 0.000000
# 2 -0.003723 0.013602 -0.005555 0.000000 0.003849 0.000000
# 3 -0.001734 -0.005555 0.011985 0.000000 0.005755 0.000000
# 4 0.000000 0.000000 0.000000 0.040190 0.000000 0.014706
# 5 0.027262 0.003849 0.005755 0.000000 0.068969 0.000000
# 6 0.000000 0.000000 0.000000 0.014706 0.000000 0.050652
#
#
# Mechanical properties :
#
#
# Convention : Reuss Voigt Hill
#
# Bulk Modulus (GPa) = 24.01231 65.09709 44.55470
# Shear Modulus (GPa) = 19.27624 26.42532 22.85078
#
# Velocity S-wave (km/s) = 3.31097 3.87663 3.60491
# Velocity P-wave (km/s) = 5.31720 7.55372 6.53189
#
# Compressibility (1/GPa) = 0.04164530
#
# Stress axis : x y z
#
# Youngs Moduli (GPa) = 26.25858 73.52130 83.43807
#
# Poissons Ratio (x) = 0.27371 0.14469
# Poissons Ratio (y) = 0.09776 0.46350
# Poissons Ratio (z) = 0.04553 0.40841
#
# Static dielectric constant tensor:
#      x y z
#    x 3.153800 0.000000 -0.111850 
#    y 0.000000 3.550510 0.000000 
#    z -0.111850 0.000000 3.267840 
# 
# 
# High freq. dielectric constant tensor:
#      x y z
#    x 1.665490 0.000000 -0.006740 
#    y 0.000000 1.687760 0.000000 
#    z -0.006740 0.000000 1.667400 
# 
# From -- ./inp_files/28217.got.cif
#   From: 2010.06.25/outbox.cif.g09.slc.cpg/sg11_15_cif.got.tgz:28217.got - 2010.06.27 23:14:04.
