data_PCOD8069340
_publ_section_title
;
Structure prediction by ZEFSAII (Michael W. Deem and Ramdas Pophale) SiO2 
 PCOD8069340
Probable space group: P 21/M
;
_chemical_formula_sum "Si O2"
_cell_formula_units_Z 24
_cell_length_a 9.241572
_cell_length_b 8.431801
_cell_length_c 24.088528
_cell_angle_alpha 90.000000
_cell_angle_beta 42.785910
_cell_angle_gamma 90.000000
_cell_volume 1275.008394
_symmetry_space_group_name_H-M "P 21/M"
_symmetry_group_IT_number 11
_symmetry_cell_setting 'monoclinic'
loop_
_space_group_symop_operation_xyz
x,y,z
-x,1/2+y,-z
-x,-y,-z
x,1/2-y,z
loop_
_atom_site_type_symbol
_atom_site_label
_atom_site_fract_x
_atom_site_fract_y
_atom_site_fract_z
Si Si1 0.963480 0.064507 0.679200
Si Si2 0.917762 0.438223 0.244967
Si Si3 0.908081 0.935539 0.582582
Si Si4 0.555301 0.566162 0.268244
Si Si5 0.391886 0.436848 0.085198
Si Si6 0.508153 0.567362 0.825240
O O1 0.907639 0.250000 0.699316
O O2 0.129596 0.012447 0.680434
O O3 0.039891 0.022652 0.595266
O O4 0.759505 0.953053 0.745685
O O5 0.899130 0.250000 0.252733
O O6 0.149405 0.498895 0.158829
O O7 0.747858 0.507682 0.250931
O O8 0.948897 0.750000 0.575211
O O9 0.656405 0.970494 0.656416
O O10 0.000000 0.000000 0.500000
O O11 0.511659 0.750000 0.290367
O O12 0.616446 0.535334 0.186013
O O13 0.384173 0.250000 0.084809
O O14 0.533811 0.488921 0.099179
O O15 0.500000 0.500000 0.000000
O O16 0.444495 0.750000 0.834769
#
# Coordination Sequence:
#
# PCOD8069340 Si02
#       6
#     4   4   4   4   4   4
#     4  10  18  31  52  78 103 134 174 214 252 304
#     4  10  20  36  54  76 105 140 174 212 260 311
#     4  11  21  36  56  79 107 140 173 212 256 305
#     4  11  21  34  54  81 105 134 174 217 259 306
#     4   9  19  33  53  77 103 134 173 214 259 308
#     4   9  17  32  51  73 101 138 174 209 254 310
#
# _framework density 18.823405999999999
#
# number of rings (size 3 to 8) (size 9 to 14) (size 15 to 20)
#    0.000    2.000    0.000    8.500    0.000    4.000 
#    0.000    1.667    0.000    0.000    0.000    0.000 
#    0.000    0.000    0.000    0.000    0.000    0.000 
#
# Total GULP energy -297458.732448 kJ/mol
# GULP energy per Si atom -12394.113852 kJ/mol
# Density = 1.878056 g / cm^3
# Si number density = 18.823406 Si / 1000 Ang^3
#
#
#
# Elastic Constant Matrix: (Units=GPa)
#
#
# Indices 1 2 3 4 5 6 
#
# 1 151.8959 33.6680 55.9109 0.0000 38.3385 0.0000
# 2 33.6680 72.3004 15.7302 0.0000 13.6552 0.0000
# 3 55.9109 15.7302 94.1910 0.0000 39.6458 0.0000
# 4 0.0000 0.0000 0.0000 30.3988 0.0000 7.2352
# 5 38.3385 13.6552 39.6458 0.0000 33.7582 0.0000
# 6 0.0000 0.0000 0.0000 7.2352 0.0000 30.3438
#
#
#
# Elastic Compliance Matrix: (Units=1/GPa)
#
#
# Indices 1 2 3 4 5 6 
#
# 1 0.009912 -0.002706 -0.002283 0.000000 -0.007481 0.000000
# 2 -0.002706 0.015714 0.000720 0.000000 -0.004128 0.000000
# 3 -0.002283 0.000720 0.021521 0.000000 -0.022973 0.000000
# 4 0.000000 0.000000 0.000000 0.034875 0.000000 -0.008316
# 5 -0.007481 -0.004128 -0.022973 0.000000 0.066769 0.000000
# 6 0.000000 0.000000 0.000000 -0.008316 0.000000 0.034938
#
#
# Mechanical properties :
#
#
# Convention : Reuss Voigt Hill
#
# Bulk Modulus (GPa) = 25.90061 58.77841 42.33951
# Shear Modulus (GPa) = 24.37387 33.10536 28.73962
#
# Velocity S-wave (km/s) = 3.60233 4.19828 3.91167
# Velocity P-wave (km/s) = 5.57603 7.40235 6.55312
#
# Compressibility (1/GPa) = 0.03860914
#
# Stress axis : x y z
#
# Youngs Moduli (GPa) = 100.89062 63.63572 46.46574
#
# Poissons Ratio (x) = 0.17220 0.10607
# Poissons Ratio (y) = 0.27301 -0.03344
# Poissons Ratio (z) = 0.23030 -0.04579
#
# Static dielectric constant tensor:
#      x y z
#    x 3.862480 0.000000 0.563530 
#    y 0.000000 3.749750 0.000000 
#    z 0.563530 0.000000 3.196200 
# 
# 
# High freq. dielectric constant tensor:
#      x y z
#    x 1.730480 0.000000 0.043150 
#    y 0.000000 1.742960 0.000000 
#    z 0.043150 0.000000 1.706100 
# 
# From -- ./inp_files/63170.got.cif
#   From: 2010.06.25/outbox.cif.g09.slc.cpg/sg11_32_cif.got.tgz:63170.got - 2010.06.27 23:14:04.
