data_PCOD8069830
_publ_section_title
;
Structure prediction by ZEFSAII (Michael W. Deem and Ramdas Pophale) SiO2 
 PCOD8069830
Probable space group: P 21/M
;
_chemical_formula_sum "Si O2"
_cell_formula_units_Z 24
_cell_length_a 16.336047
_cell_length_b 16.560209
_cell_length_c 9.068312
_cell_angle_alpha 90.000000
_cell_angle_beta 147.993069
_cell_angle_gamma 90.000000
_cell_volume 1300.268416
_symmetry_space_group_name_H-M "P 21/M"
_symmetry_group_IT_number 11
_symmetry_cell_setting 'monoclinic'
loop_
_space_group_symop_operation_xyz
x,y,z
-x,1/2+y,-z
-x,-y,-z
x,1/2-y,z
loop_
_atom_site_type_symbol
_atom_site_label
_atom_site_fract_x
_atom_site_fract_y
_atom_site_fract_z
Si Si1 0.278778 0.991808 0.351050
Si Si2 0.235671 0.659051 0.079799
Si Si3 0.204420 0.004819 0.571769
Si Si4 0.874653 0.558844 0.142288
Si Si5 0.378215 0.550943 0.088449
Si Si6 0.889035 0.660069 0.434277
O O1 0.205994 0.990455 0.401238
O O2 0.458140 0.012559 0.626560
O O3 0.255319 0.902883 0.246100
O O4 0.189669 0.062889 0.123944
O O5 0.270897 0.750000 0.189028
O O6 0.358227 0.638795 0.134312
O O7 0.063878 0.652604 0.755044
O O8 0.219481 0.100058 0.635354
O O9 0.045224 0.977163 0.401738
O O10 0.344276 0.953017 0.860640
O O11 0.878291 0.641619 0.241236
O O12 0.758722 0.499024 0.046191
O O13 0.824548 0.750000 0.360253
#
# Coordination Sequence:
#
# PCOD8069830 Si02
#       6
#     4   4   4   4   4   4
#     4  11  22  33  57  85 112 139 176 225 276 321
#     4  10  19  35  56  80 107 142 185 226 265 314
#     4  11  19  36  57  81 109 142 179 221 270 326
#     4  10  18  35  56  77 102 140 188 214 252 324
#     4  10  19  37  55  79 105 146 183 211 262 334
#     4  10  19  34  56  81 105 143 186 229 265 308
#
# _framework density 18.457726000000001
#
# number of rings (size 3 to 8) (size 9 to 14) (size 15 to 20)
#    0.000    1.667    5.000    4.000    0.000    0.000 
#    0.000   10.833    0.000    0.000    0.000    0.000 
#    0.000    0.000    0.000    0.000    0.000    0.000 
#
# Total GULP energy -297360.777153 kJ/mol
# GULP energy per Si atom -12390.032381 kJ/mol
# Density = 1.841572 g / cm^3
# Si number density = 18.457726 Si / 1000 Ang^3
#
#
#
# Elastic Constant Matrix: (Units=GPa)
#
#
# Indices 1 2 3 4 5 6 
#
# 1 44.6716 53.3950 -7.0296 0.0000 -12.0387 0.0000
# 2 53.3950 101.8104 60.6748 0.0000 -12.8786 0.0000
# 3 -7.0296 60.6748 58.5862 0.0000 -6.8287 0.0000
# 4 0.0000 0.0000 0.0000 16.7035 0.0000 -2.8724
# 5 -12.0387 -12.8786 -6.8287 0.0000 33.3195 0.0000
# 6 0.0000 0.0000 0.0000 -2.8724 0.0000 16.7281
#
#
#
# Elastic Compliance Matrix: (Units=1/GPa)
#
#
# Indices 1 2 3 4 5 6 
#
# 1 -0.019571 0.030118 -0.033815 0.000000 -0.002360 0.000000
# 2 0.030118 -0.019988 0.025287 0.000000 0.008339 0.000000
# 3 -0.033815 0.025287 -0.013791 0.000000 -0.005270 0.000000
# 4 0.000000 0.000000 0.000000 0.061689 0.000000 0.010593
# 5 -0.002360 0.008339 -0.005270 0.000000 0.031302 0.000000
# 6 0.000000 0.000000 0.000000 0.010593 0.000000 0.061598
#
#
# Mechanical properties :
#
#
# Convention : Reuss Voigt Hill
#
# Bulk Modulus (GPa) = -98.31615 46.57208 -25.87203
# Shear Modulus (GPa) = 91.45743 19.88542 55.67143
#
# Velocity S-wave (km/s) = 7.04679 3.28586 5.49791
# Velocity P-wave (km/s) = 3.58168 6.29939 5.12400
#
# Compressibility (1/GPa) = -0.01017127
#
# Stress axis : x y z
#
# Youngs Moduli (GPa) = -51.09582 -50.02909 -72.51154
#
# Poissons Ratio (x) = 1.50677 -2.45198
# Poissons Ratio (y) = 1.53890 1.83357
# Poissons Ratio (z) = -1.72781 1.26507
#
# Static dielectric constant tensor:
#      x y z
#    x 3.447040 0.000000 -0.344160 
#    y 0.000000 3.558830 0.000000 
#    z -0.344160 0.000000 3.828820 
# 
# 
# High freq. dielectric constant tensor:
#      x y z
#    x 1.704450 0.000000 -0.008620 
#    y 0.000000 1.686980 0.000000 
#    z -0.008620 0.000000 1.733450 
# 
# From -- ./inp_files/25146.got.cif
#   From: 2010.06.25/outbox.cif.g09.slc.cpg/sg11_13_cif.got.tgz:25146.got - 2010.06.27 23:14:04.
