data_PCOD8069159
_publ_section_title
;
Structure prediction by ZEFSAII (Michael W. Deem and Ramdas Pophale) SiO2 
 PCOD8069159
Probable space group: P 21/M
;
_chemical_formula_sum "Si O2"
_cell_formula_units_Z 32
_cell_length_a 21.677427
_cell_length_b 8.725124
_cell_length_c 11.770696
_cell_angle_alpha 90.000000
_cell_angle_beta 127.332796
_cell_angle_gamma 90.000000
_cell_volume 1770.181113
_symmetry_space_group_name_H-M "P 21/M"
_symmetry_group_IT_number 11
_symmetry_cell_setting 'monoclinic'
loop_
_space_group_symop_operation_xyz
x,y,z
-x,1/2+y,-z
-x,-y,-z
x,1/2-y,z
loop_
_atom_site_type_symbol
_atom_site_label
_atom_site_fract_x
_atom_site_fract_y
_atom_site_fract_z
Si Si1 0.531478 0.430941 0.151110
Si Si2 0.709722 0.072984 0.347127
Si Si3 0.320507 0.419866 0.256369
Si Si4 0.773845 0.071244 0.662826
Si Si5 0.834756 0.917407 0.061494
Si Si6 0.081778 0.433334 0.056880
Si Si7 0.402959 0.931502 0.148595
Si Si8 0.735784 0.932319 0.145297
O O1 0.518077 0.250000 0.135775
O O2 0.620998 0.475912 0.266339
O O3 0.487172 0.505436 0.208294
O O4 0.500000 0.500000 0.000000
O O5 0.714790 0.250000 0.318223
O O6 0.758122 0.037486 0.513772
O O7 0.749033 0.974745 0.290753
O O8 0.351892 0.250000 0.321913
O O9 0.299916 0.510514 0.348314
O O10 0.384820 0.510222 0.255411
O O11 0.243980 0.404301 0.096785
O O12 0.783684 0.250000 0.699414
O O13 0.853635 0.985965 0.781537
O O14 0.868552 0.750000 0.127385
O O15 0.810089 0.996389 0.153719
O O16 0.896864 0.999256 0.046689
O O17 0.080054 0.250000 0.053398
O O18 0.000000 0.500000 0.000000
O O19 0.402180 0.750000 0.146498
O O20 0.342854 0.990881 0.986711
O O21 0.729023 0.750000 0.121043
#
# Coordination Sequence:
#
# PCOD8069159 Si02
#       8
#     4   4   4   4   4   4   4   4
#     4  11  21  34  50  72 102 138 179 226 273 319
#     4  10  22  36  51  73 106 141 176 219 269 319
#     4   9  17  32  52  74 100 133 173 219 265 312
#     4  10  20  36  55  78 107 140 174 212 262 321
#     4   7  14  28  47  74 103 129 161 207 255 298
#     4  10  19  34  57  84 112 138 169 211 258 311
#     4  11  20  31  49  74 102 133 175 226 273 317
#     4  10  18  30  51  75 101 136 178 219 262 311
#
# _framework density 18.077245999999999
#
# number of rings (size 3 to 8) (size 9 to 14) (size 15 to 20)
#    0.000    2.250    1.250    4.500    0.000    1.500 
#    0.000    2.500    0.000    0.750    0.000    0.000 
#    0.000    0.000    0.000    0.000    0.000    0.000 
#
# Total GULP energy -396612.549896 kJ/mol
# GULP energy per Si atom -12394.142184 kJ/mol
# Density = 1.803610 g / cm^3
# Si number density = 18.077246 Si / 1000 Ang^3
#
#
#
# Elastic Constant Matrix: (Units=GPa)
#
#
# Indices 1 2 3 4 5 6 
#
# 1 165.6395 55.9107 56.0190 0.0000 -19.1962 0.0000
# 2 55.9107 98.7615 35.5495 0.0000 -9.4100 0.0000
# 3 56.0190 35.5495 64.9727 0.0000 -10.9048 0.0000
# 4 0.0000 0.0000 0.0000 22.3525 0.0000 -4.8899
# 5 -19.1962 -9.4100 -10.9048 0.0000 23.8597 0.0000
# 6 0.0000 0.0000 0.0000 -4.8899 0.0000 31.4235
#
#
#
# Elastic Compliance Matrix: (Units=1/GPa)
#
#
# Indices 1 2 3 4 5 6 
#
# 1 0.009448 -0.002846 -0.005959 0.000000 0.003756 0.000000
# 2 -0.002846 0.013552 -0.004818 0.000000 0.000853 0.000000
# 3 -0.005959 -0.004818 0.023872 0.000000 0.004216 0.000000
# 4 0.000000 0.000000 0.000000 0.046314 0.000000 0.007207
# 5 0.003756 0.000853 0.004216 0.000000 0.047197 0.000000
# 6 0.000000 0.000000 0.000000 0.007207 0.000000 0.032945
#
#
# Mechanical properties :
#
#
# Convention : Reuss Voigt Hill
#
# Bulk Modulus (GPa) = 50.94917 69.37023 60.15970
# Shear Modulus (GPa) = 24.14092 27.65343 25.89718
#
# Velocity S-wave (km/s) = 3.65832 3.91543 3.78906
# Velocity P-wave (km/s) = 6.78894 7.67453 7.24528
#
# Compressibility (1/GPa) = 0.01962741
#
# Stress axis : x y z
#
# Youngs Moduli (GPa) = 105.83781 73.78892 41.88939
#
# Poissons Ratio (x) = 0.21002 0.24961
# Poissons Ratio (y) = 0.30124 0.20182
# Poissons Ratio (z) = 0.63066 0.35551
#
# Static dielectric constant tensor:
#      x y z
#    x 3.805380 0.000000 -0.321340 
#    y 0.000000 3.365540 0.000000 
#    z -0.321340 0.000000 3.031320 
# 
# 
# High freq. dielectric constant tensor:
#      x y z
#    x 1.710300 0.000000 -0.027870 
#    y 0.000000 1.701830 0.000000 
#    z -0.027870 0.000000 1.659820 
# 
# From -- ./inp_files/42552.got.cif
#   From: 2010.06.25/outbox.cif.g09.slc.cpg/sg11_22_cif.got.tgz:42552.got - 2010.06.27 23:14:04.
