data_PCOD8069854
_publ_section_title
;
Structure prediction by ZEFSAII (Michael W. Deem and Ramdas Pophale) SiO2 
 PCOD8069854
Probable space group: P 21/M
;
_chemical_formula_sum "Si O2"
_cell_formula_units_Z 28
_cell_length_a 8.978221
_cell_length_b 12.803117
_cell_length_c 19.685117
_cell_angle_alpha 90.000000
_cell_angle_beta 37.341902
_cell_angle_gamma 90.000000
_cell_volume 1372.539734
_symmetry_space_group_name_H-M "P 21/M"
_symmetry_group_IT_number 11
_symmetry_cell_setting 'monoclinic'
loop_
_space_group_symop_operation_xyz
x,y,z
-x,1/2+y,-z
-x,-y,-z
x,1/2-y,z
loop_
_atom_site_type_symbol
_atom_site_label
_atom_site_fract_x
_atom_site_fract_y
_atom_site_fract_z
Si Si1 0.622895 0.629435 0.694618
Si Si2 0.291559 0.073638 0.960389
Si Si3 0.836574 0.362911 0.044625
Si Si4 0.804201 0.014592 0.739085
Si Si5 0.122612 0.367167 0.163743
Si Si6 0.413165 0.939731 0.635978
Si Si7 0.295261 0.369849 0.594613
O O1 0.712929 0.750000 0.657112
O O2 0.814446 0.560269 0.669024
O O3 0.609577 0.577421 0.624702
O O4 0.354936 0.621487 0.824871
O O5 0.108559 0.134364 0.976969
O O6 0.561307 0.086759 0.829292
O O7 0.288912 0.119703 0.036639
O O8 0.206886 0.951903 0.995626
O O9 0.799020 0.250000 0.023011
O O10 0.778947 0.942132 0.814003
O O11 0.043727 0.086187 0.653636
O O12 0.151007 0.250000 0.180647
O O13 0.841252 0.390245 0.246906
O O14 0.496555 0.878227 0.538270
O O15 0.377599 0.062518 0.630492
O O16 0.263240 0.250000 0.629179
#
# Coordination Sequence:
#
# PCOD8069854 Si02
#       7
#     4   4   4   4   4   4   4
#     4  10  18  35  61  87 112 144 188 240 282 320
#     4  10  19  33  53  80 114 143 182 228 272 334
#     4   9  18  32  54  81 110 145 185 230 276 324
#     4  10  23  36  53  83 122 148 178 226 284 349
#     4  11  20  35  59  83 106 144 191 236 278 319
#     4  10  21  38  64  85 105 143 197 238 269 325
#     4  10  22  41  59  82 116 151 183 228 282 335
#
# _framework density 20.400138999999999
#
# number of rings (size 3 to 8) (size 9 to 14) (size 15 to 20)
#    0.000    2.000    1.429    2.571    0.000    2.286 
#    0.000    4.286    0.000    0.000    0.000    0.000 
#    0.000    0.000    0.000    0.000    0.000    0.000 
#
# Total GULP energy -347211.953326 kJ/mol
# GULP energy per Si atom -12400.426905 kJ/mol
# Density = 2.035371 g / cm^3
# Si number density = 20.400139 Si / 1000 Ang^3
#
#
#
# Elastic Constant Matrix: (Units=GPa)
#
#
# Indices 1 2 3 4 5 6 
#
# 1 66.5315 24.5966 6.3374 0.0000 7.6282 0.0000
# 2 24.5966 134.0223 24.2331 0.0000 -3.2282 0.0000
# 3 6.3374 24.2331 44.7565 0.0000 2.4946 0.0000
# 4 0.0000 0.0000 0.0000 23.3754 0.0000 -0.0270
# 5 7.6282 -3.2282 2.4946 0.0000 20.7622 0.0000
# 6 0.0000 0.0000 0.0000 -0.0270 0.0000 20.0156
#
#
#
# Elastic Compliance Matrix: (Units=1/GPa)
#
#
# Indices 1 2 3 4 5 6 
#
# 1 0.017024 -0.003235 -0.000284 0.000000 -0.006724 0.000000
# 2 -0.003235 0.008956 -0.004566 0.000000 0.003130 0.000000
# 3 -0.000284 -0.004566 0.025057 0.000000 -0.003616 0.000000
# 4 0.000000 0.000000 0.000000 0.042780 0.000000 0.000058
# 5 -0.006724 0.003130 -0.003616 0.000000 0.051556 0.000000
# 6 0.000000 0.000000 0.000000 0.000058 0.000000 0.049961
#
#
# Mechanical properties :
#
#
# Convention : Reuss Voigt Hill
#
# Bulk Modulus (GPa) = 28.67986 39.51608 34.09797
# Shear Modulus (GPa) = 22.40881 25.50687 23.95784
#
# Velocity S-wave (km/s) = 3.31790 3.53983 3.43066
# Velocity P-wave (km/s) = 5.36350 6.00997 5.69592
#
# Compressibility (1/GPa) = 0.03486768
#
# Stress axis : x y z
#
# Youngs Moduli (GPa) = 58.73914 111.65648 39.90917
#
# Poissons Ratio (x) = 0.36121 0.01135
# Poissons Ratio (y) = 0.19002 0.18221
# Poissons Ratio (z) = 0.01670 0.50977
#
# Static dielectric constant tensor:
#      x y z
#    x 3.645930 0.000000 -0.104050 
#    y 0.000000 3.828390 0.000000 
#    z -0.104050 0.000000 3.485960 
# 
# 
# High freq. dielectric constant tensor:
#      x y z
#    x 1.792750 0.000000 -0.006430 
#    y 0.000000 1.797420 0.000000 
#    z -0.006430 0.000000 1.778320 
# 
# From -- ./inp_files/58119.got.cif
#   From: 2010.06.25/outbox.cif.g09.slc.cpg/sg11_30_cif.got.tgz:58119.got - 2010.06.27 23:14:04.
