data_PCOD8069392
_publ_section_title
;
Structure prediction by ZEFSAII (Michael W. Deem and Ramdas Pophale) SiO2 
 PCOD8069392
Probable space group: P 21/M
;
_chemical_formula_sum "Si O2"
_cell_formula_units_Z 20
_cell_length_a 9.580803
_cell_length_b 19.191746
_cell_length_c 6.416420
_cell_angle_alpha 90.000000
_cell_angle_beta 99.224845
_cell_angle_gamma 90.000000
_cell_volume 1164.543579
_symmetry_space_group_name_H-M "P 21/M"
_symmetry_group_IT_number 11
_symmetry_cell_setting 'monoclinic'
loop_
_space_group_symop_operation_xyz
x,y,z
-x,1/2+y,-z
-x,-y,-z
x,1/2-y,z
loop_
_atom_site_type_symbol
_atom_site_label
_atom_site_fract_x
_atom_site_fract_y
_atom_site_fract_z
Si Si1 0.781709 0.922407 0.989156
Si Si2 0.296846 0.961907 0.353894
Si Si3 0.993370 0.074808 0.602943
Si Si4 0.808794 0.668358 0.613826
Si Si5 0.596951 0.919423 0.326980
O O1 0.640611 0.915934 0.095601
O O2 0.920607 0.928045 0.162180
O O3 0.798120 0.853518 0.852355
O O4 0.766073 0.990012 0.842592
O O5 0.171914 0.908896 0.391302
O O6 0.427701 0.916024 0.303180
O O7 0.343672 0.008676 0.561751
O O8 0.056103 0.132421 0.462994
O O9 0.000000 0.000000 0.500000
O O10 0.829619 0.750000 0.602116
O O11 0.664090 0.646042 0.463927
#
# Coordination Sequence:
#
# PCOD8069392 Si02
#       5
#     4   4   4   4   4
#     4  10  18  31  54  80 111 137 176 220 270 320
#     4  10  18  31  53  85 109 130 171 223 273 310
#     4  11  19  34  56  84 110 138 176 230 273 314
#     4  10  22  37  53  75 108 149 185 216 267 330
#     4   9  19  33  53  78 108 138 170 219 268 315
#
# _framework density 17.174112000000001
#
# number of rings (size 3 to 8) (size 9 to 14) (size 15 to 20)
#    0.000    2.000    6.000    1.200    0.000    3.200 
#    0.000    1.000    0.000    0.000    0.000    0.000 
#    0.000    0.000    0.000    0.000    0.000    0.000 
#
# Total GULP energy -247983.755861 kJ/mol
# GULP energy per Si atom -12399.187793 kJ/mol
# Density = 1.713502 g / cm^3
# Si number density = 17.174112 Si / 1000 Ang^3
#
#
#
# Elastic Constant Matrix: (Units=GPa)
#
#
# Indices 1 2 3 4 5 6 
#
# 1 176.0213 53.1480 41.2829 0.0000 -18.6947 0.0000
# 2 53.1480 104.6764 31.5216 0.0000 -11.8331 0.0000
# 3 41.2829 31.5216 86.0419 0.0000 -19.7611 0.0000
# 4 0.0000 0.0000 0.0000 12.4258 0.0000 -4.3234
# 5 -18.6947 -11.8331 -19.7611 0.0000 20.5204 0.0000
# 6 0.0000 0.0000 0.0000 -4.3234 0.0000 18.0559
#
#
#
# Elastic Compliance Matrix: (Units=1/GPa)
#
#
# Indices 1 2 3 4 5 6 
#
# 1 0.007285 -0.002807 -0.001688 0.000000 0.003393 0.000000
# 2 -0.002807 0.011974 -0.002621 0.000000 0.001823 0.000000
# 3 -0.001688 -0.002621 0.016296 0.000000 0.012644 0.000000
# 4 0.000000 0.000000 0.000000 0.087792 0.000000 0.021021
# 5 0.003393 0.001823 0.012644 0.000000 0.065051 0.000000
# 6 0.000000 0.000000 0.000000 0.021021 0.000000 0.060417
#
#
# Mechanical properties :
#
#
# Convention : Reuss Voigt Hill
#
# Bulk Modulus (GPa) = 46.89694 68.73828 57.81761
# Shear Modulus (GPa) = 18.50798 26.25291 22.38044
#
# Velocity S-wave (km/s) = 3.28635 3.91401 3.61383
# Velocity P-wave (km/s) = 6.46267 7.78057 7.15204
#
# Compressibility (1/GPa) = 0.02132335
#
# Stress axis : x y z
#
# Youngs Moduli (GPa) = 137.27132 83.51502 61.36400
#
# Poissons Ratio (x) = 0.23443 0.10356
# Poissons Ratio (y) = 0.38532 0.16084
# Poissons Ratio (z) = 0.23167 0.21890
#
# Static dielectric constant tensor:
#      x y z
#    x 5.208420 0.000000 -1.316400 
#    y 0.000000 2.625440 0.000000 
#    z -1.316400 0.000000 4.274920 
# 
# 
# High freq. dielectric constant tensor:
#      x y z
#    x 1.673480 0.000000 -0.010400 
#    y 0.000000 1.616390 0.000000 
#    z -0.010400 0.000000 1.675690 
# 
# From -- ./inp_files/2157.got.cif
#   From: 2010.06.25/outbox.cif.g09.slc.cpg/sg11_2_cif.got.tgz:2157.got - 2010.06.27 23:14:04.
