data_PCOD8069871
_publ_section_title
;
Structure prediction by ZEFSAII (Michael W. Deem and Ramdas Pophale) SiO2 
 PCOD8069871
Probable space group: P 21/M
;
_chemical_formula_sum "Si O2"
_cell_formula_units_Z 32
_cell_length_a 9.477092
_cell_length_b 13.830537
_cell_length_c 14.349555
_cell_angle_alpha 90.000000
_cell_angle_beta 59.112895
_cell_angle_gamma 90.000000
_cell_volume 1614.102816
_symmetry_space_group_name_H-M "P 21/M"
_symmetry_group_IT_number 11
_symmetry_cell_setting 'monoclinic'
loop_
_space_group_symop_operation_xyz
x,y,z
-x,1/2+y,-z
-x,-y,-z
x,1/2-y,z
loop_
_atom_site_type_symbol
_atom_site_label
_atom_site_fract_x
_atom_site_fract_y
_atom_site_fract_z
Si Si1 0.148213 0.359304 0.526292
Si Si2 0.026536 0.069546 0.906746
Si Si3 0.689977 0.143581 0.054170
Si Si4 0.602127 0.018356 0.558941
Si Si5 0.615425 0.548776 0.188149
Si Si6 0.920876 0.139974 0.429953
Si Si7 0.048840 0.974764 0.268102
Si Si8 0.371769 0.638188 0.132298
O O1 0.207783 0.250000 0.517512
O O2 0.305452 0.420727 0.440255
O O3 0.996815 0.369989 0.506727
O O4 0.085125 0.400033 0.645886
O O5 0.214637 0.105625 0.847061
O O6 0.996592 0.008391 0.823357
O O7 0.885724 0.151233 0.962939
O O8 0.000000 0.000000 0.000000
O O9 0.637869 0.250000 0.109686
O O10 0.645859 0.062334 0.145133
O O11 0.596135 0.120786 0.988661
O O12 0.487407 0.050960 0.682296
O O13 0.734347 0.102546 0.494455
O O14 0.500000 0.000000 0.500000
O O15 0.534768 0.609911 0.132780
O O16 0.922186 0.250000 0.394176
O O17 0.036780 0.078474 0.321908
O O18 0.229460 0.930839 0.220479
O O19 0.325114 0.750000 0.166828
#
# Coordination Sequence:
#
# PCOD8069871 Si02
#       8
#     4   4   4   4   4   4   4   4
#     4  10  20  35  56  81 109 145 188 228 269 326
#     4   9  20  37  56  77 106 143 182 222 266 321
#     4   9  20  38  58  80 107 142 180 220 272 332
#     4  11  23  37  53  80 116 149 183 229 278 324
#     4  11  20  35  57  81 110 143 179 226 276 321
#     4  10  21  38  59  83 112 147 188 229 271 325
#     4  10  18  36  59  79 109 147 182 219 268 324
#     4  10  20  34  57  87 112 138 178 227 276 323
#
# _framework density 19.825256
#
# number of rings (size 3 to 8) (size 9 to 14) (size 15 to 20)
#    0.000    2.000    0.000    5.250    0.000    3.500 
#    0.000    6.875    0.000    4.500    0.000    0.000 
#    0.000    0.000    0.000    0.000    0.000    0.000 
#
# Total GULP energy -396726.884639 kJ/mol
# GULP energy per Si atom -12397.715145 kJ/mol
# Density = 1.978013 g / cm^3
# Si number density = 19.825256 Si / 1000 Ang^3
#
#
#
# Elastic Constant Matrix: (Units=GPa)
#
#
# Indices 1 2 3 4 5 6 
#
# 1 116.2020 30.8026 20.1580 0.0000 5.0122 0.0000
# 2 30.8026 117.0957 24.1211 0.0000 2.9948 0.0000
# 3 20.1580 24.1211 66.8017 0.0000 8.2811 0.0000
# 4 0.0000 0.0000 0.0000 23.4820 0.0000 -0.5620
# 5 5.0122 2.9948 8.2811 0.0000 30.8343 0.0000
# 6 0.0000 0.0000 0.0000 -0.5620 0.0000 15.0643
#
#
#
# Elastic Compliance Matrix: (Units=1/GPa)
#
#
# Indices 1 2 3 4 5 6 
#
# 1 0.009542 -0.002071 -0.002032 0.000000 -0.000804 0.000000
# 2 -0.002071 0.009676 -0.002890 0.000000 0.000173 0.000000
# 3 -0.002032 -0.002890 0.017121 0.000000 -0.003987 0.000000
# 4 0.000000 0.000000 0.000000 0.042624 0.000000 0.001590
# 5 -0.000804 0.000173 -0.003987 0.000000 0.033616 0.000000
# 6 0.000000 0.000000 0.000000 0.001590 0.000000 0.066441
#
#
# Mechanical properties :
#
#
# Convention : Reuss Voigt Hill
#
# Bulk Modulus (GPa) = 44.73848 50.02921 47.38384
# Shear Modulus (GPa) = 24.94307 28.87731 26.91019
#
# Velocity S-wave (km/s) = 3.55088 3.82067 3.68825
# Velocity P-wave (km/s) = 6.27910 6.68979 6.48769
#
# Compressibility (1/GPa) = 0.02235212
#
# Stress axis : x y z
#
# Youngs Moduli (GPa) = 104.80188 103.35120 58.40874
#
# Poissons Ratio (x) = 0.21403 0.11868
# Poissons Ratio (y) = 0.21703 0.16882
# Poissons Ratio (z) = 0.21294 0.29872
#
# Static dielectric constant tensor:
#      x y z
#    x 3.914060 0.000000 -0.015300 
#    y 0.000000 3.854950 0.000000 
#    z -0.015300 0.000000 3.511710 
# 
# 
# High freq. dielectric constant tensor:
#      x y z
#    x 1.783820 0.000000 0.004590 
#    y 0.000000 1.761980 0.000000 
#    z 0.004590 0.000000 1.769990 
# 
# From -- ./inp_files/47625.got.cif
#   From: 2010.06.25/outbox.cif.g09.slc.cpg/sg11_24_cif.got.tgz:47625.got - 2010.06.27 23:14:04.
