data_PCOD8069458
_publ_section_title
;
Structure prediction by ZEFSAII (Michael W. Deem and Ramdas Pophale) SiO2 
 PCOD8069458
Probable space group: P 21/M
;
_chemical_formula_sum "Si O2"
_cell_formula_units_Z 32
_cell_length_a 19.047988
_cell_length_b 8.627901
_cell_length_c 15.043565
_cell_angle_alpha 90.000000
_cell_angle_beta 50.447889
_cell_angle_gamma 90.000000
_cell_volume 1906.273340
_symmetry_space_group_name_H-M "P 21/M"
_symmetry_group_IT_number 11
_symmetry_cell_setting 'monoclinic'
loop_
_space_group_symop_operation_xyz
x,y,z
-x,1/2+y,-z
-x,-y,-z
x,1/2-y,z
loop_
_atom_site_type_symbol
_atom_site_label
_atom_site_fract_x
_atom_site_fract_y
_atom_site_fract_z
Si Si1 0.935424 0.432353 0.674483
Si Si2 0.766288 0.571195 0.475271
Si Si3 0.111837 0.569745 0.772597
Si Si4 0.126270 0.069020 0.444724
Si Si5 0.920963 0.067297 0.885303
Si Si6 0.412786 0.428091 0.474523
Si Si7 0.385049 0.928439 0.682949
Si Si8 0.796365 0.929919 0.130797
O O1 0.936383 0.250000 0.677605
O O2 0.861284 0.488521 0.661485
O O3 0.912112 0.494895 0.791293
O O4 0.034943 0.495127 0.566086
O O5 0.793575 0.750000 0.434914
O O6 0.824473 0.466416 0.362314
O O7 0.789242 0.527323 0.558851
O O8 0.658616 0.543455 0.547742
O O9 0.086143 0.750000 0.793101
O O10 0.164381 0.530324 0.820298
O O11 0.020355 0.469376 0.843595
O O12 0.118730 0.250000 0.433002
O O13 0.903582 0.250000 0.907256
O O14 0.844795 0.975315 0.000610
O O15 0.408877 0.250000 0.511070
O O16 0.514623 0.467322 0.358341
O O17 0.384670 0.537597 0.578204
O O18 0.359257 0.750000 0.718459
O O19 0.310972 0.033244 0.792966
O O20 0.810780 0.750000 0.140045
#
# Coordination Sequence:
#
# PCOD8069458 Si02
#       8
#     4   4   4   4   4   4   4   4
#     4   9  18  32  49  71  97 129 163 201 247 290
#     4  10  18  32  51  74 102 136 167 200 247 293
#     4  12  23  34  49  73 101 134 171 207 241 288
#     4   9  17  30  49  72  99 130 163 199 243 293
#     4  11  22  38  54  70  97 133 171 210 247 292
#     4   9  18  31  51  73 100 132 164 205 250 296
#     4  10  19  32  49  74  99 128 169 207 248 294
#     4  12  24  37  51  70  98 135 172 208 249 293
#
# _framework density 16.78668
#
# number of rings (size 3 to 8) (size 9 to 14) (size 15 to 20)
#    0.000    1.750    2.500    3.375    0.000    2.000 
#    0.000    0.000    0.000    0.000    0.000    0.875 
#    0.000    0.000    0.000    0.000    0.000    0.000 
#
# Total GULP energy -396821.140656 kJ/mol
# GULP energy per Si atom -12400.660645 kJ/mol
# Density = 1.674847 g / cm^3
# Si number density = 16.786680 Si / 1000 Ang^3
#
#
#
# Elastic Constant Matrix: (Units=GPa)
#
#
# Indices 1 2 3 4 5 6 
#
# 1 111.2487 19.8783 47.8389 0.0000 -4.7522 0.0000
# 2 19.8783 39.5731 17.9773 0.0000 2.9654 0.0000
# 3 47.8389 17.9773 79.2479 0.0000 -4.7507 0.0000
# 4 0.0000 0.0000 0.0000 25.0690 0.0000 0.9686
# 5 -4.7522 2.9654 -4.7507 0.0000 22.7065 0.0000
# 6 0.0000 0.0000 0.0000 0.9686 0.0000 22.5960
#
#
#
# Elastic Compliance Matrix: (Units=1/GPa)
#
#
# Indices 1 2 3 4 5 6 
#
# 1 0.012549 -0.003381 -0.006709 0.000000 0.001664 0.000000
# 2 -0.003381 0.029675 -0.005029 0.000000 -0.005635 0.000000
# 3 -0.006709 -0.005029 0.017990 0.000000 0.003017 0.000000
# 4 0.000000 0.000000 0.000000 0.039956 0.000000 -0.001713
# 5 0.001664 -0.005635 0.003017 0.000000 0.045756 0.000000
# 6 0.000000 0.000000 0.000000 -0.001713 0.000000 0.044329
#
#
# Mechanical properties :
#
#
# Convention : Reuss Voigt Hill
#
# Bulk Modulus (GPa) = 33.35838 44.60653 38.98246
# Shear Modulus (GPa) = 21.69366 23.69933 22.69649
#
# Velocity S-wave (km/s) = 3.59878 3.76146 3.68102
# Velocity P-wave (km/s) = 6.09781 6.74500 6.42956
#
# Compressibility (1/GPa) = 0.02997748
#
# Stress axis : x y z
#
# Youngs Moduli (GPa) = 79.68870 33.69895 55.58674
#
# Poissons Ratio (x) = 0.11392 0.37291
# Poissons Ratio (y) = 0.26940 0.27953
# Poissons Ratio (z) = 0.53460 0.16946
#
# Static dielectric constant tensor:
#      x y z
#    x 3.328350 0.000000 -0.037890 
#    y 0.000000 3.141880 0.000000 
#    z -0.037890 0.000000 3.067330 
# 
# 
# High freq. dielectric constant tensor:
#      x y z
#    x 1.642710 0.000000 -0.002510 
#    y 0.000000 1.651560 0.000000 
#    z -0.002510 0.000000 1.615940 
# 
# From -- ./inp_files/51253.got.cif
#   From: 2010.06.25/outbox.cif.g09.slc.cpg/sg11_26_cif.got.tgz:51253.got - 2010.06.27 23:14:04.
