data_PCOD8069242
_publ_section_title
;
Structure prediction by ZEFSAII (Michael W. Deem and Ramdas Pophale) SiO2 
 PCOD8069242
Probable space group: P 21/M
;
_chemical_formula_sum "Si O2"
_cell_formula_units_Z 32
_cell_length_a 21.267697
_cell_length_b 8.668546
_cell_length_c 9.556382
_cell_angle_alpha 90.000000
_cell_angle_beta 91.231710
_cell_angle_gamma 90.000000
_cell_volume 1761.407594
_symmetry_space_group_name_H-M "P 21/M"
_symmetry_group_IT_number 11
_symmetry_cell_setting 'monoclinic'
loop_
_space_group_symop_operation_xyz
x,y,z
-x,1/2+y,-z
-x,-y,-z
x,1/2-y,z
loop_
_atom_site_type_symbol
_atom_site_label
_atom_site_fract_x
_atom_site_fract_y
_atom_site_fract_z
Si Si1 0.636632 0.568220 0.057547
Si Si2 0.642619 0.931832 0.465252
Si Si3 0.125725 0.931713 0.668407
Si Si4 0.008619 0.930948 0.847006
Si Si5 0.265153 0.931335 0.743402
Si Si6 0.543269 0.067027 0.265242
Si Si7 0.059027 0.068863 0.424827
Si Si8 0.402105 0.068697 0.243873
O O1 0.625923 0.750000 0.078512
O O2 0.703697 0.520096 0.124761
O O3 0.580019 0.475166 0.125698
O O4 0.635952 0.518697 0.895541
O O5 0.653776 0.750000 0.447221
O O6 0.639378 0.985007 0.626332
O O7 0.699968 0.023107 0.398181
O O8 0.576131 0.978134 0.394439
O O9 0.120805 0.750000 0.652238
O O10 0.072332 0.992778 0.774048
O O11 0.192883 0.983761 0.731686
O O12 0.119194 0.999506 0.509320
O O13 0.014411 0.750000 0.867804
O O14 0.948862 0.971836 0.741827
O O15 0.000000 0.000000 0.000000
O O16 0.271915 0.750000 0.767929
O O17 0.546477 0.250000 0.290356
O O18 0.472671 0.000431 0.249833
O O19 0.059719 0.250000 0.444222
O O20 0.000000 0.000000 0.500000
O O21 0.411155 0.250000 0.249619
#
# Coordination Sequence:
#
# PCOD8069242 Si02
#       8
#     4   4   4   4   4   4   4   4
#     4  10  19  33  50  70  96 128 163 200 243 294
#     4  10  19  33  50  70  96 126 159 201 247 292
#     4   9  19  35  54  73  98 131 168 203 239 283
#     4   9  18  32  50  77 107 133 157 192 237 281
#     4  10  20  36  53  71  95 127 166 206 242 285
#     4  10  18  31  49  71  96 124 159 199 245 299
#     4   9  17  30  50  76 104 130 163 198 233 275
#     4   9  19  32  48  70  97 125 157 201 251 297
#
# _framework density 18.167289
#
# number of rings (size 3 to 8) (size 9 to 14) (size 15 to 20)
#    0.000    2.500    0.000    4.875    0.000    3.500 
#    0.000    7.500    0.000    6.000    0.000    0.000 
#    0.000    0.000    0.000    0.000    0.000    0.000 
#
# Total GULP energy -396598.143314 kJ/mol
# GULP energy per Si atom -12393.691979 kJ/mol
# Density = 1.812594 g / cm^3
# Si number density = 18.167289 Si / 1000 Ang^3
#
#
#
# Elastic Constant Matrix: (Units=GPa)
#
#
# Indices 1 2 3 4 5 6 
#
# 1 99.3399 14.1854 50.7387 0.0000 9.9922 0.0000
# 2 14.1854 29.0129 16.3973 0.0000 3.8767 0.0000
# 3 50.7387 16.3973 153.0460 0.0000 8.1030 0.0000
# 4 0.0000 0.0000 0.0000 26.7805 0.0000 2.1167
# 5 9.9922 3.8767 8.1030 0.0000 13.7590 0.0000
# 6 0.0000 0.0000 0.0000 2.1167 0.0000 24.8034
#
#
#
# Elastic Compliance Matrix: (Units=1/GPa)
#
#
# Indices 1 2 3 4 5 6 
#
# 1 0.013052 -0.003487 -0.003616 0.000000 -0.006366 0.000000
# 2 -0.003487 0.038558 -0.002616 0.000000 -0.006791 0.000000
# 3 -0.003616 -0.002616 0.008087 0.000000 -0.001399 0.000000
# 4 0.000000 0.000000 0.000000 0.037594 0.000000 -0.003208
# 5 -0.006366 -0.006791 -0.001399 0.000000 0.080041 0.000000
# 6 0.000000 0.000000 0.000000 -0.003208 0.000000 0.040591
#
#
# Mechanical properties :
#
#
# Convention : Reuss Voigt Hill
#
# Bulk Modulus (GPa) = 24.83891 49.33793 37.08842
# Shear Modulus (GPa) = 19.93779 26.40708 23.17243
#
# Velocity S-wave (km/s) = 3.31638 3.81668 3.57529
# Velocity P-wave (km/s) = 5.32602 6.82930 6.12396
#
# Compressibility (1/GPa) = 0.04025941
#
# Stress axis : x y z
#
# Youngs Moduli (GPa) = 76.61757 25.93495 123.65188
#
# Poissons Ratio (x) = 0.09043 0.44717
# Poissons Ratio (y) = 0.26716 0.32341
# Poissons Ratio (z) = 0.27708 0.06783
#
# Static dielectric constant tensor:
#      x y z
#    x 3.385850 0.000000 0.180880 
#    y 0.000000 3.353010 0.000000 
#    z 0.180880 0.000000 3.761740 
# 
# 
# High freq. dielectric constant tensor:
#      x y z
#    x 1.684030 0.000000 0.015380 
#    y 0.000000 1.700770 0.000000 
#    z 0.015380 0.000000 1.708280 
# 
# From -- ./inp_files/27296.got.cif
#   From: 2010.06.25/outbox.cif.g09.slc.cpg/sg11_14_cif.got.tgz:27296.got - 2010.06.27 23:14:04.
