data_PCOD8069161
_publ_section_title
;
Structure prediction by ZEFSAII (Michael W. Deem and Ramdas Pophale) SiO2 
 PCOD8069161
Probable space group: P 21/M
;
_chemical_formula_sum "Si O2"
_cell_formula_units_Z 32
_cell_length_a 15.848304
_cell_length_b 17.297387
_cell_length_c 12.782181
_cell_angle_alpha 90.000000
_cell_angle_beta 29.733559
_cell_angle_gamma 90.000000
_cell_volume 1737.886258
_symmetry_space_group_name_H-M "P 21/M"
_symmetry_group_IT_number 11
_symmetry_cell_setting 'monoclinic'
loop_
_space_group_symop_operation_xyz
x,y,z
-x,1/2+y,-z
-x,-y,-z
x,1/2-y,z
loop_
_atom_site_type_symbol
_atom_site_label
_atom_site_fract_x
_atom_site_fract_y
_atom_site_fract_z
Si Si1 0.742890 0.834914 0.920915
Si Si2 0.651517 0.447548 0.878223
Si Si3 0.616228 0.836634 0.823526
Si Si4 0.517989 0.837787 0.354957
Si Si5 0.190604 0.440002 0.879079
Si Si6 0.807690 0.522890 0.527104
Si Si7 0.173232 0.495912 0.112449
Si Si8 0.201909 0.946116 0.680000
O O1 0.826573 0.750000 0.851303
O O2 0.700689 0.843942 0.845323
O O3 0.868067 0.904692 0.818548
O O4 0.571285 0.842717 0.175235
O O5 0.801159 0.464814 0.634981
O O6 0.687859 0.471088 0.958341
O O7 0.500000 0.500000 0.000000
O O8 0.584523 0.359083 0.950932
O O9 0.631897 0.750000 0.761739
O O10 0.705237 0.897052 0.649079
O O11 0.486817 0.750000 0.424041
O O12 0.674665 0.869888 0.257322
O O13 0.339873 0.882026 0.564117
O O14 0.218071 0.481198 0.739702
O O15 0.235861 0.500384 0.924798
O O16 0.992085 0.412756 0.105962
O O17 0.748377 0.477121 0.488237
O O18 0.004278 0.546713 0.306310
#
# Coordination Sequence:
#
# PCOD8069161 Si02
#       8
#     4   4   4   4   4   4   4   4
#     4   9  17  30  49  75 110 138 166 216 274 316
#     4  10  18  30  51  75 102 135 175 214 257 317
#     4  10  20  33  48  72 105 142 173 212 265 316
#     4  10  20  34  56  84 110 141 177 228 281 322
#     4   9  21  36  56  80 110 140 183 227 268 319
#     4  10  20  32  56  79 101 137 182 219 260 323
#     4  10  18  33  54  79 101 138 179 219 262 317
#     4  10  20  37  57  82 107 146 184 223 271 323
#
# _framework density 18.413174000000001
#
# number of rings (size 3 to 8) (size 9 to 14) (size 15 to 20)
#    0.000    2.250    2.500    1.500    5.250    0.500 
#    0.000    3.750    0.000    4.500    0.000    0.000 
#    0.000    0.000    0.000    0.000    0.000    0.000 
#
# Total GULP energy -396479.647231 kJ/mol
# GULP energy per Si atom -12389.988976 kJ/mol
# Density = 1.837126 g / cm^3
# Si number density = 18.413174 Si / 1000 Ang^3
#
#
#
# Elastic Constant Matrix: (Units=GPa)
#
#
# Indices 1 2 3 4 5 6 
#
# 1 81.2615 24.3348 21.5398 0.0000 -7.2252 0.0000
# 2 24.3348 103.1092 40.8704 0.0000 -12.4032 0.0000
# 3 21.5398 40.8704 62.2014 0.0000 -6.6970 0.0000
# 4 0.0000 0.0000 0.0000 19.7144 0.0000 -0.8893
# 5 -7.2252 -12.4032 -6.6970 0.0000 25.7867 0.0000
# 6 0.0000 0.0000 0.0000 -0.8893 0.0000 18.9939
#
#
#
# Elastic Compliance Matrix: (Units=1/GPa)
#
#
# Indices 1 2 3 4 5 6 
#
# 1 0.013921 -0.001627 -0.003514 0.000000 0.002205 0.000000
# 2 -0.001627 0.013759 -0.008038 0.000000 0.004074 0.000000
# 3 -0.003514 -0.008038 0.022687 0.000000 0.001041 0.000000
# 4 0.000000 0.000000 0.000000 0.050832 0.000000 0.002380
# 5 0.002205 0.004074 0.001041 0.000000 0.041628 0.000000
# 6 0.000000 0.000000 0.000000 0.002380 0.000000 0.052760
#
#
# Mechanical properties :
#
#
# Convention : Reuss Voigt Hill
#
# Bulk Modulus (GPa) = 41.65286 46.67354 44.16320
# Shear Modulus (GPa) = 21.74404 23.55413 22.64909
#
# Velocity S-wave (km/s) = 3.44014 3.58047 3.51101
# Velocity P-wave (km/s) = 6.20079 6.51889 6.36183
#
# Compressibility (1/GPa) = 0.02400796
#
# Stress axis : x y z
#
# Youngs Moduli (GPa) = 71.83504 72.68063 44.07730
#
# Poissons Ratio (x) = 0.11827 0.15489
# Poissons Ratio (y) = 0.11690 0.35430
# Poissons Ratio (z) = 0.25243 0.58423
#
# Static dielectric constant tensor:
#      x y z
#    x 3.431310 0.000000 0.054240 
#    y 0.000000 3.542200 0.000000 
#    z 0.054240 0.000000 3.569580 
# 
# 
# High freq. dielectric constant tensor:
#      x y z
#    x 1.714210 0.000000 0.002010 
#    y 0.000000 1.690490 0.000000 
#    z 0.002010 0.000000 1.706260 
# 
# From -- ./inp_files/39966.got.cif
#   From: 2010.06.25/outbox.cif.g09.slc.cpg/sg11_20_cif.got.tgz:39966.got - 2010.06.27 23:14:04.
