data_PCOD8069823
_publ_section_title
;
Structure prediction by ZEFSAII (Michael W. Deem and Ramdas Pophale) SiO2 
 PCOD8069823
Probable space group: P 21/M
;
_chemical_formula_sum "Si O2"
_cell_formula_units_Z 32
_cell_length_a 11.834149
_cell_length_b 20.869619
_cell_length_c 10.565740
_cell_angle_alpha 90.000000
_cell_angle_beta 139.889822
_cell_angle_gamma 90.000000
_cell_volume 1681.172604
_symmetry_space_group_name_H-M "P 21/M"
_symmetry_group_IT_number 11
_symmetry_cell_setting 'monoclinic'
loop_
_space_group_symop_operation_xyz
x,y,z
-x,1/2+y,-z
-x,-y,-z
x,1/2-y,z
loop_
_atom_site_type_symbol
_atom_site_label
_atom_site_fract_x
_atom_site_fract_y
_atom_site_fract_z
Si Si1 0.705116 0.999066 0.198498
Si Si2 0.150585 0.676746 0.589986
Si Si3 0.404315 0.041758 0.316232
Si Si4 0.150455 0.058335 0.304512
Si Si5 0.585515 0.177807 0.960490
Si Si6 0.792103 0.872376 0.384571
Si Si7 0.766858 0.062850 0.004077
Si Si8 0.255482 0.569891 0.509935
O O1 0.810681 0.037917 0.182837
O O2 0.743497 0.031655 0.361225
O O3 0.780703 0.927540 0.268710
O O4 0.500000 0.000000 0.000000
O O5 0.153720 0.750000 0.549084
O O6 0.157424 0.636052 0.463701
O O7 0.973544 0.664997 0.519250
O O8 0.319990 0.661265 0.824330
O O9 0.255238 0.079819 0.266705
O O10 0.548825 0.087716 0.373779
O O11 0.500000 0.000000 0.500000
O O12 0.334790 0.993940 0.150441
O O13 0.220276 0.098833 0.483947
O O14 0.952451 0.077398 0.098943
O O15 0.161684 0.980204 0.332657
O O16 0.637072 0.250000 0.964180
O O17 0.374723 0.173227 0.785974
O O18 0.652234 0.127732 0.910969
#
# Coordination Sequence:
#
# PCOD8069823 Si02
#       8
#     4   4   4   4   4   4   4   4
#     4  11  17  29  55  86 106 144 176 227 300 338
#     4  11  22  36  55  83 115 150 190 229 276 337
#     4  10  21  34  55  80 109 147 182 227 280 334
#     4  10  21  34  56  86 110 149 184 231 288 331
#     4  11  22  34  53  81 113 151 184 221 277 333
#     4  11  20  37  57  83 121 140 185 233 283 343
#     4  12  19  35  55  81 119 138 189 235 279 340
#     4  10  18  35  52  79 115 140 184 229 280 342
#
# _framework density 19.034334000000001
#
# number of rings (size 3 to 8) (size 9 to 14) (size 15 to 20)
#    0.000    1.250    5.000    3.000    0.000    2.000 
#    0.000    0.000    0.000    8.250    0.000    0.000 
#    0.000    0.000    0.000    0.000    0.000    0.000 
#
# Total GULP energy -396558.982185 kJ/mol
# GULP energy per Si atom -12392.468193 kJ/mol
# Density = 1.899101 g / cm^3
# Si number density = 19.034334 Si / 1000 Ang^3
#
#
#
# Elastic Constant Matrix: (Units=GPa)
#
#
# Indices 1 2 3 4 5 6 
#
# 1 116.0868 31.8690 17.8349 0.0000 19.8606 0.0000
# 2 31.8690 81.6272 17.3125 0.0000 5.7884 0.0000
# 3 17.8349 17.3125 56.5528 0.0000 19.4422 0.0000
# 4 0.0000 0.0000 0.0000 17.8815 0.0000 3.6848
# 5 19.8606 5.7884 19.4422 0.0000 27.6965 0.0000
# 6 0.0000 0.0000 0.0000 3.6848 0.0000 21.1823
#
#
#
# Elastic Compliance Matrix: (Units=1/GPa)
#
#
# Indices 1 2 3 4 5 6 
#
# 1 0.010837 -0.003765 0.000179 0.000000 -0.007110 0.000000
# 2 -0.003765 0.014410 -0.004108 0.000000 0.002572 0.000000
# 3 0.000179 -0.004108 0.024560 0.000000 -0.016510 0.000000
# 4 0.000000 0.000000 0.000000 0.058003 0.000000 -0.010090
# 5 -0.007110 0.002572 -0.016510 0.000000 0.052256 0.000000
# 6 0.000000 0.000000 0.000000 -0.010090 0.000000 0.048965
#
#
# Mechanical properties :
#
#
# Convention : Reuss Voigt Hill
#
# Bulk Modulus (GPa) = 29.05399 43.14439 36.09919
# Shear Modulus (GPa) = 21.19639 25.83541 23.51590
#
# Velocity S-wave (km/s) = 3.34067 3.68816 3.51871
# Velocity P-wave (km/s) = 5.49338 6.39160 5.95943
#
# Compressibility (1/GPa) = 0.03441868
#
# Stress axis : x y z
#
# Youngs Moduli (GPa) = 92.28005 69.39846 40.71720
#
# Poissons Ratio (x) = 0.26126 -0.00730
# Poissons Ratio (y) = 0.34740 0.16727
# Poissons Ratio (z) = -0.01654 0.28509
#
# Static dielectric constant tensor:
#      x y z
#    x 4.069900 0.000000 0.243980 
#    y 0.000000 3.794060 0.000000 
#    z 0.243980 0.000000 3.444450 
# 
# 
# High freq. dielectric constant tensor:
#      x y z
#    x 1.737920 0.000000 0.019730 
#    y 0.000000 1.711890 0.000000 
#    z 0.019730 0.000000 1.739470 
# 
# From -- ./inp_files/36374.got.cif
#   From: 2010.06.25/outbox.cif.g09.slc.cpg/sg11_19_cif.got.tgz:36374.got - 2010.06.27 23:14:04.
