data_PCOD8069658
_publ_section_title
;
Structure prediction by ZEFSAII (Michael W. Deem and Ramdas Pophale) SiO2 
 PCOD8069658
Probable space group: P 21/M
;
_chemical_formula_sum "Si O2"
_cell_formula_units_Z 32
_cell_length_a 16.665049
_cell_length_b 8.680260
_cell_length_c 23.043093
_cell_angle_alpha 90.000000
_cell_angle_beta 30.925598
_cell_angle_gamma 90.000000
_cell_volume 1713.087209
_symmetry_space_group_name_H-M "P 21/M"
_symmetry_group_IT_number 11
_symmetry_cell_setting 'monoclinic'
loop_
_space_group_symop_operation_xyz
x,y,z
-x,1/2+y,-z
-x,-y,-z
x,1/2-y,z
loop_
_atom_site_type_symbol
_atom_site_label
_atom_site_fract_x
_atom_site_fract_y
_atom_site_fract_z
Si Si1 0.840345 0.425545 0.664603
Si Si2 0.030696 0.932176 0.239560
Si Si3 0.023448 0.432087 0.119612
Si Si4 0.337244 0.576639 0.111115
Si Si5 0.854575 0.566805 0.124753
Si Si6 0.888790 0.427023 0.435859
Si Si7 0.640441 0.428820 0.680903
Si Si8 0.312391 0.568608 0.871639
O O1 0.901284 0.250000 0.622937
O O2 0.702252 0.438486 0.796997
O O3 0.984356 0.532013 0.593508
O O4 0.767547 0.483365 0.649467
O O5 0.028699 0.750000 0.229578
O O6 0.198085 0.994568 0.158477
O O7 0.992053 0.022739 0.205238
O O8 0.904351 0.970588 0.368135
O O9 0.030362 0.250000 0.107835
O O10 0.872926 0.499509 0.178208
O O11 0.186308 0.501631 0.995216
O O12 0.355279 0.750000 0.079454
O O13 0.500000 0.500000 0.000000
O O14 0.853952 0.750000 0.126760
O O15 0.704312 0.505440 0.182679
O O16 0.000000 0.500000 0.000000
O O17 0.911676 0.250000 0.404218
O O18 0.717531 0.455029 0.569772
O O19 0.597426 0.250000 0.717543
O O20 0.485896 0.529990 0.785236
O O21 0.286547 0.750000 0.884382
#
# Coordination Sequence:
#
# PCOD8069658 Si02
#       8
#     4   4   4   4   4   4   4   4
#     4   9  19  35  52  72 101 140 182 224 271 319
#     4  10  21  37  54  76 105 140 182 222 264 319
#     4  11  21  35  57  83 111 142 177 218 264 319
#     4   9  19  32  47  69 101 138 174 216 264 311
#     4  10  18  33  55  79 110 144 175 212 262 317
#     4  10  20  35  55  78 104 139 184 229 272 317
#     4  10  21  36  54  78 108 141 182 228 271 318
#     4  11  22  35  53  82 114 143 178 217 267 321
#
# _framework density 18.679727
#
# number of rings (size 3 to 8) (size 9 to 14) (size 15 to 20)
#    0.000    2.000    0.000    6.750    1.750    4.000 
#    0.000    0.000    0.000    0.750    0.000    0.000 
#    0.000    0.000    0.000    0.000    0.000    0.000 
#
# Total GULP energy -396741.228100 kJ/mol
# GULP energy per Si atom -12398.163378 kJ/mol
# Density = 1.863721 g / cm^3
# Si number density = 18.679727 Si / 1000 Ang^3
#
#
#
# Elastic Constant Matrix: (Units=GPa)
#
#
# Indices 1 2 3 4 5 6 
#
# 1 94.2492 31.3613 24.8688 0.0000 22.8446 0.0000
# 2 31.3613 110.9516 23.8275 0.0000 6.1745 0.0000
# 3 24.8688 23.8275 50.0553 0.0000 7.4062 0.0000
# 4 0.0000 0.0000 0.0000 24.5134 0.0000 0.2477
# 5 22.8446 6.1745 7.4062 0.0000 19.8730 0.0000
# 6 0.0000 0.0000 0.0000 0.2477 0.0000 34.2896
#
#
#
# Elastic Compliance Matrix: (Units=1/GPa)
#
#
# Indices 1 2 3 4 5 6 
#
# 1 0.016812 -0.002849 -0.004517 0.000000 -0.016757 0.000000
# 2 -0.002849 0.010560 -0.003821 0.000000 0.001419 0.000000
# 3 -0.004517 -0.003821 0.024445 0.000000 -0.002731 0.000000
# 4 0.000000 0.000000 0.000000 0.040797 0.000000 -0.000295
# 5 -0.016757 0.001419 -0.002731 0.000000 0.070159 0.000000
# 6 0.000000 0.000000 0.000000 -0.000295 0.000000 0.029165
#
#
# Mechanical properties :
#
#
# Convention : Reuss Voigt Hill
#
# Bulk Modulus (GPa) = 33.96479 46.15236 40.05858
# Shear Modulus (GPa) = 22.30879 27.41511 24.86195
#
# Velocity S-wave (km/s) = 3.45958 3.83513 3.65219
# Velocity P-wave (km/s) = 5.84641 6.66122 6.26707
#
# Compressibility (1/GPa) = 0.02944225
#
# Stress axis : x y z
#
# Youngs Moduli (GPa) = 59.48218 94.69707 40.90834
#
# Poissons Ratio (x) = 0.26983 0.18477
# Poissons Ratio (y) = 0.16949 0.15631
# Poissons Ratio (z) = 0.26867 0.36184
#
# Static dielectric constant tensor:
#      x y z
#    x 3.688060 0.000000 0.141860 
#    y 0.000000 5.379840 0.000000 
#    z 0.141860 0.000000 3.212630 
# 
# 
# High freq. dielectric constant tensor:
#      x y z
#    x 1.724780 0.000000 0.010470 
#    y 0.000000 1.732910 0.000000 
#    z 0.010470 0.000000 1.701920 
# 
# From -- ./inp_files/69441.got.cif
#   From: 2010.06.25/outbox.cif.g09.slc.cpg/sg11_35_cif.got.tgz:69441.got - 2010.06.27 23:14:04.
