data_PCOD8069763
_publ_section_title
;
Structure prediction by ZEFSAII (Michael W. Deem and Ramdas Pophale) SiO2 
 PCOD8069763
Probable space group: P 21/M
;
_chemical_formula_sum "Si O2"
_cell_formula_units_Z 28
_cell_length_a 11.327034
_cell_length_b 20.939890
_cell_length_c 10.909888
_cell_angle_alpha 90.000000
_cell_angle_beta 142.645480
_cell_angle_gamma 90.000000
_cell_volume 1570.063228
_symmetry_space_group_name_H-M "P 21/M"
_symmetry_group_IT_number 11
_symmetry_cell_setting 'monoclinic'
loop_
_space_group_symop_operation_xyz
x,y,z
-x,1/2+y,-z
-x,-y,-z
x,1/2-y,z
loop_
_atom_site_type_symbol
_atom_site_label
_atom_site_fract_x
_atom_site_fract_y
_atom_site_fract_z
Si Si1 0.137147 0.140241 0.889493
Si Si2 0.250948 0.820526 0.547168
Si Si3 0.613073 0.821658 0.681539
Si Si4 0.010857 0.003540 0.863461
Si Si5 0.589341 0.042022 0.895410
Si Si6 0.612888 0.945354 0.516677
Si Si7 0.521763 0.406744 0.097754
O O1 0.030732 0.076251 0.842174
O O2 0.971542 0.179486 0.682404
O O3 0.219640 0.176400 0.076615
O O4 0.317698 0.129697 0.946640
O O5 0.294429 0.750000 0.634547
O O6 0.399333 0.835445 0.558974
O O7 0.294090 0.869937 0.692151
O O8 0.621526 0.750000 0.629515
O O9 0.648369 0.878783 0.615812
O O10 0.817926 0.974499 0.646252
O O11 0.184448 0.963544 0.947881
O O12 0.000000 0.000000 0.000000
O O13 0.494733 0.072464 0.697031
O O14 0.489692 0.974574 0.843756
O O15 0.561339 0.089120 0.986183
O O16 0.500000 0.000000 0.500000
#
# Coordination Sequence:
#
# PCOD8069763 Si02
#       7
#     4   4   4   4   4   4   4
#     4  10  18  34  56  79 107 137 176 221 271 316
#     4  10  20  34  56  79 102 140 182 223 264 309
#     4  10  21  34  50  79 113 140 175 221 270 327
#     4  11  19  31  53  85 108 137 174 217 268 321
#     4  10  21  35  55  79 109 141 173 220 273 314
#     4  12  20  33  55  80 110 144 177 219 269 326
#     4   9  20  38  53  78 108 136 178 223 265 319
#
# _framework density 17.833677000000002
#
# number of rings (size 3 to 8) (size 9 to 14) (size 15 to 20)
#    0.000    1.714    2.857    3.857    0.000    1.714 
#    0.000    5.000    0.000    2.571    0.000    0.000 
#    0.000    0.000    0.000    0.000    0.000    0.000 
#
# Total GULP energy -347151.544629 kJ/mol
# GULP energy per Si atom -12398.269451 kJ/mol
# Density = 1.779309 g / cm^3
# Si number density = 17.833677 Si / 1000 Ang^3
#
#
#
# Elastic Constant Matrix: (Units=GPa)
#
#
# Indices 1 2 3 4 5 6 
#
# 1 88.0782 35.5297 38.5355 0.0000 -7.5173 0.0000
# 2 35.5297 81.5816 35.8732 0.0000 -0.7224 0.0000
# 3 38.5355 35.8732 105.2577 0.0000 1.5795 0.0000
# 4 0.0000 0.0000 0.0000 24.1231 0.0000 -0.6533
# 5 -7.5173 -0.7224 1.5795 0.0000 26.8538 0.0000
# 6 0.0000 0.0000 0.0000 -0.6533 0.0000 16.2935
#
#
#
# Elastic Compliance Matrix: (Units=1/GPa)
#
#
# Indices 1 2 3 4 5 6 
#
# 1 0.015496 -0.004923 -0.004062 0.000000 0.004444 0.000000
# 2 -0.004923 0.015995 -0.003638 0.000000 -0.000734 0.000000
# 3 -0.004062 -0.003638 0.012257 0.000000 -0.001956 0.000000
# 4 0.000000 0.000000 0.000000 0.041499 0.000000 0.001664
# 5 0.004444 -0.000734 -0.001956 0.000000 0.038578 0.000000
# 6 0.000000 0.000000 0.000000 0.001664 0.000000 0.061441
#
#
# Mechanical properties :
#
#
# Convention : Reuss Voigt Hill
#
# Bulk Modulus (GPa) = 54.04922 54.97713 54.51318
# Shear Modulus (GPa) = 23.07560 24.45268 23.76414
#
# Velocity S-wave (km/s) = 3.60103 3.70692 3.65436
# Velocity P-wave (km/s) = 6.90385 7.01544 6.95986
#
# Compressibility (1/GPa) = 0.01850165
#
# Stress axis : x y z
#
# Youngs Moduli (GPa) = 64.53281 62.51981 81.58739
#
# Poissons Ratio (x) = 0.30780 0.33141
# Poissons Ratio (y) = 0.31771 0.29680
# Poissons Ratio (z) = 0.26213 0.22744
#
# Static dielectric constant tensor:
#      x y z
#    x 3.306250 0.000000 0.164070 
#    y 0.000000 3.321040 0.000000 
#    z 0.164070 0.000000 3.403220 
# 
# 
# High freq. dielectric constant tensor:
#      x y z
#    x 1.673730 0.000000 0.013120 
#    y 0.000000 1.684470 0.000000 
#    z 0.013120 0.000000 1.697960 
# 
# From -- ./inp_files/36298.got.cif
#   From: 2010.06.25/outbox.cif.g09.slc.cpg/sg11_19_cif.got.tgz:36298.got - 2010.06.27 23:14:04.
