data_PCOD8069741
_publ_section_title
;
Structure prediction by ZEFSAII (Michael W. Deem and Ramdas Pophale) SiO2 
 PCOD8069741
Probable space group: P 21/M
;
_chemical_formula_sum "Si O2"
_cell_formula_units_Z 22
_cell_length_a 17.979551
_cell_length_b 9.633493
_cell_length_c 19.235226
_cell_angle_alpha 90.000000
_cell_angle_beta 158.575174
_cell_angle_gamma 90.000000
_cell_volume 1216.987228
_symmetry_space_group_name_H-M "P 21/M"
_symmetry_group_IT_number 11
_symmetry_cell_setting 'monoclinic'
loop_
_space_group_symop_operation_xyz
x,y,z
-x,1/2+y,-z
-x,-y,-z
x,1/2-y,z
loop_
_atom_site_type_symbol
_atom_site_label
_atom_site_fract_x
_atom_site_fract_y
_atom_site_fract_z
Si Si1 0.948137 0.250000 0.501929
Si Si2 0.266696 0.908341 0.192338
Si Si3 0.141234 0.030545 0.496986
Si Si4 0.181506 0.088395 0.242167
Si Si5 0.650113 0.750000 0.229751
Si Si6 0.323098 0.089781 0.515367
Si Si7 0.192387 0.750000 0.772783
O O1 0.897881 0.384004 0.502593
O O2 0.807064 0.250000 0.310534
O O3 0.188042 0.250000 0.692401
O O4 0.275138 0.750000 0.226165
O O5 0.434309 0.933300 0.278443
O O6 0.311279 0.003396 0.298328
O O7 0.054493 0.946267 0.972934
O O8 0.309788 0.114202 0.688317
O O9 0.230216 0.001796 0.497647
O O10 0.928168 0.113696 0.306096
O O11 0.234522 0.250000 0.278800
O O12 0.231327 0.037527 0.362741
O O13 0.421075 0.750000 0.001293
O O14 0.267180 0.250000 0.480734
#
# Coordination Sequence:
#
# PCOD8069741 Si02
#       7
#     2   4   4   4   2   4   2
#     4  10  22  38  56  82 120 140 172 226 276 326
#     4   9  18  32  51  73 100 133 173 218 258 307
#     4  10  21  38  54  85 116 141 178 228 272 323
#     4   9  18  32  51  73 100 133 173 218 258 307
#     4  10  20  38  64  82 103 144 188 222 263 328
#     4  10  18  34  52  75 101 138 179 211 259 318
#     4  10  20  38  64  82 103 144 188 222 263 328
#
# _framework density 18.077428999999999
#
# number of rings (size 3 to 8) (size 9 to 14) (size 15 to 20)
#    0.000    2.545    1.818    2.727    0.000    4.364 
#    3.273    0.000    0.000    0.000    0.000    0.000 
#    0.000    0.000    0.000    0.000    0.000    0.000 
#
# Total GULP energy -272761.495788 kJ/mol
# GULP energy per Si atom -12398.249809 kJ/mol
# Density = 1.803628 g / cm^3
# Si number density = 18.077429 Si / 1000 Ang^3
#
#
#
# Elastic Constant Matrix: (Units=GPa)
#
#
# Indices 1 2 3 4 5 6 
#
# 1 137.5624 51.1500 31.3934 0.0000 -4.5168 0.0000
# 2 51.1500 85.1152 26.2682 0.0000 -0.7792 0.0000
# 3 31.3934 26.2682 102.2500 0.0000 12.0162 0.0000
# 4 0.0000 0.0000 0.0000 9.1582 0.0000 3.1025
# 5 -4.5168 -0.7792 12.0162 0.0000 16.2176 0.0000
# 6 0.0000 0.0000 0.0000 3.1025 0.0000 5.9342
#
#
#
# Elastic Compliance Matrix: (Units=1/GPa)
#
#
# Indices 1 2 3 4 5 6 
#
# 1 0.009832 -0.005204 -0.002163 0.000000 0.004091 0.000000
# 2 -0.005204 0.015681 -0.002573 0.000000 0.001211 0.000000
# 3 -0.002163 -0.002573 0.012258 0.000000 -0.009808 0.000000
# 4 0.000000 0.000000 0.000000 0.132694 0.000000 -0.069374
# 5 0.004091 0.001211 -0.009808 0.000000 0.070126 0.000000
# 6 0.000000 0.000000 0.000000 -0.069374 0.000000 0.204783
#
#
# Mechanical properties :
#
#
# Convention : Reuss Voigt Hill
#
# Bulk Modulus (GPa) = 55.89096 60.28342 58.08719
# Shear Modulus (GPa) = 10.61083 20.66974 15.64029
#
# Velocity S-wave (km/s) = 2.42537 3.38509 2.94459
# Velocity P-wave (km/s) = 6.23120 6.97841 6.61536
#
# Compressibility (1/GPa) = 0.01789198
#
# Stress axis : x y z
#
# Youngs Moduli (GPa) = 101.70652 63.77070 81.58214
#
# Poissons Ratio (x) = 0.33185 0.17643
# Poissons Ratio (y) = 0.52926 0.20992
# Poissons Ratio (z) = 0.21995 0.16409
#
# Static dielectric constant tensor:
#      x y z
#    x 3.419210 0.000000 0.034780 
#    y 0.000000 1.986400 0.000000 
#    z 0.034780 0.000000 3.349490 
# 
# 
# High freq. dielectric constant tensor:
#      x y z
#    x 1.704450 0.000000 0.003500 
#    y 0.000000 1.683540 0.000000 
#    z 0.003500 0.000000 1.698530 
# 
# From -- ./inp_files/52187.got.cif
#   From: 2010.06.25/outbox.cif.g09.slc.cpg/sg11_27_cif.got.tgz:52187.got - 2010.06.27 23:14:04.
