data_PCOD8069896
_publ_section_title
;
Structure prediction by ZEFSAII (Michael W. Deem and Ramdas Pophale) SiO2 
 PCOD8069896
Probable space group: P 21/M
;
_chemical_formula_sum "Si O2"
_cell_formula_units_Z 26
_cell_length_a 9.916330
_cell_length_b 20.009763
_cell_length_c 8.390982
_cell_angle_alpha 90.000000
_cell_angle_beta 50.214921
_cell_angle_gamma 90.000000
_cell_volume 1279.444438
_symmetry_space_group_name_H-M "P 21/M"
_symmetry_group_IT_number 11
_symmetry_cell_setting 'monoclinic'
loop_
_space_group_symop_operation_xyz
x,y,z
-x,1/2+y,-z
-x,-y,-z
x,1/2-y,z
loop_
_atom_site_type_symbol
_atom_site_label
_atom_site_fract_x
_atom_site_fract_y
_atom_site_fract_z
Si Si1 0.161512 0.482260 0.138673
Si Si2 0.217802 0.750000 0.293366
Si Si3 0.989060 0.750000 0.779413
Si Si4 0.611106 0.750000 0.944665
Si Si5 0.585831 0.044510 0.301616
Si Si6 0.405046 0.105921 0.156585
Si Si7 0.860023 0.387970 0.300182
Si Si8 0.228288 0.893150 0.264508
O O1 0.234627 0.429278 0.211971
O O2 0.105913 0.550486 0.275488
O O3 0.992862 0.450013 0.183077
O O4 0.301201 0.496503 0.896160
O O5 0.079203 0.750000 0.539462
O O6 0.186451 0.819401 0.219673
O O7 0.427333 0.750000 0.184273
O O8 0.050844 0.817928 0.819424
O O9 0.777339 0.750000 0.937187
O O10 0.623983 0.685443 0.821235
O O11 0.434170 0.081703 0.315693
O O12 0.704389 0.101376 0.293126
O O13 0.500000 0.000000 0.500000
O O14 0.573005 0.084712 0.923680
O O15 0.788280 0.387109 0.534147
#
# Coordination Sequence:
#
# PCOD8069896 Si02
#       8
#     4   2   2   2   4   4   4   4
#     4  11  20  35  59  85 113 150 198 237 290 350
#     4   8  18  32  54  86 114 148 188 248 300 342
#     4  10  20  37  59  88 121 147 206 240 299 363
#     4  10  18  37  61  86 113 153 200 254 287 351
#     4  11  23  38  55  84 123 153 194 247 301 355
#     4  10  20  36  60  84 110 153 198 239 289 353
#     4  11  21  36  58  86 116 155 184 248 303 350
#     4   9  18  33  55  84 109 146 196 235 287 354
#
# _framework density 20.321318999999999
#
# number of rings (size 3 to 8) (size 9 to 14) (size 15 to 20)
#    0.000    1.846    1.538    4.615    0.000    0.615 
#    0.000    0.769    0.000    1.846    0.000    0.000 
#    0.000    0.000    0.000    0.000    0.000    0.000 
#
# Total GULP energy -322286.661209 kJ/mol
# GULP energy per Si atom -12395.640816 kJ/mol
# Density = 2.027507 g / cm^3
# Si number density = 20.321319 Si / 1000 Ang^3
#
#
#
# Elastic Constant Matrix: (Units=GPa)
#
#
# Indices 1 2 3 4 5 6 
#
# 1 77.2085 33.4698 18.1845 0.0000 6.3331 0.0000
# 2 33.4698 143.8945 22.3298 0.0000 3.1191 0.0000
# 3 18.1845 22.3298 50.2987 0.0000 6.2581 0.0000
# 4 0.0000 0.0000 0.0000 24.0720 0.0000 -2.6229
# 5 6.3331 3.1191 6.2581 0.0000 26.1650 0.0000
# 6 0.0000 0.0000 0.0000 -2.6229 0.0000 33.2502
#
#
#
# Elastic Compliance Matrix: (Units=1/GPa)
#
#
# Indices 1 2 3 4 5 6 
#
# 1 0.015340 -0.002902 -0.003957 0.000000 -0.002421 0.000000
# 2 -0.002902 0.008013 -0.002553 0.000000 0.000358 0.000000
# 3 -0.003957 -0.002553 0.022971 0.000000 -0.004232 0.000000
# 4 0.000000 0.000000 0.000000 0.041902 0.000000 0.003305
# 5 -0.002421 0.000358 -0.004232 0.000000 0.039775 0.000000
# 6 0.000000 0.000000 0.000000 0.003305 0.000000 0.030336
#
#
# Mechanical properties :
#
#
# Convention : Reuss Voigt Hill
#
# Bulk Modulus (GPa) = 36.36016 46.59664 41.47840
# Shear Modulus (GPa) = 26.83460 29.85860 28.34660
#
# Velocity S-wave (km/s) = 3.63783 3.83733 3.73891
# Velocity P-wave (km/s) = 5.96461 6.52788 6.25259
#
# Compressibility (1/GPa) = 0.02750263
#
# Stress axis : x y z
#
# Youngs Moduli (GPa) = 65.18798 124.79960 43.53228
#
# Poissons Ratio (x) = 0.36213 0.17224
# Poissons Ratio (y) = 0.18915 0.11113
# Poissons Ratio (z) = 0.25792 0.31858
#
# Static dielectric constant tensor:
#      x y z
#    x 3.557890 0.000000 -0.129100 
#    y 0.000000 4.258020 0.000000 
#    z -0.129100 0.000000 3.522630 
# 
# 
# High freq. dielectric constant tensor:
#      x y z
#    x 1.766010 0.000000 -0.017180 
#    y 0.000000 1.818980 0.000000 
#    z -0.017180 0.000000 1.779010 
# 
# From -- ./inp_files/14521.got.cif
#   From: 2010.06.25/outbox.cif.g09.slc.cpg/sg11_8_cif.got.tgz:14521.got - 2010.06.27 23:14:04.
