data_PCOD8069667
_publ_section_title
;
Structure prediction by ZEFSAII (Michael W. Deem and Ramdas Pophale) SiO2 
 PCOD8069667
Probable space group: P 21/M
;
_chemical_formula_sum "Si O2"
_cell_formula_units_Z 32
_cell_length_a 11.460286
_cell_length_b 18.710822
_cell_length_c 11.745906
_cell_angle_alpha 90.000000
_cell_angle_beta 136.504213
_cell_angle_gamma 90.000000
_cell_volume 1733.617945
_symmetry_space_group_name_H-M "P 21/M"
_symmetry_group_IT_number 11
_symmetry_cell_setting 'monoclinic'
loop_
_space_group_symop_operation_xyz
x,y,z
-x,1/2+y,-z
-x,-y,-z
x,1/2-y,z
loop_
_atom_site_type_symbol
_atom_site_label
_atom_site_fract_x
_atom_site_fract_y
_atom_site_fract_z
Si Si1 0.883360 0.548072 0.664825
Si Si2 0.106133 0.072861 0.569354
Si Si3 0.937584 0.168231 0.637109
Si Si4 0.803940 0.050670 0.957236
Si Si5 0.012601 0.833407 0.065736
Si Si6 0.716595 0.910993 0.759102
Si Si7 0.473288 0.479535 0.852222
Si Si8 0.640741 0.079424 0.411777
O O1 0.925504 0.597210 0.583966
O O2 0.766429 0.596112 0.662647
O O3 0.777755 0.477586 0.554786
O O4 0.056240 0.526440 0.851371
O O5 0.306796 0.067749 0.726730
O O6 0.053592 0.126561 0.630132
O O7 0.000000 0.000000 0.500000
O O8 0.982585 0.250000 0.651983
O O9 0.741814 0.153121 0.465467
O O10 0.963993 0.144254 0.786354
O O11 0.629663 0.063296 0.904429
O O12 0.862445 0.121045 0.928594
O O13 0.780946 0.987690 0.850006
O O14 0.053727 0.750000 0.075690
O O15 0.814880 0.848929 0.897327
O O16 0.514113 0.903980 0.613393
O O17 0.444605 0.554165 0.765889
O O18 0.500000 0.500000 0.000000
#
# Coordination Sequence:
#
# PCOD8069667 Si02
#       8
#     4   4   4   4   4   4   4   4
#     4  10  18  33  55  84 113 144 181 232 292 328
#     4  11  21  35  57  80 115 150 189 236 287 342
#     4  11  23  39  57  80 114 158 194 228 283 352
#     4  10  20  34  59  88 114 147 192 243 282 340
#     4  10  22  39  58  80 116 159 192 231 287 340
#     4  10  20  33  59  87 114 140 192 239 286 330
#     4  10  21  33  58  89 114 144 187 240 295 331
#     4  10  20  33  56  86 114 143 184 241 282 340
#
# _framework density 18.458507000000001
#
# number of rings (size 3 to 8) (size 9 to 14) (size 15 to 20)
#    0.000    1.750    2.500    4.125    3.500    2.500 
#    0.000    3.125    0.000    0.000    0.000    0.000 
#    0.000    0.000    0.000    0.000    0.000    0.000 
#
# Total GULP energy -396556.122328 kJ/mol
# GULP energy per Si atom -12392.378823 kJ/mol
# Density = 1.841649 g / cm^3
# Si number density = 18.458507 Si / 1000 Ang^3
#
#
#
# Elastic Constant Matrix: (Units=GPa)
#
#
# Indices 1 2 3 4 5 6 
#
# 1 166.8909 49.1381 73.5617 0.0000 -0.8113 0.0000
# 2 49.1381 67.0006 28.4194 0.0000 -6.4168 0.0000
# 3 73.5617 28.4194 88.3996 0.0000 0.5039 0.0000
# 4 0.0000 0.0000 0.0000 17.5740 0.0000 -3.0323
# 5 -0.8113 -6.4168 0.5039 0.0000 40.3464 0.0000
# 6 0.0000 0.0000 0.0000 -3.0323 0.0000 25.0845
#
#
#
# Elastic Compliance Matrix: (Units=1/GPa)
#
#
# Indices 1 2 3 4 5 6 
#
# 1 0.010596 -0.004718 -0.007298 0.000000 -0.000446 0.000000
# 2 -0.004718 0.019709 -0.002428 0.000000 0.003070 0.000000
# 3 -0.007298 -0.002428 0.018170 0.000000 -0.000760 0.000000
# 4 0.000000 0.000000 0.000000 0.058114 0.000000 0.007025
# 5 -0.000446 0.003070 -0.000760 0.000000 0.025274 0.000000
# 6 0.000000 0.000000 0.000000 0.007025 0.000000 0.040714
#
#
# Mechanical properties :
#
#
# Convention : Reuss Voigt Hill
#
# Bulk Modulus (GPa) = 51.05229 69.39215 60.22222
# Shear Modulus (GPa) = 24.03915 28.01244 26.02580
#
# Velocity S-wave (km/s) = 3.61270 3.89985 3.75902
# Velocity P-wave (km/s) = 6.71715 7.61273 7.17892
#
# Compressibility (1/GPa) = 0.01958776
#
# Stress axis : x y z
#
# Youngs Moduli (GPa) = 94.37860 50.73767 55.03600
#
# Poissons Ratio (x) = 0.23938 0.40164
# Poissons Ratio (y) = 0.44528 0.13361
# Poissons Ratio (z) = 0.68876 0.12317
#
# Static dielectric constant tensor:
#      x y z
#    x 3.869310 0.000000 0.015290 
#    y 0.000000 3.074400 0.000000 
#    z 0.015290 0.000000 3.913210 
# 
# 
# High freq. dielectric constant tensor:
#      x y z
#    x 1.739020 0.000000 -0.001700 
#    y 0.000000 1.668230 0.000000 
#    z -0.001700 0.000000 1.729260 
# 
# From -- ./inp_files/36378.got.cif
#   From: 2010.06.25/outbox.cif.g09.slc.cpg/sg11_19_cif.got.tgz:36378.got - 2010.06.27 23:14:04.
