data_PCOD8069444
_publ_section_title
;
Structure prediction by ZEFSAII (Michael W. Deem and Ramdas Pophale) SiO2 
 PCOD8069444
Probable space group: P 21/M
;
_chemical_formula_sum "Si O2"
_cell_formula_units_Z 32
_cell_length_a 30.865356
_cell_length_b 8.912821
_cell_length_c 21.507837
_cell_angle_alpha 90.000000
_cell_angle_beta 19.357653
_cell_angle_gamma 90.000000
_cell_volume 1961.189056
_symmetry_space_group_name_H-M "P 21/M"
_symmetry_group_IT_number 11
_symmetry_cell_setting 'monoclinic'
loop_
_space_group_symop_operation_xyz
x,y,z
-x,1/2+y,-z
-x,-y,-z
x,1/2-y,z
loop_
_atom_site_type_symbol
_atom_site_label
_atom_site_fract_x
_atom_site_fract_y
_atom_site_fract_z
Si Si1 0.908108 0.071593 0.676109
Si Si2 0.546453 0.574051 0.292046
Si Si3 0.223233 0.424954 0.932594
Si Si4 0.994534 0.074185 0.330335
Si Si5 0.470937 0.424870 0.947235
Si Si6 0.699712 0.073759 0.723574
Si Si7 0.618893 0.073806 0.375264
Si Si8 0.628610 0.573114 0.049172
O O1 0.915016 0.250000 0.661686
O O2 0.954146 0.021055 0.681615
O O3 0.761886 0.017123 0.861381
O O4 0.000000 0.000000 0.500000
O O5 0.566649 0.750000 0.261673
O O6 0.670556 0.509811 0.162230
O O7 0.409181 0.536194 0.513399
O O8 0.550394 0.513467 0.216068
O O9 0.243393 0.250000 0.893749
O O10 0.245725 0.505483 0.834941
O O11 0.080290 0.461481 0.152998
O O12 0.004180 0.250000 0.334768
O O13 0.848282 0.023463 0.510696
O O14 0.453564 0.250000 0.982788
O O15 0.609370 0.481211 0.788166
O O16 0.349890 0.503547 0.145087
O O17 0.465269 0.463509 0.881968
O O18 0.691247 0.250000 0.742942
O O19 0.618735 0.250000 0.364040
O O20 0.500000 0.000000 0.500000
O O21 0.661418 0.750000 0.008477
#
# Coordination Sequence:
#
# PCOD8069444 Si02
#       8
#     4   4   4   4   4   4   4   4
#     4  12  24  34  45  65  93 123 157 188 224 276
#     4   8  14  26  43  62  87 118 148 178 218 267
#     4   9  16  28  44  63  88 120 151 182 225 271
#     4  10  19  33  50  66  92 124 154 189 233 277
#     4   9  18  31  49  70  89 114 152 195 232 272
#     4   9  18  32  49  68  89 116 152 194 234 272
#     4   9  16  26  41  62  88 119 152 183 220 267
#     4  10  18  32  50  67  92 122 152 187 231 276
#
# _framework density 16.316631999999998
#
# number of rings (size 3 to 8) (size 9 to 14) (size 15 to 20)
#    0.000    2.500    1.250    3.000    0.000    3.500 
#    0.000    0.625    0.000    0.000    0.000    0.875 
#    0.000    0.000    0.000    0.000    0.000    0.000 
#
# Total GULP energy -396572.405417 kJ/mol
# GULP energy per Si atom -12392.887669 kJ/mol
# Density = 1.627949 g / cm^3
# Si number density = 16.316632 Si / 1000 Ang^3
#
#
#
# Elastic Constant Matrix: (Units=GPa)
#
#
# Indices 1 2 3 4 5 6 
#
# 1 85.6497 24.7673 53.1771 0.0000 14.1722 0.0000
# 2 24.7673 50.1329 28.1382 0.0000 6.2612 0.0000
# 3 53.1771 28.1382 95.0244 0.0000 17.7056 0.0000
# 4 0.0000 0.0000 0.0000 22.8696 0.0000 6.4054
# 5 14.1722 6.2612 17.7056 0.0000 28.0244 0.0000
# 6 0.0000 0.0000 0.0000 6.4054 0.0000 15.7881
#
#
#
# Elastic Compliance Matrix: (Units=1/GPa)
#
#
# Indices 1 2 3 4 5 6 
#
# 1 0.018768 -0.003975 -0.008753 0.000000 -0.003073 0.000000
# 2 -0.003975 0.024789 -0.005053 0.000000 -0.000335 0.000000
# 3 -0.008753 -0.005053 0.018002 0.000000 -0.005818 0.000000
# 4 0.000000 0.000000 0.000000 0.049332 0.000000 -0.020015
# 5 -0.003073 -0.000335 -0.005818 0.000000 0.040988 0.000000
# 6 0.000000 0.000000 0.000000 -0.020015 0.000000 0.071459
#
#
# Mechanical properties :
#
#
# Convention : Reuss Voigt Hill
#
# Bulk Modulus (GPa) = 38.46747 49.21915 43.84331
# Shear Modulus (GPa) = 18.68689 21.65139 20.16914
#
# Velocity S-wave (km/s) = 3.38785 3.64669 3.51965
# Velocity P-wave (km/s) = 6.23940 6.92543 6.59135
#
# Compressibility (1/GPa) = 0.02599599
#
# Stress axis : x y z
#
# Youngs Moduli (GPa) = 53.28216 40.34038 55.54787
#
# Poissons Ratio (x) = 0.16037 0.48622
# Poissons Ratio (y) = 0.21181 0.28070
# Poissons Ratio (z) = 0.46639 0.20385
#
# Static dielectric constant tensor:
#      x y z
#    x 3.283530 0.000000 0.280450 
#    y 0.000000 3.057310 0.000000 
#    z 0.280450 0.000000 3.397880 
# 
# 
# High freq. dielectric constant tensor:
#      x y z
#    x 1.606200 0.000000 0.024170 
#    y 0.000000 1.617960 0.000000 
#    z 0.024170 0.000000 1.622880 
# 
# From -- ./inp_files/40720.got.cif
#   From: 2010.06.25/outbox.cif.g09.slc.cpg/sg11_21_cif.got.tgz:40720.got - 2010.06.27 23:14:04.
