data_PCOD8069333
_publ_section_title
;
Structure prediction by ZEFSAII (Michael W. Deem and Ramdas Pophale) SiO2 
 PCOD8069333
Probable space group: P 21/M
;
_chemical_formula_sum "Si O2"
_cell_formula_units_Z 32
_cell_length_a 21.977468
_cell_length_b 13.699999
_cell_length_c 9.591040
_cell_angle_alpha 90.000000
_cell_angle_beta 141.188080
_cell_angle_gamma 90.000000
_cell_volume 1809.961252
_symmetry_space_group_name_H-M "P 21/M"
_symmetry_group_IT_number 11
_symmetry_cell_setting 'monoclinic'
loop_
_space_group_symop_operation_xyz
x,y,z
-x,1/2+y,-z
-x,-y,-z
x,1/2-y,z
loop_
_atom_site_type_symbol
_atom_site_label
_atom_site_fract_x
_atom_site_fract_y
_atom_site_fract_z
Si Si1 0.316754 0.857865 0.081915
Si Si2 0.935066 0.864553 0.557431
Si Si3 0.236982 0.365416 0.551112
Si Si4 0.202233 0.136334 0.925764
Si Si5 0.745630 0.970436 0.707934
Si Si6 0.358353 0.054570 0.008817
Si Si7 0.149991 0.637260 0.988032
Si Si8 0.444449 0.552496 0.524375
O O1 0.326826 0.750000 0.032509
O O2 0.384995 0.861004 0.342601
O O3 0.207626 0.875682 0.944344
O O4 0.343253 0.938739 0.013599
O O5 0.943184 0.750000 0.552966
O O6 0.867429 0.889953 0.568853
O O7 0.885133 0.905321 0.327011
O O8 0.042305 0.907008 0.772357
O O9 0.257720 0.250000 0.586553
O O10 0.237271 0.407469 0.397627
O O11 0.321056 0.419556 0.788599
O O12 0.191270 0.250000 0.935106
O O13 0.303603 0.117739 0.027764
O O14 0.199977 0.082462 0.068000
O O15 0.630550 0.980610 0.530453
O O16 0.797445 0.076712 0.793536
O O17 0.472448 0.085046 0.217787
O O18 0.147504 0.750000 0.031348
O O19 0.500000 0.500000 0.500000
#
# Coordination Sequence:
#
# PCOD8069333 Si02
#       8
#     4   4   4   4   4   4   4   4
#     4   9  17  30  52  81 104 129 170 222 264 301
#     4   8  17  33  53  75 102 137 172 213 259 311
#     4  10  22  37  52  74 108 140 172 214 262 308
#     4  10  18  31  52  77 101 133 177 216 256 300
#     4  11  20  34  52  79 106 136 171 217 259 305
#     4  10  18  36  52  75 104 140 173 212 261 311
#     4   9  17  33  55  76 104 137 172 214 262 308
#     4   9  17  33  52  76 106 127 168 218 255 302
#
# _framework density 17.679936999999999
#
# number of rings (size 3 to 8) (size 9 to 14) (size 15 to 20)
#    0.000    2.500    3.750    1.500    0.000    2.500 
#    0.000    1.250    0.000    0.000    0.000    0.000 
#    0.000    0.000    0.000    0.000    0.000    0.000 
#
# Total GULP energy -396582.532068 kJ/mol
# GULP energy per Si atom -12393.204127 kJ/mol
# Density = 1.763970 g / cm^3
# Si number density = 17.679937 Si / 1000 Ang^3
#
#
#
# Elastic Constant Matrix: (Units=GPa)
#
#
# Indices 1 2 3 4 5 6 
#
# 1 80.4281 28.0911 67.3636 0.0000 1.7903 0.0000
# 2 28.0911 75.3674 38.7270 0.0000 -1.0926 0.0000
# 3 67.3636 38.7270 115.6402 0.0000 12.6307 0.0000
# 4 0.0000 0.0000 0.0000 24.1617 0.0000 -5.1091
# 5 1.7903 -1.0926 12.6307 0.0000 37.2268 0.0000
# 6 0.0000 0.0000 0.0000 -5.1091 0.0000 23.7317
#
#
#
# Elastic Compliance Matrix: (Units=1/GPa)
#
#
# Indices 1 2 3 4 5 6 
#
# 1 0.025023 -0.001911 -0.014330 0.000000 0.003603 0.000000
# 2 -0.001911 0.016378 -0.004605 0.000000 0.002135 0.000000
# 3 -0.014330 -0.004605 0.019188 0.000000 -0.005956 0.000000
# 4 0.000000 0.000000 0.000000 0.043362 0.000000 0.009335
# 5 0.003603 0.002135 -0.005956 0.000000 0.028773 0.000000
# 6 0.000000 0.000000 0.000000 0.009335 0.000000 0.044148
#
#
# Mechanical properties :
#
#
# Convention : Reuss Voigt Hill
#
# Bulk Modulus (GPa) = 52.91875 59.97767 56.44821
# Shear Modulus (GPa) = 22.23590 26.17430 24.20510
#
# Velocity S-wave (km/s) = 3.55024 3.85184 3.70411
# Velocity P-wave (km/s) = 6.84121 7.33348 7.09162
#
# Compressibility (1/GPa) = 0.01889689
#
# Stress axis : x y z
#
# Youngs Moduli (GPa) = 39.96298 61.05879 52.11610
#
# Poissons Ratio (x) = 0.11668 0.74683
# Poissons Ratio (y) = 0.07637 0.23998
# Poissons Ratio (z) = 0.57268 0.28116
#
# Static dielectric constant tensor:
#      x y z
#    x 3.148320 0.000000 0.414530 
#    y 0.000000 3.319570 0.000000 
#    z 0.414530 0.000000 3.857580 
# 
# 
# High freq. dielectric constant tensor:
#      x y z
#    x 1.659240 0.000000 0.020740 
#    y 0.000000 1.677830 0.000000 
#    z 0.020740 0.000000 1.684290 
# 
# From -- ./inp_files/26833.got.cif
#   From: 2010.06.25/outbox.cif.g09.slc.cpg/sg11_14_cif.got.tgz:26833.got - 2010.06.27 23:14:04.
