data_PCOD8069469
_publ_section_title
;
Structure prediction by ZEFSAII (Michael W. Deem and Ramdas Pophale) SiO2 
 PCOD8069469
Probable space group: P 21/M
;
_chemical_formula_sum "Si O2"
_cell_formula_units_Z 24
_cell_length_a 12.434760
_cell_length_b 8.680380
_cell_length_c 12.542627
_cell_angle_alpha 90.000000
_cell_angle_beta 89.148823
_cell_angle_gamma 90.000000
_cell_volume 1353.682227
_symmetry_space_group_name_H-M "P 21/M"
_symmetry_group_IT_number 11
_symmetry_cell_setting 'monoclinic'
loop_
_space_group_symop_operation_xyz
x,y,z
-x,1/2+y,-z
-x,-y,-z
x,1/2-y,z
loop_
_atom_site_type_symbol
_atom_site_label
_atom_site_fract_x
_atom_site_fract_y
_atom_site_fract_z
Si Si1 0.992266 0.932814 0.618000
Si Si2 0.634066 0.074469 0.217699
Si Si3 0.207782 0.070064 0.625549
Si Si4 0.380868 0.428401 0.229391
Si Si5 0.384624 0.928529 0.016870
Si Si6 0.775375 0.431454 0.606396
O O1 0.993630 0.750000 0.619346
O O2 0.097695 0.997794 0.676979
O O3 0.000000 0.000000 0.500000
O O4 0.879123 0.994848 0.665887
O O5 0.656267 0.250000 0.253123
O O6 0.507750 0.037952 0.228395
O O7 0.696756 0.958524 0.292948
O O8 0.676446 0.049539 0.095336
O O9 0.191585 0.250000 0.607167
O O10 0.238157 0.993666 0.512866
O O11 0.354052 0.250000 0.245098
O O12 0.328802 0.485010 0.117489
O O13 0.330420 0.523904 0.326776
O O14 0.395653 0.750000 0.045803
O O15 0.500000 0.000000 0.000000
O O16 0.789857 0.250000 0.601343
#
# Coordination Sequence:
#
# PCOD8069469 Si02
#       6
#     4   4   4   4   4   4
#     4  10  18  32  52  72  97 128 166 206 245 291
#     4   9  19  34  51  73 102 134 167 204 246 294
#     4  11  21  33  51  75 102 132 168 206 248 296
#     4  10  20  34  52  75 103 133 168 207 249 297
#     4   9  17  31  51  73  98 130 169 208 245 290
#     4  11  21  34  52  74 102 133 167 205 249 298
#
# _framework density 17.729419
#
# number of rings (size 3 to 8) (size 9 to 14) (size 15 to 20)
#    0.000    2.000    0.000    8.500    0.000    4.667 
#    0.000    0.000    0.000    1.000    0.000    0.000 
#    0.000    0.000    0.000    0.000    0.000    0.000 
#
# Total GULP energy -297500.141374 kJ/mol
# GULP energy per Si atom -12395.839224 kJ/mol
# Density = 1.768907 g / cm^3
# Si number density = 17.729419 Si / 1000 Ang^3
#
#
#
# Elastic Constant Matrix: (Units=GPa)
#
#
# Indices 1 2 3 4 5 6 
#
# 1 68.0813 40.3371 38.0649 0.0000 9.3094 0.0000
# 2 40.3371 145.5152 40.8805 0.0000 6.5164 0.0000
# 3 38.0649 40.8805 80.8910 0.0000 10.3100 0.0000
# 4 0.0000 0.0000 0.0000 30.9130 0.0000 -0.6968
# 5 9.3094 6.5164 10.3100 0.0000 5.3094 0.0000
# 6 0.0000 0.0000 0.0000 -0.6968 0.0000 30.6223
#
#
#
# Elastic Compliance Matrix: (Units=1/GPa)
#
#
# Indices 1 2 3 4 5 6 
#
# 1 0.023756 -0.003750 -0.006062 0.000000 -0.025280 0.000000
# 2 -0.003750 0.008629 -0.002770 0.000000 0.001364 0.000000
# 3 -0.006062 -0.002770 0.019703 0.000000 -0.024232 0.000000
# 4 0.000000 0.000000 0.000000 0.032365 0.000000 0.000736
# 5 -0.025280 0.001364 -0.024232 0.000000 0.278052 0.000000
# 6 0.000000 0.000000 0.000000 0.000736 0.000000 0.032673
#
#
# Mechanical properties :
#
#
# Convention : Reuss Voigt Hill
#
# Bulk Modulus (GPa) = 37.14059 59.22808 48.18433
# Shear Modulus (GPa) = 11.64641 25.04927 18.34784
#
# Velocity S-wave (km/s) = 2.56578 3.76289 3.22045
# Velocity P-wave (km/s) = 5.45634 7.23590 6.40820
#
# Compressibility (1/GPa) = 0.02692472
#
# Stress axis : x y z
#
# Youngs Moduli (GPa) = 42.09426 115.89102 50.75340
#
# Poissons Ratio (x) = 0.43462 0.30764
# Poissons Ratio (y) = 0.15786 0.14058
# Poissons Ratio (z) = 0.25516 0.32100
#
# Static dielectric constant tensor:
#      x y z
#    x 3.527700 0.000000 -0.012770 
#    y 0.000000 3.467870 0.000000 
#    z -0.012770 0.000000 3.390420 
# 
# 
# High freq. dielectric constant tensor:
#      x y z
#    x 1.668270 0.000000 0.000090 
#    y 0.000000 1.705780 0.000000 
#    z 0.000090 0.000000 1.667870 
# 
# From -- ./inp_files/33769.got.cif
#   From: 2010.06.25/outbox.cif.g09.slc.cpg/sg11_17_cif.got.tgz:33769.got - 2010.06.27 23:14:04.
