data_PCOD8069511
_publ_section_title
;
Structure prediction by ZEFSAII (Michael W. Deem and Ramdas Pophale) SiO2 
 PCOD8069511
Probable space group: P 21/M
;
_chemical_formula_sum "Si O2"
_cell_formula_units_Z 32
_cell_length_a 19.916160
_cell_length_b 8.852000
_cell_length_c 12.373353
_cell_angle_alpha 90.000000
_cell_angle_beta 130.302323
_cell_angle_gamma 90.000000
_cell_volume 1663.624065
_symmetry_space_group_name_H-M "P 21/M"
_symmetry_group_IT_number 11
_symmetry_cell_setting 'monoclinic'
loop_
_space_group_symop_operation_xyz
x,y,z
-x,1/2+y,-z
-x,-y,-z
x,1/2-y,z
loop_
_atom_site_type_symbol
_atom_site_label
_atom_site_fract_x
_atom_site_fract_y
_atom_site_fract_z
Si Si1 0.053541 0.923548 0.324919
Si Si2 0.126273 0.927872 0.821749
Si Si3 0.443560 0.930563 0.344670
Si Si4 0.909154 0.423418 0.874169
Si Si5 0.755163 0.071956 0.862086
Si Si6 0.372020 0.573380 0.857710
Si Si7 0.522935 0.927131 0.848940
Si Si8 0.175058 0.929611 0.639527
O O1 0.032424 0.750000 0.328556
O O2 0.108038 0.940831 0.271182
O O3 0.112796 0.996915 0.481230
O O4 0.961817 0.008657 0.217138
O O5 0.116252 0.750000 0.805705
O O6 0.141396 0.995947 0.718478
O O7 0.209488 0.973000 0.982382
O O8 0.448749 0.750000 0.354165
O O9 0.343355 0.992064 0.254891
O O10 0.500000 0.000000 0.500000
O O11 0.480529 0.986128 0.268175
O O12 0.918432 0.250000 0.919387
O O13 0.824091 0.495629 0.845770
O O14 0.000000 0.500000 0.000000
O O15 0.750356 0.250000 0.842276
O O16 0.375811 0.750000 0.891105
O O17 0.433137 0.534718 0.819334
O O18 0.274966 0.519226 0.722915
O O19 0.397599 0.484177 0.993009
O O20 0.533465 0.750000 0.837568
O O21 0.170279 0.750000 0.633729
#
# Coordination Sequence:
#
# PCOD8069511 Si02
#       8
#     4   4   4   4   4   4   4   4
#     4  10  20  32  49  76 106 136 171 221 273 315
#     4  10  18  32  54  75 101 138 178 215 258 321
#     4  11  23  40  60  83 114 150 190 236 284 339
#     4  10  19  34  55  77 103 137 180 226 269 319
#     4   9  19  35  57  79 100 140 188 221 267 334
#     4   9  18  35  59  82 107 146 189 228 273 334
#     4  10  20  35  58  86 113 143 183 232 285 337
#     4   9  18  32  51  76 105 140 182 218 260 321
#
# _framework density 19.235113999999999
#
# number of rings (size 3 to 8) (size 9 to 14) (size 15 to 20)
#    0.000    2.250    1.250    1.875    0.000    3.500 
#    0.000    8.750    0.000    1.500    0.000    0.000 
#    0.000    0.000    0.000    0.000    0.000    0.000 
#
# Total GULP energy -396766.431410 kJ/mol
# GULP energy per Si atom -12398.950982 kJ/mol
# Density = 1.919133 g / cm^3
# Si number density = 19.235114 Si / 1000 Ang^3
#
#
#
# Elastic Constant Matrix: (Units=GPa)
#
#
# Indices 1 2 3 4 5 6 
#
# 1 111.2252 30.8375 64.7058 0.0000 -7.2459 0.0000
# 2 30.8375 43.8406 40.7460 0.0000 -2.5111 0.0000
# 3 64.7058 40.7460 142.6154 0.0000 -2.6518 0.0000
# 4 0.0000 0.0000 0.0000 26.1018 0.0000 -1.0705
# 5 -7.2459 -2.5111 -2.6518 0.0000 33.5319 0.0000
# 6 0.0000 0.0000 0.0000 -1.0705 0.0000 25.2529
#
#
#
# Elastic Compliance Matrix: (Units=1/GPa)
#
#
# Indices 1 2 3 4 5 6 
#
# 1 0.013112 -0.004915 -0.004506 0.000000 0.002109 0.000000
# 2 -0.004915 0.032987 -0.007179 0.000000 0.000841 0.000000
# 3 -0.004506 -0.007179 0.011096 0.000000 -0.000634 0.000000
# 4 0.000000 0.000000 0.000000 0.038378 0.000000 0.001627
# 5 0.002109 0.000841 -0.000634 0.000000 0.030291 0.000000
# 6 0.000000 0.000000 0.000000 0.001627 0.000000 0.039668
#
#
# Mechanical properties :
#
#
# Convention : Reuss Voigt Hill
#
# Bulk Modulus (GPa) = 41.67380 63.36222 52.51801
# Shear Modulus (GPa) = 24.18614 27.73679 25.96146
#
# Velocity S-wave (km/s) = 3.54982 3.80147 3.67780
# Velocity P-wave (km/s) = 6.20598 7.23054 6.73776
#
# Compressibility (1/GPa) = 0.02399589
#
# Stress axis : x y z
#
# Youngs Moduli (GPa) = 76.26648 30.31456 90.12657
#
# Poissons Ratio (x) = 0.14898 0.40608
# Poissons Ratio (y) = 0.37481 0.64705
# Poissons Ratio (z) = 0.34363 0.21764
#
# Static dielectric constant tensor:
#      x y z
#    x 3.795240 0.000000 -0.057130 
#    y 0.000000 3.262260 0.000000 
#    z -0.057130 0.000000 3.704080 
# 
# 
# High freq. dielectric constant tensor:
#      x y z
#    x 1.760960 0.000000 -0.004710 
#    y 0.000000 1.716500 0.000000 
#    z -0.004710 0.000000 1.753850 
# 
# From -- ./inp_files/42912.got.cif
#   From: 2010.06.25/outbox.cif.g09.slc.cpg/sg11_22_cif.got.tgz:42912.got - 2010.06.27 23:14:04.
