data_PCOD8069097
_publ_section_title
;
Structure prediction by ZEFSAII (Michael W. Deem and Ramdas Pophale) SiO2 
 PCOD8069097
Probable space group: P 21/M
;
_chemical_formula_sum "Si O2"
_cell_formula_units_Z 28
_cell_length_a 9.238994
_cell_length_b 18.086964
_cell_length_c 15.184286
_cell_angle_alpha 90.000000
_cell_angle_beta 140.003412
_cell_angle_gamma 90.000000
_cell_volume 1630.877750
_symmetry_space_group_name_H-M "P 21/M"
_symmetry_group_IT_number 11
_symmetry_cell_setting 'monoclinic'
loop_
_space_group_symop_operation_xyz
x,y,z
-x,1/2+y,-z
-x,-y,-z
x,1/2-y,z
loop_
_atom_site_type_symbol
_atom_site_label
_atom_site_fract_x
_atom_site_fract_y
_atom_site_fract_z
Si Si1 0.958738 0.831218 0.546595
Si Si2 0.949801 0.025443 0.839230
Si Si3 0.357643 0.512749 0.146045
Si Si4 0.008358 0.538724 0.684759
Si Si5 0.788106 0.600743 0.294104
Si Si6 0.187426 0.332324 0.883600
Si Si7 0.591082 0.121024 0.181581
O O1 0.868649 0.750000 0.533576
O O2 0.887020 0.845092 0.413443
O O3 0.864700 0.897256 0.566673
O O4 0.232404 0.829612 0.680575
O O5 0.017187 0.109660 0.848415
O O6 0.726125 0.027383 0.793686
O O7 0.893424 0.980492 0.723777
O O8 0.149314 0.981433 0.981228
O O9 0.541552 0.573885 0.208095
O O10 0.457210 0.430200 0.188331
O O11 0.032558 0.466043 0.634654
O O12 0.265522 0.568215 0.818889
O O13 0.760081 0.646326 0.191786
O O14 0.081901 0.250000 0.838888
O O15 0.422437 0.329922 0.046008
#
# Coordination Sequence:
#
# PCOD8069097 Si02
#       7
#     4   4   4   4   4   4   4
#     4  10  19  31  49  73 101 128 158 207 255 288
#     4   9  17  32  50  75 100 131 161 207 241 284
#     4   9  17  30  52  75  98 123 167 206 241 283
#     4   8  17  30  50  70  94 124 163 199 238 287
#     4  10  18  31  51  74  95 125 165 206 240 287
#     4  10  18  30  49  74  99 129 163 201 248 295
#     4   8  17  30  51  71  96 122 162 206 238 290
#
# _framework density 17.168668
#
# number of rings (size 3 to 8) (size 9 to 14) (size 15 to 20)
#    0.857    2.000    0.000    2.143    0.000    3.429 
#    0.000    2.143    0.000    8.571    0.000    0.000 
#    0.000    0.000    0.000    0.000    0.000    0.000 
#
# Total GULP energy -346943.772373 kJ/mol
# GULP energy per Si atom -12390.849013 kJ/mol
# Density = 1.712959 g / cm^3
# Si number density = 17.168668 Si / 1000 Ang^3
#
#
#
# Elastic Constant Matrix: (Units=GPa)
#
#
# Indices 1 2 3 4 5 6 
#
# 1 100.7978 39.0502 31.1105 0.0000 -25.5789 0.0000
# 2 39.0502 112.5184 37.4995 0.0000 -16.4743 0.0000
# 3 31.1105 37.4995 73.2417 0.0000 -15.5796 0.0000
# 4 0.0000 0.0000 0.0000 14.6988 0.0000 -0.0699
# 5 -25.5789 -16.4743 -15.5796 0.0000 16.3893 0.0000
# 6 0.0000 0.0000 0.0000 -0.0699 0.0000 11.4722
#
#
#
# Elastic Compliance Matrix: (Units=1/GPa)
#
#
# Indices 1 2 3 4 5 6 
#
# 1 0.017019 -0.002093 -0.001197 0.000000 0.023320 0.000000
# 2 -0.002093 0.011647 -0.004110 0.000000 0.004534 0.000000
# 3 -0.001197 -0.004110 0.018789 0.000000 0.011862 0.000000
# 4 0.000000 0.000000 0.000000 0.068035 0.000000 0.000414
# 5 0.023320 0.004534 0.011862 0.000000 0.113245 0.000000
# 6 0.000000 0.000000 0.000000 0.000414 0.000000 0.087170
#
#
# Mechanical properties :
#
#
# Convention : Reuss Voigt Hill
#
# Bulk Modulus (GPa) = 30.62248 55.76425 43.19337
# Shear Modulus (GPa) = 14.63743 20.43857 17.53800
#
# Velocity S-wave (km/s) = 2.92304 3.45404 3.19958
# Velocity P-wave (km/s) = 5.40992 6.96118 6.23399
#
# Compressibility (1/GPa) = 0.03265575
#
# Stress axis : x y z
#
# Youngs Moduli (GPa) = 58.75790 85.85550 53.22197
#
# Poissons Ratio (x) = 0.17972 0.06370
# Poissons Ratio (y) = 0.12300 0.21873
# Poissons Ratio (z) = 0.07032 0.35285
#
# Static dielectric constant tensor:
#      x y z
#    x 2.968320 0.000000 -0.091350 
#    y 0.000000 3.103200 0.000000 
#    z -0.091350 0.000000 3.039620 
# 
# 
# High freq. dielectric constant tensor:
#      x y z
#    x 1.634690 0.000000 -0.013330 
#    y 0.000000 1.657750 0.000000 
#    z -0.013330 0.000000 1.654900 
# 
# From -- ./inp_files/47865.got.cif
#   From: 2010.06.25/outbox.cif.g09.slc.cpg/sg11_24_cif.got.tgz:47865.got - 2010.06.27 23:14:04.
