data_PCOD8069603
_publ_section_title
;
Structure prediction by ZEFSAII (Michael W. Deem and Ramdas Pophale) SiO2 
 PCOD8069603
Probable space group: P 21/M
;
_chemical_formula_sum "Si O2"
_cell_formula_units_Z 28
_cell_length_a 11.443629
_cell_length_b 19.172080
_cell_length_c 16.847080
_cell_angle_alpha 90.000000
_cell_angle_beta 22.710914
_cell_angle_gamma 90.000000
_cell_volume 1427.042576
_symmetry_space_group_name_H-M "P 21/M"
_symmetry_group_IT_number 11
_symmetry_cell_setting 'monoclinic'
loop_
_space_group_symop_operation_xyz
x,y,z
-x,1/2+y,-z
-x,-y,-z
x,1/2-y,z
loop_
_atom_site_type_symbol
_atom_site_label
_atom_site_fract_x
_atom_site_fract_y
_atom_site_fract_z
Si Si1 0.139749 0.330632 0.458375
Si Si2 0.291507 0.668475 0.131912
Si Si3 0.637390 0.419302 0.481753
Si Si4 0.880385 0.024947 0.178706
Si Si5 0.245563 0.597577 0.893808
Si Si6 0.119162 0.169665 0.751271
Si Si7 0.943416 0.831340 0.674209
O O1 0.238971 0.250000 0.409356
O O2 0.403064 0.382428 0.321718
O O3 0.060223 0.344424 0.417308
O O4 0.843152 0.348258 0.696904
O O5 0.309612 0.750000 0.103103
O O6 0.078312 0.636512 0.196666
O O7 0.632931 0.640259 0.908568
O O8 0.423279 0.479910 0.650262
O O9 0.890406 0.450149 0.263563
O O10 0.440344 0.368033 0.550142
O O11 0.786311 0.377611 0.460605
O O12 0.867659 0.090621 0.126394
O O13 0.177217 0.977111 0.979030
O O14 0.054041 0.658186 0.056857
O O15 0.183267 0.250000 0.696841
O O16 0.001784 0.750000 0.657081
#
# Coordination Sequence:
#
# PCOD8069603 Si02
#       7
#     4   4   4   4   4   4   4
#     4  10  19  34  60  86 112 147 182 230 291 341
#     4   9  18  33  55  84 114 142 179 221 280 348
#     4  10  20  38  58  76 113 151 189 233 281 330
#     4   9  21  37  56  77 109 155 195 231 275 319
#     4  10  18  35  58  80 112 145 191 237 274 326
#     4  10  18  32  59  87 109 142 186 235 286 336
#     4  10  20  37  58  86 118 144 174 231 296 339
#
# _framework density 19.620998
#
# number of rings (size 3 to 8) (size 9 to 14) (size 15 to 20)
#    0.000    2.286    1.429    1.714    0.000    0.000 
#    7.714    3.571    0.000    0.000    0.000    0.000 
#    0.000    0.000    0.000    0.000    0.000    0.000 
#
# Total GULP energy -347119.162335 kJ/mol
# GULP energy per Si atom -12397.112941 kJ/mol
# Density = 1.957634 g / cm^3
# Si number density = 19.620998 Si / 1000 Ang^3
#
#
#
# Elastic Constant Matrix: (Units=GPa)
#
#
# Indices 1 2 3 4 5 6 
#
# 1 85.3639 33.1587 39.0602 0.0000 6.7352 0.0000
# 2 33.1587 47.2148 16.4610 0.0000 -1.3802 0.0000
# 3 39.0602 16.4610 84.2368 0.0000 14.3102 0.0000
# 4 0.0000 0.0000 0.0000 31.6026 0.0000 -4.9992
# 5 6.7352 -1.3802 14.3102 0.0000 36.0317 0.0000
# 6 0.0000 0.0000 0.0000 -4.9992 0.0000 24.9395
#
#
#
# Elastic Compliance Matrix: (Units=1/GPa)
#
#
# Indices 1 2 3 4 5 6 
#
# 1 0.019138 -0.011241 -0.006431 0.000000 -0.001454 0.000000
# 2 -0.011241 0.029602 -0.001203 0.000000 0.003713 0.000000
# 3 -0.006431 -0.001203 0.015969 0.000000 -0.005186 0.000000
# 4 0.000000 0.000000 0.000000 0.032679 0.000000 0.006551
# 5 -0.001454 0.003713 -0.005186 0.000000 0.030227 0.000000
# 6 0.000000 0.000000 0.000000 0.006551 0.000000 0.041410
#
#
# Mechanical properties :
#
#
# Convention : Reuss Voigt Hill
#
# Bulk Modulus (GPa) = 37.09153 43.79725 40.44439
# Shear Modulus (GPa) = 23.17359 27.05714 25.11536
#
# Velocity S-wave (km/s) = 3.44038 3.71750 3.58162
# Velocity P-wave (km/s) = 5.89294 6.38721 6.14505
#
# Compressibility (1/GPa) = 0.02696033
#
# Stress axis : x y z
#
# Youngs Moduli (GPa) = 52.25131 33.78104 62.62028
#
# Poissons Ratio (x) = 0.37974 0.40269
# Poissons Ratio (y) = 0.58737 0.07533
# Poissons Ratio (z) = 0.33601 0.04064
#
# Static dielectric constant tensor:
#      x y z
#    x 3.432980 0.000000 0.153680 
#    y 0.000000 3.429480 0.000000 
#    z 0.153680 0.000000 3.624070 
# 
# 
# High freq. dielectric constant tensor:
#      x y z
#    x 1.755010 0.000000 0.019210 
#    y 0.000000 1.744520 0.000000 
#    z 0.019210 0.000000 1.766730 
# 
# From -- ./inp_files/19124.got.cif
#   From: 2010.06.25/outbox.cif.g09.slc.cpg/sg11_10_cif.got.tgz:19124.got - 2010.06.27 23:14:04.
