data_PCOD8069134
_publ_section_title
;
Structure prediction by ZEFSAII (Michael W. Deem and Ramdas Pophale) SiO2 
 PCOD8069134
Probable space group: P 21/M
;
_chemical_formula_sum "Si O2"
_cell_formula_units_Z 32
_cell_length_a 21.473123
_cell_length_b 8.976267
_cell_length_c 12.279191
_cell_angle_alpha 90.000000
_cell_angle_beta 50.823209
_cell_angle_gamma 90.000000
_cell_volume 1834.740895
_symmetry_space_group_name_H-M "P 21/M"
_symmetry_group_IT_number 11
_symmetry_cell_setting 'monoclinic'
loop_
_space_group_symop_operation_xyz
x,y,z
-x,1/2+y,-z
-x,-y,-z
x,1/2-y,z
loop_
_atom_site_type_symbol
_atom_site_label
_atom_site_fract_x
_atom_site_fract_y
_atom_site_fract_z
Si Si1 0.460872 0.580647 0.254799
Si Si2 0.095456 0.576404 0.996655
Si Si3 0.677112 0.078177 0.434106
Si Si4 0.064078 0.922960 0.781021
Si Si5 0.324591 0.574546 0.236063
Si Si6 0.627757 0.073544 0.054398
Si Si7 0.790316 0.573796 0.478304
Si Si8 0.271565 0.573883 0.856232
O O1 0.490064 0.750000 0.208043
O O2 0.413106 0.559962 0.421152
O O3 0.403514 0.533569 0.218430
O O4 0.536778 0.474657 0.173142
O O5 0.081318 0.750000 0.036328
O O6 0.026138 0.483595 0.132599
O O7 0.096136 0.546047 0.867033
O O8 0.179910 0.516886 0.951016
O O9 0.706243 0.250000 0.415359
O O10 0.679077 0.027071 0.306386
O O11 0.737552 0.975579 0.433920
O O12 0.065011 0.750000 0.750623
O O13 0.120126 0.009649 0.633834
O O14 0.307488 0.750000 0.261882
O O15 0.247405 0.489498 0.368537
O O16 0.338577 0.516809 0.098221
O O17 0.628786 0.250000 0.056291
O O18 0.683878 0.005128 0.087756
O O19 0.793942 0.750000 0.480649
O O20 0.270206 0.750000 0.867314
#
# Coordination Sequence:
#
# PCOD8069134 Si02
#       8
#     4   4   4   4   4   4   4   4
#     4   9  18  31  49  70  98 132 166 209 256 293
#     4   9  17  30  49  73 102 134 163 196 238 290
#     4   9  17  33  51  70 100 137 165 195 251 304
#     4  10  18  30  50  75 104 134 160 195 245 295
#     4   9  19  35  52  71  97 131 168 209 255 295
#     4  10  20  33  52  74  96 130 174 208 242 297
#     4  11  20  30  50  78 102 126 163 210 250 291
#     4   9  17  32  52  72 100 136 167 199 243 296
#
# _framework density 17.441154999999998
#
# number of rings (size 3 to 8) (size 9 to 14) (size 15 to 20)
#    0.000    2.500    1.250    2.625    0.000    3.500 
#    0.000    1.250    0.000    0.750    0.000    0.000 
#    0.000    0.000    0.000    0.000    0.000    0.000 
#
# Total GULP energy -396805.105992 kJ/mol
# GULP energy per Si atom -12400.159562 kJ/mol
# Density = 1.740146 g / cm^3
# Si number density = 17.441155 Si / 1000 Ang^3
#
#
#
# Elastic Constant Matrix: (Units=GPa)
#
#
# Indices 1 2 3 4 5 6 
#
# 1 91.2914 29.5825 83.2464 0.0000 5.2355 0.0000
# 2 29.5825 57.4218 47.2459 0.0000 -8.7826 0.0000
# 3 83.2464 47.2459 145.9977 0.0000 -8.6975 0.0000
# 4 0.0000 0.0000 0.0000 25.6595 0.0000 -9.5216
# 5 5.2355 -8.7826 -8.6975 0.0000 23.7506 0.0000
# 6 0.0000 0.0000 0.0000 -9.5216 0.0000 19.4165
#
#
#
# Elastic Compliance Matrix: (Units=1/GPa)
#
#
# Indices 1 2 3 4 5 6 
#
# 1 0.025860 -0.003352 -0.014388 0.000000 -0.012209 0.000000
# 2 -0.003352 0.025065 -0.005729 0.000000 0.007910 0.000000
# 3 -0.014388 -0.005729 0.017348 0.000000 0.007406 0.000000
# 4 0.000000 0.000000 0.000000 0.047641 0.000000 0.023363
# 5 -0.012209 0.007910 0.007406 0.000000 0.050432 0.000000
# 6 0.000000 0.000000 0.000000 0.023363 0.000000 0.062959
#
#
# Mechanical properties :
#
#
# Convention : Reuss Voigt Hill
#
# Bulk Modulus (GPa) = 46.86783 68.31783 57.59283
# Shear Modulus (GPa) = 17.64563 22.74105 20.19334
#
# Velocity S-wave (km/s) = 3.18421 3.61484 3.40633
# Velocity P-wave (km/s) = 6.35997 7.52849 6.96877
#
# Compressibility (1/GPa) = 0.02133660
#
# Stress axis : x y z
#
# Youngs Moduli (GPa) = 38.66951 39.89587 57.64244
#
# Poissons Ratio (x) = 0.13372 0.82935
# Poissons Ratio (y) = 0.12961 0.33023
# Poissons Ratio (z) = 0.55637 0.22856
#
# Static dielectric constant tensor:
#      x y z
#    x 3.230630 0.000000 0.035940 
#    y 0.000000 3.044470 0.000000 
#    z 0.035940 0.000000 3.443710 
# 
# 
# High freq. dielectric constant tensor:
#      x y z
#    x 1.647810 0.000000 -0.011930 
#    y 0.000000 1.657920 0.000000 
#    z -0.011930 0.000000 1.682490 
# 
# From -- ./inp_files/42845.got.cif
#   From: 2010.06.25/outbox.cif.g09.slc.cpg/sg11_22_cif.got.tgz:42845.got - 2010.06.27 23:14:04.
