data_PCOD8069366
_publ_section_title
;
Structure prediction by ZEFSAII (Michael W. Deem and Ramdas Pophale) SiO2 
 PCOD8069366
Probable space group: P 21/M
;
_chemical_formula_sum "Si O2"
_cell_formula_units_Z 32
_cell_length_a 14.397669
_cell_length_b 8.942272
_cell_length_c 21.040972
_cell_angle_alpha 90.000000
_cell_angle_beta 42.896434
_cell_angle_gamma 90.000000
_cell_volume 1843.935964
_symmetry_space_group_name_H-M "P 21/M"
_symmetry_group_IT_number 11
_symmetry_cell_setting 'monoclinic'
loop_
_space_group_symop_operation_xyz
x,y,z
-x,1/2+y,-z
-x,-y,-z
x,1/2-y,z
loop_
_atom_site_type_symbol
_atom_site_label
_atom_site_fract_x
_atom_site_fract_y
_atom_site_fract_z
Si Si1 0.842333 0.426325 0.709850
Si Si2 0.840040 0.573975 0.845988
Si Si3 0.856285 0.422312 0.311793
Si Si4 0.419075 0.926239 0.982622
Si Si5 0.582723 0.573454 0.639985
Si Si6 0.572510 0.425036 0.403871
Si Si7 0.596525 0.574526 0.772927
Si Si8 0.145534 0.424919 0.555744
O O1 0.827336 0.250000 0.730114
O O2 0.811408 0.515151 0.789732
O O3 0.735671 0.481994 0.711298
O O4 0.993706 0.469441 0.608720
O O5 0.811244 0.750000 0.862021
O O6 0.994456 0.532959 0.790732
O O7 0.734048 0.491156 0.945509
O O8 0.860792 0.250000 0.329404
O O9 0.735972 0.455528 0.321717
O O10 0.820544 0.511648 0.392503
O O11 0.415320 0.750000 0.995788
O O12 0.488717 0.968853 0.881032
O O13 0.500000 0.000000 0.000000
O O14 0.575695 0.750000 0.638012
O O15 0.484464 0.507037 0.634101
O O16 0.536330 0.525551 0.734171
O O17 0.738920 0.517025 0.550870
O O18 0.500000 0.500000 0.500000
O O19 0.541183 0.250000 0.424859
O O20 0.631823 0.750000 0.756742
O O21 0.156510 0.250000 0.558364
#
# Coordination Sequence:
#
# PCOD8069366 Si02
#       8
#     4   4   4   4   4   4   4   4
#     4  10  19  30  47  72 101 131 166 203 243 290
#     4  10  19  32  50  73 101 130 162 204 252 299
#     4   9  18  30  48  76 103 127 161 204 249 293
#     4  11  21  33  52  75  98 128 169 212 254 296
#     4   9  18  33  51  71  99 135 169 201 243 298
#     4  10  18  31  53  77 101 130 166 205 246 292
#     4  10  21  35  50  69  97 134 170 203 247 300
#     4   9  17  30  48  71  99 133 167 199 238 289
#
# _framework density 17.354182999999999
#
# number of rings (size 3 to 8) (size 9 to 14) (size 15 to 20)
#    0.000    2.250    2.500    1.125    0.000    2.000 
#    0.000    1.250    0.000    0.750    0.000    0.000 
#    0.000    0.000    0.000    0.000    0.000    0.500 
#
# Total GULP energy -396643.279794 kJ/mol
# GULP energy per Si atom -12395.102494 kJ/mol
# Density = 1.731468 g / cm^3
# Si number density = 17.354183 Si / 1000 Ang^3
#
#
#
# Elastic Constant Matrix: (Units=GPa)
#
#
# Indices 1 2 3 4 5 6 
#
# 1 126.0812 26.3852 75.7208 0.0000 -0.0338 0.0000
# 2 26.3852 37.0720 31.7549 0.0000 -0.9271 0.0000
# 3 75.7208 31.7549 125.1814 0.0000 0.9166 0.0000
# 4 0.0000 0.0000 0.0000 21.1585 0.0000 -2.3018
# 5 -0.0338 -0.9271 0.9166 0.0000 24.9500 0.0000
# 6 0.0000 0.0000 0.0000 -2.3018 0.0000 18.9017
#
#
#
# Elastic Compliance Matrix: (Units=1/GPa)
#
#
# Indices 1 2 3 4 5 6 
#
# 1 0.012739 -0.003145 -0.006909 0.000000 0.000154 0.000000
# 2 -0.003145 0.035303 -0.007065 0.000000 0.001567 0.000000
# 3 -0.006909 -0.007065 0.013965 0.000000 -0.000785 0.000000
# 4 0.000000 0.000000 0.000000 0.047897 0.000000 0.005833
# 5 0.000154 0.001567 -0.000785 0.000000 0.040167 0.000000
# 6 0.000000 0.000000 0.000000 0.005833 0.000000 0.053615
#
#
# Mechanical properties :
#
#
# Convention : Reuss Voigt Hill
#
# Bulk Modulus (GPa) = 36.00905 61.78403 48.89654
# Shear Modulus (GPa) = 20.22809 23.30031 21.76420
#
# Velocity S-wave (km/s) = 3.41780 3.66817 3.54520
# Velocity P-wave (km/s) = 6.03073 7.32255 6.70781
#
# Compressibility (1/GPa) = 0.02777080
#
# Stress axis : x y z
#
# Youngs Moduli (GPa) = 78.49980 28.32598 71.60523
#
# Poissons Ratio (x) = 0.08908 0.49472
# Poissons Ratio (y) = 0.24686 0.50587
# Poissons Ratio (z) = 0.54236 0.20012
#
# Static dielectric constant tensor:
#      x y z
#    x 3.401380 0.000000 -0.227550 
#    y 0.000000 3.173590 0.000000 
#    z -0.227550 0.000000 3.510070 
# 
# 
# High freq. dielectric constant tensor:
#      x y z
#    x 1.658820 0.000000 -0.019100 
#    y 0.000000 1.662660 0.000000 
#    z -0.019100 0.000000 1.662860 
# 
# From -- ./inp_files/38072.got.cif
#   From: 2010.06.25/outbox.cif.g09.slc.cpg/sg11_20_cif.got.tgz:38072.got - 2010.06.27 23:14:04.
