data_PCOD8069225
_publ_section_title
;
Structure prediction by ZEFSAII (Michael W. Deem and Ramdas Pophale) SiO2 
 PCOD8069225
Probable space group: P 21/M
;
_chemical_formula_sum "Si O2"
_cell_formula_units_Z 32
_cell_length_a 17.842994
_cell_length_b 9.132594
_cell_length_c 23.870377
_cell_angle_alpha 90.000000
_cell_angle_beta 30.920649
_cell_angle_gamma 90.000000
_cell_volume 1998.747381
_symmetry_space_group_name_H-M "P 21/M"
_symmetry_group_IT_number 11
_symmetry_cell_setting 'monoclinic'
loop_
_space_group_symop_operation_xyz
x,y,z
-x,1/2+y,-z
-x,-y,-z
x,1/2-y,z
loop_
_atom_site_type_symbol
_atom_site_label
_atom_site_fract_x
_atom_site_fract_y
_atom_site_fract_z
Si Si1 0.948194 0.575613 0.976608
Si Si2 0.896363 0.080244 0.608759
Si Si3 0.123505 0.078900 0.546200
Si Si4 0.333913 0.922155 0.324834
Si Si5 0.836006 0.580301 0.241563
Si Si6 0.542882 0.578450 0.365550
Si Si7 0.377656 0.422866 0.807782
Si Si8 0.249857 0.420276 0.580778
O O1 0.961373 0.750000 0.974651
O O2 0.042071 0.521394 0.864159
O O3 0.782101 0.522814 0.071670
O O4 0.000000 0.500000 0.000000
O O5 0.918141 0.250000 0.583547
O O6 0.729628 0.038057 0.697155
O O7 0.955196 0.042118 0.633849
O O8 0.000000 0.000000 0.500000
O O9 0.155490 0.250000 0.518368
O O10 0.144092 0.031178 0.597411
O O11 0.239786 0.995424 0.433829
O O12 0.325206 0.750000 0.341646
O O13 0.502300 0.974017 0.222910
O O14 0.873076 0.750000 0.205670
O O15 0.678535 0.540011 0.318029
O O16 0.836635 0.543485 0.306996
O O17 0.512353 0.750000 0.382817
O O18 0.576630 0.513581 0.282218
O O19 0.401601 0.504356 0.482261
O O20 0.371973 0.250000 0.805753
O O21 0.288841 0.250000 0.552846
#
# Coordination Sequence:
#
# PCOD8069225 Si02
#       8
#     4   4   4   4   4   4   4   4
#     4  11  21  35  52  68  88 115 150 191 231 267
#     4   8  14  23  38  59  85 114 143 171 206 258
#     4   9  16  26  39  62  92 117 141 175 215 255
#     4   9  15  26  43  62  85 116 146 173 213 263
#     4  10  21  36  48  63  89 121 155 190 224 258
#     4  10  18  31  48  64  90 120 149 185 220 260
#     4   9  17  29  46  67  89 114 144 184 224 257
#     4  10  20  31  45  66  94 122 150 184 221 264
#
# _framework density 16.010027000000001
#
# number of rings (size 3 to 8) (size 9 to 14) (size 15 to 20)
#    0.000    2.500    2.500    0.750    0.000    1.000 
#    0.000    1.250    0.000    0.000    0.000    0.875 
#    0.000    0.000    0.000    0.000    0.000    0.000 
#
# Total GULP energy -396452.196561 kJ/mol
# GULP energy per Si atom -12389.131143 kJ/mol
# Density = 1.597359 g / cm^3
# Si number density = 16.010027 Si / 1000 Ang^3
#
#
#
# Elastic Constant Matrix: (Units=GPa)
#
#
# Indices 1 2 3 4 5 6 
#
# 1 150.7809 31.4653 70.1619 0.0000 -22.9096 0.0000
# 2 31.4653 31.9017 32.3062 0.0000 -4.3973 0.0000
# 3 70.1619 32.3062 92.5275 0.0000 -8.1495 0.0000
# 4 0.0000 0.0000 0.0000 22.3587 0.0000 1.2096
# 5 -22.9096 -4.3973 -8.1495 0.0000 22.6106 0.0000
# 6 0.0000 0.0000 0.0000 1.2096 0.0000 14.7917
#
#
#
# Elastic Compliance Matrix: (Units=1/GPa)
#
#
# Indices 1 2 3 4 5 6 
#
# 1 0.012024 -0.003390 -0.007146 0.000000 0.008949 0.000000
# 2 -0.003390 0.049708 -0.014703 0.000000 0.000933 0.000000
# 3 -0.007146 -0.014703 0.021142 0.000000 -0.002480 0.000000
# 4 0.000000 0.000000 0.000000 0.044924 0.000000 -0.003674
# 5 0.008949 0.000933 -0.002480 0.000000 0.052581 0.000000
# 6 0.000000 0.000000 0.000000 -0.003674 0.000000 0.067906
#
#
# Mechanical properties :
#
#
# Convention : Reuss Voigt Hill
#
# Bulk Modulus (GPa) = 30.86813 60.34189 45.60501
# Shear Modulus (GPa) = 16.15185 21.37064 18.76124
#
# Velocity S-wave (km/s) = 3.17970 3.65749 3.42693
# Velocity P-wave (km/s) = 5.72739 7.45709 6.64873
#
# Compressibility (1/GPa) = 0.03239587
#
# Stress axis : x y z
#
# Youngs Moduli (GPa) = 83.16382 20.11757 47.30002
#
# Poissons Ratio (x) = 0.06819 0.33802
# Poissons Ratio (y) = 0.28190 0.69546
# Poissons Ratio (z) = 0.59431 0.29579
#
# Static dielectric constant tensor:
#      x y z
#    x 3.721320 0.000000 -0.275930 
#    y 0.000000 2.859080 0.000000 
#    z -0.275930 0.000000 2.893720 
# 
# 
# High freq. dielectric constant tensor:
#      x y z
#    x 1.630340 0.000000 -0.017970 
#    y 0.000000 1.606480 0.000000 
#    z -0.017970 0.000000 1.577500 
# 
# From -- ./inp_files/42456.got.cif
#   From: 2010.06.25/outbox.cif.g09.slc.cpg/sg11_22_cif.got.tgz:42456.got - 2010.06.27 23:14:04.
