data_PCOD8069302
_publ_section_title
;
Structure prediction by ZEFSAII (Michael W. Deem and Ramdas Pophale) SiO2 
 PCOD8069302
Probable space group: P 21/M
;
_chemical_formula_sum "Si O2"
_cell_formula_units_Z 28
_cell_length_a 20.132526
_cell_length_b 8.851383
_cell_length_c 17.803628
_cell_angle_alpha 90.000000
_cell_angle_beta 147.236274
_cell_angle_gamma 90.000000
_cell_volume 1716.945034
_symmetry_space_group_name_H-M "P 21/M"
_symmetry_group_IT_number 11
_symmetry_cell_setting 'monoclinic'
loop_
_space_group_symop_operation_xyz
x,y,z
-x,1/2+y,-z
-x,-y,-z
x,1/2-y,z
loop_
_atom_site_type_symbol
_atom_site_label
_atom_site_fract_x
_atom_site_fract_y
_atom_site_fract_z
Si Si1 0.128578 0.569493 0.595440
Si Si2 0.973952 0.918575 0.856725
Si Si3 0.757171 0.071070 0.575024
Si Si4 0.375764 0.422375 0.853117
Si Si5 0.625528 0.073823 0.599668
Si Si6 0.830351 0.917742 0.875437
Si Si7 0.740328 0.922033 0.406048
O O1 0.123593 0.750000 0.595934
O O2 0.248069 0.507595 0.756972
O O3 0.147500 0.513568 0.527085
O O4 0.000000 0.500000 0.500000
O O5 0.003256 0.750000 0.855418
O O6 0.911986 0.910580 0.878842
O O7 0.892043 0.003024 0.716970
O O8 0.097901 0.014644 0.984874
O O9 0.766959 0.250000 0.579607
O O10 0.670322 0.017540 0.560598
O O11 0.701347 0.004168 0.445600
O O12 0.371685 0.250000 0.879297
O O13 0.376429 0.424394 0.762134
O O14 0.500000 0.500000 0.000000
O O15 0.609922 0.250000 0.584890
O O16 0.500000 0.000000 0.500000
O O17 0.717269 0.027466 0.752895
O O18 0.784451 0.750000 0.852931
O O19 0.781752 0.750000 0.461726
#
# Coordination Sequence:
#
# PCOD8069302 Si02
#       7
#     4   4   4   4   4   4   4
#     4  10  18  31  51  76 106 136 168 209 254 300
#     4   9  16  26  43  65  90 118 149 191 240 286
#     4  10  19  31  48  71  97 127 164 206 251 298
#     4   9  18  31  50  77 105 137 176 214 256 306
#     4  10  20  32  47  68  93 125 166 207 251 299
#     4   9  16  27  43  64  88 115 151 194 239 286
#     4   9  19  32  49  74 102 131 167 205 250 304
#
# _framework density 16.308033999999999
#
# number of rings (size 3 to 8) (size 9 to 14) (size 15 to 20)
#    0.857    1.714    0.000    3.429    0.000    5.143 
#    0.000    0.000    0.000    1.714    0.000    8.000 
#    0.000    0.000    0.000    0.000    0.000    0.000 
#
# Total GULP energy -346922.623885 kJ/mol
# GULP energy per Si atom -12390.093710 kJ/mol
# Density = 1.627092 g / cm^3
# Si number density = 16.308034 Si / 1000 Ang^3
#
#
#
# Elastic Constant Matrix: (Units=GPa)
#
#
# Indices 1 2 3 4 5 6 
#
# 1 54.6818 39.8920 46.5971 0.0000 1.3291 0.0000
# 2 39.8920 116.0211 45.1835 0.0000 2.3019 0.0000
# 3 46.5971 45.1835 104.6557 0.0000 5.1541 0.0000
# 4 0.0000 0.0000 0.0000 35.3281 0.0000 -0.1747
# 5 1.3291 2.3019 5.1541 0.0000 21.7711 0.0000
# 6 0.0000 0.0000 0.0000 -0.1747 0.0000 23.8658
#
#
#
# Elastic Compliance Matrix: (Units=1/GPa)
#
#
# Indices 1 2 3 4 5 6 
#
# 1 0.033514 -0.006868 -0.012032 0.000000 0.001529 0.000000
# 2 -0.006868 0.011769 -0.002006 0.000000 -0.000350 0.000000
# 3 -0.012032 -0.002006 0.015917 0.000000 -0.002822 0.000000
# 4 0.000000 0.000000 0.000000 0.028307 0.000000 0.000207
# 5 0.001529 -0.000350 -0.002822 0.000000 0.046544 0.000000
# 6 0.000000 0.000000 0.000000 0.000207 0.000000 0.041903
#
#
# Mechanical properties :
#
#
# Convention : Reuss Voigt Hill
#
# Bulk Modulus (GPa) = 51.57715 59.85599 55.71657
# Shear Modulus (GPa) = 22.10166 25.77205 23.93686
#
# Velocity S-wave (km/s) = 3.68538 3.97965 3.83534
# Velocity P-wave (km/s) = 7.05726 7.60919 7.33842
#
# Compressibility (1/GPa) = 0.01938843
#
# Stress axis : x y z
#
# Youngs Moduli (GPa) = 29.83855 84.97185 62.82504
#
# Poissons Ratio (x) = 0.58357 0.75591
# Poissons Ratio (y) = 0.20492 0.12602
# Poissons Ratio (z) = 0.35902 0.17044
#
# Static dielectric constant tensor:
#      x y z
#    x 2.739120 0.000000 -0.032240 
#    y 0.000000 3.265230 0.000000 
#    z -0.032240 0.000000 3.170170 
# 
# 
# High freq. dielectric constant tensor:
#      x y z
#    x 1.576490 0.000000 -0.006700 
#    y 0.000000 1.651850 0.000000 
#    z -0.006700 0.000000 1.621710 
# 
# From -- ./inp_files/66356.got.cif
#   From: 2010.06.25/outbox.cif.g09.slc.cpg/sg11_34_cif.got.tgz:66356.got - 2010.06.27 23:14:04.
