data_PCOD8069816
_publ_section_title
;
Structure prediction by ZEFSAII (Michael W. Deem and Ramdas Pophale) SiO2 
 PCOD8069816
Probable space group: P 21/M
;
_chemical_formula_sum "Si O2"
_cell_formula_units_Z 28
_cell_length_a 9.029290
_cell_length_b 14.096278
_cell_length_c 12.475589
_cell_angle_alpha 90.000000
_cell_angle_beta 121.643582
_cell_angle_gamma 90.000000
_cell_volume 1351.811368
_symmetry_space_group_name_H-M "P 21/M"
_symmetry_group_IT_number 11
_symmetry_cell_setting 'monoclinic'
loop_
_space_group_symop_operation_xyz
x,y,z
-x,1/2+y,-z
-x,-y,-z
x,1/2-y,z
loop_
_atom_site_type_symbol
_atom_site_label
_atom_site_fract_x
_atom_site_fract_y
_atom_site_fract_z
Si Si1 0.267536 0.541415 0.804933
Si Si2 0.874833 0.478572 0.636643
Si Si3 0.176805 0.859455 0.176722
Si Si4 0.381200 0.956398 0.073968
Si Si5 0.196676 0.142751 0.061116
Si Si6 0.302955 0.640270 0.600388
Si Si7 0.315018 0.356954 0.337974
O O1 0.408881 0.456163 0.848642
O O2 0.297241 0.620262 0.724992
O O3 0.078678 0.495607 0.723716
O O4 0.296941 0.588423 0.933834
O O5 0.805085 0.411951 0.704437
O O6 0.839338 0.426119 0.510971
O O7 0.763467 0.576007 0.599418
O O8 0.207229 0.750000 0.211583
O O9 0.326612 0.896353 0.155551
O O10 0.994461 0.881521 0.052171
O O11 0.327046 0.067540 0.059058
O O12 0.255231 0.250000 0.051652
O O13 0.191003 0.132362 0.187347
O O14 0.257483 0.750000 0.564521
O O15 0.490854 0.614132 0.623224
O O16 0.311211 0.250000 0.381568
#
# Coordination Sequence:
#
# PCOD8069816 Si02
#       7
#     4   4   4   4   4   4   4
#     4  11  24  38  63  87 126 165 203 245 307 369
#     4  12  22  40  63  89 125 161 204 255 303 358
#     4  11  22  37  61  91 121 156 201 254 309 364
#     4  11  21  40  62  93 124 161 196 254 314 370
#     4  10  18  34  62  91 118 150 194 250 308 363
#     4  11  24  42  61  86 122 168 211 246 298 366
#     4  10  21  38  65  92 115 153 207 261 307 356
#
# _framework density 20.712949999999999
#
# number of rings (size 3 to 8) (size 9 to 14) (size 15 to 20)
#    0.000    1.143    4.286    2.571    0.000    1.143 
#    0.000    3.571    0.000    0.857    0.000    0.000 
#    0.000    0.000    0.000    0.000    0.000    0.000 
#
# Total GULP energy -347266.324969 kJ/mol
# GULP energy per Si atom -12402.368749 kJ/mol
# Density = 2.066581 g / cm^3
# Si number density = 20.712950 Si / 1000 Ang^3
#
#
#
# Elastic Constant Matrix: (Units=GPa)
#
#
# Indices 1 2 3 4 5 6 
#
# 1 101.1700 46.4201 25.8081 0.0000 2.1492 0.0000
# 2 46.4201 98.9574 33.2409 0.0000 -1.0515 0.0000
# 3 25.8081 33.2409 75.0199 0.0000 -5.3719 0.0000
# 4 0.0000 0.0000 0.0000 23.2942 0.0000 0.1051
# 5 2.1492 -1.0515 -5.3719 0.0000 25.3094 0.0000
# 6 0.0000 0.0000 0.0000 0.1051 0.0000 19.1724
#
#
#
# Elastic Compliance Matrix: (Units=1/GPa)
#
#
# Indices 1 2 3 4 5 6 
#
# 1 0.012939 -0.005346 -0.002211 0.000000 -0.001790 0.000000
# 2 -0.005346 0.014091 -0.004397 0.000000 0.000106 0.000000
# 3 -0.002211 -0.004397 0.016286 0.000000 0.003462 0.000000
# 4 0.000000 0.000000 0.000000 0.042930 0.000000 -0.000235
# 5 -0.001790 0.000106 0.003462 0.000000 0.040402 0.000000
# 6 0.000000 0.000000 0.000000 -0.000235 0.000000 0.052159
#
#
# Mechanical properties :
#
#
# Convention : Reuss Voigt Hill
#
# Bulk Modulus (GPa) = 51.52132 54.00948 52.76540
# Shear Modulus (GPa) = 23.90210 24.86707 24.38458
#
# Velocity S-wave (km/s) = 3.40070 3.46866 3.43485
# Velocity P-wave (km/s) = 6.35198 6.49415 6.42346
#
# Compressibility (1/GPa) = 0.01940944
#
# Stress axis : x y z
#
# Youngs Moduli (GPa) = 77.28386 70.96560 61.40061
#
# Poissons Ratio (x) = 0.37939 0.13574
# Poissons Ratio (y) = 0.41317 0.26998
# Poissons Ratio (z) = 0.17085 0.31204
#
# Static dielectric constant tensor:
#      x y z
#    x 3.706200 0.000000 -0.005860 
#    y 0.000000 3.710650 0.000000 
#    z -0.005860 0.000000 3.824280 
# 
# 
# High freq. dielectric constant tensor:
#      x y z
#    x 1.808550 0.000000 0.004530 
#    y 0.000000 1.800390 0.000000 
#    z 0.004530 0.000000 1.814130 
# 
# From -- ./inp_files/31964.got.cif
#   From: 2010.06.25/outbox.cif.g09.slc.cpg/sg11_16_cif.got.tgz:31964.got - 2010.06.27 23:14:04.
