data_PCOD8069707
_publ_section_title
;
Structure prediction by ZEFSAII (Michael W. Deem and Ramdas Pophale) SiO2 
 PCOD8069707
Probable space group: P 21/M
;
_chemical_formula_sum "Si O2"
_cell_formula_units_Z 32
_cell_length_a 16.638775
_cell_length_b 17.560520
_cell_length_c 12.584951
_cell_angle_alpha 90.000000
_cell_angle_beta 153.612107
_cell_angle_gamma 90.000000
_cell_volume 1634.290113
_symmetry_space_group_name_H-M "P 21/M"
_symmetry_group_IT_number 11
_symmetry_cell_setting 'monoclinic'
loop_
_space_group_symop_operation_xyz
x,y,z
-x,1/2+y,-z
-x,-y,-z
x,1/2-y,z
loop_
_atom_site_type_symbol
_atom_site_label
_atom_site_fract_x
_atom_site_fract_y
_atom_site_fract_z
Si Si1 0.303523 0.413438 0.827257
Si Si2 0.958824 0.339658 0.033204
Si Si3 0.327239 0.912014 0.809018
Si Si4 0.176316 0.160109 0.080090
Si Si5 0.440218 0.840185 0.387199
Si Si6 0.656602 0.163524 0.953049
Si Si7 0.949987 0.923776 0.277282
Si Si8 0.025711 0.398567 0.330822
O O1 0.309528 0.498531 0.792185
O O2 0.210392 0.404434 0.830792
O O3 0.192239 0.371435 0.601739
O O4 0.511663 0.384139 0.079620
O O5 0.974532 0.250000 0.074430
O O6 0.054028 0.361405 0.036204
O O7 0.064935 0.385272 0.252240
O O8 0.747264 0.366218 0.778471
O O9 0.133114 0.882718 0.537445
O O10 0.387398 0.885264 0.996295
O O11 0.170411 0.250000 0.049431
O O12 0.382394 0.130479 0.340992
O O13 0.095358 0.113911 0.887379
O O14 0.445081 0.750000 0.388518
O O15 0.450321 0.869275 0.276676
O O16 0.602863 0.250000 0.913700
O O17 0.867238 0.158817 0.174712
O O18 0.968303 0.014342 0.287041
#
# Coordination Sequence:
#
# PCOD8069707 Si02
#       8
#     4   4   4   4   4   4   4   4
#     4  10  20  36  58  81 111 152 182 221 278 338
#     4   9  19  36  56  80 108 141 183 233 281 321
#     4  10  20  36  57  82 110 148 184 223 281 327
#     4  10  22  38  56  76 109 153 186 222 278 335
#     4   8  17  34  54  77 105 139 177 225 281 324
#     4  10  18  33  58  84 113 139 177 238 282 319
#     4  11  21  38  55  80 117 150 184 224 272 340
#     4  10  18  36  59  82 112 144 184 231 281 327
#
# _framework density 19.580366999999999
#
# number of rings (size 3 to 8) (size 9 to 14) (size 15 to 20)
#    0.000    2.250    2.500    1.875    1.750    2.000 
#    0.000    3.750    0.000    0.000    0.000    0.000 
#    0.000    0.000    0.000    0.000    0.000    0.000 
#
# Total GULP energy -396581.830376 kJ/mol
# GULP energy per Si atom -12393.182199 kJ/mol
# Density = 1.953580 g / cm^3
# Si number density = 19.580367 Si / 1000 Ang^3
#
#
#
# Elastic Constant Matrix: (Units=GPa)
#
#
# Indices 1 2 3 4 5 6 
#
# 1 127.6377 -0.5548 49.9721 0.0000 4.4311 0.0000
# 2 -0.5548 -0.9049 1.5273 0.0000 -2.6734 0.0000
# 3 49.9721 1.5273 84.8094 0.0000 3.3925 0.0000
# 4 0.0000 0.0000 0.0000 20.6846 0.0000 3.7035
# 5 4.4311 -2.6734 3.3925 0.0000 29.9694 0.0000
# 6 0.0000 0.0000 0.0000 3.7035 0.0000 52.7712
#
#
#
# Elastic Compliance Matrix: (Units=1/GPa)
#
#
# Indices 1 2 3 4 5 6 
#
# 1 0.010073 -0.010488 -0.005675 0.000000 -0.001782 0.000000
# 2 -0.010488 -0.834348 0.024230 0.000000 -0.075619 0.000000
# 3 -0.005675 0.024230 0.014645 0.000000 0.001343 0.000000
# 4 0.000000 0.000000 0.000000 0.048960 0.000000 -0.003436
# 5 -0.001782 -0.075619 0.001343 0.000000 0.026733 0.000000
# 6 0.000000 0.000000 0.000000 -0.003436 0.000000 0.019191
#
#
# Mechanical properties :
#
#
# Convention : Reuss Voigt Hill
#
# Bulk Modulus (GPa) = -1.26024 34.82570 16.78273
# Shear Modulus (GPa) = -5.02321 31.39154 13.18417
#
# Velocity S-wave (km/s) = -1.60343 4.00836 2.59769
# Velocity P-wave (km/s) = 2.01817 6.26476 4.19370
#
# Compressibility (1/GPa) = -0.79349677
#
# Stress axis : x y z
#
# Youngs Moduli (GPa) = 99.27698 -1.19854 68.28280
#
# Poissons Ratio (x) = -0.01257 0.38751
# Poissons Ratio (y) = 1.04120 -1.65448
# Poissons Ratio (z) = 0.56340 0.02904
#
# Static dielectric constant tensor:
#      x y z
#    x 3.651470 0.000000 0.203870 
#    y 0.000000 3.246590 0.000000 
#    z 0.203870 0.000000 4.158470 
# 
# 
# High freq. dielectric constant tensor:
#      x y z
#    x 1.765560 0.000000 0.004150 
#    y 0.000000 1.725730 0.000000 
#    z 0.004150 0.000000 1.770950 
# 
# From -- ./inp_files/40016.got.cif
#   From: 2010.06.25/outbox.cif.g09.slc.cpg/sg11_21_cif.got.tgz:40016.got - 2010.06.27 23:14:04.
