data_PCOD8069027
_publ_section_title
;
Structure prediction by ZEFSAII (Michael W. Deem and Ramdas Pophale) SiO2 
 PCOD8069027
Probable space group: P 21/M
;
_chemical_formula_sum "Si O2"
_cell_formula_units_Z 28
_cell_length_a 16.783759
_cell_length_b 9.328613
_cell_length_c 14.743871
_cell_angle_alpha 90.000000
_cell_angle_beta 133.214943
_cell_angle_gamma 90.000000
_cell_volume 1682.365215
_symmetry_space_group_name_H-M "P 21/M"
_symmetry_group_IT_number 11
_symmetry_cell_setting 'monoclinic'
loop_
_space_group_symop_operation_xyz
x,y,z
-x,1/2+y,-z
-x,-y,-z
x,1/2-y,z
loop_
_atom_site_type_symbol
_atom_site_label
_atom_site_fract_x
_atom_site_fract_y
_atom_site_fract_z
Si Si1 0.403850 0.580633 0.101854
Si Si2 0.754399 0.416993 0.174505
Si Si3 0.791288 0.586143 0.535742
Si Si4 0.650587 0.084192 0.552217
Si Si5 0.560941 0.084307 0.671790
Si Si6 0.003047 0.916662 0.596005
Si Si7 0.355663 0.085426 0.751717
O O1 0.404779 0.750000 0.097322
O O2 0.383474 0.534212 0.190384
O O3 0.521032 0.524264 0.157346
O O4 0.307630 0.519839 0.962481
O O5 0.728951 0.250000 0.167151
O O6 0.883348 0.444715 0.263223
O O7 0.713353 0.494019 0.232131
O O8 0.802860 0.750000 0.576677
O O9 0.759302 0.490971 0.597951
O O10 0.696661 0.568799 0.387775
O O11 0.906201 0.528820 0.585776
O O12 0.651294 0.250000 0.524974
O O13 0.649145 0.064536 0.660175
O O14 0.543883 0.012717 0.426459
O O15 0.521376 0.250000 0.646590
O O16 0.985368 0.750000 0.558873
O O17 0.000000 0.000000 0.500000
O O18 0.352926 0.250000 0.781539
#
# Coordination Sequence:
#
# PCOD8069027 Si02
#       7
#     4   4   4   4   4   4   4
#     4   9  17  31  49  68  94 128 156 184 230 288
#     4  10  20  32  48  70  94 121 161 201 227 266
#     4  10  19  32  49  67  96 131 157 186 237 290
#     4  10  19  29  48  76  97 119 157 200 235 271
#     4   9  17  32  50  69  98 129 153 185 238 293
#     4  10  20  33  49  69  92 124 161 198 235 271
#     4  10  18  30  48  68  95 131 157 179 232 291
#
# _framework density 16.643235000000001
#
# number of rings (size 3 to 8) (size 9 to 14) (size 15 to 20)
#    0.000    2.286    2.857    0.857    0.000    1.714 
#    0.000    0.714    0.000    0.857    0.000    0.000 
#    0.000    0.000    0.000    0.000    0.000    0.429 
#
# Total GULP energy -347160.610084 kJ/mol
# GULP energy per Si atom -12398.593217 kJ/mol
# Density = 1.660535 g / cm^3
# Si number density = 16.643235 Si / 1000 Ang^3
#
#
#
# Elastic Constant Matrix: (Units=GPa)
#
#
# Indices 1 2 3 4 5 6 
#
# 1 129.8179 49.1329 35.8768 0.0000 4.9218 0.0000
# 2 49.1329 55.1181 20.5041 0.0000 -1.4849 0.0000
# 3 35.8768 20.5041 56.4401 0.0000 11.7015 0.0000
# 4 0.0000 0.0000 0.0000 13.1199 0.0000 -0.4797
# 5 4.9218 -1.4849 11.7015 0.0000 25.7148 0.0000
# 6 0.0000 0.0000 0.0000 -0.4797 0.0000 29.9177
#
#
#
# Elastic Compliance Matrix: (Units=1/GPa)
#
#
# Indices 1 2 3 4 5 6 
#
# 1 0.012574 -0.009645 -0.004278 0.000000 -0.001017 0.000000
# 2 -0.009645 0.029016 -0.005676 0.000000 0.006105 0.000000
# 3 -0.004278 -0.005676 0.024731 0.000000 -0.010763 0.000000
# 4 0.000000 0.000000 0.000000 0.076265 0.000000 0.001223
# 5 -0.001017 0.006105 -0.010763 0.000000 0.044333 0.000000
# 6 0.000000 0.000000 0.000000 0.001223 0.000000 0.033445
#
#
# Mechanical properties :
#
#
# Convention : Reuss Voigt Hill
#
# Bulk Modulus (GPa) = 36.86895 50.26708 43.56802
# Shear Modulus (GPa) = 18.61480 22.80796 20.71138
#
# Velocity S-wave (km/s) = 3.34797 3.70591 3.53148
# Velocity P-wave (km/s) = 6.09473 6.96994 6.54698
#
# Compressibility (1/GPa) = 0.02712309
#
# Stress axis : x y z
#
# Youngs Moduli (GPa) = 79.52702 34.46335 40.43512
#
# Poissons Ratio (x) = 0.33239 0.17300
# Poissons Ratio (y) = 0.76702 0.22952
# Poissons Ratio (z) = 0.34025 0.19562
#
# Static dielectric constant tensor:
#      x y z
#    x 3.260730 0.000000 -0.012550 
#    y 0.000000 3.066790 0.000000 
#    z -0.012550 0.000000 3.304820 
# 
# 
# High freq. dielectric constant tensor:
#      x y z
#    x 1.644500 0.000000 -0.003410 
#    y 0.000000 1.628210 0.000000 
#    z -0.003410 0.000000 1.622600 
# 
# From -- ./inp_files/37670.got.cif
#   From: 2010.06.25/outbox.cif.g09.slc.cpg/sg11_19_cif.got.tgz:37670.got - 2010.06.27 23:14:04.
