data_PCOD8069498
_publ_section_title
;
Structure prediction by ZEFSAII (Michael W. Deem and Ramdas Pophale) SiO2 
 PCOD8069498
Probable space group: P 21/M
;
_chemical_formula_sum "Si O2"
_cell_formula_units_Z 24
_cell_length_a 9.194900
_cell_length_b 8.571071
_cell_length_c 25.107801
_cell_angle_alpha 90.000000
_cell_angle_beta 40.459585
_cell_angle_gamma 90.000000
_cell_volume 1284.033227
_symmetry_space_group_name_H-M "P 21/M"
_symmetry_group_IT_number 11
_symmetry_cell_setting 'monoclinic'
loop_
_space_group_symop_operation_xyz
x,y,z
-x,1/2+y,-z
-x,-y,-z
x,1/2-y,z
loop_
_atom_site_type_symbol
_atom_site_label
_atom_site_fract_x
_atom_site_fract_y
_atom_site_fract_z
Si Si1 0.532877 0.566436 0.826513
Si Si2 0.631248 0.431318 0.012487
Si Si3 0.147251 0.934185 0.506203
Si Si4 0.903574 0.933070 0.080759
Si Si5 0.993527 0.433009 0.660486
Si Si6 0.580704 0.435126 0.421364
O O1 0.580689 0.750000 0.810152
O O2 0.329740 0.522347 0.842220
O O3 0.747602 0.469942 0.749406
O O4 0.465429 0.506125 0.904317
O O5 0.587757 0.250000 0.024708
O O6 0.898598 0.466967 0.931287
O O7 0.500000 0.500000 0.000000
O O8 0.161615 0.750000 0.498182
O O9 0.399230 0.004184 0.429050
O O10 0.000000 0.000000 0.500000
O O11 0.034974 0.981207 0.593150
O O12 0.855986 0.750000 0.088981
O O13 0.000000 0.000000 0.000000
O O14 0.025549 0.250000 0.642825
O O15 0.169715 0.494918 0.656335
O O16 0.500000 0.500000 0.500000
O O17 0.590847 0.250000 0.417882
#
# Coordination Sequence:
#
# PCOD8069498 Si02
#       6
#     4   4   4   4   4   4
#     4  10  20  35  53  77 104 135 173 216 260 309
#     4   9  19  33  52  76 104 133 169 210 254 305
#     4  11  21  36  56  80 108 139 174 216 261 311
#     4   9  17  31  50  74 100 133 172 211 253 308
#     4  11  21  35  55  80 106 138 176 217 262 312
#     4  10  18  32  53  77 104 138 176 214 255 309
#
# _framework density 18.691106000000001
#
# number of rings (size 3 to 8) (size 9 to 14) (size 15 to 20)
#    0.000    2.000    0.000    8.500    0.000    4.000 
#    0.000    1.667    0.000    4.000    0.000    0.000 
#    0.000    0.000    0.000    0.000    0.000    0.000 
#
# Total GULP energy -297446.778104 kJ/mol
# GULP energy per Si atom -12393.615754 kJ/mol
# Density = 1.864856 g / cm^3
# Si number density = 18.691106 Si / 1000 Ang^3
#
#
#
# Elastic Constant Matrix: (Units=GPa)
#
#
# Indices 1 2 3 4 5 6 
#
# 1 165.4342 44.0146 47.0341 0.0000 -24.5024 0.0000
# 2 44.0146 105.4824 17.4188 0.0000 -10.4322 0.0000
# 3 47.0341 17.4188 59.9756 0.0000 -22.7631 0.0000
# 4 0.0000 0.0000 0.0000 27.2765 0.0000 -4.6437
# 5 -24.5024 -10.4322 -22.7631 0.0000 32.2318 0.0000
# 6 0.0000 0.0000 0.0000 -4.6437 0.0000 39.2144
#
#
#
# Elastic Compliance Matrix: (Units=1/GPa)
#
#
# Indices 1 2 3 4 5 6 
#
# 1 0.008468 -0.002484 -0.005166 0.000000 0.001985 0.000000
# 2 -0.002484 0.010748 -0.000779 0.000000 0.001040 0.000000
# 3 -0.005166 -0.000779 0.026456 0.000000 0.014505 0.000000
# 4 0.000000 0.000000 0.000000 0.037416 0.000000 0.004431
# 5 0.001985 0.001040 0.014505 0.000000 0.043115 0.000000
# 6 0.000000 0.000000 0.000000 0.004431 0.000000 0.026026
#
#
# Mechanical properties :
#
#
# Convention : Reuss Voigt Hill
#
# Bulk Modulus (GPa) = 34.70422 60.86969 47.78695
# Shear Modulus (GPa) = 27.98108 34.57284 31.27696
#
# Velocity S-wave (km/s) = 3.87334 4.30547 4.09511
# Velocity P-wave (km/s) = 6.21379 7.57317 6.92691
#
# Compressibility (1/GPa) = 0.02881494
#
# Stress axis : x y z
#
# Youngs Moduli (GPa) = 118.08570 93.03796 37.79832
#
# Poissons Ratio (x) = 0.23112 0.19527
# Poissons Ratio (y) = 0.29335 0.02943
# Poissons Ratio (z) = 0.61006 0.07244
#
# Static dielectric constant tensor:
#      x y z
#    x 3.942690 0.000000 -0.573140 
#    y 0.000000 3.615860 0.000000 
#    z -0.573140 0.000000 3.125290 
# 
# 
# High freq. dielectric constant tensor:
#      x y z
#    x 1.743370 0.000000 -0.031240 
#    y 0.000000 1.742610 0.000000 
#    z -0.031240 0.000000 1.683940 
# 
# From -- ./inp_files/63099.got.cif
#   From: 2010.06.25/outbox.cif.g09.slc.cpg/sg11_32_cif.got.tgz:63099.got - 2010.06.27 23:14:04.
