data_PCOD8069427
_publ_section_title
;
Structure prediction by ZEFSAII (Michael W. Deem and Ramdas Pophale) SiO2 
 PCOD8069427
Probable space group: P 21/M
;
_chemical_formula_sum "Si O2"
_cell_formula_units_Z 20
_cell_length_a 9.115531
_cell_length_b 13.880263
_cell_length_c 9.240806
_cell_angle_alpha 90.000000
_cell_angle_beta 77.170865
_cell_angle_gamma 90.000000
_cell_volume 1140.014631
_symmetry_space_group_name_H-M "P 21/M"
_symmetry_group_IT_number 11
_symmetry_cell_setting 'monoclinic'
loop_
_space_group_symop_operation_xyz
x,y,z
-x,1/2+y,-z
-x,-y,-z
x,1/2-y,z
loop_
_atom_site_type_symbol
_atom_site_label
_atom_site_fract_x
_atom_site_fract_y
_atom_site_fract_z
Si Si1 0.306644 0.356433 0.674254
Si Si2 0.171479 0.497732 0.505896
Si Si3 0.453414 0.141911 0.927113
Si Si4 0.412464 0.456027 0.225240
Si Si5 0.598907 0.137410 0.426269
O O1 0.262484 0.250000 0.631817
O O2 0.180450 0.427148 0.641628
O O3 0.312871 0.363212 0.846783
O O4 0.472010 0.383495 0.574784
O O5 0.261861 0.451686 0.352322
O O6 0.243744 0.599682 0.540069
O O7 0.000000 0.500000 0.500000
O O8 0.524796 0.250000 0.904972
O O9 0.573416 0.061811 0.849766
O O10 0.393775 0.121296 0.100856
O O11 0.556376 0.423478 0.291225
O O12 0.615197 0.250000 0.385109
#
# Coordination Sequence:
#
# PCOD8069427 Si02
#       5
#     4   4   4   4   4
#     4   9  17  33  55  75  99 134 179 217 253 299
#     4  11  21  34  50  78 110 141 170 208 258 312
#     4  10  18  31  57  81 101 130 173 225 262 297
#     4  10  19  34  54  81 104 131 175 217 260 306
#     4  10  18  33  54  76 102 134 177 220 255 297
#
# _framework density 17.543634999999998
#
# number of rings (size 3 to 8) (size 9 to 14) (size 15 to 20)
#    0.000    2.000    4.000    1.800    0.000    1.600 
#    0.000    1.000    0.000    0.000    0.000    0.000 
#    0.000    0.000    0.000    0.000    0.000    0.000 
#
# Total GULP energy -247902.388968 kJ/mol
# GULP energy per Si atom -12395.119448 kJ/mol
# Density = 1.750371 g / cm^3
# Si number density = 17.543635 Si / 1000 Ang^3
#
#
#
# Elastic Constant Matrix: (Units=GPa)
#
#
# Indices 1 2 3 4 5 6 
#
# 1 117.0892 43.4645 31.1671 0.0000 16.4109 0.0000
# 2 43.4645 110.9980 35.3172 0.0000 15.4819 0.0000
# 3 31.1671 35.3172 98.5671 0.0000 20.4774 0.0000
# 4 0.0000 0.0000 0.0000 30.1155 0.0000 6.2174
# 5 16.4109 15.4819 20.4774 0.0000 15.6532 0.0000
# 6 0.0000 0.0000 0.0000 6.2174 0.0000 15.7899
#
#
#
# Elastic Compliance Matrix: (Units=1/GPa)
#
#
# Indices 1 2 3 4 5 6 
#
# 1 0.010904 -0.002970 -0.000850 0.000000 -0.007382 0.000000
# 2 -0.002970 0.011617 -0.002037 0.000000 -0.005712 0.000000
# 3 -0.000850 -0.002037 0.014474 0.000000 -0.016029 0.000000
# 4 0.000000 0.000000 0.000000 0.036144 0.000000 -0.014232
# 5 -0.007382 -0.005712 -0.016029 0.000000 0.098243 0.000000
# 6 0.000000 0.000000 0.000000 -0.014232 0.000000 0.068935
#
#
# Mechanical properties :
#
#
# Convention : Reuss Voigt Hill
#
# Bulk Modulus (GPa) = 39.55406 60.72798 50.14102
# Shear Modulus (GPa) = 19.19707 26.75876 22.97791
#
# Velocity S-wave (km/s) = 3.31153 3.90971 3.62298
# Velocity P-wave (km/s) = 6.10055 7.42102 6.79295
#
# Compressibility (1/GPa) = 0.02528185
#
# Stress axis : x y z
#
# Youngs Moduli (GPa) = 91.71124 86.08298 69.08929
#
# Poissons Ratio (x) = 0.25563 0.05873
# Poissons Ratio (y) = 0.27234 0.14072
# Poissons Ratio (z) = 0.07796 0.17533
#
# Static dielectric constant tensor:
#      x y z
#    x 2.763900 0.000000 0.307670 
#    y 0.000000 3.492220 0.000000 
#    z 0.307670 0.000000 3.440810 
# 
# 
# High freq. dielectric constant tensor:
#      x y z
#    x 1.618050 0.000000 0.032580 
#    y 0.000000 1.700730 0.000000 
#    z 0.032580 0.000000 1.683010 
# 
# From -- ./inp_files/12121.got.cif
#   From: 2010.06.25/outbox.cif.g09.slc.cpg/sg11_7_cif.got.tgz:12121.got - 2010.06.27 23:14:04.
