data_PCOD8069885
_publ_section_title
;
Structure prediction by ZEFSAII (Michael W. Deem and Ramdas Pophale) SiO2 
 PCOD8069885
Probable space group: P 21/M
;
_chemical_formula_sum "Si O2"
_cell_formula_units_Z 32
_cell_length_a 13.961732
_cell_length_b 17.329069
_cell_length_c 11.728252
_cell_angle_alpha 90.000000
_cell_angle_beta 33.348037
_cell_angle_gamma 90.000000
_cell_volume 1559.882970
_symmetry_space_group_name_H-M "P 21/M"
_symmetry_group_IT_number 11
_symmetry_cell_setting 'monoclinic'
loop_
_space_group_symop_operation_xyz
x,y,z
-x,1/2+y,-z
-x,-y,-z
x,1/2-y,z
loop_
_atom_site_type_symbol
_atom_site_label
_atom_site_fract_x
_atom_site_fract_y
_atom_site_fract_z
Si Si1 0.427440 0.660687 0.006901
Si Si2 0.319072 0.596498 0.884818
Si Si3 0.634762 0.581960 0.189706
Si Si4 0.821444 0.841510 0.629515
Si Si5 0.333787 0.661901 0.353495
Si Si6 0.622223 0.661286 0.439956
Si Si7 0.941434 0.659616 0.753958
Si Si8 0.045800 0.158665 0.743038
O O1 0.424216 0.750000 0.972043
O O2 0.329142 0.610432 0.010279
O O3 0.623134 0.629252 0.825636
O O4 0.326239 0.648941 0.225567
O O5 0.360327 0.509400 0.812710
O O6 0.455756 0.651891 0.686392
O O7 0.124900 0.617693 0.036650
O O8 0.474324 0.606604 0.270075
O O9 0.598752 0.609547 0.352634
O O10 0.817695 0.615181 0.964098
O O11 0.824529 0.750000 0.624754
O O12 0.911769 0.872016 0.655073
O O13 0.919689 0.872613 0.419683
O O14 0.388317 0.750000 0.326284
O O15 0.140698 0.643954 0.593091
O O16 0.637492 0.750000 0.387412
O O17 0.793386 0.634456 0.337646
O O18 0.895736 0.750000 0.805624
O O19 0.017940 0.250000 0.770143
#
# Coordination Sequence:
#
# PCOD8069885 Si02
#       8
#     4   4   4   4   4   4   4   4
#     4  10  18  36  65  92 120 160 210 258 299 349
#     4  12  25  40  62  92 129 162 195 251 318 373
#     4  12  26  41  59  90 131 167 196 244 310 378
#     4   9  16  33  63  91 117 151 200 261 306 338
#     4  10  21  39  66  92 121 164 212 255 293 352
#     4  11  24  44  67  87 113 157 214 264 298 352
#     4  10  20  38  62  88 119 160 208 253 298 356
#     4  10  21  39  65  93 116 152 207 261 306 353
#
# _framework density 20.514358999999999
#
# number of rings (size 3 to 8) (size 9 to 14) (size 15 to 20)
#    0.000    1.500    2.500    3.375    0.000    5.000 
#    0.000    2.500    0.000    0.000    0.000    0.000 
#    0.000    0.000    0.000    0.000    0.000    0.000 
#
# Total GULP energy -396939.998408 kJ/mol
# GULP energy per Si atom -12404.374950 kJ/mol
# Density = 2.046767 g / cm^3
# Si number density = 20.514359 Si / 1000 Ang^3
#
#
#
# Elastic Constant Matrix: (Units=GPa)
#
#
# Indices 1 2 3 4 5 6 
#
# 1 51.6524 14.6822 44.4658 0.0000 1.2372 0.0000
# 2 14.6822 48.4873 17.1473 0.0000 -1.9487 0.0000
# 3 44.4658 17.1473 97.2158 0.0000 -19.0938 0.0000
# 4 0.0000 0.0000 0.0000 30.8608 0.0000 6.2460
# 5 1.2372 -1.9487 -19.0938 0.0000 33.9646 0.0000
# 6 0.0000 0.0000 0.0000 6.2460 0.0000 23.3197
#
#
#
# Elastic Compliance Matrix: (Units=1/GPa)
#
#
# Indices 1 2 3 4 5 6 
#
# 1 0.036860 -0.005173 -0.018288 0.000000 -0.011920 0.000000
# 2 -0.005173 0.022754 -0.001522 0.000000 0.000638 0.000000
# 3 -0.018288 -0.001522 0.021396 0.000000 0.012607 0.000000
# 4 0.000000 0.000000 0.000000 0.034261 0.000000 -0.009176
# 5 -0.011920 0.000638 0.012607 0.000000 0.037000 0.000000
# 6 0.000000 0.000000 0.000000 -0.009176 0.000000 0.045340
#
#
# Mechanical properties :
#
#
# Convention : Reuss Voigt Hill
#
# Bulk Modulus (GPa) = 32.21286 38.88288 35.54787
# Shear Modulus (GPa) = 19.38547 25.69973 22.54260
#
# Velocity S-wave (km/s) = 3.07737 3.54329 3.31852
# Velocity P-wave (km/s) = 5.32575 5.97787 5.66121
#
# Compressibility (1/GPa) = 0.03104350
#
# Stress axis : x y z
#
# Youngs Moduli (GPa) = 27.12983 43.94781 46.73809
#
# Poissons Ratio (x) = 0.22734 0.85476
# Poissons Ratio (y) = 0.14034 0.07114
# Poissons Ratio (z) = 0.49616 0.06689
#
# Static dielectric constant tensor:
#      x y z
#    x 3.728440 0.000000 -0.046950 
#    y 0.000000 3.387720 0.000000 
#    z -0.046950 0.000000 3.809250 
# 
# 
# High freq. dielectric constant tensor:
#      x y z
#    x 1.804160 0.000000 -0.006790 
#    y 0.000000 1.770980 0.000000 
#    z -0.006790 0.000000 1.815760 
# 
# From -- ./inp_files/39973.got.cif
#   From: 2010.06.25/outbox.cif.g09.slc.cpg/sg11_20_cif.got.tgz:39973.got - 2010.06.27 23:14:04.
