data_PCOD8069388
_publ_section_title
;
Structure prediction by ZEFSAII (Michael W. Deem and Ramdas Pophale) SiO2 
 PCOD8069388
Probable space group: P 21/M
;
_chemical_formula_sum "Si O2"
_cell_formula_units_Z 32
_cell_length_a 12.189579
_cell_length_b 8.822190
_cell_length_c 19.954155
_cell_angle_alpha 90.000000
_cell_angle_beta 124.534441
_cell_angle_gamma 90.000000
_cell_volume 1767.716573
_symmetry_space_group_name_H-M "P 21/M"
_symmetry_group_IT_number 11
_symmetry_cell_setting 'monoclinic'
loop_
_space_group_symop_operation_xyz
x,y,z
-x,1/2+y,-z
-x,-y,-z
x,1/2-y,z
loop_
_atom_site_type_symbol
_atom_site_label
_atom_site_fract_x
_atom_site_fract_y
_atom_site_fract_z
Si Si1 0.816107 0.929573 0.633462
Si Si2 0.649659 0.572748 0.452086
Si Si3 0.302170 0.425173 0.678248
Si Si4 0.599684 0.924506 0.950623
Si Si5 0.424509 0.074968 0.207084
Si Si6 0.695627 0.426257 0.109660
Si Si7 0.099789 0.426119 0.722261
Si Si8 0.642745 0.429121 0.683246
O O1 0.807432 0.750000 0.632528
O O2 0.728316 0.999861 0.541891
O O3 0.762672 0.995504 0.684552
O O4 0.967030 0.976820 0.675437
O O5 0.641629 0.750000 0.461269
O O6 0.727844 0.535777 0.410053
O O7 0.498496 0.509860 0.394939
O O8 0.347150 0.250000 0.700582
O O9 0.421480 0.528607 0.745867
O O10 0.171863 0.459720 0.676548
O O11 0.619347 0.750000 0.978314
O O12 0.642813 0.952985 0.888715
O O13 0.444910 0.969290 0.905513
O O14 0.691646 0.028136 0.029815
O O15 0.416914 0.250000 0.225082
O O16 0.346028 0.977075 0.235097
O O17 0.730294 0.250000 0.128818
O O18 0.809035 0.523672 0.184483
O O19 0.065250 0.250000 0.718562
O O20 0.654807 0.250000 0.682430
#
# Coordination Sequence:
#
# PCOD8069388 Si02
#       8
#     4   4   4   4   4   4   4   4
#     4  11  22  36  54  75 102 139 182 222 264 311
#     4   8  17  34  55  78 103 132 171 223 269 310
#     4   9  18  33  52  75 105 140 175 213 263 314
#     4   9  18  31  50  79 111 138 169 211 258 307
#     4  10  18  31  53  81 110 136 170 215 263 309
#     4  10  19  32  51  77 108 141 176 212 253 306
#     4  11  22  35  52  74 108 146 178 214 261 316
#     4  10  20  36  56  78 105 135 175 221 267 313
#
# _framework density 18.102450999999999
#
# number of rings (size 3 to 8) (size 9 to 14) (size 15 to 20)
#    0.000    2.250    1.250    3.000    0.000    2.500 
#    0.000    5.625    0.000    0.750    0.000    0.000 
#    0.000    0.000    0.000    0.000    0.000    0.000 
#
# Total GULP energy -396815.730315 kJ/mol
# GULP energy per Si atom -12400.491572 kJ/mol
# Density = 1.806125 g / cm^3
# Si number density = 18.102451 Si / 1000 Ang^3
#
#
#
# Elastic Constant Matrix: (Units=GPa)
#
#
# Indices 1 2 3 4 5 6 
#
# 1 100.7668 33.9515 32.2843 0.0000 -13.6199 0.0000
# 2 33.9515 63.0114 24.2270 0.0000 -7.5598 0.0000
# 3 32.2843 24.2270 58.6610 0.0000 -18.5608 0.0000
# 4 0.0000 0.0000 0.0000 25.4851 0.0000 -0.1806
# 5 -13.6199 -7.5598 -18.5608 0.0000 21.5811 0.0000
# 6 0.0000 0.0000 0.0000 -0.1806 0.0000 27.3012
#
#
#
# Elastic Compliance Matrix: (Units=1/GPa)
#
#
# Indices 1 2 3 4 5 6 
#
# 1 0.013473 -0.005247 -0.004313 0.000000 0.002956 0.000000
# 2 -0.005247 0.020909 -0.006152 0.000000 -0.001278 0.000000
# 3 -0.004313 -0.006152 0.028052 0.000000 0.019249 0.000000
# 4 0.000000 0.000000 0.000000 0.039240 0.000000 0.000260
# 5 0.002956 -0.001278 0.019249 0.000000 0.064310 0.000000
# 6 0.000000 0.000000 0.000000 0.000260 0.000000 0.036630
#
#
# Mechanical properties :
#
#
# Convention : Reuss Voigt Hill
#
# Bulk Modulus (GPa) = 32.24690 44.81829 38.53259
# Shear Modulus (GPa) = 20.46033 23.67192 22.06613
#
# Velocity S-wave (km/s) = 3.36557 3.62009 3.49515
# Velocity P-wave (km/s) = 5.74064 6.50271 6.13352
#
# Compressibility (1/GPa) = 0.03101074
#
# Stress axis : x y z
#
# Youngs Moduli (GPa) = 74.22310 47.82567 35.64777
#
# Poissons Ratio (x) = 0.25092 0.15374
# Poissons Ratio (y) = 0.38942 0.21932
# Poissons Ratio (z) = 0.32011 0.29425
#
# Static dielectric constant tensor:
#      x y z
#    x 3.240360 0.000000 -0.236230 
#    y 0.000000 3.263730 0.000000 
#    z -0.236230 0.000000 3.395350 
# 
# 
# High freq. dielectric constant tensor:
#      x y z
#    x 1.685800 0.000000 -0.023950 
#    y 0.000000 1.700330 0.000000 
#    z -0.023950 0.000000 1.693620 
# 
# From -- ./inp_files/42854.got.cif
#   From: 2010.06.25/outbox.cif.g09.slc.cpg/sg11_22_cif.got.tgz:42854.got - 2010.06.27 23:14:04.
