data_PCOD8069879
_publ_section_title
;
Structure prediction by ZEFSAII (Michael W. Deem and Ramdas Pophale) SiO2 
 PCOD8069879
Probable space group: P 21/M
;
_chemical_formula_sum "Si O2"
_cell_formula_units_Z 32
_cell_length_a 9.847499
_cell_length_b 17.348976
_cell_length_c 15.287216
_cell_angle_alpha 90.000000
_cell_angle_beta 141.875451
_cell_angle_gamma 90.000000
_cell_volume 1612.411245
_symmetry_space_group_name_H-M "P 21/M"
_symmetry_group_IT_number 11
_symmetry_cell_setting 'monoclinic'
loop_
_space_group_symop_operation_xyz
x,y,z
-x,1/2+y,-z
-x,-y,-z
x,1/2-y,z
loop_
_atom_site_type_symbol
_atom_site_label
_atom_site_fract_x
_atom_site_fract_y
_atom_site_fract_z
Si Si1 0.432892 0.841297 0.543560
Si Si2 0.864043 0.836095 0.497963
Si Si3 0.870117 0.158206 0.767566
Si Si4 0.326585 0.911216 0.983165
Si Si5 0.108872 0.163353 0.288174
Si Si6 0.666783 0.341804 0.312592
Si Si7 0.408955 0.658812 0.208957
Si Si8 0.644576 0.908544 0.989492
O O1 0.432433 0.750000 0.535535
O O2 0.271852 0.873744 0.386532
O O3 0.684385 0.869799 0.661040
O O4 0.355633 0.869592 0.599077
O O5 0.887892 0.750000 0.471407
O O6 0.807803 0.833626 0.570937
O O7 0.654598 0.877269 0.346050
O O8 0.098024 0.877005 0.598690
O O9 0.889651 0.250000 0.775744
O O10 0.758451 0.128504 0.801197
O O11 0.111270 0.123399 0.881566
O O12 0.326552 0.862836 0.071883
O O13 0.515181 0.882657 0.011737
O O14 0.091277 0.895656 0.820512
O O15 0.353980 0.000066 0.018736
O O16 0.039689 0.250000 0.222555
O O17 0.653307 0.250000 0.295247
O O18 0.473206 0.376499 0.156279
O O19 0.425751 0.750000 0.228068
#
# Coordination Sequence:
#
# PCOD8069879 Si02
#       8
#     4   4   4   4   4   4   4   4
#     4   9  19  35  59  90 117 142 183 240 295 342
#     4   9  17  33  59  86 112 143 188 242 288 335
#     4  10  21  39  62  89 119 147 183 239 296 344
#     4  11  25  41  57  81 117 161 200 235 280 339
#     4  10  18  36  62  84 111 148 192 239 282 338
#     4  10  20  36  60  87 113 148 191 236 287 342
#     4  10  21  38  62  91 116 145 189 240 291 343
#     4  11  25  42  55  80 122 159 195 239 283 337
#
# _framework density 19.846053999999999
#
# number of rings (size 3 to 8) (size 9 to 14) (size 15 to 20)
#    0.000    2.000    2.500    0.750    3.500    2.000 
#    0.000    2.500    0.000    0.000    0.000    0.000 
#    0.000    0.000    0.000    0.000    0.000    0.000 
#
# Total GULP energy -396749.493392 kJ/mol
# GULP energy per Si atom -12398.421669 kJ/mol
# Density = 1.980088 g / cm^3
# Si number density = 19.846054 Si / 1000 Ang^3
#
#
#
# Elastic Constant Matrix: (Units=GPa)
#
#
# Indices 1 2 3 4 5 6 
#
# 1 145.1698 22.7984 67.2811 0.0000 7.0730 0.0000
# 2 22.7984 16.2767 21.1791 0.0000 2.4900 0.0000
# 3 67.2811 21.1791 117.6897 0.0000 9.9358 0.0000
# 4 0.0000 0.0000 0.0000 0.6011 0.0000 2.4921
# 5 7.0730 2.4900 9.9358 0.0000 41.5920 0.0000
# 6 0.0000 0.0000 0.0000 2.4921 0.0000 18.3496
#
#
#
# Elastic Compliance Matrix: (Units=1/GPa)
#
#
# Indices 1 2 3 4 5 6 
#
# 1 0.010254 -0.008783 -0.004265 0.000000 -0.000199 0.000000
# 2 -0.008783 0.087823 -0.010681 0.000000 -0.001213 0.000000
# 3 -0.004265 -0.010681 0.013004 0.000000 -0.001742 0.000000
# 4 0.000000 0.000000 0.000000 3.807526 0.000000 -0.517104
# 5 -0.000199 -0.001213 -0.001742 0.000000 0.024566 0.000000
# 6 0.000000 0.000000 0.000000 -0.517104 0.000000 0.124726
#
#
# Mechanical properties :
#
#
# Convention : Reuss Voigt Hill
#
# Bulk Modulus (GPa) = 15.71730 55.73927 35.72828
# Shear Modulus (GPa) = 1.20873 23.30036 12.25455
#
# Velocity S-wave (km/s) = 0.78127 3.43017 2.48761
# Velocity P-wave (km/s) = 2.95815 6.62079 5.12764
#
# Compressibility (1/GPa) = 0.06362415
#
# Stress axis : x y z
#
# Youngs Moduli (GPa) = 97.52232 11.38650 76.89865
#
# Poissons Ratio (x) = 0.10001 0.32795
# Poissons Ratio (y) = 0.85654 0.82135
# Poissons Ratio (z) = 0.41590 0.12162
#
# Static dielectric constant tensor:
#      x y z
#    x 3.858610 0.000000 0.092480 
#    y 0.000000 3.179500 0.000000 
#    z 0.092480 0.000000 3.663720 
# 
# 
# High freq. dielectric constant tensor:
#      x y z
#    x 1.790250 0.000000 0.006370 
#    y 0.000000 1.727740 0.000000 
#    z 0.006370 0.000000 1.787010 
# 
# From -- ./inp_files/32689.got.cif
#   From: 2010.06.25/outbox.cif.g09.slc.cpg/sg11_17_cif.got.tgz:32689.got - 2010.06.27 23:14:04.
