data_PCOD8069818
_publ_section_title
;
Structure prediction by ZEFSAII (Michael W. Deem and Ramdas Pophale) SiO2 
 PCOD8069818
Probable space group: P 21/M
;
_chemical_formula_sum "Si O2"
_cell_formula_units_Z 32
_cell_length_a 9.019066
_cell_length_b 14.231314
_cell_length_c 24.892905
_cell_angle_alpha 90.000000
_cell_angle_beta 31.046055
_cell_angle_gamma 90.000000
_cell_volume 1647.790293
_symmetry_space_group_name_H-M "P 21/M"
_symmetry_group_IT_number 11
_symmetry_cell_setting 'monoclinic'
loop_
_space_group_symop_operation_xyz
x,y,z
-x,1/2+y,-z
-x,-y,-z
x,1/2-y,z
loop_
_atom_site_type_symbol
_atom_site_label
_atom_site_fract_x
_atom_site_fract_y
_atom_site_fract_z
Si Si1 0.217577 0.644565 0.462450
Si Si2 0.420079 0.474992 0.465540
Si Si3 0.235424 0.997712 0.005863
Si Si4 0.837517 0.358122 0.642933
Si Si5 0.591615 0.642879 0.699398
Si Si6 0.400347 0.358374 0.042280
Si Si7 0.201142 0.856290 0.724444
Si Si8 0.586466 0.989022 0.169354
O O1 0.298360 0.750000 0.456263
O O2 0.404332 0.571493 0.437518
O O3 0.286487 0.631422 0.378495
O O4 0.881805 0.624998 0.576415
O O5 0.500000 0.500000 0.500000
O O6 0.687709 0.417645 0.359101
O O7 0.130806 0.415512 0.555129
O O8 0.406783 0.001811 0.896750
O O9 0.331014 0.909939 0.013231
O O10 0.308384 0.094006 0.014570
O O11 0.900787 0.983690 0.097936
O O12 0.900054 0.250000 0.638141
O O13 0.596313 0.396909 0.758411
O O14 0.558224 0.750000 0.728870
O O15 0.337241 0.611010 0.738722
O O16 0.580901 0.579969 0.755974
O O17 0.480084 0.250000 0.005630
O O18 0.140382 0.366007 0.165411
O O19 0.299730 0.750000 0.682650
#
# Coordination Sequence:
#
# PCOD8069818 Si02
#       8
#     4   4   4   4   4   4   4   4
#     4  10  21  38  61  89 118 156 202 241 282 348
#     4  12  24  36  59  90 127 159 187 241 295 356
#     4  10  24  40  62  89 119 150 205 253 299 353
#     4  11  23  40  61  87 122 162 199 236 295 361
#     4  10  18  34  63  91 115 149 198 246 290 344
#     4  10  22  42  64  85 116 159 201 246 297 353
#     4  10  20  36  62  89 115 154 199 238 289 352
#     4  11  22  39  61  91 119 154 195 254 304 345
#
# _framework density 19.419947000000001
#
# number of rings (size 3 to 8) (size 9 to 14) (size 15 to 20)
#    0.000    1.500    3.750    1.500    1.750    2.500 
#    0.000    5.000    0.000    0.000    0.000    0.000 
#    0.000    0.000    0.000    0.000    0.000    0.000 
#
# Total GULP energy -396893.917284 kJ/mol
# GULP energy per Si atom -12402.934915 kJ/mol
# Density = 1.937575 g / cm^3
# Si number density = 19.419947 Si / 1000 Ang^3
#
#
#
# Elastic Constant Matrix: (Units=GPa)
#
#
# Indices 1 2 3 4 5 6 
#
# 1 75.6947 43.1685 12.2457 0.0000 14.4586 0.0000
# 2 43.1685 122.7531 30.5801 0.0000 14.7853 0.0000
# 3 12.2457 30.5801 65.1593 0.0000 20.7070 0.0000
# 4 0.0000 0.0000 0.0000 33.1790 0.0000 0.1622
# 5 14.4586 14.7853 20.7070 0.0000 25.1952 0.0000
# 6 0.0000 0.0000 0.0000 0.1622 0.0000 6.3172
#
#
#
# Elastic Compliance Matrix: (Units=1/GPa)
#
#
# Indices 1 2 3 4 5 6 
#
# 1 0.017780 -0.005739 0.002063 0.000000 -0.008531 0.000000
# 2 -0.005739 0.011196 -0.004243 0.000000 0.000210 0.000000
# 3 0.002063 -0.004243 0.022381 0.000000 -0.017088 0.000000
# 4 0.000000 0.000000 0.000000 0.030143 0.000000 -0.000774
# 5 -0.008531 0.000210 -0.017088 0.000000 0.058506 0.000000
# 6 0.000000 0.000000 0.000000 -0.000774 0.000000 0.158319
#
#
# Mechanical properties :
#
#
# Convention : Reuss Voigt Hill
#
# Bulk Modulus (GPa) = 28.15375 48.39953 38.27664
# Shear Modulus (GPa) = 15.33732 24.77914 20.05823
#
# Velocity S-wave (km/s) = 2.81334 3.57594 3.21731
# Velocity P-wave (km/s) = 5.00819 6.48278 5.79260
#
# Compressibility (1/GPa) = 0.03551925
#
# Stress axis : x y z
#
# Youngs Moduli (GPa) = 56.24420 89.31522 44.68097
#
# Poissons Ratio (x) = 0.51258 -0.09217
# Poissons Ratio (y) = 0.32278 0.18957
# Poissons Ratio (z) = -0.11603 0.37894
#
# Static dielectric constant tensor:
#      x y z
#    x 3.256210 0.000000 0.080700 
#    y 0.000000 3.821580 0.000000 
#    z 0.080700 0.000000 3.542140 
# 
# 
# High freq. dielectric constant tensor:
#      x y z
#    x 1.744240 0.000000 0.003420 
#    y 0.000000 1.766130 0.000000 
#    z 0.003420 0.000000 1.756800 
# 
# From -- ./inp_files/27776.got.cif
#   From: 2010.06.25/outbox.cif.g09.slc.cpg/sg11_14_cif.got.tgz:27776.got - 2010.06.27 23:14:04.
