data_PCOD8069861
_publ_section_title
;
Structure prediction by ZEFSAII (Michael W. Deem and Ramdas Pophale) SiO2 
 PCOD8069861
Probable space group: P 21/M
;
_chemical_formula_sum "Si O2"
_cell_formula_units_Z 28
_cell_length_a 9.541462
_cell_length_b 13.374647
_cell_length_c 11.917787
_cell_angle_alpha 90.000000
_cell_angle_beta 68.812706
_cell_angle_gamma 90.000000
_cell_volume 1418.067775
_symmetry_space_group_name_H-M "P 21/M"
_symmetry_group_IT_number 11
_symmetry_cell_setting 'monoclinic'
loop_
_space_group_symop_operation_xyz
x,y,z
-x,1/2+y,-z
-x,-y,-z
x,1/2-y,z
loop_
_atom_site_type_symbol
_atom_site_label
_atom_site_fract_x
_atom_site_fract_y
_atom_site_fract_z
Si Si1 0.153677 0.136766 0.521849
Si Si2 0.695865 0.556189 0.739925
Si Si3 0.378344 0.866861 0.788553
Si Si4 0.803055 0.363059 0.603325
Si Si5 0.079294 0.863237 0.012835
Si Si6 0.776257 0.446392 0.374092
Si Si7 0.067106 0.052834 0.151307
O O1 0.179660 0.250000 0.554614
O O2 0.229217 0.121803 0.379320
O O3 0.978434 0.109695 0.563132
O O4 0.230107 0.063375 0.590373
O O5 0.523295 0.585987 0.805610
O O6 0.710778 0.437916 0.709643
O O7 0.776104 0.580120 0.835022
O O8 0.400032 0.750000 0.758683
O O9 0.239895 0.887008 0.911087
O O10 0.355314 0.922865 0.676331
O O11 0.768534 0.250000 0.651124
O O12 0.752596 0.377403 0.489503
O O13 0.067142 0.750000 0.059523
O O14 0.948597 0.884170 0.959007
O O15 0.057052 0.934259 0.126454
O O16 0.935328 0.417185 0.274164
#
# Coordination Sequence:
#
# PCOD8069861 Si02
#       7
#     4   4   4   4   4   4   4
#     4  10  19  31  52  85 113 139 180 224 261 311
#     4  11  20  35  54  81 111 143 181 219 264 316
#     4  10  22  37  54  78 110 147 180 220 271 318
#     4  10  19  32  53  84 113 143 181 220 261 314
#     4   9  21  38  56  80 105 134 179 226 274 323
#     4  10  18  36  54  78 110 146 177 218 266 313
#     4  10  19  35  59  79 101 136 182 224 269 314
#
# _framework density 19.745176000000001
#
# number of rings (size 3 to 8) (size 9 to 14) (size 15 to 20)
#    0.000    2.000    2.857    1.714    0.000    5.714 
#    0.000    2.143    0.000    3.429    0.000    0.000 
#    0.000    0.000    0.000    0.000    0.000    0.000 
#
# Total GULP energy -347267.676551 kJ/mol
# GULP energy per Si atom -12402.417020 kJ/mol
# Density = 1.970024 g / cm^3
# Si number density = 19.745176 Si / 1000 Ang^3
#
#
#
# Elastic Constant Matrix: (Units=GPa)
#
#
# Indices 1 2 3 4 5 6 
#
# 1 128.2420 26.7866 22.9600 0.0000 15.7165 0.0000
# 2 26.7866 88.6794 -3.2677 0.0000 -6.3951 0.0000
# 3 22.9600 -3.2677 28.2897 0.0000 6.9250 0.0000
# 4 0.0000 0.0000 0.0000 14.7770 0.0000 -5.6046
# 5 15.7165 -6.3951 6.9250 0.0000 19.5045 0.0000
# 6 0.0000 0.0000 0.0000 -5.6046 0.0000 24.8298
#
#
#
# Elastic Compliance Matrix: (Units=1/GPa)
#
#
# Indices 1 2 3 4 5 6 
#
# 1 0.010918 -0.004114 -0.007504 0.000000 -0.007482 0.000000
# 2 -0.004114 0.013105 0.003274 0.000000 0.006449 0.000000
# 3 -0.007504 0.003274 0.043889 0.000000 -0.008462 0.000000
# 4 0.000000 0.000000 0.000000 0.074009 0.000000 0.016705
# 5 -0.007482 0.006449 -0.008462 0.000000 0.062418 0.000000
# 6 0.000000 0.000000 0.000000 0.016705 0.000000 0.044045
#
#
# Mechanical properties :
#
#
# Convention : Reuss Voigt Hill
#
# Bulk Modulus (GPa) = 19.52280 37.57432 28.54856
# Shear Modulus (GPa) = 17.72135 25.07108 21.39621
#
# Velocity S-wave (km/s) = 2.99908 3.56720 3.29541
# Velocity P-wave (km/s) = 4.67991 6.00312 5.38233
#
# Compressibility (1/GPa) = 0.05122215
#
# Stress axis : x y z
#
# Youngs Moduli (GPa) = 91.59604 76.30720 22.78494
#
# Poissons Ratio (x) = 0.31391 0.17099
# Poissons Ratio (y) = 0.37681 -0.07459
# Poissons Ratio (z) = 0.68738 -0.24981
#
# Static dielectric constant tensor:
#      x y z
#    x 3.533850 0.000000 0.144580 
#    y 0.000000 3.626190 0.000000 
#    z 0.144580 0.000000 3.365680 
# 
# 
# High freq. dielectric constant tensor:
#      x y z
#    x 1.757110 0.000000 0.014340 
#    y 0.000000 1.774080 0.000000 
#    z 0.014340 0.000000 1.750370 
# 
# From -- ./inp_files/21959.got.cif
#   From: 2010.06.25/outbox.cif.g09.slc.cpg/sg11_11_cif.got.tgz:21959.got - 2010.06.27 23:14:04.
