data_PCOD8069401
_publ_section_title
;
Structure prediction by ZEFSAII (Michael W. Deem and Ramdas Pophale) SiO2 
 PCOD8069401
Probable space group: P 21/M
;
_chemical_formula_sum "Si O2"
_cell_formula_units_Z 32
_cell_length_a 9.707364
_cell_length_b 20.434821
_cell_length_c 11.150354
_cell_angle_alpha 90.000000
_cell_angle_beta 43.024938
_cell_angle_gamma 90.000000
_cell_volume 1509.199861
_symmetry_space_group_name_H-M "P 21/M"
_symmetry_group_IT_number 11
_symmetry_cell_setting 'monoclinic'
loop_
_space_group_symop_operation_xyz
x,y,z
-x,1/2+y,-z
-x,-y,-z
x,1/2-y,z
loop_
_atom_site_type_symbol
_atom_site_label
_atom_site_fract_x
_atom_site_fract_y
_atom_site_fract_z
Si Si1 0.802200 0.825158 0.331204
Si Si2 0.083421 0.600260 0.991432
Si Si3 0.096795 0.173369 0.469211
Si Si4 0.722472 0.528253 0.087434
Si Si5 0.647913 0.177223 0.790388
Si Si6 0.457772 0.624572 0.381781
Si Si7 0.890028 0.324822 0.253570
Si Si8 0.730867 0.620431 0.875205
O O1 0.833902 0.750000 0.275572
O O2 0.774428 0.833405 0.491366
O O3 0.604717 0.852863 0.393503
O O4 0.000494 0.864645 0.163078
O O5 0.908756 0.560477 0.036842
O O6 0.263464 0.550447 0.913686
O O7 0.160898 0.655684 0.850556
O O8 0.093527 0.250000 0.427184
O O9 0.193214 0.124209 0.309973
O O10 0.870829 0.146252 0.637761
O O11 0.519680 0.553642 0.285834
O O12 0.731934 0.549226 0.940178
O O13 0.677763 0.250000 0.818001
O O14 0.534822 0.175027 0.733764
O O15 0.502609 0.142780 0.979060
O O16 0.232718 0.625784 0.580345
O O17 0.820642 0.250000 0.317715
O O18 0.126626 0.332029 0.134830
#
# Coordination Sequence:
#
# PCOD8069401 Si02
#       8
#     4   4   4   4   4   4   4   4
#     4  10  20  35  53  77 113 146 172 219 278 327
#     4   9  18  34  52  74 108 142 180 225 270 320
#     4  10  20  34  52  80 113 144 178 217 274 333
#     4   8  18  34  54  77 101 142 184 228 268 310
#     4  10  18  31  54  79 107 139 177 224 270 319
#     4  10  19  32  54  81 110 139 179 225 268 322
#     4  11  19  29  53  87 111 137 180 227 270 324
#     4  10  19  33  55  79 109 139 183 226 268 316
#
# _framework density 21.203288000000001
#
# number of rings (size 3 to 8) (size 9 to 14) (size 15 to 20)
#    0.000    2.250    1.250    3.375    0.000    0.500 
#    2.250    0.625    0.000    3.000    0.000    0.000 
#    0.000    0.000    0.000    0.000    0.000    0.000 
#
# Total GULP energy -396554.294304 kJ/mol
# GULP energy per Si atom -12392.321697 kJ/mol
# Density = 2.115503 g / cm^3
# Si number density = 21.203288 Si / 1000 Ang^3
#
#
#
# Elastic Constant Matrix: (Units=GPa)
#
#
# Indices 1 2 3 4 5 6 
#
# 1 58.0017 10.6781 23.9876 0.0000 5.6184 0.0000
# 2 10.6781 35.7782 8.3616 0.0000 10.5236 0.0000
# 3 23.9876 8.3616 105.0666 0.0000 2.9360 0.0000
# 4 0.0000 0.0000 0.0000 22.8236 0.0000 1.6842
# 5 5.6184 10.5236 2.9360 0.0000 30.1591 0.0000
# 6 0.0000 0.0000 0.0000 1.6842 0.0000 14.6687
#
#
#
# Elastic Compliance Matrix: (Units=1/GPa)
#
#
# Indices 1 2 3 4 5 6 
#
# 1 0.019950 -0.004468 -0.004150 0.000000 -0.001753 0.000000
# 2 -0.004468 0.032654 -0.001287 0.000000 -0.010436 0.000000
# 3 -0.004150 -0.001287 0.010562 0.000000 0.000194 0.000000
# 4 0.000000 0.000000 0.000000 0.044189 0.000000 -0.005074
# 5 -0.001753 -0.010436 0.000194 0.000000 0.037107 0.000000
# 6 0.000000 0.000000 0.000000 -0.005074 0.000000 0.068755
#
#
# Mechanical properties :
#
#
# Convention : Reuss Voigt Hill
#
# Bulk Modulus (GPa) = 23.06533 31.65569 27.36051
# Shear Modulus (GPa) = 20.20373 23.91822 22.06098
#
# Velocity S-wave (km/s) = 3.09019 3.36228 3.22910
# Velocity P-wave (km/s) = 4.86150 5.48044 5.18022
#
# Compressibility (1/GPa) = 0.04335512
#
# Stress axis : x y z
#
# Youngs Moduli (GPa) = 50.12609 30.62407 94.67664
#
# Poissons Ratio (x) = 0.13684 0.39292
# Poissons Ratio (y) = 0.22399 0.12184
# Poissons Ratio (z) = 0.20803 0.03941
#
# Static dielectric constant tensor:
#      x y z
#    x 3.669160 0.000000 -0.007440 
#    y 0.000000 3.692380 0.000000 
#    z -0.007440 0.000000 3.907340 
# 
# 
# High freq. dielectric constant tensor:
#      x y z
#    x 1.818630 0.000000 0.003590 
#    y 0.000000 1.794870 0.000000 
#    z 0.003590 0.000000 1.835130 
# 
# From -- ./inp_files/36329.got.cif
#   From: 2010.06.25/outbox.cif.g09.slc.cpg/sg11_19_cif.got.tgz:36329.got - 2010.06.27 23:14:04.
