data_PCOD8069247
_publ_section_title
;
Structure prediction by ZEFSAII (Michael W. Deem and Ramdas Pophale) SiO2 
 PCOD8069247
Probable space group: P 21/M
;
_chemical_formula_sum "Si O2"
_cell_formula_units_Z 32
_cell_length_a 8.387841
_cell_length_b 20.070962
_cell_length_c 19.787136
_cell_angle_alpha 90.000000
_cell_angle_beta 32.555007
_cell_angle_gamma 90.000000
_cell_volume 1792.551419
_symmetry_space_group_name_H-M "P 21/M"
_symmetry_group_IT_number 11
_symmetry_cell_setting 'monoclinic'
loop_
_space_group_symop_operation_xyz
x,y,z
-x,1/2+y,-z
-x,-y,-z
x,1/2-y,z
loop_
_atom_site_type_symbol
_atom_site_label
_atom_site_fract_x
_atom_site_fract_y
_atom_site_fract_z
Si Si1 0.380884 0.571713 0.892822
Si Si2 0.287384 0.968351 0.478465
Si Si3 0.045826 0.174191 0.003605
Si Si4 0.460843 0.073012 0.920368
Si Si5 0.305445 0.429419 0.356227
Si Si6 0.115610 0.034906 0.675703
Si Si7 0.310974 0.821867 0.732344
Si Si8 0.148033 0.407326 0.171405
O O1 0.325243 0.497471 0.942457
O O2 0.454727 0.560668 0.788210
O O3 0.652862 0.607089 0.834283
O O4 0.106951 0.624113 0.996800
O O5 0.590029 0.931551 0.395497
O O6 0.020408 0.916353 0.559630
O O7 0.330726 0.004599 0.391764
O O8 0.178532 0.020247 0.574678
O O9 0.111613 0.250000 0.952221
O O10 0.345068 0.136693 0.919857
O O11 0.825423 0.181475 0.144648
O O12 0.817675 0.078467 0.787555
O O13 0.367293 0.076838 0.031460
O O14 0.397126 0.367455 0.370532
O O15 0.071020 0.968273 0.735307
O O16 0.417804 0.750000 0.669478
O O17 0.061809 0.845196 0.768581
#
# Coordination Sequence:
#
# PCOD8069247 Si02
#       8
#     4   4   4   4   4   4   4   4
#     4  10  18  31  50  78 106 127 169 208 255 301
#     4  10  19  30  51  74 103 129 162 209 249 294
#     4   9  19  33  50  72 101 135 167 205 255 309
#     4  10  19  33  51  75 104 135 164 208 254 304
#     4  10  18  31  49  76 101 131 162 209 256 292
#     4  10  18  32  49  76 102 129 165 202 252 294
#     4   9  18  32  50  70 100 135 167 205 252 307
#     4  10  18  32  49  77 107 124 166 204 257 305
#
# _framework density 17.851648999999998
#
# number of rings (size 3 to 8) (size 9 to 14) (size 15 to 20)
#    0.000    2.250    3.750    1.875    0.000    0.500 
#    2.250    0.000    0.000    1.500    0.000    0.000 
#    0.000    0.000    0.000    0.000    0.000    0.000 
#
# Total GULP energy -396463.911429 kJ/mol
# GULP energy per Si atom -12389.497232 kJ/mol
# Density = 1.781102 g / cm^3
# Si number density = 17.851649 Si / 1000 Ang^3
#
#
#
# Elastic Constant Matrix: (Units=GPa)
#
#
# Indices 1 2 3 4 5 6 
#
# 1 86.6089 31.7977 30.6047 0.0000 -14.6863 0.0000
# 2 31.7977 88.5613 19.1817 0.0000 -18.1843 0.0000
# 3 30.6047 19.1817 59.2732 0.0000 -7.8890 0.0000
# 4 0.0000 0.0000 0.0000 13.2248 0.0000 -4.3255
# 5 -14.6863 -18.1843 -7.8890 0.0000 30.9955 0.0000
# 6 0.0000 0.0000 0.0000 -4.3255 0.0000 17.1349
#
#
#
# Elastic Compliance Matrix: (Units=1/GPa)
#
#
# Indices 1 2 3 4 5 6 
#
# 1 0.015763 -0.003474 -0.006512 0.000000 0.003773 0.000000
# 2 -0.003474 0.014244 -0.001990 0.000000 0.006204 0.000000
# 3 -0.006512 -0.001990 0.021024 0.000000 0.001098 0.000000
# 4 0.000000 0.000000 0.000000 0.082421 0.000000 0.020806
# 5 0.003773 0.006204 0.001098 0.000000 0.037969 0.000000
# 6 0.000000 0.000000 0.000000 0.020806 0.000000 0.063613
#
#
# Mechanical properties :
#
#
# Convention : Reuss Voigt Hill
#
# Bulk Modulus (GPa) = 36.93156 44.17907 40.55531
# Shear Modulus (GPa) = 18.65588 22.46166 20.55877
#
# Velocity S-wave (km/s) = 3.23623 3.55102 3.39727
# Velocity P-wave (km/s) = 5.89043 6.45094 6.17705
#
# Compressibility (1/GPa) = 0.02707712
#
# Stress axis : x y z
#
# Youngs Moduli (GPa) = 63.44070 70.20546 47.56551
#
# Poissons Ratio (x) = 0.24392 0.30976
# Poissons Ratio (y) = 0.22042 0.09465
# Poissons Ratio (z) = 0.41315 0.13970
#
# Static dielectric constant tensor:
#      x y z
#    x 3.533850 0.000000 -0.166300 
#    y 0.000000 3.287110 0.000000 
#    z -0.166300 0.000000 3.247580 
# 
# 
# High freq. dielectric constant tensor:
#      x y z
#    x 1.709490 0.000000 -0.011870 
#    y 0.000000 1.648250 0.000000 
#    z -0.011870 0.000000 1.674480 
# 
# From -- ./inp_files/63990.got.cif
#   From: 2010.06.25/outbox.cif.g09.slc.cpg/sg11_32_cif.got.tgz:63990.got - 2010.06.27 23:14:04.
