data_PCOD8069940
_publ_section_title
;
Structure prediction by ZEFSAII (Michael W. Deem and Ramdas Pophale) SiO2 
 PCOD8069940
Probable space group: P 21/M
;
_chemical_formula_sum "Si O2"
_cell_formula_units_Z 32
_cell_length_a 20.240112
_cell_length_b 9.108711
_cell_length_c 28.809060
_cell_angle_alpha 90.000000
_cell_angle_beta 159.274951
_cell_angle_gamma 90.000000
_cell_volume 1879.574625
_symmetry_space_group_name_H-M "P 21/M"
_symmetry_group_IT_number 11
_symmetry_cell_setting 'monoclinic'
loop_
_space_group_symop_operation_xyz
x,y,z
-x,1/2+y,-z
-x,-y,-z
x,1/2-y,z
loop_
_atom_site_type_symbol
_atom_site_label
_atom_site_fract_x
_atom_site_fract_y
_atom_site_fract_z
Si Si1 0.796678 0.578768 0.190843
Si Si2 0.749880 0.076448 0.905956
Si Si3 0.571056 0.076715 0.694879
Si Si4 0.332581 0.922657 0.049759
Si Si5 0.157920 0.077015 0.399057
Si Si6 0.168737 0.422636 0.205001
Si Si7 0.930676 0.923676 0.760266
Si Si8 0.495769 0.920172 0.064945
O O1 0.825923 0.750000 0.201048
O O2 0.698800 0.548418 0.176556
O O3 0.996055 0.500115 0.322380
O O4 0.663350 0.516564 0.063417
O O5 0.729456 0.250000 0.889482
O O6 0.657785 0.008601 0.799163
O O7 0.639329 0.015352 0.879313
O O8 0.966734 0.031254 0.051847
O O9 0.599776 0.250000 0.710462
O O10 0.353453 0.034599 0.550901
O O11 0.670569 0.007266 0.716087
O O12 0.307472 0.750000 0.039355
O O13 0.498291 0.959745 0.121960
O O14 0.140825 0.986436 0.902202
O O15 0.120970 0.250000 0.376235
O O16 0.159394 0.017470 0.346744
O O17 0.199741 0.250000 0.219482
O O18 0.184289 0.471508 0.269356
O O19 0.937020 0.750000 0.762932
O O20 0.439259 0.750000 0.020633
#
# Coordination Sequence:
#
# PCOD8069940 Si02
#       8
#     4   4   4   4   4   4   4   4
#     4  10  19  28  43  71  99 118 144 186 225 263
#     4   8  15  28  47  70  89 111 151 193 223 258
#     4  10  20  31  45  67  91 117 152 191 227 265
#     4   8  12  23  47  69  86 113 149 185 213 256
#     4  10  19  32  47  61  89 129 157 179 216 271
#     4   9  17  30  49  67  85 113 150 193 231 266
#     4   8  14  26  45  65  83 114 155 181 211 266
#     4   9  16  28  48  71  93 120 150 178 220 270
#
# _framework density 17.025129
#
# number of rings (size 3 to 8) (size 9 to 14) (size 15 to 20)
#    0.000    3.000    1.250    2.250    0.000    1.500 
#    0.000    0.625    0.000    1.500    0.000    0.000 
#    0.000    0.000    0.000    0.000    0.000    0.375 
#
# Total GULP energy -396508.699338 kJ/mol
# GULP energy per Si atom -12390.896854 kJ/mol
# Density = 1.698638 g / cm^3
# Si number density = 17.025129 Si / 1000 Ang^3
#
#
#
# Elastic Constant Matrix: (Units=GPa)
#
#
# Indices 1 2 3 4 5 6 
#
# 1 121.4158 33.2031 44.8059 0.0000 24.0426 0.0000
# 2 33.2031 29.8649 31.7187 0.0000 8.6442 0.0000
# 3 44.8059 31.7187 77.3387 0.0000 15.0139 0.0000
# 4 0.0000 0.0000 0.0000 15.6064 0.0000 6.5945
# 5 24.0426 8.6442 15.0139 0.0000 21.5147 0.0000
# 6 0.0000 0.0000 0.0000 6.5945 0.0000 21.8918
#
#
#
# Elastic Compliance Matrix: (Units=1/GPa)
#
#
# Indices 1 2 3 4 5 6 
#
# 1 0.013713 -0.010603 -0.001675 0.000000 -0.009896 0.000000
# 2 -0.010603 0.068716 -0.021954 0.000000 -0.000440 0.000000
# 3 -0.001675 -0.021954 0.024093 0.000000 -0.006120 0.000000
# 4 0.000000 0.000000 0.000000 0.073422 0.000000 -0.022117
# 5 -0.009896 -0.000440 -0.006120 0.000000 0.061986 0.000000
# 6 0.000000 0.000000 0.000000 -0.022117 0.000000 0.052342
#
#
# Mechanical properties :
#
#
# Convention : Reuss Voigt Hill
#
# Bulk Modulus (GPa) = 26.27581 49.78609 38.03095
# Shear Modulus (GPa) = 13.31831 19.72869 16.52350
#
# Velocity S-wave (km/s) = 2.79995 3.40781 3.11872
# Velocity P-wave (km/s) = 5.09117 6.69256 5.94602
#
# Compressibility (1/GPa) = 0.03805782
#
# Stress axis : x y z
#
# Youngs Moduli (GPa) = 72.92139 14.55256 41.50598
#
# Poissons Ratio (x) = 0.15430 0.06953
# Poissons Ratio (y) = 0.77317 0.91124
# Poissons Ratio (z) = 0.12216 0.31949
#
# Static dielectric constant tensor:
#      x y z
#    x 3.636150 0.000000 -0.121540 
#    y 0.000000 2.821730 0.000000 
#    z -0.121540 0.000000 3.067180 
# 
# 
# High freq. dielectric constant tensor:
#      x y z
#    x 1.674950 0.000000 0.004220 
#    y 0.000000 1.618180 0.000000 
#    z 0.004220 0.000000 1.625280 
# 
# From -- ./inp_files/65248.got.cif
#   From: 2010.06.25/outbox.cif.g09.slc.cpg/sg11_33_cif.got.tgz:65248.got - 2010.06.27 23:14:04.
