data_PCOD8069715
_publ_section_title
;
Structure prediction by ZEFSAII (Michael W. Deem and Ramdas Pophale) SiO2 
 PCOD8069715
Probable space group: P 21/M
;
_chemical_formula_sum "Si O2"
_cell_formula_units_Z 28
_cell_length_a 20.917467
_cell_length_b 15.827497
_cell_length_c 9.113045
_cell_angle_alpha 90.000000
_cell_angle_beta 30.735545
_cell_angle_gamma 90.000000
_cell_volume 1541.950914
_symmetry_space_group_name_H-M "P 21/M"
_symmetry_group_IT_number 11
_symmetry_cell_setting 'monoclinic'
loop_
_space_group_symop_operation_xyz
x,y,z
-x,1/2+y,-z
-x,-y,-z
x,1/2-y,z
loop_
_atom_site_type_symbol
_atom_site_label
_atom_site_fract_x
_atom_site_fract_y
_atom_site_fract_z
Si Si1 0.347503 0.412638 0.244595
Si Si2 0.974833 0.520307 0.378538
Si Si3 0.356286 0.486582 0.786156
Si Si4 0.375021 0.846834 0.263267
Si Si5 0.760914 0.013101 0.289067
Si Si6 0.264062 0.931712 0.230616
Si Si7 0.226184 0.155522 0.221106
O O1 0.261035 0.435446 0.555326
O O2 0.349354 0.495562 0.138448
O O3 0.284129 0.339408 0.271490
O O4 0.486525 0.386594 0.019305
O O5 0.884435 0.451857 0.475369
O O6 0.909595 0.611882 0.505156
O O7 0.000000 0.500000 0.500000
O O8 0.094990 0.523623 0.038275
O O9 0.500000 0.500000 0.500000
O O10 0.313300 0.487736 0.706563
O O11 0.299839 0.566674 0.987970
O O12 0.316705 0.397143 0.934847
O O13 0.382564 0.750000 0.299821
O O14 0.290707 0.898788 0.544431
O O15 0.304580 0.848804 0.241957
O O16 0.211833 0.250000 0.187441
#
# Coordination Sequence:
#
# PCOD8069715 Si02
#       7
#     4   4   4   4   4   4   4
#     4   9  19  35  57  81 110 149 184 229 278 346
#     4  10  19  38  60  82 109 152 192 232 275 339
#     4  10  18  33  59  83 107 145 195 231 277 344
#     4  11  22  36  54  84 121 148 180 239 295 333
#     4  11  19  35  62  84 106 149 202 225 275 341
#     4   9  19  35  56  79 108 148 187 223 280 336
#     4  10  21  37  57  83 117 150 186 241 289 325
#
# _framework density 18.158814
#
# number of rings (size 3 to 8) (size 9 to 14) (size 15 to 20)
#    0.000    2.286    2.857    4.714    0.000    5.714 
#    0.000    5.000    0.000    0.000    0.000    0.000 
#    0.000    0.000    0.000    0.000    0.000    0.000 
#
# Total GULP energy -346876.187052 kJ/mol
# GULP energy per Si atom -12388.435252 kJ/mol
# Density = 1.811748 g / cm^3
# Si number density = 18.158814 Si / 1000 Ang^3
#
#
#
# Elastic Constant Matrix: (Units=GPa)
#
#
# Indices 1 2 3 4 5 6 
#
# 1 101.2835 32.9690 19.5264 0.0000 -3.3812 0.0000
# 2 32.9690 75.0341 41.7563 0.0000 -6.1793 0.0000
# 3 19.5264 41.7563 122.2773 0.0000 -14.7067 0.0000
# 4 0.0000 0.0000 0.0000 14.8894 0.0000 2.3647
# 5 -3.3812 -6.1793 -14.7067 0.0000 40.1264 0.0000
# 6 0.0000 0.0000 0.0000 2.3647 0.0000 15.3092
#
#
#
# Elastic Compliance Matrix: (Units=1/GPa)
#
#
# Indices 1 2 3 4 5 6 
#
# 1 0.011524 -0.004984 -0.000119 0.000000 0.000160 0.000000
# 2 -0.004984 0.018619 -0.005511 0.000000 0.000428 0.000000
# 3 -0.000119 -0.005511 0.010436 0.000000 0.002966 0.000000
# 4 0.000000 0.000000 0.000000 0.068851 0.000000 -0.010635
# 5 0.000160 0.000428 0.002966 0.000000 0.026088 0.000000
# 6 0.000000 0.000000 0.000000 -0.010635 0.000000 0.066963
#
#
# Mechanical properties :
#
#
# Convention : Reuss Voigt Hill
#
# Bulk Modulus (GPa) = 51.67708 54.12205 52.89956
# Shear Modulus (GPa) = 21.72413 27.68787 24.70600
#
# Velocity S-wave (km/s) = 3.46257 3.90906 3.69257
# Velocity P-wave (km/s) = 6.67128 7.08829 6.88294
#
# Compressibility (1/GPa) = 0.01935094
#
# Stress axis : x y z
#
# Youngs Moduli (GPa) = 86.77586 53.70788 95.82397
#
# Poissons Ratio (x) = 0.26768 0.01140
# Poissons Ratio (y) = 0.43250 0.52808
# Poissons Ratio (z) = 0.01033 0.29598
#
# Static dielectric constant tensor:
#      x y z
#    x 3.790670 0.000000 0.102650 
#    y 0.000000 3.152640 0.000000 
#    z 0.102650 0.000000 3.351740 
# 
# 
# High freq. dielectric constant tensor:
#      x y z
#    x 1.725600 0.000000 -0.003600 
#    y 0.000000 1.666200 0.000000 
#    z -0.003600 0.000000 1.705920 
# 
# From -- ./inp_files/27007.got.cif
#   From: 2010.06.25/outbox.cif.g09.slc.cpg/sg11_14_cif.got.tgz:27007.got - 2010.06.27 23:14:04.
