data_PCOD8069461
_publ_section_title
;
Structure prediction by ZEFSAII (Michael W. Deem and Ramdas Pophale) SiO2 
 PCOD8069461
Probable space group: P 21/M
;
_chemical_formula_sum "Si O2"
_cell_formula_units_Z 32
_cell_length_a 12.198292
_cell_length_b 12.249564
_cell_length_c 19.685520
_cell_angle_alpha 90.000000
_cell_angle_beta 154.327365
_cell_angle_gamma 90.000000
_cell_volume 1274.335376
_symmetry_space_group_name_H-M "P 21/M"
_symmetry_group_IT_number 11
_symmetry_cell_setting 'monoclinic'
loop_
_space_group_symop_operation_xyz
x,y,z
-x,1/2+y,-z
-x,-y,-z
x,1/2-y,z
loop_
_atom_site_type_symbol
_atom_site_label
_atom_site_fract_x
_atom_site_fract_y
_atom_site_fract_z
Si Si1 0.787886 0.954275 0.466725
Si Si2 0.460389 0.629585 0.406109
Si Si3 0.669270 0.379631 0.201764
Si Si4 0.560175 0.623894 0.214644
Si Si5 0.565455 0.879496 0.787461
Si Si6 0.142269 0.068607 0.262086
Si Si7 0.622521 0.120244 0.027123
Si Si8 0.046181 0.629166 0.982200
O O1 0.620102 0.888859 0.426968
O O2 0.798227 0.899819 0.395928
O O3 0.076178 0.952317 0.651581
O O4 0.660698 0.074145 0.387144
O O5 0.344564 0.750000 0.337823
O O6 0.633158 0.620646 0.569261
O O7 0.219514 0.551306 0.278574
O O8 0.735077 0.250000 0.241068
O O9 0.490930 0.413288 0.165508
O O10 0.526540 0.408953 0.050171
O O11 0.506327 0.750000 0.175613
O O12 0.569218 0.579011 0.140950
O O13 0.321848 0.571179 0.124795
O O14 0.561906 0.750000 0.774976
O O15 0.846852 0.926511 0.923566
O O16 0.089826 0.141383 0.166792
O O17 0.893187 0.062412 0.169314
O O18 0.661714 0.250000 0.044215
O O19 0.101519 0.750000 0.041423
#
# Coordination Sequence:
#
# PCOD8069461 Si02
#       8
#     4   4   4   4   4   4   4   4
#     4  12  21  36  56  87 118 147 185 242 293 335
#     4  11  21  31  49  81 115 144 179 228 290 340
#     4  10  20  36  61  86 113 147 195 242 277 330
#     4   9  19  33  57  87 114 145 184 236 293 340
#     4  10  22  38  55  82 113 155 197 234 281 340
#     4  10  18  32  51  78 108 144 182 226 277 335
#     4   9  17  34  58  84 110 148 193 231 273 336
#     4   9  17  34  55  79 111 147 187 225 272 341
#
# _framework density 25.111129999999999
#
# number of rings (size 3 to 8) (size 9 to 14) (size 15 to 20)
#    0.000    2.000    2.500    3.375    0.000    0.500 
#    0.000    0.625    0.000    0.000    3.250    0.000 
#    0.000    0.000    0.000    0.000    0.000    0.000 
#
# Total GULP energy -396634.165759 kJ/mol
# GULP energy per Si atom -12394.817680 kJ/mol
# Density = 2.505398 g / cm^3
# Si number density = 25.111130 Si / 1000 Ang^3
#
#
#
# Elastic Constant Matrix: (Units=GPa)
#
#
# Indices 1 2 3 4 5 6 
#
# 1 138.3784 43.0575 40.4284 0.0000 -8.8861 0.0000
# 2 43.0575 73.8343 16.8760 0.0000 2.9735 0.0000
# 3 40.4284 16.8760 101.9947 0.0000 -14.8627 0.0000
# 4 0.0000 0.0000 0.0000 17.3612 0.0000 -3.8208
# 5 -8.8861 2.9735 -14.8627 0.0000 36.9744 0.0000
# 6 0.0000 0.0000 0.0000 -3.8208 0.0000 43.2860
#
#
#
# Elastic Compliance Matrix: (Units=1/GPa)
#
#
# Indices 1 2 3 4 5 6 
#
# 1 0.009731 -0.005106 -0.002774 0.000000 0.001634 0.000000
# 2 -0.005106 0.016926 -0.001225 0.000000 -0.003081 0.000000
# 3 -0.002774 -0.001225 0.011710 0.000000 0.004139 0.000000
# 4 0.000000 0.000000 0.000000 0.058741 0.000000 0.005185
# 5 0.001634 -0.003081 0.004139 0.000000 0.029350 0.000000
# 6 0.000000 0.000000 0.000000 0.005185 0.000000 0.023560
#
#
# Mechanical properties :
#
#
# Convention : Reuss Voigt Hill
#
# Bulk Modulus (GPa) = 49.61600 57.21459 53.41529
# Shear Modulus (GPa) = 28.58002 33.78070 31.18036
#
# Velocity S-wave (km/s) = 3.37730 3.67174 3.52759
# Velocity P-wave (km/s) = 5.91689 6.38824 6.15708
#
# Compressibility (1/GPa) = 0.02015479
#
# Stress axis : x y z
#
# Youngs Moduli (GPa) = 102.76562 59.08099 85.39791
#
# Poissons Ratio (x) = 0.30169 0.23690
# Poissons Ratio (y) = 0.52477 0.10465
# Poissons Ratio (z) = 0.28508 0.07240
#
# Static dielectric constant tensor:
#      x y z
#    x 4.893320 0.000000 -0.231930 
#    y 0.000000 4.747280 0.000000 
#    z -0.231930 0.000000 4.267950 
# 
# 
# High freq. dielectric constant tensor:
#      x y z
#    x 2.012990 0.000000 -0.018390 
#    y 0.000000 2.035480 0.000000 
#    z -0.018390 0.000000 1.985950 
# 
# From -- ./inp_files/59519.got.cif
#   From: 2010.06.25/outbox.cif.g09.slc.cpg/sg11_30_cif.got.tgz:59519.got - 2010.06.27 23:14:04.
