data_PCOD8069678
_publ_section_title
;
Structure prediction by ZEFSAII (Michael W. Deem and Ramdas Pophale) SiO2 
 PCOD8069678
Probable space group: P 21/M
;
_chemical_formula_sum "Si O2"
_cell_formula_units_Z 32
_cell_length_a 12.185664
_cell_length_b 17.973811
_cell_length_c 15.163597
_cell_angle_alpha 90.000000
_cell_angle_beta 29.670497
_cell_angle_gamma 90.000000
_cell_volume 1644.018638
_symmetry_space_group_name_H-M "P 21/M"
_symmetry_group_IT_number 11
_symmetry_cell_setting 'monoclinic'
loop_
_space_group_symop_operation_xyz
x,y,z
-x,1/2+y,-z
-x,-y,-z
x,1/2-y,z
loop_
_atom_site_type_symbol
_atom_site_label
_atom_site_fract_x
_atom_site_fract_y
_atom_site_fract_z
Si Si1 0.841528 0.991976 0.955029
Si Si2 0.214792 0.333536 0.255703
Si Si3 0.697697 0.545362 0.402642
Si Si4 0.125865 0.576750 0.408327
Si Si5 0.633800 0.069693 0.936659
Si Si6 0.449185 0.541905 0.338017
Si Si7 0.519788 0.335268 0.543002
Si Si8 0.961784 0.666661 0.814026
O O1 0.832843 0.902027 0.948093
O O2 0.785463 0.043583 0.910737
O O3 0.666326 0.005162 0.155819
O O4 0.086555 0.022156 0.805016
O O5 0.270356 0.250000 0.237655
O O6 0.055407 0.361313 0.444076
O O7 0.075151 0.344942 0.263956
O O8 0.456857 0.369372 0.088885
O O9 0.500000 0.500000 0.500000
O O10 0.708466 0.516288 0.497028
O O11 0.629815 0.632166 0.434319
O O12 0.216681 0.598289 0.248616
O O13 0.326020 0.573004 0.338039
O O14 0.000000 0.500000 0.500000
O O15 0.500000 0.000000 0.000000
O O16 0.528099 0.613802 0.338320
O O17 0.447110 0.250000 0.611004
O O18 0.780808 0.339894 0.340159
O O19 0.874787 0.750000 0.902672
#
# Coordination Sequence:
#
# PCOD8069678 Si02
#       8
#     4   4   4   4   4   4   4   4
#     4  12  21  38  60  89 121 155 198 244 291 355
#     4  11  22  37  56  85 124 161 199 248 298 355
#     4  10  21  38  58  83 113 152 196 242 291 348
#     4  12  20  34  61  89 121 162 205 241 297 362
#     4  12  22  36  59  92 126 163 199 244 298 357
#     4  11  21  33  61  88 115 151 195 240 293 355
#     4  10  21  39  59  84 117 148 188 249 305 350
#     4  10  18  33  56  83 119 149 180 242 307 346
#
# _framework density 19.464500000000001
#
# number of rings (size 3 to 8) (size 9 to 14) (size 15 to 20)
#    0.000    1.000    7.500    0.750    0.000    3.000 
#    0.000    0.625    0.000    6.000    0.000    0.000 
#    0.000    0.000    0.000    0.000    0.000    0.000 
#
# Total GULP energy -396544.667114 kJ/mol
# GULP energy per Si atom -12392.020847 kJ/mol
# Density = 1.942020 g / cm^3
# Si number density = 19.464500 Si / 1000 Ang^3
#
#
#
# Elastic Constant Matrix: (Units=GPa)
#
#
# Indices 1 2 3 4 5 6 
#
# 1 51.2402 36.5118 19.5916 0.0000 -0.2290 0.0000
# 2 36.5118 119.7137 37.2697 0.0000 -5.8191 0.0000
# 3 19.5916 37.2697 123.8442 0.0000 -2.5658 0.0000
# 4 0.0000 0.0000 0.0000 31.6658 0.0000 -3.2725
# 5 -0.2290 -5.8191 -2.5658 0.0000 28.0755 0.0000
# 6 0.0000 0.0000 0.0000 -3.2725 0.0000 26.7729
#
#
#
# Elastic Compliance Matrix: (Units=1/GPa)
#
#
# Indices 1 2 3 4 5 6 
#
# 1 0.025375 -0.007228 -0.001869 0.000000 -0.001462 0.000000
# 2 -0.007228 0.011354 -0.002230 0.000000 0.002090 0.000000
# 3 -0.001869 -0.002230 0.009049 0.000000 0.000350 0.000000
# 4 0.000000 0.000000 0.000000 0.031984 0.000000 0.003909
# 5 -0.001462 0.002090 0.000350 0.000000 0.036072 0.000000
# 6 0.000000 0.000000 0.000000 0.003909 0.000000 0.037829
#
#
# Mechanical properties :
#
#
# Convention : Reuss Voigt Hill
#
# Bulk Modulus (GPa) = 43.24846 53.50492 48.37669
# Shear Modulus (GPa) = 27.46896 30.73117 29.10007
#
# Velocity S-wave (km/s) = 3.76071 3.97776 3.87076
# Velocity P-wave (km/s) = 6.41285 6.97459 6.69961
#
# Compressibility (1/GPa) = 0.02312221
#
# Stress axis : x y z
#
# Youngs Moduli (GPa) = 39.40941 88.07716 110.51315
#
# Poissons Ratio (x) = 0.63664 0.20657
# Poissons Ratio (y) = 0.28486 0.24644
# Poissons Ratio (z) = 0.07366 0.19641
#
# Static dielectric constant tensor:
#      x y z
#    x 4.049490 0.000000 0.299280 
#    y 0.000000 4.081920 0.000000 
#    z 0.299280 0.000000 3.849260 
# 
# 
# High freq. dielectric constant tensor:
#      x y z
#    x 1.743040 0.000000 -0.010310 
#    y 0.000000 1.747400 0.000000 
#    z -0.010310 0.000000 1.763440 
# 
# From -- ./inp_files/50664.got.cif
#   From: 2010.06.25/outbox.cif.g09.slc.cpg/sg11_26_cif.got.tgz:50664.got - 2010.06.27 23:14:04.
