data_PCOD8069858
_publ_section_title
;
Structure prediction by ZEFSAII (Michael W. Deem and Ramdas Pophale) SiO2 
 PCOD8069858
Probable space group: P 21/M
;
_chemical_formula_sum "Si O2"
_cell_formula_units_Z 32
_cell_length_a 11.786740
_cell_length_b 17.558125
_cell_length_c 13.939618
_cell_angle_alpha 90.000000
_cell_angle_beta 33.453902
_cell_angle_gamma 90.000000
_cell_volume 1590.317496
_symmetry_space_group_name_H-M "P 21/M"
_symmetry_group_IT_number 11
_symmetry_cell_setting 'monoclinic'
loop_
_space_group_symop_operation_xyz
x,y,z
-x,1/2+y,-z
-x,-y,-z
x,1/2-y,z
loop_
_atom_site_type_symbol
_atom_site_label
_atom_site_fract_x
_atom_site_fract_y
_atom_site_fract_z
Si Si1 0.399987 0.582153 0.430779
Si Si2 0.270048 0.162249 0.687357
Si Si3 0.423080 0.405668 0.386022
Si Si4 0.821117 0.661094 0.614365
Si Si5 0.679450 0.660432 0.919813
Si Si6 0.048918 0.662513 0.788535
Si Si7 0.294934 0.838191 0.308885
Si Si8 0.146612 0.663862 0.934264
O O1 0.622388 0.611131 0.307327
O O2 0.394914 0.491784 0.437526
O O3 0.343445 0.611117 0.365984
O O4 0.239388 0.611888 0.621994
O O5 0.311898 0.250000 0.684100
O O6 0.356013 0.147717 0.520884
O O7 0.024751 0.144793 0.864109
O O8 0.280488 0.388415 0.396379
O O9 0.660288 0.391694 0.190179
O O10 0.767021 0.750000 0.639054
O O11 0.733521 0.627807 0.776689
O O12 0.064717 0.647187 0.436037
O O13 0.702274 0.750000 0.896647
O O14 0.842115 0.630630 0.884276
O O15 0.449469 0.637081 0.114226
O O16 0.090360 0.750000 0.728825
O O17 0.028703 0.654072 0.916492
O O18 0.328551 0.750000 0.313346
O O19 0.229159 0.750000 0.887886
#
# Coordination Sequence:
#
# PCOD8069858 Si02
#       8
#     4   4   4   4   4   4   4   4
#     4  12  23  38  61  92 125 159 192 245 314 361
#     4  11  23  42  67  90 114 156 209 252 292 349
#     4  12  26  41  56  89 131 164 194 237 300 370
#     4  10  21  39  62  83 113 159 204 247 291 350
#     4   9  18  35  62  91 112 142 200 259 299 337
#     4  10  18  35  63  90 115 150 196 251 304 350
#     4  10  20  38  64  91 115 151 208 260 295 341
#     4  10  22  40  65  89 114 154 203 250 296 350
#
# _framework density 20.121766999999998
#
# number of rings (size 3 to 8) (size 9 to 14) (size 15 to 20)
#    0.000    1.500    2.500    3.375    0.000    4.000 
#    2.250    3.125    0.000    0.000    0.000    0.000 
#    0.000    0.000    0.000    0.000    0.000    0.000 
#
# Total GULP energy -396899.864893 kJ/mol
# GULP energy per Si atom -12403.120778 kJ/mol
# Density = 2.007597 g / cm^3
# Si number density = 20.121767 Si / 1000 Ang^3
#
#
#
# Elastic Constant Matrix: (Units=GPa)
#
#
# Indices 1 2 3 4 5 6 
#
# 1 82.3773 17.3863 23.8976 0.0000 -15.0054 0.0000
# 2 17.3863 57.7339 28.4023 0.0000 -4.9284 0.0000
# 3 23.8976 28.4023 125.7907 0.0000 -11.7767 0.0000
# 4 0.0000 0.0000 0.0000 8.7869 0.0000 -0.6729
# 5 -15.0054 -4.9284 -11.7767 0.0000 16.7584 0.0000
# 6 0.0000 0.0000 0.0000 -0.6729 0.0000 19.0123
#
#
#
# Elastic Compliance Matrix: (Units=1/GPa)
#
#
# Indices 1 2 3 4 5 6 
#
# 1 0.015289 -0.003040 -0.001092 0.000000 0.012028 0.000000
# 2 -0.003040 0.020215 -0.003945 0.000000 0.000451 0.000000
# 3 -0.001092 -0.003945 0.009471 0.000000 0.004518 0.000000
# 4 0.000000 0.000000 0.000000 0.114115 0.000000 0.004039
# 5 0.012028 0.000451 0.004518 0.000000 0.073749 0.000000
# 6 0.000000 0.000000 0.000000 0.004039 0.000000 0.052741
#
#
# Mechanical properties :
#
#
# Convention : Reuss Voigt Hill
#
# Bulk Modulus (GPa) = 34.69666 45.03048 39.86357
# Shear Modulus (GPa) = 16.05963 21.99256 19.02610
#
# Velocity S-wave (km/s) = 2.82817 3.30960 3.07831
# Velocity P-wave (km/s) = 5.28635 6.08541 5.69990
#
# Compressibility (1/GPa) = 0.02882122
#
# Stress axis : x y z
#
# Youngs Moduli (GPa) = 65.40804 49.46716 105.58776
#
# Poissons Ratio (x) = 0.15039 0.11530
# Poissons Ratio (y) = 0.19885 0.41651
# Poissons Ratio (z) = 0.07143 0.19513
#
# Static dielectric constant tensor:
#      x y z
#    x 3.633830 0.000000 0.031370 
#    y 0.000000 3.397000 0.000000 
#    z 0.031370 0.000000 3.924820 
# 
# 
# High freq. dielectric constant tensor:
#      x y z
#    x 1.783610 0.000000 -0.001590 
#    y 0.000000 1.757490 0.000000 
#    z -0.001590 0.000000 1.800770 
# 
# From -- ./inp_files/39992.got.cif
#   From: 2010.06.25/outbox.cif.g09.slc.cpg/sg11_20_cif.got.tgz:39992.got - 2010.06.27 23:14:04.
