data_PCOD8069838
_publ_section_title
;
Structure prediction by ZEFSAII (Michael W. Deem and Ramdas Pophale) SiO2 
 PCOD8069838
Probable space group: P 21/M
;
_chemical_formula_sum "Si O2"
_cell_formula_units_Z 32
_cell_length_a 23.251614
_cell_length_b 15.050367
_cell_length_c 9.193899
_cell_angle_alpha 90.000000
_cell_angle_beta 31.736716
_cell_angle_gamma 90.000000
_cell_volume 1692.386303
_symmetry_space_group_name_H-M "P 21/M"
_symmetry_group_IT_number 11
_symmetry_cell_setting 'monoclinic'
loop_
_space_group_symop_operation_xyz
x,y,z
-x,1/2+y,-z
-x,-y,-z
x,1/2-y,z
loop_
_atom_site_type_symbol
_atom_site_label
_atom_site_fract_x
_atom_site_fract_y
_atom_site_fract_z
Si Si1 0.808931 0.406233 0.586263
Si Si2 0.969196 0.847502 0.020156
Si Si3 0.147421 0.850164 0.208359
Si Si4 0.429963 0.850004 0.828063
Si Si5 0.612022 0.350110 0.410353
Si Si6 0.916280 0.148361 0.951810
Si Si7 0.432674 0.011668 0.289283
Si Si8 0.796503 0.510363 0.341965
O O1 0.852412 0.421120 0.659383
O O2 0.786829 0.495455 0.538710
O O3 0.693805 0.355193 0.844020
O O4 0.905084 0.350862 0.302374
O O5 0.921128 0.750000 0.090020
O O6 0.892991 0.919028 0.105028
O O7 0.974750 0.865033 0.183431
O O8 0.133050 0.750000 0.304366
O O9 0.056666 0.871247 0.278233
O O10 0.257702 0.856029 0.877424
O O11 0.470279 0.750000 0.766888
O O12 0.434897 0.874840 0.647530
O O13 0.514550 0.913181 0.725767
O O14 0.575817 0.250000 0.532695
O O15 0.566592 0.418575 0.626574
O O16 0.873927 0.250000 0.058210
O O17 0.822108 0.082989 0.211416
O O18 0.313352 0.045756 0.496033
O O19 0.500000 0.000000 0.000000
#
# Coordination Sequence:
#
# PCOD8069838 Si02
#       8
#     4   4   4   4   4   4   4   4
#     4  10  18  35  58  84 112 133 183 237 278 323
#     4  10  21  37  57  77 108 154 183 222 277 331
#     4   9  16  29  55  87 109 134 175 233 284 324
#     4  10  21  37  60  85 109 145 188 234 284 329
#     4   9  19  37  59  82 110 145 185 232 284 332
#     4   9  17  32  56  82 106 138 180 225 276 324
#     4  12  23  37  55  84 118 150 187 232 276 332
#     4  11  22  37  53  80 118 147 187 221 276 336
#
# _framework density 18.908213
#
# number of rings (size 3 to 8) (size 9 to 14) (size 15 to 20)
#    0.000    2.000    2.500    3.750    0.000    2.000 
#    0.000    2.500    0.000    0.000    0.000    0.000 
#    0.000    0.000    0.000    0.000    0.000    0.000 
#
# Total GULP energy -396436.594606 kJ/mol
# GULP energy per Si atom -12388.643581 kJ/mol
# Density = 1.886518 g / cm^3
# Si number density = 18.908213 Si / 1000 Ang^3
#
#
#
# Elastic Constant Matrix: (Units=GPa)
#
#
# Indices 1 2 3 4 5 6 
#
# 1 136.9546 65.0429 49.3080 0.0000 3.6526 0.0000
# 2 65.0429 92.2287 41.5648 0.0000 0.4318 0.0000
# 3 49.3080 41.5648 54.9348 0.0000 4.2668 0.0000
# 4 0.0000 0.0000 0.0000 18.0356 0.0000 1.2517
# 5 3.6526 0.4318 4.2668 0.0000 29.9053 0.0000
# 6 0.0000 0.0000 0.0000 1.2517 0.0000 27.4855
#
#
#
# Elastic Compliance Matrix: (Units=1/GPa)
#
#
# Indices 1 2 3 4 5 6 
#
# 1 0.012500 -0.005726 -0.006851 0.000000 -0.000467 0.000000
# 2 -0.005726 0.019147 -0.009486 0.000000 0.001776 0.000000
# 3 -0.006851 -0.009486 0.031807 0.000000 -0.003564 0.000000
# 4 0.000000 0.000000 0.000000 0.055622 0.000000 -0.002533
# 5 -0.000467 0.001776 -0.003564 0.000000 0.033979 0.000000
# 6 0.000000 0.000000 0.000000 -0.002533 0.000000 0.036498
#
#
# Mechanical properties :
#
#
# Convention : Reuss Voigt Hill
#
# Bulk Modulus (GPa) = 51.73712 66.21662 58.97687
# Shear Modulus (GPa) = 20.82273 23.63209 22.22741
#
# Velocity S-wave (km/s) = 3.32211 3.53913 3.43234
# Velocity P-wave (km/s) = 6.49129 7.19699 6.85323
#
# Compressibility (1/GPa) = 0.01932848
#
# Stress axis : x y z
#
# Youngs Moduli (GPa) = 79.99962 52.22678 31.43937
#
# Poissons Ratio (x) = 0.29903 0.21540
# Poissons Ratio (y) = 0.45804 0.29824
# Poissons Ratio (z) = 0.54811 0.49543
#
# Static dielectric constant tensor:
#      x y z
#    x 4.027960 0.000000 0.208260 
#    y 0.000000 3.291210 0.000000 
#    z 0.208260 0.000000 3.155860 
# 
# 
# High freq. dielectric constant tensor:
#      x y z
#    x 1.757510 0.000000 0.015430 
#    y 0.000000 1.718290 0.000000 
#    z 0.015430 0.000000 1.695600 
# 
# From -- ./inp_files/27771.got.cif
#   From: 2010.06.25/outbox.cif.g09.slc.cpg/sg11_14_cif.got.tgz:27771.got - 2010.06.27 23:14:04.
