data_PCOD8069207
_publ_section_title
;
Structure prediction by ZEFSAII (Michael W. Deem and Ramdas Pophale) SiO2 
 PCOD8069207
Probable space group: P 21/M
;
_chemical_formula_sum "Si O2"
_cell_formula_units_Z 32
_cell_length_a 14.178728
_cell_length_b 8.838485
_cell_length_c 24.368410
_cell_angle_alpha 90.000000
_cell_angle_beta 148.816960
_cell_angle_gamma 90.000000
_cell_volume 1581.183806
_symmetry_space_group_name_H-M "P 21/M"
_symmetry_group_IT_number 11
_symmetry_cell_setting 'monoclinic'
loop_
_space_group_symop_operation_xyz
x,y,z
-x,1/2+y,-z
-x,-y,-z
x,1/2-y,z
loop_
_atom_site_type_symbol
_atom_site_label
_atom_site_fract_x
_atom_site_fract_y
_atom_site_fract_z
Si Si1 0.193833 0.075461 0.451303
Si Si2 0.209651 0.927141 0.981695
Si Si3 0.166928 0.077218 0.319030
Si Si4 0.530548 0.928708 0.322030
Si Si5 0.784604 0.577856 0.775445
Si Si6 0.511405 0.428575 0.197758
Si Si7 0.790296 0.926485 0.129949
Si Si8 0.782860 0.071172 0.237303
O O1 0.185233 0.250000 0.462583
O O2 0.276850 0.052523 0.430758
O O3 0.327660 0.000948 0.562732
O O4 0.988127 0.010140 0.351419
O O5 0.245838 0.750000 0.998630
O O6 0.997143 0.965083 0.884263
O O7 0.289085 0.997913 0.964849
O O8 0.315920 0.000979 0.085462
O O9 0.085388 0.250000 0.277520
O O10 0.285111 0.054367 0.322563
O O11 0.005204 0.957072 0.238243
O O12 0.545062 0.750000 0.322646
O O13 0.326506 0.968927 0.239837
O O14 0.579108 0.006570 0.289105
O O15 0.752440 0.750000 0.778531
O O16 0.492433 0.250000 0.192286
O O17 0.659087 0.479594 0.226322
O O18 0.747164 0.750000 0.106343
O O19 0.702731 0.997446 0.141563
O O20 0.783085 0.250000 0.228844
#
# Coordination Sequence:
#
# PCOD8069207 Si02
#       8
#     4   4   4   4   4   4   4   4
#     4   8  16  34  58  82 110 146 183 218 267 328
#     4  10  21  39  61  82 110 147 181 221 275 329
#     4   8  15  32  56  80 111 148 182 219 268 325
#     4  11  23  37  55  80 111 147 186 229 274 323
#     4   9  19  36  58  82 109 144 182 222 272 326
#     4  11  24  40  58  80 106 141 189 237 274 318
#     4  10  18  30  54  88 118 141 174 221 270 326
#     4   9  19  38  60  80 109 148 183 221 272 325
#
# _framework density 20.238002000000002
#
# number of rings (size 3 to 8) (size 9 to 14) (size 15 to 20)
#    0.000    2.500    0.000    3.750    0.000    5.500 
#    0.000    5.000    0.000    0.000    0.000    0.000 
#    0.000    0.000    0.000    0.000    0.000    0.000 
#
# Total GULP energy -396664.338437 kJ/mol
# GULP energy per Si atom -12395.760576 kJ/mol
# Density = 2.019194 g / cm^3
# Si number density = 20.238002 Si / 1000 Ang^3
#
#
#
# Elastic Constant Matrix: (Units=GPa)
#
#
# Indices 1 2 3 4 5 6 
#
# 1 85.6999 20.2213 11.8408 0.0000 -10.3381 0.0000
# 2 20.2213 65.0701 14.0450 0.0000 -3.2834 0.0000
# 3 11.8408 14.0450 73.2410 0.0000 -17.2042 0.0000
# 4 0.0000 0.0000 0.0000 21.0052 0.0000 -6.0958
# 5 -10.3381 -3.2834 -17.2042 0.0000 29.2285 0.0000
# 6 0.0000 0.0000 0.0000 -6.0958 0.0000 30.0448
#
#
#
# Elastic Compliance Matrix: (Units=1/GPa)
#
#
# Indices 1 2 3 4 5 6 
#
# 1 0.013098 -0.003770 -0.000471 0.000000 0.003932 0.000000
# 2 -0.003770 0.017117 -0.002941 0.000000 -0.001142 0.000000
# 3 -0.000471 -0.002941 0.016452 0.000000 0.009187 0.000000
# 4 0.000000 0.000000 0.000000 0.050586 0.000000 0.010263
# 5 0.003932 -0.001142 0.009187 0.000000 0.040883 0.000000
# 6 0.000000 0.000000 0.000000 0.010263 0.000000 0.035366
#
#
# Mechanical properties :
#
#
# Convention : Reuss Voigt Hill
#
# Bulk Modulus (GPa) = 30.95811 35.13612 33.04711
# Shear Modulus (GPa) = 25.17214 27.91596 26.54405
#
# Velocity S-wave (km/s) = 3.53059 3.71803 3.62552
# Velocity P-wave (km/s) = 5.65246 5.98589 5.82156
#
# Compressibility (1/GPa) = 0.03230172
#
# Stress axis : x y z
#
# Youngs Moduli (GPa) = 76.34992 58.42190 60.78434
#
# Poissons Ratio (x) = 0.22026 0.02862
# Poissons Ratio (y) = 0.28785 0.17877
# Poissons Ratio (z) = 0.03595 0.17182
#
# Static dielectric constant tensor:
#      x y z
#    x 3.706840 0.000000 -0.249080 
#    y 0.000000 3.415970 0.000000 
#    z -0.249080 0.000000 3.751890 
# 
# 
# High freq. dielectric constant tensor:
#      x y z
#    x 1.789050 0.000000 -0.016710 
#    y 0.000000 1.774070 0.000000 
#    z -0.016710 0.000000 1.781810 
# 
# From -- ./inp_files/69129.got.cif
#   From: 2010.06.25/outbox.cif.g09.slc.cpg/sg11_35_cif.got.tgz:69129.got - 2010.06.27 23:14:04.
