data_PCOD8069146
_publ_section_title
;
Structure prediction by ZEFSAII (Michael W. Deem and Ramdas Pophale) SiO2 
 PCOD8069146
Probable space group: P 21/M
;
_chemical_formula_sum "Si O2"
_cell_formula_units_Z 20
_cell_length_a 10.243328
_cell_length_b 8.875538
_cell_length_c 21.596566
_cell_angle_alpha 90.000000
_cell_angle_beta 35.055781
_cell_angle_gamma 90.000000
_cell_volume 1127.755577
_symmetry_space_group_name_H-M "P 21/M"
_symmetry_group_IT_number 11
_symmetry_cell_setting 'monoclinic'
loop_
_space_group_symop_operation_xyz
x,y,z
-x,1/2+y,-z
-x,-y,-z
x,1/2-y,z
loop_
_atom_site_type_symbol
_atom_site_label
_atom_site_fract_x
_atom_site_fract_y
_atom_site_fract_z
Si Si1 0.951952 0.072158 0.228417
Si Si2 0.975434 0.073073 0.443197
Si Si3 0.221059 0.572119 0.238055
Si Si4 0.496423 0.073420 0.568356
Si Si5 0.629288 0.576817 0.004274
O O1 0.922100 0.250000 0.250909
O O2 0.102654 0.035488 0.107519
O O3 0.708287 0.996506 0.311865
O O4 0.066480 0.003429 0.245322
O O5 0.018684 0.250000 0.430596
O O6 0.727172 0.034225 0.513908
O O7 0.165642 0.000253 0.325378
O O8 0.000000 0.000000 0.500000
O O9 0.170288 0.750000 0.258757
O O10 0.492982 0.538274 0.120609
O O11 0.459414 0.250000 0.575194
O O12 0.500000 0.000000 0.500000
O O13 0.601418 0.750000 0.000773
O O14 0.500000 0.500000 0.000000
#
# Coordination Sequence:
#
# PCOD8069146 Si02
#       5
#     4   4   4   4   4
#     4  10  18  30  50  78 110 139 174 217 262 312
#     4  11  24  39  55  77 106 141 180 221 267 320
#     4  10  18  31  52  76 106 141 177 217 263 312
#     4  11  22  35  54  79 108 140 176 219 268 317
#     4   8  16  28  45  73 105 137 171 213 261 308
#
# _framework density 17.734341000000001
#
# number of rings (size 3 to 8) (size 9 to 14) (size 15 to 20)
#    0.000    2.000    2.000    2.400    0.000    4.000 
#    0.000    0.000    0.000    1.200    0.000    0.000 
#    0.000    0.000    0.000    0.000    0.000    0.000 
#
# Total GULP energy -247812.587028 kJ/mol
# GULP energy per Si atom -12390.629351 kJ/mol
# Density = 1.769398 g / cm^3
# Si number density = 17.734341 Si / 1000 Ang^3
#
#
#
# Elastic Constant Matrix: (Units=GPa)
#
#
# Indices 1 2 3 4 5 6 
#
# 1 73.8417 48.9197 59.8204 0.0000 7.5879 0.0000
# 2 48.9197 92.8193 74.1805 0.0000 -0.3629 0.0000
# 3 59.8204 74.1805 196.0045 0.0000 3.6147 0.0000
# 4 0.0000 0.0000 0.0000 31.6292 0.0000 -0.6813
# 5 7.5879 -0.3629 3.6147 0.0000 19.8373 0.0000
# 6 0.0000 0.0000 0.0000 -0.6813 0.0000 23.8416
#
#
#
# Elastic Compliance Matrix: (Units=1/GPa)
#
#
# Indices 1 2 3 4 5 6 
#
# 1 0.023641 -0.009826 -0.003338 0.000000 -0.008615 0.000000
# 2 -0.009826 0.019566 -0.004497 0.000000 0.004936 0.000000
# 3 -0.003338 -0.004497 0.007827 0.000000 -0.000232 0.000000
# 4 0.000000 0.000000 0.000000 0.031636 0.000000 0.000904
# 5 -0.008615 0.004936 -0.000232 0.000000 0.053838 0.000000
# 6 0.000000 0.000000 0.000000 0.000904 0.000000 0.041969
#
#
# Mechanical properties :
#
#
# Convention : Reuss Voigt Hill
#
# Bulk Modulus (GPa) = 63.64485 80.94517 72.29501
# Shear Modulus (GPa) = 22.82733 27.04462 24.93598
#
# Velocity S-wave (km/s) = 3.59162 3.90934 3.75385
# Velocity P-wave (km/s) = 7.29147 8.13139 7.72286
#
# Compressibility (1/GPa) = 0.01571219
#
# Stress axis : x y z
#
# Youngs Moduli (GPa) = 42.29872 51.10978 127.76704
#
# Poissons Ratio (x) = 0.50222 0.42643
# Poissons Ratio (y) = 0.41564 0.57456
# Poissons Ratio (z) = 0.14117 0.22984
#
# Static dielectric constant tensor:
#      x y z
#    x 3.177140 0.000000 -0.521010 
#    y 0.000000 3.511470 0.000000 
#    z -0.521010 0.000000 4.833780 
# 
# 
# High freq. dielectric constant tensor:
#      x y z
#    x 1.624030 0.000000 -0.003990 
#    y 0.000000 1.704990 0.000000 
#    z -0.003990 0.000000 1.719020 
# 
# From -- ./inp_files/15921.got.cif
#   From: 2010.06.25/outbox.cif.g09.slc.cpg/sg11_8_cif.got.tgz:15921.got - 2010.06.27 23:14:04.
