data_PCOD8069519
_publ_section_title
;
Structure prediction by ZEFSAII (Michael W. Deem and Ramdas Pophale) SiO2 
 PCOD8069519
Probable space group: P 21/M
;
_chemical_formula_sum "Si O2"
_cell_formula_units_Z 32
_cell_length_a 13.657189
_cell_length_b 14.567502
_cell_length_c 21.122075
_cell_angle_alpha 90.000000
_cell_angle_beta 155.500411
_cell_angle_gamma 90.000000
_cell_volume 1742.621665
_symmetry_space_group_name_H-M "P 21/M"
_symmetry_group_IT_number 11
_symmetry_cell_setting 'monoclinic'
loop_
_space_group_symop_operation_xyz
x,y,z
-x,1/2+y,-z
-x,-y,-z
x,1/2-y,z
loop_
_atom_site_type_symbol
_atom_site_label
_atom_site_fract_x
_atom_site_fract_y
_atom_site_fract_z
Si Si1 0.771608 0.140979 0.970715
Si Si2 0.666458 0.858870 0.494877
Si Si3 0.407481 0.853737 0.593074
Si Si4 0.367716 0.489517 0.746109
Si Si5 0.903843 0.511098 0.542818
Si Si6 0.321414 0.146378 0.119452
Si Si7 0.811881 0.358779 0.851354
Si Si8 0.255231 0.141159 0.316613
O O1 0.738904 0.250000 0.954717
O O2 0.541294 0.094081 0.865995
O O3 0.790588 0.102744 0.910058
O O4 0.000404 0.106230 0.143474
O O5 0.695628 0.750000 0.505885
O O6 0.409668 0.893028 0.320174
O O7 0.696641 0.893453 0.584281
O O8 0.866489 0.905218 0.569348
O O9 0.313933 0.750000 0.527810
O O10 0.183766 0.916057 0.478030
O O11 0.602085 0.856090 0.762522
O O12 0.535159 0.894374 0.605698
O O13 0.234064 0.465274 0.602576
O O14 0.513423 0.583963 0.826856
O O15 0.181877 0.501237 0.693529
O O16 0.338642 0.250000 0.102847
O O17 0.052952 0.108000 0.959519
O O18 0.819702 0.250000 0.860642
O O19 0.256988 0.250000 0.313327
#
# Coordination Sequence:
#
# PCOD8069519 Si02
#       8
#     4   4   4   4   4   4   4   4
#     4  10  18  32  54  78 103 131 169 215 254 301
#     4  10  20  34  53  78 108 135 161 210 265 305
#     4   9  17  32  52  73 102 135 167 211 257 302
#     4  10  21  33  49  75 103 139 179 211 248 298
#     4  10  21  34  48  74 106 137 179 211 245 307
#     4   9  17  31  51  75 103 132 167 212 257 304
#     4   9  16  29  51  78 103 127 162 208 260 305
#     4   9  18  33  54  79 104 133 169 205 258 318
#
# _framework density 18.363136999999998
#
# number of rings (size 3 to 8) (size 9 to 14) (size 15 to 20)
#    0.000    2.500    2.500    0.000    0.000    3.000 
#    0.000    3.125    0.000    0.000    0.000    5.250 
#    0.000    0.000    0.000    0.000    0.000    0.000 
#
# Total GULP energy -396825.118310 kJ/mol
# GULP energy per Si atom -12400.784947 kJ/mol
# Density = 1.832134 g / cm^3
# Si number density = 18.363137 Si / 1000 Ang^3
#
#
#
# Elastic Constant Matrix: (Units=GPa)
#
#
# Indices 1 2 3 4 5 6 
#
# 1 140.8151 49.7886 76.9320 0.0000 23.9844 0.0000
# 2 49.7886 61.5615 34.7599 0.0000 8.5288 0.0000
# 3 76.9320 34.7599 112.9923 0.0000 9.6349 0.0000
# 4 0.0000 0.0000 0.0000 19.6707 0.0000 7.7600
# 5 23.9844 8.5288 9.6349 0.0000 34.0307 0.0000
# 6 0.0000 0.0000 0.0000 7.7600 0.0000 26.4520
#
#
#
# Elastic Compliance Matrix: (Units=1/GPa)
#
#
# Indices 1 2 3 4 5 6 
#
# 1 0.014596 -0.006782 -0.007295 0.000000 -0.006522 0.000000
# 2 -0.006782 0.023177 -0.002485 0.000000 -0.000325 0.000000
# 3 -0.007295 -0.002485 0.014439 0.000000 0.001676 0.000000
# 4 0.000000 0.000000 0.000000 0.057491 0.000000 -0.016866
# 5 -0.006522 -0.000325 0.001676 0.000000 0.033589 0.000000
# 6 0.000000 0.000000 0.000000 -0.016866 0.000000 0.042752
#
#
# Mechanical properties :
#
#
# Convention : Reuss Voigt Hill
#
# Bulk Modulus (GPa) = 52.38979 70.92554 61.65767
# Shear Modulus (GPa) = 22.17007 26.28989 24.22998
#
# Velocity S-wave (km/s) = 3.47841 3.78784 3.63642
# Velocity P-wave (km/s) = 6.68762 7.60513 7.16109
#
# Compressibility (1/GPa) = 0.01908769
#
# Stress axis : x y z
#
# Youngs Moduli (GPa) = 68.51216 43.14647 69.25831
#
# Poissons Ratio (x) = 0.29261 0.50526
# Poissons Ratio (y) = 0.46464 0.17208
# Poissons Ratio (z) = 0.49982 0.10720
#
# Static dielectric constant tensor:
#      x y z
#    x 3.317100 0.000000 0.060570 
#    y 0.000000 3.303080 0.000000 
#    z 0.060570 0.000000 3.384000 
# 
# 
# High freq. dielectric constant tensor:
#      x y z
#    x 1.694030 0.000000 0.012740 
#    y 0.000000 1.710950 0.000000 
#    z 0.012740 0.000000 1.695540 
# 
# From -- ./inp_files/59525.got.cif
#   From: 2010.06.25/outbox.cif.g09.slc.cpg/sg11_30_cif.got.tgz:59525.got - 2010.06.27 23:14:04.
