data_PCOD8069263
_publ_section_title
;
Structure prediction by ZEFSAII (Michael W. Deem and Ramdas Pophale) SiO2 
 PCOD8069263
Probable space group: P 21/M
;
_chemical_formula_sum "Si O2"
_cell_formula_units_Z 32
_cell_length_a 27.537373
_cell_length_b 8.974710
_cell_length_c 21.360510
_cell_angle_alpha 90.000000
_cell_angle_beta 161.169957
_cell_angle_gamma 90.000000
_cell_volume 1703.872060
_symmetry_space_group_name_H-M "P 21/M"
_symmetry_group_IT_number 11
_symmetry_cell_setting 'monoclinic'
loop_
_space_group_symop_operation_xyz
x,y,z
-x,1/2+y,-z
-x,-y,-z
x,1/2-y,z
loop_
_atom_site_type_symbol
_atom_site_label
_atom_site_fract_x
_atom_site_fract_y
_atom_site_fract_z
Si Si1 0.940879 0.424238 0.023169
Si Si2 0.068620 0.573597 0.406177
Si Si3 0.837713 0.927370 0.021788
Si Si4 0.788637 0.423686 0.706849
Si Si5 0.089872 0.074518 0.663931
Si Si6 0.424264 0.073808 0.086198
Si Si7 0.459552 0.073218 0.268405
Si Si8 0.592907 0.427923 0.169996
O O1 0.955991 0.250000 0.054239
O O2 0.841022 0.460724 0.840637
O O3 0.852546 0.499830 0.972170
O O4 0.108012 0.490717 0.217552
O O5 0.076450 0.750000 0.414659
O O6 0.236578 0.511026 0.620645
O O7 0.983816 0.519823 0.239884
O O8 0.969910 0.514708 0.343058
O O9 0.833098 0.750000 0.009098
O O10 0.683755 0.986201 0.866867
O O11 0.803728 0.250000 0.709221
O O12 0.615778 0.477389 0.490897
O O13 0.070877 0.250000 0.635799
O O14 0.260069 0.022132 0.864904
O O15 0.000000 0.000000 0.500000
O O16 0.434823 0.250000 0.104333
O O17 0.461148 0.006426 0.199689
O O18 0.532864 0.016035 0.164021
O O19 0.445746 0.250000 0.248364
O O20 0.581959 0.250000 0.149432
O O21 0.500000 0.500000 0.000000
#
# Coordination Sequence:
#
# PCOD8069263 Si02
#       8
#     4   4   4   4   4   4   4   4
#     4  10  21  36  53  81 116 143 173 217 265 316
#     4   9  18  32  51  75 100 130 173 216 253 304
#     4  10  19  34  57  82 106 139 182 223 262 312
#     4   9  19  36  59  82 106 142 183 217 258 313
#     4  10  18  31  50  72  98 129 165 208 255 304
#     4   9  17  30  50  75  99 126 168 218 257 295
#     4   9  17  32  56  83 105 132 181 230 258 301
#     4  10  20  33  50  73 100 131 169 215 263 310
#
# _framework density 18.780753000000001
#
# number of rings (size 3 to 8) (size 9 to 14) (size 15 to 20)
#    0.000    2.500    1.250    1.125    1.750    1.000 
#    0.000    1.875    0.000    1.500    0.000    0.000 
#    0.000    0.000    0.000    0.000    0.000    0.000 
#
# Total GULP energy -396697.190798 kJ/mol
# GULP energy per Si atom -12396.787212 kJ/mol
# Density = 1.873801 g / cm^3
# Si number density = 18.780753 Si / 1000 Ang^3
#
#
#
# Elastic Constant Matrix: (Units=GPa)
#
#
# Indices 1 2 3 4 5 6 
#
# 1 114.2187 30.5026 47.5115 0.0000 2.7304 0.0000
# 2 30.5026 29.3798 29.1984 0.0000 -0.0239 0.0000
# 3 47.5115 29.1984 128.2796 0.0000 5.3217 0.0000
# 4 0.0000 0.0000 0.0000 20.6552 0.0000 -4.4687
# 5 2.7304 -0.0239 5.3217 0.0000 31.0297 0.0000
# 6 0.0000 0.0000 0.0000 -4.4687 0.0000 22.8289
#
#
#
# Elastic Compliance Matrix: (Units=1/GPa)
#
#
# Indices 1 2 3 4 5 6 
#
# 1 0.012585 -0.010939 -0.002140 0.000000 -0.000749 0.000000
# 2 -0.010939 0.053593 -0.008247 0.000000 0.002418 0.000000
# 3 -0.002140 -0.008247 0.010533 0.000000 -0.001624 0.000000
# 4 0.000000 0.000000 0.000000 0.050555 0.000000 0.009896
# 5 -0.000749 0.002418 -0.001624 0.000000 0.032574 0.000000
# 6 0.000000 0.000000 0.000000 0.009896 0.000000 0.045741
#
#
# Mechanical properties :
#
#
# Convention : Reuss Voigt Hill
#
# Bulk Modulus (GPa) = 29.36271 54.03368 41.69820
# Shear Modulus (GPa) = 19.26152 25.88045 22.57099
#
# Velocity S-wave (km/s) = 3.20597 3.71621 3.47048
# Velocity P-wave (km/s) = 5.41966 6.87364 6.18949
#
# Compressibility (1/GPa) = 0.03405680
#
# Stress axis : x y z
#
# Youngs Moduli (GPa) = 79.46216 18.65931 94.94295
#
# Poissons Ratio (x) = 0.20412 0.20318
# Poissons Ratio (y) = 0.86926 0.78301
# Poissons Ratio (z) = 0.17005 0.15389
#
# Static dielectric constant tensor:
#      x y z
#    x 6.007020 0.000000 0.587490 
#    y 0.000000 3.058440 0.000000 
#    z 0.587490 0.000000 3.780390 
# 
# 
# High freq. dielectric constant tensor:
#      x y z
#    x 1.742740 0.000000 0.002330 
#    y 0.000000 1.680410 0.000000 
#    z 0.002330 0.000000 1.742780 
# 
# From -- ./inp_files/67268.got.cif
#   From: 2010.06.25/outbox.cif.g09.slc.cpg/sg11_34_cif.got.tgz:67268.got - 2010.06.27 23:14:04.
