data_PCOD8069751
_publ_section_title
;
Structure prediction by ZEFSAII (Michael W. Deem and Ramdas Pophale) SiO2 
 PCOD8069751
Probable space group: P 21/M
;
_chemical_formula_sum "Si O2"
_cell_formula_units_Z 28
_cell_length_a 8.837461
_cell_length_b 18.477094
_cell_length_c 14.641828
_cell_angle_alpha 90.000000
_cell_angle_beta 37.148024
_cell_angle_gamma 90.000000
_cell_volume 1443.791428
_symmetry_space_group_name_H-M "P 21/M"
_symmetry_group_IT_number 11
_symmetry_cell_setting 'monoclinic'
loop_
_space_group_symop_operation_xyz
x,y,z
-x,1/2+y,-z
-x,-y,-z
x,1/2-y,z
loop_
_atom_site_type_symbol
_atom_site_label
_atom_site_fract_x
_atom_site_fract_y
_atom_site_fract_z
Si Si1 0.721219 0.492795 0.519602
Si Si2 0.170661 0.525860 0.739468
Si Si3 0.644297 0.829857 0.768148
Si Si4 0.046116 0.608537 0.462060
Si Si5 0.579629 0.402736 0.870413
Si Si6 0.682779 0.051126 0.018259
Si Si7 0.107381 0.167061 0.158041
O O1 0.427276 0.510478 0.667998
O O2 0.819342 0.502044 0.369388
O O3 0.778227 0.413961 0.535788
O O4 0.868262 0.545074 0.514625
O O5 0.116033 0.612172 0.761858
O O6 0.961085 0.481301 0.897867
O O7 0.525192 0.750000 0.831262
O O8 0.415524 0.887506 0.863102
O O9 0.797440 0.850278 0.785920
O O10 0.851351 0.829816 0.587830
O O11 0.221131 0.633207 0.294230
O O12 0.515247 0.485868 0.876126
O O13 0.688319 0.406645 0.919583
O O14 0.339809 0.350219 0.979474
O O15 0.016319 0.250000 0.190009
#
# Coordination Sequence:
#
# PCOD8069751 Si02
#       7
#     4   4   4   4   4   4   4
#     4  10  20  30  55  80 108 131 173 220 274 309
#     4  10  18  34  54  82 102 140 180 223 257 316
#     4  10  20  33  53  76 107 145 177 212 271 328
#     4  11  19  34  50  83 108 136 166 228 269 312
#     4   9  17  28  54  78 102 134 175 215 260 303
#     4   9  16  32  51  76 101 135 178 217 251 309
#     4   9  18  34  54  77 105 143 179 214 261 324
#
# _framework density 19.393383
#
# number of rings (size 3 to 8) (size 9 to 14) (size 15 to 20)
#    0.000    2.286    2.857    2.571    0.000    0.571 
#    0.000    7.143    0.000    4.286    0.000    0.000 
#    0.000    0.000    0.000    0.000    0.000    0.000 
#
# Total GULP energy -346924.155126 kJ/mol
# GULP energy per Si atom -12390.148397 kJ/mol
# Density = 1.934924 g / cm^3
# Si number density = 19.393383 Si / 1000 Ang^3
#
#
#
# Elastic Constant Matrix: (Units=GPa)
#
#
# Indices 1 2 3 4 5 6 
#
# 1 54.8918 17.6975 18.0072 0.0000 -14.1593 0.0000
# 2 17.6975 93.8646 38.2061 0.0000 -14.1991 0.0000
# 3 18.0072 38.2061 131.7366 0.0000 -7.9083 0.0000
# 4 0.0000 0.0000 0.0000 24.1188 0.0000 -4.3784
# 5 -14.1593 -14.1991 -7.9083 0.0000 26.3086 0.0000
# 6 0.0000 0.0000 0.0000 -4.3784 0.0000 7.9896
#
#
#
# Elastic Compliance Matrix: (Units=1/GPa)
#
#
# Indices 1 2 3 4 5 6 
#
# 1 0.022089 -0.001843 -0.001865 0.000000 0.010333 0.000000
# 2 -0.001843 0.013091 -0.003239 0.000000 0.005100 0.000000
# 3 -0.001865 -0.003239 0.008778 0.000000 -0.000113 0.000000
# 4 0.000000 0.000000 0.000000 0.046042 0.000000 0.025232
# 5 0.010333 0.005100 -0.000113 0.000000 0.046290 0.000000
# 6 0.000000 0.000000 0.000000 0.025232 0.000000 0.138991
#
#
# Mechanical properties :
#
#
# Convention : Reuss Voigt Hill
#
# Bulk Modulus (GPa) = 33.25982 47.59051 40.42517
# Shear Modulus (GPa) = 16.71155 25.45555 21.08355
#
# Velocity S-wave (km/s) = 2.93868 3.62690 3.30078
# Velocity P-wave (km/s) = 5.35740 6.49092 5.95121
#
# Compressibility (1/GPa) = 0.03006630
#
# Stress axis : x y z
#
# Youngs Moduli (GPa) = 45.27165 76.38986 113.91783
#
# Poissons Ratio (x) = 0.14076 0.21242
# Poissons Ratio (y) = 0.08342 0.36893
# Poissons Ratio (z) = 0.08442 0.24739
#
# Static dielectric constant tensor:
#      x y z
#    x 3.211790 0.000000 -0.027720 
#    y 0.000000 3.306360 0.000000 
#    z -0.027720 0.000000 3.752300 
# 
# 
# High freq. dielectric constant tensor:
#      x y z
#    x 1.718840 0.000000 0.002280 
#    y 0.000000 1.729140 0.000000 
#    z 0.002280 0.000000 1.769930 
# 
# From -- ./inp_files/47977.got.cif
#   From: 2010.06.25/outbox.cif.g09.slc.cpg/sg11_24_cif.got.tgz:47977.got - 2010.06.27 23:14:04.
