data_PCOD8069454
_publ_section_title
;
Structure prediction by ZEFSAII (Michael W. Deem and Ramdas Pophale) SiO2 
 PCOD8069454
Probable space group: P 21/M
;
_chemical_formula_sum "Si O2"
_cell_formula_units_Z 32
_cell_length_a 21.299135
_cell_length_b 8.682822
_cell_length_c 15.599120
_cell_angle_alpha 90.000000
_cell_angle_beta 41.824651
_cell_angle_gamma 90.000000
_cell_volume 1923.770078
_symmetry_space_group_name_H-M "P 21/M"
_symmetry_group_IT_number 11
_symmetry_cell_setting 'monoclinic'
loop_
_space_group_symop_operation_xyz
x,y,z
-x,1/2+y,-z
-x,-y,-z
x,1/2-y,z
loop_
_atom_site_type_symbol
_atom_site_label
_atom_site_fract_x
_atom_site_fract_y
_atom_site_fract_z
Si Si1 0.606361 0.072694 0.991059
Si Si2 0.398147 0.073990 0.184677
Si Si3 0.877256 0.432258 0.950732
Si Si4 0.784179 0.930175 0.883506
Si Si5 0.102487 0.568991 0.387033
Si Si6 0.908145 0.568945 0.277679
Si Si7 0.897011 0.931510 0.102527
Si Si8 0.201230 0.428736 0.447964
O O1 0.633073 0.250000 0.979239
O O2 0.619893 0.036881 0.877080
O O3 0.674755 0.968978 0.978903
O O4 0.498142 0.036589 0.127987
O O5 0.399084 0.250000 0.149453
O O6 0.314375 0.050069 0.338662
O O7 0.868937 0.250000 0.950201
O O8 0.809607 0.514038 0.952298
O O9 0.984450 0.493160 0.827410
O O10 0.841243 0.484209 0.082282
O O11 0.800676 0.750000 0.857598
O O12 0.850728 0.014842 0.748362
O O13 0.093309 0.750000 0.393238
O O14 0.165763 0.520118 0.402142
O O15 0.000000 0.500000 0.500000
O O16 0.914132 0.750000 0.282904
O O17 0.856587 0.531017 0.239158
O O18 0.845911 0.499575 0.418464
O O19 0.899497 0.750000 0.082522
O O20 0.000000 0.000000 0.000000
O O21 0.174084 0.250000 0.464097
#
# Coordination Sequence:
#
# PCOD8069454 Si02
#       8
#     4   4   4   4   4   4   4   4
#     4  10  19  32  49  70  96 126 161 205 250 293
#     4   9  18  31  50  72  95 125 163 204 248 293
#     4  10  19  32  49  71  98 130 164 202 247 295
#     4  12  23  35  50  71  96 129 167 205 247 297
#     4  12  24  36  48  67  97 135 169 202 238 284
#     4   8  16  29  48  71  97 127 159 195 238 285
#     4   9  16  29  47  69  96 128 164 203 244 286
#     4  10  18  32  51  72  97 128 165 203 241 288
#
# _framework density 16.634004000000001
#
# number of rings (size 3 to 8) (size 9 to 14) (size 15 to 20)
#    0.000    2.000    1.250    4.875    0.000    1.500 
#    0.000    3.125    0.000    0.000    0.000    0.875 
#    0.000    0.000    0.000    0.000    0.000    0.000 
#
# Total GULP energy -396682.642850 kJ/mol
# GULP energy per Si atom -12396.332589 kJ/mol
# Density = 1.659614 g / cm^3
# Si number density = 16.634004 Si / 1000 Ang^3
#
#
#
# Elastic Constant Matrix: (Units=GPa)
#
#
# Indices 1 2 3 4 5 6 
#
# 1 102.4629 28.8122 43.0041 0.0000 1.6154 0.0000
# 2 28.8122 78.1140 19.1907 0.0000 -2.2073 0.0000
# 3 43.0041 19.1907 47.9853 0.0000 -6.4883 0.0000
# 4 0.0000 0.0000 0.0000 17.9955 0.0000 0.3265
# 5 1.6154 -2.2073 -6.4883 0.0000 26.3701 0.0000
# 6 0.0000 0.0000 0.0000 0.3265 0.0000 26.1542
#
#
#
# Elastic Compliance Matrix: (Units=1/GPa)
#
#
# Indices 1 2 3 4 5 6 
#
# 1 0.016700 -0.002727 -0.014529 0.000000 -0.004826 0.000000
# 2 -0.002727 0.014643 -0.003335 0.000000 0.000572 0.000000
# 3 -0.014529 -0.003335 0.036491 0.000000 0.009589 0.000000
# 4 0.000000 0.000000 0.000000 0.055582 0.000000 -0.000694
# 5 -0.004826 0.000572 0.009589 0.000000 0.040625 0.000000
# 6 0.000000 0.000000 0.000000 -0.000694 0.000000 0.038243
#
#
# Mechanical properties :
#
#
# Convention : Reuss Voigt Hill
#
# Bulk Modulus (GPa) = 37.51944 45.61958 41.56951
# Shear Modulus (GPa) = 19.81381 23.27431 21.54406
#
# Velocity S-wave (km/s) = 3.45507 3.74465 3.60277
# Velocity P-wave (km/s) = 6.20657 6.79570 6.50780
#
# Compressibility (1/GPa) = 0.02665285
#
# Stress axis : x y z
#
# Youngs Moduli (GPa) = 59.87939 68.29151 27.40435
#
# Poissons Ratio (x) = 0.18622 0.39815
# Poissons Ratio (y) = 0.16329 0.09139
# Poissons Ratio (z) = 0.86997 0.22775
#
# Static dielectric constant tensor:
#      x y z
#    x 3.264550 0.000000 0.109660 
#    y 0.000000 3.202040 0.000000 
#    z 0.109660 0.000000 3.358530 
# 
# 
# High freq. dielectric constant tensor:
#      x y z
#    x 1.630300 0.000000 0.004000 
#    y 0.000000 1.644300 0.000000 
#    z 0.004000 0.000000 1.620700 
# 
# From -- ./inp_files/54262.got.cif
#   From: 2010.06.25/outbox.cif.g09.slc.cpg/sg11_28_cif.got.tgz:54262.got - 2010.06.27 23:14:04.
