data_PCOD8069677
_publ_section_title
;
Structure prediction by ZEFSAII (Michael W. Deem and Ramdas Pophale) SiO2 
 PCOD8069677
Probable space group: P 21/M
;
_chemical_formula_sum "Si O2"
_cell_formula_units_Z 32
_cell_length_a 14.262394
_cell_length_b 8.742356
_cell_length_c 14.326607
_cell_angle_alpha 90.000000
_cell_angle_beta 118.738014
_cell_angle_gamma 90.000000
_cell_volume 1566.312293
_symmetry_space_group_name_H-M "P 21/M"
_symmetry_group_IT_number 11
_symmetry_cell_setting 'monoclinic'
loop_
_space_group_symop_operation_xyz
x,y,z
-x,1/2+y,-z
-x,-y,-z
x,1/2-y,z
loop_
_atom_site_type_symbol
_atom_site_label
_atom_site_fract_x
_atom_site_fract_y
_atom_site_fract_z
Si Si1 0.343305 0.566180 0.675493
Si Si2 0.397129 0.433642 0.901098
Si Si3 0.892395 0.082075 0.422235
Si Si4 0.962342 0.081257 0.253468
Si Si5 0.114878 0.431696 0.079600
Si Si6 0.189298 0.428220 0.315408
Si Si7 0.792233 0.926772 0.062461
Si Si8 0.403450 0.433375 0.513159
O O1 0.348342 0.750000 0.681826
O O2 0.390639 0.498745 0.793397
O O3 0.220333 0.506421 0.602068
O O4 0.411239 0.500816 0.621584
O O5 0.399738 0.250000 0.897925
O O6 0.300269 0.501937 0.918550
O O7 0.500000 0.500000 0.000000
O O8 0.899299 0.250000 0.469788
O O9 0.890048 0.086704 0.309841
O O10 0.000000 0.000000 0.500000
O O11 0.963368 0.250000 0.206388
O O12 0.086399 0.035220 0.332443
O O13 0.910055 0.962224 0.158166
O O14 0.100998 0.250000 0.075807
O O15 0.161700 0.495748 0.199713
O O16 0.203455 0.479617 0.043669
O O17 0.000000 0.500000 0.000000
O O18 0.212209 0.250000 0.317122
O O19 0.295077 0.499123 0.412785
O O20 0.769955 0.750000 0.057858
O O21 0.500000 0.500000 0.500000
O O22 0.408249 0.250000 0.519463
#
# Coordination Sequence:
#
# PCOD8069677 Si02
#       8
#     4   4   4   4   4   4   4   4
#     4  11  23  42  66  93 124 162 208 261 318 377
#     4  11  24  42  64  92 127 167 211 260 314 375
#     4  10  21  34  55  87 122 161 204 251 307 371
#     4  10  18  33  56  83 116 156 198 241 297 364
#     4  10  19  34  56  85 119 158 199 241 298 363
#     4   9  19  35  59  87 121 163 204 247 307 370
#     4  10  21  35  55  86 121 157 197 246 306 359
#     4  11  24  44  67  91 122 164 212 263 316 374
#
# _framework density 20.430153000000001
#
# number of rings (size 3 to 8) (size 9 to 14) (size 15 to 20)
#    0.000    1.750    2.500    1.875    0.000    4.000 
#    0.000    5.000    0.000    0.000    0.000    0.000 
#    0.000    0.000    0.000    0.000    0.000    0.000 
#
# Total GULP energy -396557.454863 kJ/mol
# GULP energy per Si atom -12392.420464 kJ/mol
# Density = 2.038365 g / cm^3
# Si number density = 20.430153 Si / 1000 Ang^3
#
#
#
# Elastic Constant Matrix: (Units=GPa)
#
#
# Indices 1 2 3 4 5 6 
#
# 1 149.4498 35.1362 59.6992 0.0000 -8.5018 0.0000
# 2 35.1362 49.1631 33.6334 0.0000 -4.4854 0.0000
# 3 59.6992 33.6334 110.6384 0.0000 0.8592 0.0000
# 4 0.0000 0.0000 0.0000 29.0014 0.0000 3.2628
# 5 -8.5018 -4.4854 0.8592 0.0000 37.0586 0.0000
# 6 0.0000 0.0000 0.0000 3.2628 0.0000 27.2685
#
#
#
# Elastic Compliance Matrix: (Units=1/GPa)
#
#
# Indices 1 2 3 4 5 6 
#
# 1 0.009215 -0.003808 -0.003828 0.000000 0.001742 0.000000
# 2 -0.003808 0.027662 -0.006375 0.000000 0.002622 0.000000
# 3 -0.003828 -0.006375 0.013057 0.000000 -0.001953 0.000000
# 4 0.000000 0.000000 0.000000 0.034952 0.000000 -0.004182
# 5 0.001742 0.002622 -0.001953 0.000000 0.027747 0.000000
# 6 0.000000 0.000000 0.000000 -0.004182 0.000000 0.037173
#
#
# Mechanical properties :
#
#
# Convention : Reuss Voigt Hill
#
# Bulk Modulus (GPa) = 45.63601 62.90986 54.27293
# Shear Modulus (GPa) = 27.00792 30.71787 28.86289
#
# Velocity S-wave (km/s) = 3.63983 3.88178 3.76275
# Velocity P-wave (km/s) = 6.32855 7.13796 6.74540
#
# Compressibility (1/GPa) = 0.02191252
#
# Stress axis : x y z
#
# Youngs Moduli (GPa) = 108.52204 36.15032 76.58639
#
# Poissons Ratio (x) = 0.13765 0.29318
# Poissons Ratio (y) = 0.41323 0.48823
# Poissons Ratio (z) = 0.41544 0.23045
#
# Static dielectric constant tensor:
#      x y z
#    x 4.058850 0.000000 -0.218260 
#    y 0.000000 3.558770 0.000000 
#    z -0.218260 0.000000 3.849410 
# 
# 
# High freq. dielectric constant tensor:
#      x y z
#    x 1.811170 0.000000 -0.011470 
#    y 0.000000 1.777210 0.000000 
#    z -0.011470 0.000000 1.799660 
# 
# From -- ./inp_files/51746.got.cif
#   From: 2010.06.25/outbox.cif.g09.slc.cpg/sg11_26_cif.got.tgz:51746.got - 2010.06.27 23:14:04.
