data_PCOD8069086
_publ_section_title
;
Structure prediction by ZEFSAII (Michael W. Deem and Ramdas Pophale) SiO2 
 PCOD8069086
Probable space group: P 21/M
;
_chemical_formula_sum "Si O2"
_cell_formula_units_Z 32
_cell_length_a 29.913070
_cell_length_b 9.411197
_cell_length_c 23.679690
_cell_angle_alpha 90.000000
_cell_angle_beta 163.891556
_cell_angle_gamma 90.000000
_cell_volume 1849.593837
_symmetry_space_group_name_H-M "P 21/M"
_symmetry_group_IT_number 11
_symmetry_cell_setting 'monoclinic'
loop_
_space_group_symop_operation_xyz
x,y,z
-x,1/2+y,-z
-x,-y,-z
x,1/2-y,z
loop_
_atom_site_type_symbol
_atom_site_label
_atom_site_fract_x
_atom_site_fract_y
_atom_site_fract_z
Si Si1 0.287748 0.913700 0.008521
Si Si2 0.588483 0.912821 0.154876
Si Si3 0.388018 0.088616 0.235191
Si Si4 0.150639 0.412754 0.046969
Si Si5 0.063285 0.414041 0.387088
Si Si6 0.462878 0.084463 0.780445
Si Si7 0.155684 0.914952 0.391862
Si Si8 0.372901 0.914211 0.382465
O O1 0.311110 0.750000 0.051743
O O2 0.098250 0.952107 0.774060
O O3 0.369606 0.950201 0.047713
O O4 0.379775 0.995543 0.169409
O O5 0.546989 0.750000 0.093182
O O6 0.780594 0.941424 0.384311
O O7 0.522480 0.960237 0.136270
O O8 0.500000 0.000000 0.000000
O O9 0.354155 0.250000 0.176041
O O10 0.252875 0.039577 0.116077
O O11 0.567660 0.073533 0.480412
O O12 0.192715 0.250000 0.113134
O O13 0.199383 0.512019 0.159705
O O14 0.961552 0.431658 0.804411
O O15 0.063390 0.250000 0.366761
O O16 0.067698 0.515028 0.338481
O O17 0.415368 0.250000 0.718555
O O18 0.322206 0.993849 0.579880
O O19 0.188557 0.750000 0.445174
O O20 0.366721 0.750000 0.356130
O O21 0.500000 0.000000 0.500000
#
# Coordination Sequence:
#
# PCOD8069086 Si02
#       8
#     4   4   4   4   4   4   4   4
#     4  10  19  32  52  74  98 131 167 200 244 296
#     4   9  18  34  54  74 101 131 162 199 236 281
#     4   9  17  29  43  66 100 129 157 203 254 292
#     4   9  17  28  43  67  97 125 161 209 252 292
#     4   9  18  32  51  76 101 129 164 202 241 287
#     4   9  20  36  51  73 103 131 162 202 243 291
#     4  10  18  30  49  73  99 129 165 208 252 294
#     4   9  17  27  40  62  94 129 163 204 251 296
#
# _framework density 17.301096000000001
#
# number of rings (size 3 to 8) (size 9 to 14) (size 15 to 20)
#    0.000    2.750    1.250    2.250    0.000    6.000 
#    0.000    0.625    0.000    0.750    0.000    0.000 
#    0.000    0.000    0.000    0.000    0.000    0.000 
#
# Total GULP energy -396643.864150 kJ/mol
# GULP energy per Si atom -12395.120755 kJ/mol
# Density = 1.726172 g / cm^3
# Si number density = 17.301096 Si / 1000 Ang^3
#
#
#
# Elastic Constant Matrix: (Units=GPa)
#
#
# Indices 1 2 3 4 5 6 
#
# 1 77.9052 35.1158 56.3215 0.0000 6.7455 0.0000
# 2 35.1158 76.4439 52.7898 0.0000 -6.0473 0.0000
# 3 56.3215 52.7898 110.7915 0.0000 -3.6732 0.0000
# 4 0.0000 0.0000 0.0000 31.9424 0.0000 -7.6667
# 5 6.7455 -6.0473 -3.6732 0.0000 28.2332 0.0000
# 6 0.0000 0.0000 0.0000 -7.6667 0.0000 21.6240
#
#
#
# Elastic Compliance Matrix: (Units=1/GPa)
#
#
# Indices 1 2 3 4 5 6 
#
# 1 0.022313 -0.004229 -0.009576 0.000000 -0.007483 0.000000
# 2 -0.004229 0.020551 -0.007495 0.000000 0.004437 0.000000
# 3 -0.009576 -0.007495 0.017564 0.000000 0.002968 0.000000
# 4 0.000000 0.000000 0.000000 0.034218 0.000000 0.012132
# 5 -0.007483 0.004437 0.002968 0.000000 0.038544 0.000000
# 6 0.000000 0.000000 0.000000 0.012132 0.000000 0.050546
#
#
# Mechanical properties :
#
#
# Convention : Reuss Voigt Hill
#
# Bulk Modulus (GPa) = 56.09322 61.51053 58.80188
# Shear Modulus (GPa) = 21.52579 24.42082 22.97331
#
# Velocity S-wave (km/s) = 3.53113 3.76109 3.64792
# Velocity P-wave (km/s) = 7.00838 7.38182 7.19752
#
# Compressibility (1/GPa) = 0.01782747
#
# Stress axis : x y z
#
# Youngs Moduli (GPa) = 44.81632 48.65921 56.93530
#
# Poissons Ratio (x) = 0.20578 0.54522
# Poissons Ratio (y) = 0.18952 0.42674
# Poissons Ratio (z) = 0.42917 0.36471
#
# Static dielectric constant tensor:
#      x y z
#    x 2.993310 0.000000 0.036310 
#    y 0.000000 3.313970 0.000000 
#    z 0.036310 0.000000 3.456930 
# 
# 
# High freq. dielectric constant tensor:
#      x y z
#    x 1.626430 0.000000 -0.003080 
#    y 0.000000 1.673820 0.000000 
#    z -0.003080 0.000000 1.669940 
# 
# From -- ./inp_files/67192.got.cif
#   From: 2010.06.25/outbox.cif.g09.slc.cpg/sg11_34_cif.got.tgz:67192.got - 2010.06.27 23:14:04.
