data_PCOD8069079
_publ_section_title
;
Structure prediction by ZEFSAII (Michael W. Deem and Ramdas Pophale) SiO2 
 PCOD8069079
Probable space group: P 21/M
;
_chemical_formula_sum "Si O2"
_cell_formula_units_Z 32
_cell_length_a 20.924879
_cell_length_b 8.950706
_cell_length_c 14.421765
_cell_angle_alpha 90.000000
_cell_angle_beta 43.391134
_cell_angle_gamma 90.000000
_cell_volume 1855.579818
_symmetry_space_group_name_H-M "P 21/M"
_symmetry_group_IT_number 11
_symmetry_cell_setting 'monoclinic'
loop_
_space_group_symop_operation_xyz
x,y,z
-x,1/2+y,-z
-x,-y,-z
x,1/2-y,z
loop_
_atom_site_type_symbol
_atom_site_label
_atom_site_fract_x
_atom_site_fract_y
_atom_site_fract_z
Si Si1 0.218564 0.926952 0.918837
Si Si2 0.847337 0.077787 0.349807
Si Si3 0.692046 0.425983 0.645145
Si Si4 0.596098 0.073440 0.927763
Si Si5 0.634551 0.426115 0.092693
Si Si6 0.305694 0.921846 0.644172
Si Si7 0.545605 0.072027 0.651428
Si Si8 0.984777 0.072862 0.916134
O O1 0.217465 0.750000 0.907649
O O2 0.266388 0.972067 0.966134
O O3 0.279929 0.997743 0.769721
O O4 0.112927 0.984568 0.024012
O O5 0.877650 0.250000 0.330448
O O6 0.790556 0.015331 0.500048
O O7 0.782569 0.058606 0.329010
O O8 0.938214 0.977627 0.239312
O O9 0.695136 0.250000 0.626623
O O10 0.676490 0.471315 0.768781
O O11 0.603749 0.484880 0.679665
O O12 0.580577 0.250000 0.944246
O O13 0.630339 0.013815 0.991571
O O14 0.500000 0.000000 0.000000
O O15 0.620286 0.250000 0.109471
O O16 0.554935 0.497944 0.239948
O O17 0.327238 0.750000 0.638020
O O18 0.398915 0.988393 0.498114
O O19 0.535146 0.250000 0.662398
O O20 0.987331 0.250000 0.926038
O O21 0.000000 0.000000 0.000000
#
# Coordination Sequence:
#
# PCOD8069079 Si02
#       8
#     4   4   4   4   4   4   4   4
#     4   9  18  32  47  65  94 129 156 185 234 286
#     4   9  16  30  51  72  92 120 158 197 234 277
#     4   8  15  28  48  70  94 124 155 188 234 286
#     4  10  18  30  49  72  94 122 160 196 231 274
#     4  10  20  31  46  69  96 125 158 193 230 276
#     4   8  14  27  47  66  89 128 162 182 221 284
#     4   9  16  28  47  67  91 126 162 189 223 274
#     4  11  20  32  52  73  95 124 158 197 238 278
#
# _framework density 17.245284000000002
#
# number of rings (size 3 to 8) (size 9 to 14) (size 15 to 20)
#    0.000    2.750    2.500    1.875    0.000    0.500 
#    0.000    4.375    0.000    0.750    0.000    0.000 
#    0.000    0.000    0.000    0.000    0.000    0.125 
#
# Total GULP energy -396530.238942 kJ/mol
# GULP energy per Si atom -12391.569967 kJ/mol
# Density = 1.720603 g / cm^3
# Si number density = 17.245284 Si / 1000 Ang^3
#
#
#
# Elastic Constant Matrix: (Units=GPa)
#
#
# Indices 1 2 3 4 5 6 
#
# 1 107.5683 25.3768 69.8758 0.0000 -3.1150 0.0000
# 2 25.3768 26.7478 26.4043 0.0000 -3.0398 0.0000
# 3 69.8758 26.4043 136.2257 0.0000 -2.2708 0.0000
# 4 0.0000 0.0000 0.0000 25.5434 0.0000 -4.0700
# 5 -3.1150 -3.0398 -2.2708 0.0000 26.1899 0.0000
# 6 0.0000 0.0000 0.0000 -4.0700 0.0000 14.8981
#
#
#
# Elastic Compliance Matrix: (Units=1/GPa)
#
#
# Indices 1 2 3 4 5 6 
#
# 1 0.015328 -0.008348 -0.006239 0.000000 0.000313 0.000000
# 2 -0.008348 0.051337 -0.005594 0.000000 0.004481 0.000000
# 3 -0.006239 -0.005594 0.011619 0.000000 -0.000384 0.000000
# 4 0.000000 0.000000 0.000000 0.040931 0.000000 0.011182
# 5 0.000313 0.004481 -0.000384 0.000000 0.038707 0.000000
# 6 0.000000 0.000000 0.000000 0.011182 0.000000 0.070177
#
#
# Mechanical properties :
#
#
# Convention : Reuss Voigt Hill
#
# Bulk Modulus (GPa) = 26.36948 57.09508 41.73228
# Shear Modulus (GPa) = 17.78724 23.25195 20.51960
#
# Velocity S-wave (km/s) = 3.21507 3.67591 3.45319
# Velocity P-wave (km/s) = 5.39502 7.15514 6.33649
#
# Compressibility (1/GPa) = 0.03792262
#
# Stress axis : x y z
#
# Youngs Moduli (GPa) = 65.24195 19.47900 86.06690
#
# Poissons Ratio (x) = 0.16260 0.53697
# Poissons Ratio (y) = 0.54461 0.48147
# Poissons Ratio (z) = 0.40704 0.10897
#
# Static dielectric constant tensor:
#      x y z
#    x 3.191440 0.000000 0.109380 
#    y 0.000000 2.931470 0.000000 
#    z 0.109380 0.000000 3.625120 
# 
# 
# High freq. dielectric constant tensor:
#      x y z
#    x 1.642870 0.000000 0.003390 
#    y 0.000000 1.626670 0.000000 
#    z 0.003390 0.000000 1.677570 
# 
# From -- ./inp_files/51378.got.cif
#   From: 2010.06.25/outbox.cif.g09.slc.cpg/sg11_26_cif.got.tgz:51378.got - 2010.06.27 23:14:04.
