data_PCOD8069895
_publ_section_title
;
Structure prediction by ZEFSAII (Michael W. Deem and Ramdas Pophale) SiO2 
 PCOD8069895
Probable space group: P 21/M
;
_chemical_formula_sum "Si O2"
_cell_formula_units_Z 26
_cell_length_a 8.969206
_cell_length_b 19.260989
_cell_length_c 9.878363
_cell_angle_alpha 90.000000
_cell_angle_beta 49.978116
_cell_angle_gamma 90.000000
_cell_volume 1306.869696
_symmetry_space_group_name_H-M "P 21/M"
_symmetry_group_IT_number 11
_symmetry_cell_setting 'monoclinic'
loop_
_space_group_symop_operation_xyz
x,y,z
-x,1/2+y,-z
-x,-y,-z
x,1/2-y,z
loop_
_atom_site_type_symbol
_atom_site_label
_atom_site_fract_x
_atom_site_fract_y
_atom_site_fract_z
Si Si1 0.094293 0.540041 0.221125
Si Si2 0.745687 0.600108 0.986664
Si Si3 0.283185 0.976850 0.609571
Si Si4 0.876885 0.388379 0.069444
Si Si5 0.778474 0.250000 0.249882
Si Si6 0.584916 0.250000 0.650056
Si Si7 0.230162 0.250000 0.033570
Si Si8 0.325417 0.896371 0.325694
O O1 0.173043 0.460811 0.156695
O O2 0.167672 0.570323 0.318807
O O3 0.858689 0.538164 0.360900
O O4 0.158686 0.592756 0.065714
O O5 0.715419 0.675382 0.926393
O O6 0.894297 0.617604 0.024053
O O7 0.539574 0.574257 0.165060
O O8 0.207242 0.953238 0.799249
O O9 0.270699 0.914394 0.510946
O O10 0.500000 0.000000 0.500000
O O11 0.751527 0.319061 0.174384
O O12 0.626760 0.250000 0.464227
O O13 0.999139 0.250000 0.168437
O O14 0.684225 0.313631 0.670857
O O15 0.350531 0.250000 0.818242
#
# Coordination Sequence:
#
# PCOD8069895 Si02
#       8
#     4   4   4   4   2   2   2   4
#     4  11  22  35  55  88 121 147 192 245 305 352
#     4   9  18  35  57  83 110 149 197 232 286 359
#     4  11  21  36  57  82 117 152 196 242 291 348
#     4  10  20  36  58  82 107 153 195 240 287 349
#     4  10  18  37  61  82 113 151 206 248 285 349
#     4  10  20  37  59  86 113 155 206 234 291 377
#     4   8  18  32  58  86 106 152 198 240 284 350
#     4  11  21  36  58  86 116 154 187 249 302 350
#
# _framework density 19.894867999999999
#
# number of rings (size 3 to 8) (size 9 to 14) (size 15 to 20)
#    0.000    1.846    1.538    4.615    0.000    0.615 
#    0.000    0.000    0.000    1.846    0.000    0.000 
#    0.000    0.000    0.000    0.000    0.000    0.000 
#
# Total GULP energy -322155.732473 kJ/mol
# GULP energy per Si atom -12390.605095 kJ/mol
# Density = 1.984959 g / cm^3
# Si number density = 19.894868 Si / 1000 Ang^3
#
#
#
# Elastic Constant Matrix: (Units=GPa)
#
#
# Indices 1 2 3 4 5 6 
#
# 1 70.3294 33.5623 36.7092 0.0000 -5.3765 0.0000
# 2 33.5623 108.1271 22.6643 0.0000 6.4262 0.0000
# 3 36.7092 22.6643 73.9783 0.0000 -15.5681 0.0000
# 4 0.0000 0.0000 0.0000 31.1047 0.0000 2.1798
# 5 -5.3765 6.4262 -15.5681 0.0000 30.6482 0.0000
# 6 0.0000 0.0000 0.0000 2.1798 0.0000 20.0401
#
#
#
# Elastic Compliance Matrix: (Units=1/GPa)
#
#
# Indices 1 2 3 4 5 6 
#
# 1 0.021190 -0.004684 -0.009059 0.000000 0.000098 0.000000
# 2 -0.004684 0.011387 -0.002060 0.000000 -0.004256 0.000000
# 3 -0.009059 -0.002060 0.020603 0.000000 0.009308 0.000000
# 4 0.000000 0.000000 0.000000 0.032396 0.000000 -0.003524
# 5 0.000098 -0.004256 0.009308 0.000000 0.038266 0.000000
# 6 0.000000 0.000000 0.000000 -0.003524 0.000000 0.050283
#
#
# Mechanical properties :
#
#
# Convention : Reuss Voigt Hill
#
# Bulk Modulus (GPa) = 46.35345 48.70071 47.52708
# Shear Modulus (GPa) = 23.48263 26.99186 25.23724
#
# Velocity S-wave (km/s) = 3.43933 3.68737 3.56551
# Velocity P-wave (km/s) = 6.25474 6.53155 6.39464
#
# Compressibility (1/GPa) = 0.02157337
#
# Stress axis : x y z
#
# Youngs Moduli (GPa) = 47.19134 87.81928 48.53743
#
# Poissons Ratio (x) = 0.41137 0.43972
# Poissons Ratio (y) = 0.22106 0.09997
# Poissons Ratio (z) = 0.42752 0.18088
#
# Static dielectric constant tensor:
#      x y z
#    x 3.327980 0.000000 -0.301170 
#    y 0.000000 4.028610 0.000000 
#    z -0.301170 0.000000 3.726710 
# 
# 
# High freq. dielectric constant tensor:
#      x y z
#    x 1.735680 0.000000 -0.024950 
#    y 0.000000 1.790410 0.000000 
#    z -0.024950 0.000000 1.776320 
# 
# From -- ./inp_files/14437.got.cif
#   From: 2010.06.25/outbox.cif.g09.slc.cpg/sg11_8_cif.got.tgz:14437.got - 2010.06.27 23:14:04.
