data_PCOD8069160
_publ_section_title
;
Structure prediction by ZEFSAII (Michael W. Deem and Ramdas Pophale) SiO2 
 PCOD8069160
Probable space group: P 21/M
;
_chemical_formula_sum "Si O2"
_cell_formula_units_Z 32
_cell_length_a 11.729754
_cell_length_b 8.812019
_cell_length_c 19.984951
_cell_angle_alpha 90.000000
_cell_angle_beta 121.045672
_cell_angle_gamma 90.000000
_cell_volume 1769.802537
_symmetry_space_group_name_H-M "P 21/M"
_symmetry_group_IT_number 11
_symmetry_cell_setting 'monoclinic'
loop_
_space_group_symop_operation_xyz
x,y,z
-x,1/2+y,-z
-x,-y,-z
x,1/2-y,z
loop_
_atom_site_type_symbol
_atom_site_label
_atom_site_fract_x
_atom_site_fract_y
_atom_site_fract_z
Si Si1 0.607075 0.068170 0.081740
Si Si2 0.177638 0.068490 0.260905
Si Si3 0.379022 0.075196 0.772866
Si Si4 0.887393 0.418281 0.321929
Si Si5 0.847673 0.076065 0.605473
Si Si6 0.572301 0.424094 0.459848
Si Si7 0.563063 0.075413 0.704483
Si Si8 0.893703 0.083722 0.165003
O O1 0.604681 0.250000 0.079437
O O2 0.753710 0.004377 0.102380
O O3 0.577078 0.014996 0.147744
O O4 0.500000 0.000000 0.000000
O O5 0.174296 0.250000 0.261520
O O6 0.034764 0.004689 0.188376
O O7 0.202032 0.009971 0.343229
O O8 0.295145 0.009203 0.249463
O O9 0.354321 0.250000 0.784035
O O10 0.499014 0.055516 0.757588
O O11 0.245193 0.009728 0.698245
O O12 0.881906 0.250000 0.352524
O O13 0.894484 0.404534 0.244865
O O14 0.019915 0.503989 0.387273
O O15 0.876806 0.250000 0.633411
O O16 0.731307 0.062268 0.515599
O O17 0.500000 0.500000 0.500000
O O18 0.526015 0.250000 0.442150
O O19 0.534099 0.505420 0.379881
O O20 0.587134 0.250000 0.693296
O O21 0.892536 0.250000 0.131849
#
# Coordination Sequence:
#
# PCOD8069160 Si02
#       8
#     4   4   4   4   4   4   4   4
#     4  10  19  34  58  86 113 138 169 210 259 314
#     4  10  18  30  51  75 101 137 179 221 264 310
#     4  10  21  37  55  77 107 141 177 217 262 317
#     4   9  17  31  52  75 100 133 173 218 267 317
#     4  10  19  31  49  74 102 132 174 226 273 317
#     4  11  22  34  51  74 103 138 180 227 271 319
#     4  11  23  36  51  74 106 142 179 221 271 321
#     4   7  14  28  47  75 104 130 164 207 253 301
#
# _framework density 18.081113999999999
#
# number of rings (size 3 to 8) (size 9 to 14) (size 15 to 20)
#    0.000    2.250    1.250    4.125    0.000    3.500 
#    0.000    2.500    0.000    0.750    0.000    0.000 
#    0.000    0.000    0.000    0.000    0.000    0.000 
#
# Total GULP energy -396613.117988 kJ/mol
# GULP energy per Si atom -12394.159937 kJ/mol
# Density = 1.803996 g / cm^3
# Si number density = 18.081114 Si / 1000 Ang^3
#
#
#
# Elastic Constant Matrix: (Units=GPa)
#
#
# Indices 1 2 3 4 5 6 
#
# 1 112.8394 51.5789 52.1476 0.0000 28.2302 0.0000
# 2 51.5789 114.5291 40.4771 0.0000 11.5097 0.0000
# 3 52.1476 40.4771 85.2616 0.0000 24.5123 0.0000
# 4 0.0000 0.0000 0.0000 25.6136 0.0000 4.5506
# 5 28.2302 11.5097 24.5123 0.0000 29.2801 0.0000
# 6 0.0000 0.0000 0.0000 4.5506 0.0000 29.9737
#
#
#
# Elastic Compliance Matrix: (Units=1/GPa)
#
#
# Indices 1 2 3 4 5 6 
#
# 1 0.015274 -0.004310 -0.004674 0.000000 -0.009119 0.000000
# 2 -0.004310 0.011708 -0.003679 0.000000 0.002633 0.000000
# 3 -0.004674 -0.003679 0.019257 0.000000 -0.010169 0.000000
# 4 0.000000 0.000000 0.000000 0.040124 0.000000 -0.006092
# 5 -0.009119 0.002633 -0.010169 0.000000 0.050423 0.000000
# 6 0.000000 0.000000 0.000000 -0.006092 0.000000 0.034287
#
#
# Mechanical properties :
#
#
# Convention : Reuss Voigt Hill
#
# Bulk Modulus (GPa) = 47.81761 66.78192 57.29976
# Shear Modulus (GPa) = 24.58556 28.20191 26.39374
#
# Velocity S-wave (km/s) = 3.69146 3.95364 3.82480
# Velocity P-wave (km/s) = 6.68377 7.60635 7.15993
#
# Compressibility (1/GPa) = 0.02091280
#
# Stress axis : x y z
#
# Youngs Moduli (GPa) = 65.47180 85.40977 51.92805
#
# Poissons Ratio (x) = 0.36815 0.24270
# Poissons Ratio (y) = 0.28221 0.19105
# Poissons Ratio (z) = 0.30600 0.31424
#
# Static dielectric constant tensor:
#      x y z
#    x 3.552650 0.000000 0.495410 
#    y 0.000000 3.508970 0.000000 
#    z 0.495410 0.000000 3.139450 
# 
# 
# High freq. dielectric constant tensor:
#      x y z
#    x 1.702290 0.000000 0.033940 
#    y 0.000000 1.707650 0.000000 
#    z 0.033940 0.000000 1.664620 
# 
# From -- ./inp_files/64246.got.cif
#   From: 2010.06.25/outbox.cif.g09.slc.cpg/sg11_33_cif.got.tgz:64246.got - 2010.06.27 23:14:04.
