data_PCOD8069724
_publ_section_title
;
Structure prediction by ZEFSAII (Michael W. Deem and Ramdas Pophale) SiO2 
 PCOD8069724
Probable space group: P 21/M
;
_chemical_formula_sum "Si O2"
_cell_formula_units_Z 24
_cell_length_a 9.939913
_cell_length_b 7.581536
_cell_length_c 21.185027
_cell_angle_alpha 90.000000
_cell_angle_beta 53.967236
_cell_angle_gamma 90.000000
_cell_volume 1291.058461
_symmetry_space_group_name_H-M "P 21/M"
_symmetry_group_IT_number 11
_symmetry_cell_setting 'monoclinic'
loop_
_space_group_symop_operation_xyz
x,y,z
-x,1/2+y,-z
-x,-y,-z
x,1/2-y,z
loop_
_atom_site_type_symbol
_atom_site_label
_atom_site_fract_x
_atom_site_fract_y
_atom_site_fract_z
Si Si1 0.742432 0.250000 0.803592
Si Si2 0.842941 0.750000 0.199470
Si Si3 0.103129 0.250000 0.671317
Si Si4 0.607018 0.446067 0.279126
Si Si5 0.815264 0.953340 0.027068
Si Si6 0.512830 0.550245 0.816286
Si Si7 0.360775 0.953617 0.588454
Si Si8 0.809276 0.250000 0.934171
O O1 0.642813 0.426209 0.815060
O O2 0.763129 0.250000 0.873407
O O3 0.905517 0.250000 0.712124
O O4 0.909437 0.750000 0.251063
O O5 0.744460 0.573547 0.213842
O O6 0.992291 0.750000 0.109391
O O7 0.198706 0.425101 0.620260
O O8 0.683427 0.250000 0.258166
O O9 0.458242 0.459344 0.268573
O O10 0.558276 0.496001 0.364805
O O11 0.809046 0.750000 0.007536
O O12 0.751815 0.071404 0.985067
O O13 0.677435 0.990164 0.118841
O O14 0.000000 0.000000 0.000000
O O15 0.543091 0.750000 0.831623
O O16 0.306112 0.750000 0.597351
O O17 0.500000 0.000000 0.500000
#
# Coordination Sequence:
#
# PCOD8069724 Si02
#       8
#     2   2   2   4   4   4   4   2
#     4  11  25  42  60  80 117 162 208 238 275 353
#     4   9  17  32  54  78 113 141 183 232 294 346
#     4   9  20  36  54  85 117 152 184 225 281 347
#     4   9  19  32  56  85 112 147 188 235 286 349
#     4  12  23  39  60  87 117 146 191 259 312 351
#     4  11  22  40  59  82 110 158 206 243 288 346
#     4  10  18  33  59  96 124 144 176 235 300 349
#     4  11  24  38  56  85 111 155 195 243 302 352
#
# _framework density 18.589397999999999
#
# number of rings (size 3 to 8) (size 9 to 14) (size 15 to 20)
#    0.000    1.667    3.333    1.500    0.000    4.000 
#    0.000    3.333    0.000    1.000    0.000    0.000 
#    0.000    0.000    0.000    0.000    0.000    0.000 
#
# Total GULP energy -297315.245227 kJ/mol
# GULP energy per Si atom -12388.135218 kJ/mol
# Density = 1.854709 g / cm^3
# Si number density = 18.589398 Si / 1000 Ang^3
#
#
#
# Elastic Constant Matrix: (Units=GPa)
#
#
# Indices 1 2 3 4 5 6 
#
# 1 87.5616 53.7220 52.4470 0.0000 0.3433 0.0000
# 2 53.7220 160.9707 49.7108 0.0000 1.7289 0.0000
# 3 52.4470 49.7108 107.9507 0.0000 -0.0685 0.0000
# 4 0.0000 0.0000 0.0000 25.0830 0.0000 1.2117
# 5 0.3433 1.7289 -0.0685 0.0000 26.8712 0.0000
# 6 0.0000 0.0000 0.0000 1.2117 0.0000 26.5378
#
#
#
# Elastic Compliance Matrix: (Units=1/GPa)
#
#
# Indices 1 2 3 4 5 6 
#
# 1 0.017938 -0.003841 -0.006946 0.000000 0.000000 0.000000
# 2 -0.003841 0.008071 -0.001851 0.000000 -0.000475 0.000000
# 3 -0.006946 -0.001851 0.013490 0.000000 0.000242 0.000000
# 4 0.000000 0.000000 0.000000 0.039956 0.000000 -0.001824
# 5 0.000000 -0.000475 0.000242 0.000000 0.037246 0.000000
# 6 0.000000 0.000000 0.000000 -0.001824 0.000000 0.037765
#
#
# Mechanical properties :
#
#
# Convention : Reuss Voigt Hill
#
# Bulk Modulus (GPa) = 70.30771 74.24918 72.27844
# Shear Modulus (GPa) = 27.10270 29.07194 28.08732
#
# Velocity S-wave (km/s) = 3.82247 3.95891 3.89129
# Velocity P-wave (km/s) = 7.57531 7.80549 7.69126
#
# Compressibility (1/GPa) = 0.01422319
#
# Stress axis : x y z
#
# Youngs Moduli (GPa) = 55.74796 123.90103 74.12634
#
# Poissons Ratio (x) = 0.47597 0.51488
# Poissons Ratio (y) = 0.21416 0.13718
# Poissons Ratio (z) = 0.38722 0.22929
#
# Static dielectric constant tensor:
#      x y z
#    x 3.275170 0.000000 0.081520 
#    y 0.000000 3.689680 0.000000 
#    z 0.081520 0.000000 3.478650 
# 
# 
# High freq. dielectric constant tensor:
#      x y z
#    x 1.693390 0.000000 0.018530 
#    y 0.000000 1.745240 0.000000 
#    z 0.018530 0.000000 1.714960 
# 
# From -- ./inp_files/63188.got.cif
#   From: 2010.06.25/outbox.cif.g09.slc.cpg/sg11_32_cif.got.tgz:63188.got - 2010.06.27 23:14:04.
