data_PCOD8069223
_publ_section_title
;
Structure prediction by ZEFSAII (Michael W. Deem and Ramdas Pophale) SiO2 
 PCOD8069223
Probable space group: P 21/M
;
_chemical_formula_sum "Si O2"
_cell_formula_units_Z 32
_cell_length_a 21.085784
_cell_length_b 8.921103
_cell_length_c 30.172108
_cell_angle_alpha 90.000000
_cell_angle_beta 160.271256
_cell_angle_gamma 90.000000
_cell_volume 1915.907896
_symmetry_space_group_name_H-M "P 21/M"
_symmetry_group_IT_number 11
_symmetry_cell_setting 'monoclinic'
loop_
_space_group_symop_operation_xyz
x,y,z
-x,1/2+y,-z
-x,-y,-z
x,1/2-y,z
loop_
_atom_site_type_symbol
_atom_site_label
_atom_site_fract_x
_atom_site_fract_y
_atom_site_fract_z
Si Si1 0.790009 0.925294 0.201430
Si Si2 0.836701 0.574434 0.420914
Si Si3 0.545383 0.573538 0.862120
Si Si4 0.513151 0.576213 0.942728
Si Si5 0.900493 0.074070 0.892982
Si Si6 0.847393 0.924398 0.530995
Si Si7 0.189561 0.571809 0.029353
Si Si8 0.437118 0.924571 0.274464
O O1 0.808622 0.750000 0.219170
O O2 0.672420 0.986258 0.165733
O O3 0.688862 0.971133 0.088981
O O4 0.996931 0.994068 0.337219
O O5 0.826742 0.750000 0.403574
O O6 0.638434 0.501368 0.279157
O O7 0.881904 0.545279 0.501917
O O8 0.000000 0.500000 0.500000
O O9 0.538404 0.750000 0.848291
O O10 0.562647 0.536519 0.925194
O O11 0.731454 0.500639 0.963451
O O12 0.464454 0.750000 0.916935
O O13 0.945732 0.250000 0.920942
O O14 0.676609 0.046781 0.754233
O O15 0.000000 0.000000 0.000000
O O16 0.978826 0.992918 0.900231
O O17 0.859145 0.750000 0.549887
O O18 0.645796 0.994195 0.413382
O O19 0.179470 0.750000 0.018374
O O20 0.322664 0.513153 0.156855
O O21 0.461033 0.750000 0.280645
#
# Coordination Sequence:
#
# PCOD8069223 Si02
#       8
#     4   4   4   4   4   4   4   4
#     4  10  20  34  52  73  93 119 162 209 245 283
#     4  11  22  34  47  66  98 132 161 195 237 287
#     4  11  21  33  50  71  95 127 164 199 241 292
#     4   9  20  37  52  68  94 125 158 203 253 290
#     4   9  16  27  45  68  94 128 165 198 235 283
#     4  10  19  33  49  67  96 132 159 190 240 287
#     4  10  18  31  47  68  99 131 160 196 240 287
#     4   8  15  29  46  65  94 129 159 188 231 284
#
# _framework density 16.702262999999999
#
# number of rings (size 3 to 8) (size 9 to 14) (size 15 to 20)
#    0.000    2.250    1.250    3.375    0.000    5.500 
#    0.000    1.250    0.000    0.000    0.000    0.875 
#    0.000    0.000    0.000    0.000    0.000    0.000 
#
# Total GULP energy -396708.005135 kJ/mol
# GULP energy per Si atom -12397.125160 kJ/mol
# Density = 1.666425 g / cm^3
# Si number density = 16.702263 Si / 1000 Ang^3
#
#
#
# Elastic Constant Matrix: (Units=GPa)
#
#
# Indices 1 2 3 4 5 6 
#
# 1 79.0164 37.5528 38.9001 0.0000 19.3531 0.0000
# 2 37.5528 70.9335 32.9927 0.0000 7.4152 0.0000
# 3 38.9001 32.9927 80.0823 0.0000 15.1100 0.0000
# 4 0.0000 0.0000 0.0000 26.3242 0.0000 4.7374
# 5 19.3531 7.4152 15.1100 0.0000 27.7118 0.0000
# 6 0.0000 0.0000 0.0000 4.7374 0.0000 26.2554
#
#
#
# Elastic Compliance Matrix: (Units=1/GPa)
#
#
# Indices 1 2 3 4 5 6 
#
# 1 0.021435 -0.007840 -0.005299 0.000000 -0.009983 0.000000
# 2 -0.007840 0.020324 -0.005096 0.000000 0.002816 0.000000
# 3 -0.005299 -0.005096 0.018063 0.000000 -0.004785 0.000000
# 4 0.000000 0.000000 0.000000 0.039263 0.000000 -0.007084
# 5 -0.009983 0.002816 -0.004785 0.000000 0.044913 0.000000
# 6 0.000000 0.000000 0.000000 -0.007084 0.000000 0.039366
#
#
# Mechanical properties :
#
#
# Convention : Reuss Voigt Hill
#
# Bulk Modulus (GPa) = 42.82075 49.88037 46.35056
# Shear Modulus (GPa) = 21.96659 24.09738 23.03199
#
# Velocity S-wave (km/s) = 3.63048 3.80249 3.71748
# Velocity P-wave (km/s) = 6.57778 7.01483 6.79982
#
# Compressibility (1/GPa) = 0.02335316
#
# Stress axis : x y z
#
# Youngs Moduli (GPa) = 46.65252 49.20225 55.36034
#
# Poissons Ratio (x) = 0.38574 0.29334
# Poissons Ratio (y) = 0.36575 0.28213
# Poissons Ratio (z) = 0.24720 0.25075
#
# Static dielectric constant tensor:
#      x y z
#    x 3.322970 0.000000 0.333120 
#    y 0.000000 3.177390 0.000000 
#    z 0.333120 0.000000 3.336500 
# 
# 
# High freq. dielectric constant tensor:
#      x y z
#    x 1.635910 0.000000 0.026390 
#    y 0.000000 1.647160 0.000000 
#    z 0.026390 0.000000 1.623090 
# 
# From -- ./inp_files/40718.got.cif
#   From: 2010.06.25/outbox.cif.g09.slc.cpg/sg11_21_cif.got.tgz:40718.got - 2010.06.27 23:14:04.
