data_PCOD8069094
_publ_section_title
;
Structure prediction by ZEFSAII (Michael W. Deem and Ramdas Pophale) SiO2 
 PCOD8069094
Probable space group: P 21/M
;
_chemical_formula_sum "Si O2"
_cell_formula_units_Z 28
_cell_length_a 15.562954
_cell_length_b 8.645984
_cell_length_c 19.390101
_cell_angle_alpha 90.000000
_cell_angle_beta 37.251894
_cell_angle_gamma 90.000000
_cell_volume 1579.325951
_symmetry_space_group_name_H-M "P 21/M"
_symmetry_group_IT_number 11
_symmetry_cell_setting 'monoclinic'
loop_
_space_group_symop_operation_xyz
x,y,z
-x,1/2+y,-z
-x,-y,-z
x,1/2-y,z
loop_
_atom_site_type_symbol
_atom_site_label
_atom_site_fract_x
_atom_site_fract_y
_atom_site_fract_z
Si Si1 0.101087 0.933381 0.734734
Si Si2 0.556752 0.432752 0.120318
Si Si3 0.592445 0.067491 0.503108
Si Si4 0.197206 0.066099 0.131109
Si Si5 0.574432 0.431996 0.267715
Si Si6 0.878798 0.066964 0.124086
Si Si7 0.376959 0.566289 0.126233
O O1 0.097857 0.750000 0.739500
O O2 0.244755 0.991367 0.606128
O O3 0.100015 0.999516 0.812887
O O4 0.961080 0.993798 0.784947
O O5 0.566093 0.250000 0.103743
O O6 0.550371 0.480130 0.204136
O O7 0.409917 0.498405 0.181100
O O8 0.694973 0.507305 0.996552
O O9 0.584684 0.250000 0.500742
O O10 0.500000 0.000000 0.500000
O O11 0.540479 0.015559 0.611225
O O12 0.207682 0.250000 0.127476
O O13 0.231473 0.995756 0.185099
O O14 0.558844 0.250000 0.288801
O O15 0.728718 0.491684 0.191390
O O16 0.886476 0.250000 0.117447
O O17 0.000000 0.000000 0.000000
O O18 0.377752 0.750000 0.127665
O O19 0.500000 0.500000 0.000000
#
# Coordination Sequence:
#
# PCOD8069094 Si02
#       7
#     4   4   4   4   4   4   4
#     4   9  19  34  52  72 102 136 167 211 258 300
#     4  10  19  32  51  77 108 138 168 209 258 307
#     4  11  21  37  57  75  99 135 180 219 257 304
#     4  10  18  31  52  77 105 137 171 208 255 311
#     4  10  21  36  53  74 105 137 170 217 260 299
#     4  10  19  33  49  71 105 135 165 203 252 305
#     4  10  18  30  49  74 105 137 170 209 251 306
#
# _framework density 17.729081999999998
#
# number of rings (size 3 to 8) (size 9 to 14) (size 15 to 20)
#    0.000    2.000    1.429    5.143    0.000    1.714 
#    0.000    3.571    0.000    0.857    0.000    0.000 
#    0.000    0.000    0.000    0.000    0.000    0.000 
#
# Total GULP energy -347143.572487 kJ/mol
# GULP energy per Si atom -12397.984732 kJ/mol
# Density = 1.768873 g / cm^3
# Si number density = 17.729082 Si / 1000 Ang^3
#
#
#
# Elastic Constant Matrix: (Units=GPa)
#
#
# Indices 1 2 3 4 5 6 
#
# 1 188.5926 46.7004 79.0470 0.0000 -7.6577 0.0000
# 2 46.7004 67.5699 31.0091 0.0000 -2.3515 0.0000
# 3 79.0470 31.0091 125.0856 0.0000 -10.2948 0.0000
# 4 0.0000 0.0000 0.0000 25.9660 0.0000 2.0720
# 5 -7.6577 -2.3515 -10.2948 0.0000 16.2186 0.0000
# 6 0.0000 0.0000 0.0000 2.0720 0.0000 24.1232
#
#
#
# Elastic Compliance Matrix: (Units=1/GPa)
#
#
# Indices 1 2 3 4 5 6 
#
# 1 0.007919 -0.003587 -0.004063 0.000000 0.000640 0.000000
# 2 -0.003587 0.018324 -0.002318 0.000000 -0.000508 0.000000
# 3 -0.004063 -0.002318 0.011555 0.000000 0.005080 0.000000
# 4 0.000000 0.000000 0.000000 0.038778 0.000000 -0.003331
# 5 0.000640 -0.000508 0.005080 0.000000 0.065111 0.000000
# 6 0.000000 0.000000 0.000000 -0.003331 0.000000 0.041740
#
#
# Mechanical properties :
#
#
# Convention : Reuss Voigt Hill
#
# Bulk Modulus (GPa) = 55.97912 77.19568 66.58740
# Shear Modulus (GPa) = 23.88724 28.22765 26.05745
#
# Velocity S-wave (km/s) = 3.67461 3.99453 3.83790
# Velocity P-wave (km/s) = 7.04606 8.05676 7.56830
#
# Compressibility (1/GPa) = 0.01786380
#
# Stress axis : x y z
#
# Youngs Moduli (GPa) = 126.27075 54.57183 86.54484
#
# Poissons Ratio (x) = 0.19573 0.35162
# Poissons Ratio (y) = 0.45290 0.20060
# Poissons Ratio (z) = 0.51301 0.12649
#
# Static dielectric constant tensor:
#      x y z
#    x 3.985150 0.000000 -0.059930 
#    y 0.000000 3.190920 0.000000 
#    z -0.059930 0.000000 3.209760 
# 
# 
# High freq. dielectric constant tensor:
#      x y z
#    x 1.701520 0.000000 0.000010 
#    y 0.000000 1.683120 0.000000 
#    z 0.000010 0.000000 1.661300 
# 
# From -- ./inp_files/60061.got.cif
#   From: 2010.06.25/outbox.cif.g09.slc.cpg/sg11_31_cif.got.tgz:60061.got - 2010.06.27 23:14:04.
