data_PCOD8069832
_publ_section_title
;
Structure prediction by ZEFSAII (Michael W. Deem and Ramdas Pophale) SiO2 
 PCOD8069832
Probable space group: P 21/M
;
_chemical_formula_sum "Si O2"
_cell_formula_units_Z 32
_cell_length_a 15.229303
_cell_length_b 21.170600
_cell_length_c 7.773811
_cell_angle_alpha 90.000000
_cell_angle_beta 43.258749
_cell_angle_gamma 90.000000
_cell_volume 1717.608696
_symmetry_space_group_name_H-M "P 21/M"
_symmetry_group_IT_number 11
_symmetry_cell_setting 'monoclinic'
loop_
_space_group_symop_operation_xyz
x,y,z
-x,1/2+y,-z
-x,-y,-z
x,1/2-y,z
loop_
_atom_site_type_symbol
_atom_site_label
_atom_site_fract_x
_atom_site_fract_y
_atom_site_fract_z
Si Si1 0.221296 0.499541 0.704414
Si Si2 0.792007 0.117226 0.855345
Si Si3 0.458065 0.946501 0.187688
Si Si4 0.300271 0.478685 0.962506
Si Si5 0.990344 0.585431 0.992104
Si Si6 0.655306 0.321748 0.738770
Si Si7 0.035515 0.066928 0.374369
Si Si8 0.171305 0.821151 0.845214
O O1 0.312849 0.533751 0.439891
O O2 0.304018 0.483378 0.752310
O O3 0.102938 0.544863 0.924605
O O4 0.150169 0.435431 0.735343
O O5 0.735308 0.165945 0.797669
O O6 0.947221 0.116426 0.604983
O O7 0.764692 0.141011 0.087375
O O8 0.726271 0.048435 0.919128
O O9 0.562073 0.949120 0.190789
O O10 0.456508 0.875069 0.114241
O O11 0.500000 0.000000 0.000000
O O12 0.189718 0.428238 0.178676
O O13 0.027263 0.656171 0.996817
O O14 0.999502 0.573925 0.775712
O O15 0.599567 0.250000 0.827151
O O16 0.739648 0.329599 0.447481
O O17 0.000000 0.000000 0.500000
O O18 0.157533 0.750000 0.925928
#
# Coordination Sequence:
#
# PCOD8069832 Si02
#       8
#     4   4   4   4   4   4   4   4
#     4  10  20  33  55  84 112 147 183 240 297 334
#     4  11  18  36  58  87 115 144 192 241 299 341
#     4  12  22  35  56  85 118 151 199 242 289 345
#     4  10  20  33  55  84 118 148 184 244 285 350
#     4  10  18  35  56  81 117 148 187 238 297 345
#     4  11  23  40  58  81 118 155 194 242 293 349
#     4   9  19  30  53  85 118 145 177 234 300 348
#     4  11  22  35  56  86 117 152 193 236 294 361
#
# _framework density 18.630552000000002
#
# number of rings (size 3 to 8) (size 9 to 14) (size 15 to 20)
#    0.000    1.500    5.000    0.750    3.500    0.000 
#    0.000    0.000    0.000    6.750    0.000    0.000 
#    0.000    0.000    0.000    0.000    0.000    0.000 
#
# Total GULP energy -396434.174920 kJ/mol
# GULP energy per Si atom -12388.567966 kJ/mol
# Density = 1.858815 g / cm^3
# Si number density = 18.630552 Si / 1000 Ang^3
#
#
#
# Elastic Constant Matrix: (Units=GPa)
#
#
# Indices 1 2 3 4 5 6 
#
# 1 106.2498 47.8281 26.6609 0.0000 -2.3919 0.0000
# 2 47.8281 115.0605 30.9534 0.0000 -9.4456 0.0000
# 3 26.6609 30.9534 48.5867 0.0000 -7.7718 0.0000
# 4 0.0000 0.0000 0.0000 22.8106 0.0000 -2.3823
# 5 -2.3919 -9.4456 -7.7718 0.0000 29.9794 0.0000
# 6 0.0000 0.0000 0.0000 -2.3823 0.0000 27.2609
#
#
#
# Elastic Compliance Matrix: (Units=1/GPa)
#
#
# Indices 1 2 3 4 5 6 
#
# 1 0.012307 -0.004049 -0.004403 0.000000 -0.001435 0.000000
# 2 -0.004049 0.011899 -0.005019 0.000000 0.002125 0.000000
# 3 -0.004403 -0.005019 0.027006 0.000000 0.005068 0.000000
# 4 0.000000 0.000000 0.000000 0.044243 0.000000 0.003866
# 5 -0.001435 0.002125 0.005068 0.000000 0.035225 0.000000
# 6 0.000000 0.000000 0.000000 0.003866 0.000000 0.037020
#
#
# Mechanical properties :
#
#
# Convention : Reuss Voigt Hill
#
# Bulk Modulus (GPa) = 41.20352 53.42021 47.31187
# Shear Modulus (GPa) = 24.66307 26.97382 25.81845
#
# Velocity S-wave (km/s) = 3.64235 3.80916 3.72669
# Velocity P-wave (km/s) = 6.31293 6.93412 6.63080
#
# Compressibility (1/GPa) = 0.02426977
#
# Stress axis : x y z
#
# Youngs Moduli (GPa) = 81.25432 84.04268 37.02880
#
# Poissons Ratio (x) = 0.34029 0.16305
# Poissons Ratio (y) = 0.32900 0.18584
# Poissons Ratio (z) = 0.35779 0.42178
#
# Static dielectric constant tensor:
#      x y z
#    x -15.433920 0.000000 25.109140 
#    y 0.000000 3.512560 0.000000 
#    z 25.109140 0.000000 -29.960330 
# 
# 
# High freq. dielectric constant tensor:
#      x y z
#    x 1.735380 0.000000 0.012540 
#    y 0.000000 1.697680 0.000000 
#    z 0.012540 0.000000 1.704200 
# 
# From -- ./inp_files/23063.got.cif
#   From: 2010.06.25/outbox.cif.g09.slc.cpg/sg11_12_cif.got.tgz:23063.got - 2010.06.27 23:14:04.
