data_PCOD8069481
_publ_section_title
;
Structure prediction by ZEFSAII (Michael W. Deem and Ramdas Pophale) SiO2 
 PCOD8069481
Probable space group: P 21/M
;
_chemical_formula_sum "Si O2"
_cell_formula_units_Z 32
_cell_length_a 22.195195
_cell_length_b 8.451724
_cell_length_c 15.210609
_cell_angle_alpha 90.000000
_cell_angle_beta 146.316682
_cell_angle_gamma 90.000000
_cell_volume 1582.458913
_symmetry_space_group_name_H-M "P 21/M"
_symmetry_group_IT_number 11
_symmetry_cell_setting 'monoclinic'
loop_
_space_group_symop_operation_xyz
x,y,z
-x,1/2+y,-z
-x,-y,-z
x,1/2-y,z
loop_
_atom_site_type_symbol
_atom_site_label
_atom_site_fract_x
_atom_site_fract_y
_atom_site_fract_z
Si Si1 0.397011 0.064954 0.186144
Si Si2 0.817948 0.062664 0.407454
Si Si3 0.268051 0.932661 0.874328
Si Si4 0.817788 0.062288 0.603655
Si Si5 0.058978 0.066528 0.700978
Si Si6 0.259130 0.436190 0.182839
Si Si7 0.364627 0.562090 0.481516
Si Si8 0.044891 0.565980 0.872009
O O1 0.403271 0.250000 0.205700
O O2 0.315297 0.998285 0.161243
O O3 0.518025 0.996940 0.345658
O O4 0.355337 0.027133 0.037588
O O5 0.818110 0.250000 0.411044
O O6 0.732304 0.006387 0.228321
O O7 0.789424 0.998996 0.470300
O O8 0.939258 0.008898 0.525740
O O9 0.299714 0.750000 0.918553
O O10 0.146184 0.955155 0.760938
O O11 0.833372 0.250000 0.623062
O O12 0.721000 0.007223 0.548815
O O13 0.929003 0.982004 0.773399
O O14 0.083243 0.250000 0.708834
O O15 0.066754 0.044369 0.814813
O O16 0.238962 0.250000 0.154556
O O17 0.338588 0.477858 0.358709
O O18 0.144337 0.526256 0.058659
O O19 0.362598 0.750000 0.466370
O O20 0.044488 0.750000 0.846864
#
# Coordination Sequence:
#
# PCOD8069481 Si02
#       8
#     4   4   4   4   4   4   4   4
#     4  10  22  39  57  81 114 149 185 230 283 335
#     4   8  17  32  52  79 110 146 185 224 275 329
#     4  11  20  31  52  82 112 146 187 229 272 328
#     4   9  19  39  61  80 111 150 187 232 281 328
#     4  10  18  32  52  77 114 151 182 223 279 332
#     4  11  22  37  59  84 115 148 180 227 289 340
#     4  10  22  40  62  83 105 144 195 237 278 331
#     4  11  21  34  56  86 117 147 184 227 273 333
#
# _framework density 20.221693999999999
#
# number of rings (size 3 to 8) (size 9 to 14) (size 15 to 20)
#    0.000    2.000    1.250    3.750    0.000    2.000 
#    0.000    6.250    0.000    0.000    0.000    0.000 
#    0.000    0.000    0.000    0.000    0.000    0.000 
#
# Total GULP energy -396736.019961 kJ/mol
# GULP energy per Si atom -12398.000624 kJ/mol
# Density = 2.017567 g / cm^3
# Si number density = 20.221694 Si / 1000 Ang^3
#
#
#
# Elastic Constant Matrix: (Units=GPa)
#
#
# Indices 1 2 3 4 5 6 
#
# 1 71.2203 19.1484 56.7801 0.0000 15.9533 0.0000
# 2 19.1484 32.8944 20.0637 0.0000 7.0292 0.0000
# 3 56.7801 20.0637 157.5051 0.0000 1.5111 0.0000
# 4 0.0000 0.0000 0.0000 25.6804 0.0000 -0.8044
# 5 15.9533 7.0292 1.5111 0.0000 24.9160 0.0000
# 6 0.0000 0.0000 0.0000 -0.8044 0.0000 16.2260
#
#
#
# Elastic Compliance Matrix: (Units=1/GPa)
#
#
# Indices 1 2 3 4 5 6 
#
# 1 0.025548 -0.006898 -0.008198 0.000000 -0.013915 0.000000
# 2 -0.006898 0.036998 -0.002170 0.000000 -0.005889 0.000000
# 3 -0.008198 -0.002170 0.009530 0.000000 0.005283 0.000000
# 4 0.000000 0.000000 0.000000 0.039001 0.000000 0.001933
# 5 -0.013915 -0.005889 0.005283 0.000000 0.050385 0.000000
# 6 0.000000 0.000000 0.000000 0.001933 0.000000 0.061725
#
#
# Mechanical properties :
#
#
# Convention : Reuss Voigt Hill
#
# Bulk Modulus (GPa) = 26.63516 50.40047 38.51781
# Shear Modulus (GPa) = 18.50252 24.40633 21.45442
#
# Velocity S-wave (km/s) = 3.02815 3.47787 3.26077
# Velocity P-wave (km/s) = 5.04246 6.41136 5.76767
#
# Compressibility (1/GPa) = 0.03754435
#
# Stress axis : x y z
#
# Youngs Moduli (GPa) = 39.14169 27.02865 104.93217
#
# Poissons Ratio (x) = 0.18645 0.86021
# Poissons Ratio (y) = 0.27002 0.22766
# Poissons Ratio (z) = 0.32088 0.05864
#
# Static dielectric constant tensor:
#      x y z
#    x 3.727020 0.000000 -0.049990 
#    y 0.000000 3.355840 0.000000 
#    z -0.049990 0.000000 3.888950 
# 
# 
# High freq. dielectric constant tensor:
#      x y z
#    x 1.770850 0.000000 -0.007450 
#    y 0.000000 1.770980 0.000000 
#    z -0.007450 0.000000 1.798660 
# 
# From -- ./inp_files/55745.got.cif
#   From: 2010.06.25/outbox.cif.g09.slc.cpg/sg11_28_cif.got.tgz:55745.got - 2010.06.27 23:14:04.
