data_PCOD8069396
_publ_section_title
;
Structure prediction by ZEFSAII (Michael W. Deem and Ramdas Pophale) SiO2 
 PCOD8069396
Probable space group: P 21/M
;
_chemical_formula_sum "Si O2"
_cell_formula_units_Z 32
_cell_length_a 17.015893
_cell_length_b 8.947923
_cell_length_c 15.501839
_cell_angle_alpha 90.000000
_cell_angle_beta 133.830769
_cell_angle_gamma 90.000000
_cell_volume 1702.665664
_symmetry_space_group_name_H-M "P 21/M"
_symmetry_group_IT_number 11
_symmetry_cell_setting 'monoclinic'
loop_
_space_group_symop_operation_xyz
x,y,z
-x,1/2+y,-z
-x,-y,-z
x,1/2-y,z
loop_
_atom_site_type_symbol
_atom_site_label
_atom_site_fract_x
_atom_site_fract_y
_atom_site_fract_z
Si Si1 0.197341 0.075687 0.290429
Si Si2 0.364790 0.572984 0.741522
Si Si3 0.799329 0.427673 0.531455
Si Si4 0.755672 0.926230 0.858950
Si Si5 0.268970 0.428856 0.836679
Si Si6 0.025612 0.418420 0.894598
Si Si7 0.608867 0.927488 0.899393
Si Si8 0.038755 0.083537 0.706883
O O1 0.200524 0.250000 0.313791
O O2 0.270917 0.036537 0.261629
O O3 0.242342 0.988564 0.407963
O O4 0.074873 0.029921 0.173371
O O5 0.359507 0.750000 0.750310
O O6 0.282923 0.519384 0.604503
O O7 0.333373 0.494852 0.805901
O O8 0.484499 0.516383 0.806538
O O9 0.805633 0.250000 0.545632
O O10 0.920512 0.494916 0.602077
O O11 0.760569 0.750000 0.877827
O O12 0.664782 0.993614 0.854694
O O13 0.876509 0.986552 0.973821
O O14 0.270163 0.250000 0.834013
O O15 0.143469 0.491044 0.739245
O O16 0.328322 0.486650 0.968383
O O17 0.991222 0.250000 0.896425
O O18 0.069215 0.413890 0.830287
O O19 0.610814 0.750000 0.899167
O O20 0.027165 0.250000 0.660951
#
# Coordination Sequence:
#
# PCOD8069396 Si02
#       8
#     4   4   4   4   4   4   4   4
#     4  10  19  29  47  76 103 126 162 210 247 278
#     4  10  21  35  52  73  97 129 168 211 246 283
#     4   9  19  36  52  67  97 138 172 197 238 296
#     4   9  16  28  49  75 100 131 167 198 236 295
#     4  10  18  31  54  77  96 124 163 203 247 299
#     4   9  15  28  49  71 101 136 163 189 236 303
#     4   9  17  32  53  75  99 129 167 200 238 296
#     4   8  14  27  49  72  93 126 165 193 227 292
#
# _framework density 18.794060000000002
#
# number of rings (size 3 to 8) (size 9 to 14) (size 15 to 20)
#    0.000    2.750    1.250    1.875    0.000    1.000 
#    0.000    3.750    0.000    3.750    0.000    0.000 
#    0.000    0.000    0.000    0.000    0.000    0.000 
#
# Total GULP energy -396558.595962 kJ/mol
# GULP energy per Si atom -12392.456124 kJ/mol
# Density = 1.875128 g / cm^3
# Si number density = 18.794060 Si / 1000 Ang^3
#
#
#
# Elastic Constant Matrix: (Units=GPa)
#
#
# Indices 1 2 3 4 5 6 
#
# 1 127.3355 18.6788 62.0908 0.0000 -8.0306 0.0000
# 2 18.6788 19.9231 12.0381 0.0000 -0.6166 0.0000
# 3 62.0908 12.0381 92.4216 0.0000 11.8387 0.0000
# 4 0.0000 0.0000 0.0000 17.9191 0.0000 -5.9844
# 5 -8.0306 -0.6166 11.8387 0.0000 20.0015 0.0000
# 6 0.0000 0.0000 0.0000 -5.9844 0.0000 22.0589
#
#
#
# Elastic Compliance Matrix: (Units=1/GPa)
#
#
# Indices 1 2 3 4 5 6 
#
# 1 0.014794 -0.007130 -0.010542 0.000000 0.011960 0.000000
# 2 -0.007130 0.058676 -0.002940 0.000000 0.000686 0.000000
# 3 -0.010542 -0.002940 0.020385 0.000000 -0.016389 0.000000
# 4 0.000000 0.000000 0.000000 0.061366 0.000000 0.016648
# 5 0.011960 0.000686 -0.016389 0.000000 0.064520 0.000000
# 6 0.000000 0.000000 0.000000 0.016648 0.000000 0.049850
#
#
# Mechanical properties :
#
#
# Convention : Reuss Voigt Hill
#
# Bulk Modulus (GPa) = 19.00089 47.25506 33.12798
# Shear Modulus (GPa) = 15.22725 21.78740 18.50732
#
# Velocity S-wave (km/s) = 2.84952 3.40850 3.14147
# Velocity P-wave (km/s) = 4.57803 6.37877 5.55189
#
# Compressibility (1/GPa) = 0.05262910
#
# Stress axis : x y z
#
# Youngs Moduli (GPa) = 67.59509 17.04285 49.05626
#
# Poissons Ratio (x) = 0.12152 0.51716
# Poissons Ratio (y) = 0.48196 0.14425
# Poissons Ratio (z) = 0.71260 0.05011
#
# Static dielectric constant tensor:
#      x y z
#    x 3.681990 0.000000 0.018400 
#    y 0.000000 2.990800 0.000000 
#    z 0.018400 0.000000 3.465370 
# 
# 
# High freq. dielectric constant tensor:
#      x y z
#    x 1.735860 0.000000 -0.006780 
#    y 0.000000 1.681590 0.000000 
#    z -0.006780 0.000000 1.723480 
# 
# From -- ./inp_files/51734.got.cif
#   From: 2010.06.25/outbox.cif.g09.slc.cpg/sg11_26_cif.got.tgz:51734.got - 2010.06.27 23:14:04.
