data_PCOD8069860
_publ_section_title
;
Structure prediction by ZEFSAII (Michael W. Deem and Ramdas Pophale) SiO2 
 PCOD8069860
Probable space group: P 21/M
;
_chemical_formula_sum "Si O2"
_cell_formula_units_Z 16
_cell_length_a 22.403099
_cell_length_b 9.642310
_cell_length_c 8.404771
_cell_angle_alpha 90.000000
_cell_angle_beta 32.379736
_cell_angle_gamma 90.000000
_cell_volume 972.293480
_symmetry_space_group_name_H-M "P 21/M"
_symmetry_group_IT_number 11
_symmetry_cell_setting 'monoclinic'
loop_
_space_group_symop_operation_xyz
x,y,z
-x,1/2+y,-z
-x,-y,-z
x,1/2-y,z
loop_
_atom_site_type_symbol
_atom_site_label
_atom_site_fract_x
_atom_site_fract_y
_atom_site_fract_z
Si Si1 0.921631 0.750000 0.631118
Si Si2 0.169344 0.033341 0.389645
Si Si3 0.393194 0.093903 0.718118
Si Si4 0.948579 0.250000 0.357347
Si Si5 0.173601 0.250000 0.650696
Si Si6 0.698656 0.750000 0.332821
O O1 0.918370 0.614151 0.526305
O O2 0.030492 0.750000 0.498334
O O3 0.816233 0.750000 0.980820
O O4 0.180257 0.111650 0.532300
O O5 0.123589 0.882041 0.528970
O O6 0.290543 0.020665 0.037493
O O7 0.410100 0.250000 0.752933
O O8 0.366618 0.112858 0.587647
O O9 0.500000 0.000000 0.500000
O O10 0.061624 0.250000 0.004244
O O11 0.282762 0.250000 0.520562
#
# Coordination Sequence:
#
# PCOD8069860 Si02
#       6
#     2   4   4   2   2   2
#     4   8  16  34  48  71 101 134 162 203 251 285
#     4  10  19  33  51  74 103 133 165 205 247 290
#     4   9  18  35  57  73  95 126 168 211 253 281
#     4  11  20  27  53  78  99 132 175 200 230 301
#     4  10  18  36  49  65 111 140 155 189 258 303
#     4   7  16  31  54  70  95 132 160 196 253 295
#
# _framework density 16.455936000000001
#
# number of rings (size 3 to 8) (size 9 to 14) (size 15 to 20)
#    0.750    2.000    2.500    1.500    1.750    0.000 
#    0.000    1.250    2.750    0.000    0.000    0.000 
#    0.000    0.000    0.000    0.000    0.000    0.000 
#
# Total GULP energy -198234.200228 kJ/mol
# GULP energy per Si atom -12389.637514 kJ/mol
# Density = 1.641848 g / cm^3
# Si number density = 16.455936 Si / 1000 Ang^3
#
#
#
# Elastic Constant Matrix: (Units=GPa)
#
#
# Indices 1 2 3 4 5 6 
#
# 1 140.9973 59.5688 44.7300 0.0000 4.1884 0.0000
# 2 59.5688 104.4230 31.8977 0.0000 -8.5196 0.0000
# 3 44.7300 31.8977 64.9282 0.0000 -7.6871 0.0000
# 4 0.0000 0.0000 0.0000 22.3118 0.0000 -7.5045
# 5 4.1884 -8.5196 -7.6871 0.0000 22.6293 0.0000
# 6 0.0000 0.0000 0.0000 -7.5045 0.0000 20.4128
#
#
#
# Elastic Compliance Matrix: (Units=1/GPa)
#
#
# Indices 1 2 3 4 5 6 
#
# 1 0.011350 -0.005133 -0.006017 0.000000 -0.006077 0.000000
# 2 -0.005133 0.013721 -0.002585 0.000000 0.005238 0.000000
# 3 -0.006017 -0.002585 0.021707 0.000000 0.007514 0.000000
# 4 0.000000 0.000000 0.000000 0.051143 0.000000 0.018802
# 5 -0.006077 0.005238 0.007514 0.000000 0.049840 0.000000
# 6 0.000000 0.000000 0.000000 0.018802 0.000000 0.055901
#
#
# Mechanical properties :
#
#
# Convention : Reuss Voigt Hill
#
# Bulk Modulus (GPa) = 51.79076 64.74907 58.26992
# Shear Modulus (GPa) = 21.04659 24.68092 22.86376
#
# Velocity S-wave (km/s) = 3.58014 3.87695 3.73150
# Velocity P-wave (km/s) = 6.97357 7.71190 7.35201
#
# Compressibility (1/GPa) = 0.01930846
#
# Stress axis : x y z
#
# Youngs Moduli (GPa) = 88.10421 72.87955 46.06896
#
# Poissons Ratio (x) = 0.37406 0.27721
# Poissons Ratio (y) = 0.45220 0.11909
# Poissons Ratio (z) = 0.53015 0.18839
#
# Static dielectric constant tensor:
#      x y z
#    x 3.478930 0.000000 0.033950 
#    y 0.000000 2.938320 0.000000 
#    z 0.033950 0.000000 2.837110 
# 
# 
# High freq. dielectric constant tensor:
#      x y z
#    x 1.631640 0.000000 -0.000020 
#    y 0.000000 1.625360 0.000000 
#    z -0.000020 0.000000 1.614070 
# 
# From -- ./inp_files/15681.got.cif
#   From: 2010.06.25/outbox.cif.g09.slc.cpg/sg11_8_cif.got.tgz:15681.got - 2010.06.27 23:14:04.
