data_PCOD8069567
_publ_section_title
;
Structure prediction by ZEFSAII (Michael W. Deem and Ramdas Pophale) SiO2 
 PCOD8069567
Probable space group: P 21/M
;
_chemical_formula_sum "Si O2"
_cell_formula_units_Z 32
_cell_length_a 11.786020
_cell_length_b 14.720296
_cell_length_c 17.401199
_cell_angle_alpha 90.000000
_cell_angle_beta 146.932783
_cell_angle_gamma 90.000000
_cell_volume 1647.233643
_symmetry_space_group_name_H-M "P 21/M"
_symmetry_group_IT_number 11
_symmetry_cell_setting 'monoclinic'
loop_
_space_group_symop_operation_xyz
x,y,z
-x,1/2+y,-z
-x,-y,-z
x,1/2-y,z
loop_
_atom_site_type_symbol
_atom_site_label
_atom_site_fract_x
_atom_site_fract_y
_atom_site_fract_z
Si Si1 0.934916 0.153608 0.226379
Si Si2 0.435476 0.856385 0.734637
Si Si3 0.532671 0.602020 0.039659
Si Si4 0.129163 0.076981 0.472521
Si Si5 0.170432 0.514844 0.288005
Si Si6 0.774815 0.964599 0.312742
Si Si7 0.446034 0.543388 0.585085
Si Si8 0.812737 0.650043 0.057313
O O1 0.999386 0.250000 0.224856
O O2 0.021694 0.157075 0.363405
O O3 0.685519 0.152932 0.085623
O O4 0.037734 0.070003 0.242506
O O5 0.360644 0.750000 0.704019
O O6 0.442590 0.876911 0.647094
O O7 0.299815 0.934299 0.700956
O O8 0.662627 0.868795 0.900231
O O9 0.619746 0.598292 0.176056
O O10 0.691948 0.645587 0.070133
O O11 0.500000 0.500000 0.000000
O O12 0.159147 0.100521 0.579134
O O13 0.355058 0.050410 0.567750
O O14 0.979679 0.987043 0.378762
O O15 0.305076 0.566545 0.430048
O O16 0.317868 0.476551 0.304928
O O17 0.005702 0.583123 0.158705
O O18 0.907916 0.750000 0.105079
#
# Coordination Sequence:
#
# PCOD8069567 Si02
#       8
#     4   4   4   4   4   4   4   4
#     4  11  21  34  55  80 108 144 182 223 279 336
#     4  10  20  34  54  85 114 142 184 228 276 335
#     4  12  18  34  56  83 113 146 178 226 278 333
#     4   9  18  34  52  77 103 138 181 221 268 329
#     4  10  20  39  57  80 109 143 190 232 278 322
#     4  10  18  32  56  79 109 147 178 221 278 330
#     4   9  20  36  58  76 104 145 185 230 275 321
#     4  11  22  36  56  83 114 147 185 231 280 334
#
# _framework density 19.426508999999999
#
# number of rings (size 3 to 8) (size 9 to 14) (size 15 to 20)
#    0.000    1.750    3.750    1.125    0.000    3.000 
#    0.000    6.250    0.000    0.750    0.000    0.000 
#    0.000    0.000    0.000    0.000    0.000    0.000 
#
# Total GULP energy -396438.251135 kJ/mol
# GULP energy per Si atom -12388.695348 kJ/mol
# Density = 1.938229 g / cm^3
# Si number density = 19.426509 Si / 1000 Ang^3
#
#
#
# Elastic Constant Matrix: (Units=GPa)
#
#
# Indices 1 2 3 4 5 6 
#
# 1 60.1660 6.4363 20.5920 0.0000 3.7563 0.0000
# 2 6.4363 75.7562 34.6698 0.0000 -6.4977 0.0000
# 3 20.5920 34.6698 104.4962 0.0000 -6.5835 0.0000
# 4 0.0000 0.0000 0.0000 8.9935 0.0000 -2.8860
# 5 3.7563 -6.4977 -6.5835 0.0000 34.1945 0.0000
# 6 0.0000 0.0000 0.0000 -2.8860 0.0000 8.3031
#
#
#
# Elastic Compliance Matrix: (Units=1/GPa)
#
#
# Indices 1 2 3 4 5 6 
#
# 1 0.018066 -0.000071 -0.003708 0.000000 -0.002712 0.000000
# 2 -0.000071 0.015698 -0.005067 0.000000 0.002015 0.000000
# 3 -0.003708 -0.005067 0.012093 0.000000 0.001773 0.000000
# 4 0.000000 0.000000 0.000000 0.125151 0.000000 0.043500
# 5 -0.002712 0.002015 0.001773 0.000000 0.030267 0.000000
# 6 0.000000 0.000000 0.000000 0.043500 0.000000 0.135557
#
#
# Mechanical properties :
#
#
# Convention : Reuss Voigt Hill
#
# Bulk Modulus (GPa) = 35.50327 40.42385 37.96356
# Shear Modulus (GPa) = 13.73953 22.21290 17.97621
#
# Velocity S-wave (km/s) = 2.66232 3.38514 3.04525
# Velocity P-wave (km/s) = 5.26934 6.01104 5.65237
#
# Compressibility (1/GPa) = 0.02816642
#
# Stress axis : x y z
#
# Youngs Moduli (GPa) = 55.35113 63.70155 82.69036
#
# Poissons Ratio (x) = 0.00451 0.30658
# Poissons Ratio (y) = 0.00392 0.41903
# Poissons Ratio (z) = 0.20522 0.32280
#
# Static dielectric constant tensor:
#      x y z
#    x 3.394790 0.000000 0.047520 
#    y 0.000000 3.310730 0.000000 
#    z 0.047520 0.000000 3.443350 
# 
# 
# High freq. dielectric constant tensor:
#      x y z
#    x 1.743240 0.000000 -0.004130 
#    y 0.000000 1.732370 0.000000 
#    z -0.004130 0.000000 1.771090 
# 
# From -- ./inp_files/59488.got.cif
#   From: 2010.06.25/outbox.cif.g09.slc.cpg/sg11_30_cif.got.tgz:59488.got - 2010.06.27 23:14:04.
