data_PCOD8069530
_publ_section_title
;
Structure prediction by ZEFSAII (Michael W. Deem and Ramdas Pophale) SiO2 
 PCOD8069530
Probable space group: P 21/M
;
_chemical_formula_sum "Si O2"
_cell_formula_units_Z 32
_cell_length_a 10.481693
_cell_length_b 17.317757
_cell_length_c 12.112887
_cell_angle_alpha 90.000000
_cell_angle_beta 129.514956
_cell_angle_gamma 90.000000
_cell_volume 1696.224465
_symmetry_space_group_name_H-M "P 21/M"
_symmetry_group_IT_number 11
_symmetry_cell_setting 'monoclinic'
loop_
_space_group_symop_operation_xyz
x,y,z
-x,1/2+y,-z
-x,-y,-z
x,1/2-y,z
loop_
_atom_site_type_symbol
_atom_site_label
_atom_site_fract_x
_atom_site_fract_y
_atom_site_fract_z
Si Si1 0.550875 0.842755 0.323822
Si Si2 0.639800 0.660198 0.911894
Si Si3 0.070709 0.842263 0.321404
Si Si4 0.280248 0.159718 0.804459
Si Si5 0.176336 0.839988 0.137882
Si Si6 0.622805 0.927512 0.576124
Si Si7 0.391363 0.661526 0.602111
Si Si8 0.102754 0.426834 0.097465
O O1 0.565957 0.750000 0.347363
O O2 0.626848 0.874101 0.250654
O O3 0.361137 0.873113 0.221498
O O4 0.654138 0.888703 0.474187
O O5 0.696507 0.750000 0.925358
O O6 0.617313 0.641219 0.028216
O O7 0.456129 0.646037 0.761324
O O8 0.771229 0.603786 0.926811
O O9 0.058905 0.750000 0.314831
O O10 0.105360 0.870673 0.215873
O O11 0.215195 0.878040 0.479246
O O12 0.901469 0.877128 0.277043
O O13 0.263404 0.250000 0.775372
O O14 0.196248 0.750000 0.147177
O O15 0.045762 0.864135 0.970127
O O16 0.534003 0.862103 0.597407
O O17 0.798498 0.945255 0.734124
O O18 0.500000 0.000000 0.500000
O O19 0.359612 0.750000 0.559658
O O20 0.000000 0.500000 0.000000
#
# Coordination Sequence:
#
# PCOD8069530 Si02
#       8
#     4   4   4   4   4   4   4   4
#     4  10  20  35  56  84 114 143 174 215 271 325
#     4   9  17  32  53  79 105 135 176 220 267 320
#     4   9  15  27  51  79 102 132 173 214 256 309
#     4   9  17  30  52  81 112 140 169 212 268 323
#     4  10  18  32  54  80 107 138 179 221 264 316
#     4  11  22  35  53  76 109 145 181 224 274 318
#     4   9  17  30  53  80 102 130 178 228 263 306
#     4  11  22  33  52  80 107 139 184 232 271 308
#
# _framework density 18.865425999999999
#
# number of rings (size 3 to 8) (size 9 to 14) (size 15 to 20)
#    0.000    2.250    2.500    1.500    0.000    1.500 
#    0.000    1.250    0.000   14.250    0.000    0.000 
#    0.000    0.000    0.000    0.000    0.000    0.000 
#
# Total GULP energy -396428.571110 kJ/mol
# GULP energy per Si atom -12388.392847 kJ/mol
# Density = 1.882249 g / cm^3
# Si number density = 18.865426 Si / 1000 Ang^3
#
#
#
# Elastic Constant Matrix: (Units=GPa)
#
#
# Indices 1 2 3 4 5 6 
#
# 1 112.8211 21.2999 69.7502 0.0000 -3.6341 0.0000
# 2 21.2999 25.0825 36.8807 0.0000 -3.1562 0.0000
# 3 69.7502 36.8807 181.8259 0.0000 11.6168 0.0000
# 4 0.0000 0.0000 0.0000 25.4659 0.0000 6.1956
# 5 -3.6341 -3.1562 11.6168 0.0000 34.5209 0.0000
# 6 0.0000 0.0000 0.0000 6.1956 0.0000 12.1941
#
#
#
# Elastic Compliance Matrix: (Units=1/GPa)
#
#
# Indices 1 2 3 4 5 6 
#
# 1 0.012182 -0.004253 -0.003952 0.000000 0.002224 0.000000
# 2 -0.004253 0.061358 -0.011389 0.000000 0.008995 0.000000
# 3 -0.003952 -0.011389 0.009626 0.000000 -0.004697 0.000000
# 4 0.000000 0.000000 0.000000 0.044807 0.000000 -0.022765
# 5 0.002224 0.008995 -0.004697 0.000000 0.031605 0.000000
# 6 0.000000 0.000000 0.000000 -0.022765 0.000000 0.093573
#
#
# Mechanical properties :
#
#
# Convention : Reuss Voigt Hill
#
# Bulk Modulus (GPa) = 22.73925 63.95456 43.34690
# Shear Modulus (GPa) = 16.28676 27.22276 21.75476
#
# Velocity S-wave (km/s) = 2.94141 3.80280 3.39950
# Velocity P-wave (km/s) = 4.85957 7.29765 6.19964
#
# Compressibility (1/GPa) = 0.04397683
#
# Stress axis : x y z
#
# Youngs Moduli (GPa) = 82.09027 16.29790 103.88547
#
# Poissons Ratio (x) = 0.06932 0.41059
# Poissons Ratio (y) = 0.34916 1.18310
# Poissons Ratio (z) = 0.32445 0.18561
#
# Static dielectric constant tensor:
#      x y z
#    x 3.602520 0.000000 0.428300 
#    y 0.000000 3.252380 0.000000 
#    z 0.428300 0.000000 4.440250 
# 
# 
# High freq. dielectric constant tensor:
#      x y z
#    x 1.704460 0.000000 0.017500 
#    y 0.000000 1.705000 0.000000 
#    z 0.017500 0.000000 1.749830 
# 
# From -- ./inp_files/36049.got.cif
#   From: 2010.06.25/outbox.cif.g09.slc.cpg/sg11_19_cif.got.tgz:36049.got - 2010.06.27 23:14:04.
