data_PCOD8069962
_publ_section_title
;
Structure prediction by ZEFSAII (Michael W. Deem and Ramdas Pophale) SiO2 
 PCOD8069962
Probable space group: P 21/M
;
_chemical_formula_sum "Si O2"
_cell_formula_units_Z 32
_cell_length_a 18.826110
_cell_length_b 9.026379
_cell_length_c 26.918211
_cell_angle_alpha 90.000000
_cell_angle_beta 27.977288
_cell_angle_gamma 90.000000
_cell_volume 2145.881379
_symmetry_space_group_name_H-M "P 21/M"
_symmetry_group_IT_number 11
_symmetry_cell_setting 'monoclinic'
loop_
_space_group_symop_operation_xyz
x,y,z
-x,1/2+y,-z
-x,-y,-z
x,1/2-y,z
loop_
_atom_site_type_symbol
_atom_site_label
_atom_site_fract_x
_atom_site_fract_y
_atom_site_fract_z
Si Si1 0.637933 0.077045 0.474643
Si Si2 0.756984 0.075002 0.506927
Si Si3 0.112589 0.923971 0.861707
Si Si4 0.469603 0.578070 0.269099
Si Si5 0.790524 0.575836 0.100208
Si Si6 0.975943 0.579904 0.435608
Si Si7 0.705816 0.922675 0.333615
Si Si8 0.206771 0.578743 0.367881
O O1 0.667843 0.250000 0.446558
O O2 0.712293 0.020458 0.479817
O O3 0.459013 0.044415 0.587656
O O4 0.716537 0.984357 0.382684
O O5 0.765942 0.250000 0.503062
O O6 0.633143 0.012235 0.622614
O O7 0.923262 0.012718 0.419846
O O8 0.142619 0.750000 0.841903
O O9 0.204783 0.992633 0.850360
O O10 0.167752 0.995158 0.776585
O O11 0.934770 0.962572 0.977121
O O12 0.485733 0.750000 0.270110
O O13 0.640545 0.514760 0.164304
O O14 0.386601 0.549165 0.266929
O O15 0.785270 0.750000 0.115141
O O16 0.947066 0.750000 0.440584
O O17 0.880165 0.533819 0.542815
O O18 0.152541 0.552852 0.343987
O O19 0.742934 0.750000 0.311435
O O20 0.169869 0.750000 0.405915
#
# Coordination Sequence:
#
# PCOD8069962 Si02
#       8
#     4   4   4   4   4   4   4   4
#     4   9  18  31  45  61  79 102 135 168 196 231
#     4   9  16  26  40  56  78 107 132 158 193 231
#     4  10  19  29  42  60  82 106 132 165 202 238
#     4   8  13  24  41  57  75 103 137 164 189 226
#     4   9  17  29  44  60  78 104 138 170 197 230
#     4   9  15  22  34  53  76 101 130 161 190 226
#     4  10  19  31  46  60  78 105 133 164 201 237
#     4   8  14  24  36  50  72 103 133 160 192 228
#
# _framework density 14.912288
#
# number of rings (size 3 to 8) (size 9 to 14) (size 15 to 20)
#    0.000    3.000    0.000    2.625    0.000    4.000 
#    0.000    5.000    0.000    0.000    0.000    0.000 
#    0.000    1.000    0.000    2.000    0.000    2.875 
#
# Total GULP energy -396477.590198 kJ/mol
# GULP energy per Si atom -12389.924694 kJ/mol
# Density = 1.487835 g / cm^3
# Si number density = 14.912288 Si / 1000 Ang^3
#
#
#
# Elastic Constant Matrix: (Units=GPa)
#
#
# Indices 1 2 3 4 5 6 
#
# 1 145.2699 31.8784 50.7578 0.0000 -15.6968 0.0000
# 2 31.8784 37.5907 25.4347 0.0000 0.7209 0.0000
# 3 50.7578 25.4347 67.3932 0.0000 -4.5472 0.0000
# 4 0.0000 0.0000 0.0000 16.9222 0.0000 2.2540
# 5 -15.6968 0.7209 -4.5472 0.0000 21.8782 0.0000
# 6 0.0000 0.0000 0.0000 2.2540 0.0000 23.8965
#
#
#
# Elastic Compliance Matrix: (Units=1/GPa)
#
#
# Indices 1 2 3 4 5 6 
#
# 1 0.010767 -0.005481 -0.005586 0.000000 0.006744 0.000000
# 2 -0.005481 0.038870 -0.011049 0.000000 -0.007509 0.000000
# 3 -0.005586 -0.011049 0.023296 0.000000 0.001198 0.000000
# 4 0.000000 0.000000 0.000000 0.059846 0.000000 -0.005645
# 5 0.006744 -0.007509 0.001198 0.000000 0.051043 0.000000
# 6 0.000000 0.000000 0.000000 -0.005645 0.000000 0.042380
#
#
# Mechanical properties :
#
#
# Convention : Reuss Voigt Hill
#
# Bulk Modulus (GPa) = 34.83989 51.82173 43.33081
# Shear Modulus (GPa) = 17.85724 22.01825 19.93775
#
# Velocity S-wave (km/s) = 3.46422 3.84672 3.66047
# Velocity P-wave (km/s) = 6.27814 7.38621 6.85460
#
# Compressibility (1/GPa) = 0.02870273
#
# Stress axis : x y z
#
# Youngs Moduli (GPa) = 92.87781 25.72681 42.92611
#
# Poissons Ratio (x) = 0.14100 0.23977
# Poissons Ratio (y) = 0.50903 0.47428
# Poissons Ratio (z) = 0.51878 0.28425
#
# Static dielectric constant tensor:
#      x y z
#    x 3.239400 0.000000 -0.271270 
#    y 0.000000 2.837180 0.000000 
#    z -0.271270 0.000000 2.693800 
# 
# 
# High freq. dielectric constant tensor:
#      x y z
#    x 1.576800 0.000000 -0.017450 
#    y 0.000000 1.568650 0.000000 
#    z -0.017450 0.000000 1.522790 
# 
# From -- ./inp_files/43789.got.cif
#   From: 2010.06.25/outbox.cif.g09.slc.cpg/sg11_22_cif.got.tgz:43789.got - 2010.06.27 23:14:04.
