data_PCOD8069949
_publ_section_title
;
Structure prediction by ZEFSAII (Michael W. Deem and Ramdas Pophale) SiO2 
 PCOD8069949
Probable space group: P 21/M
;
_chemical_formula_sum "Si O2"
_cell_formula_units_Z 32
_cell_length_a 31.632627
_cell_length_b 9.121035
_cell_length_c 20.841774
_cell_angle_alpha 90.000000
_cell_angle_beta 20.220143
_cell_angle_gamma 90.000000
_cell_volume 2078.371262
_symmetry_space_group_name_H-M "P 21/M"
_symmetry_group_IT_number 11
_symmetry_cell_setting 'monoclinic'
loop_
_space_group_symop_operation_xyz
x,y,z
-x,1/2+y,-z
-x,-y,-z
x,1/2-y,z
loop_
_atom_site_type_symbol
_atom_site_label
_atom_site_fract_x
_atom_site_fract_y
_atom_site_fract_z
Si Si1 0.739238 0.922047 0.518199
Si Si2 0.179669 0.913603 0.716519
Si Si3 0.248280 0.576262 0.220431
Si Si4 0.908773 0.587276 0.046111
Si Si5 0.987344 0.079387 0.367636
Si Si6 0.882199 0.577637 0.696326
Si Si7 0.966540 0.424500 0.255671
Si Si8 0.507715 0.420566 0.056318
O O1 0.766694 0.750000 0.474529
O O2 0.608804 0.957215 0.734582
O O3 0.738629 0.988382 0.447371
O O4 0.839765 0.997390 0.419716
O O5 0.234581 0.750000 0.641660
O O6 0.181370 0.981331 0.785928
O O7 0.042126 0.910249 0.887446
O O8 0.243520 0.750000 0.216230
O O9 0.137247 0.516719 0.423157
O O10 0.236368 0.497728 0.167315
O O11 0.373906 0.524081 0.073500
O O12 0.851569 0.750000 0.129155
O O13 0.926712 0.531904 0.947116
O O14 0.963764 0.250000 0.393783
O O15 0.106995 0.049534 0.241894
O O16 0.008405 0.016818 0.266042
O O17 0.884195 0.750000 0.678201
O O18 0.000000 0.500000 0.500000
O O19 0.943995 0.250000 0.284243
O O20 0.519032 0.250000 0.025180
O O21 0.500000 0.500000 0.000000
#
# Coordination Sequence:
#
# PCOD8069949 Si02
#       8
#     4   4   4   4   4   4   4   4
#     4  10  19  29  40  58  82 107 139 176 206 234
#     4   9  16  26  40  55  74 105 138 165 199 241
#     4   9  17  30  44  58  80 110 141 173 207 241
#     4   8  14  23  37  57  78 101 131 165 198 236
#     4   8  14  25  42  60  79 104 133 164 198 241
#     4   9  16  27  43  62  81 104 135 170 207 245
#     4   9  16  27  42  59  81 111 139 162 199 248
#     4  10  21  33  45  61  83 112 144 178 212 243
#
# _framework density 15.396672000000001
#
# number of rings (size 3 to 8) (size 9 to 14) (size 15 to 20)
#    0.000    3.000    0.000    3.375    0.000    5.500 
#    0.000    4.375    0.000    0.000    0.000    0.000 
#    0.000    1.000    0.000    2.000    0.000    3.000 
#
# Total GULP energy -396540.709867 kJ/mol
# GULP energy per Si atom -12391.897183 kJ/mol
# Density = 1.536163 g / cm^3
# Si number density = 15.396672 Si / 1000 Ang^3
#
#
#
# Elastic Constant Matrix: (Units=GPa)
#
#
# Indices 1 2 3 4 5 6 
#
# 1 146.1337 50.1903 60.2982 0.0000 8.6060 0.0000
# 2 50.1903 63.9279 32.9066 0.0000 4.1076 0.0000
# 3 60.2982 32.9066 56.0086 0.0000 5.4226 0.0000
# 4 0.0000 0.0000 0.0000 17.5856 0.0000 1.9061
# 5 8.6060 4.1076 5.4226 0.0000 23.3699 0.0000
# 6 0.0000 0.0000 0.0000 1.9061 0.0000 24.1659
#
#
#
# Elastic Compliance Matrix: (Units=1/GPa)
#
#
# Indices 1 2 3 4 5 6 
#
# 1 0.013147 -0.004323 -0.011476 0.000000 -0.001419 0.000000
# 2 -0.004323 0.023865 -0.009324 0.000000 -0.000439 0.000000
# 3 -0.011476 -0.009324 0.035927 0.000000 -0.002471 0.000000
# 4 0.000000 0.000000 0.000000 0.057355 0.000000 -0.004524
# 5 -0.001419 -0.000439 -0.002471 0.000000 0.043963 0.000000
# 6 0.000000 0.000000 0.000000 -0.004524 0.000000 0.041737
#
#
# Mechanical properties :
#
#
# Convention : Reuss Voigt Hill
#
# Bulk Modulus (GPa) = 44.07043 61.42893 52.74968
# Shear Modulus (GPa) = 18.26112 21.20264 19.73188
#
# Velocity S-wave (km/s) = 3.44763 3.71495 3.58378
# Velocity P-wave (km/s) = 6.67336 7.64102 7.17353
#
# Compressibility (1/GPa) = 0.02269095
#
# Stress axis : x y z
#
# Youngs Moduli (GPa) = 76.06399 41.90305 27.83392
#
# Poissons Ratio (x) = 0.18115 0.31943
# Poissons Ratio (y) = 0.32883 0.25953
# Poissons Ratio (z) = 0.87294 0.39072
#
# Static dielectric constant tensor:
#      x y z
#    x 3.432440 0.000000 0.187530 
#    y 0.000000 3.030810 0.000000 
#    z 0.187530 0.000000 2.751470 
# 
# 
# High freq. dielectric constant tensor:
#      x y z
#    x 1.591370 0.000000 0.018520 
#    y 0.000000 1.589030 0.000000 
#    z 0.018520 0.000000 1.542950 
# 
# From -- ./inp_files/67410.got.cif
#   From: 2010.06.25/outbox.cif.g09.slc.cpg/sg11_34_cif.got.tgz:67410.got - 2010.06.27 23:14:04.
