data_PCOD8069531
_publ_section_title
;
Structure prediction by ZEFSAII (Michael W. Deem and Ramdas Pophale) SiO2 
 PCOD8069531
Probable space group: P 21/M
;
_chemical_formula_sum "Si O2"
_cell_formula_units_Z 28
_cell_length_a 12.199775
_cell_length_b 13.496729
_cell_length_c 9.477112
_cell_angle_alpha 90.000000
_cell_angle_beta 112.855796
_cell_angle_gamma 90.000000
_cell_volume 1437.953339
_symmetry_space_group_name_H-M "P 21/M"
_symmetry_group_IT_number 11
_symmetry_cell_setting 'monoclinic'
loop_
_space_group_symop_operation_xyz
x,y,z
-x,1/2+y,-z
-x,-y,-z
x,1/2-y,z
loop_
_atom_site_type_symbol
_atom_site_label
_atom_site_fract_x
_atom_site_fract_y
_atom_site_fract_z
Si Si1 0.810874 0.357072 0.565998
Si Si2 0.792541 0.862333 0.052193
Si Si3 0.622683 0.512060 0.141744
Si Si4 0.377317 0.487941 0.519062
Si Si5 0.189127 0.857072 0.755125
Si Si6 1.000000 0.000000 0.236727
Si Si7 0.792541 0.637667 0.740348
O O1 0.822534 0.250000 0.650342
O O2 0.698235 0.416783 0.569485
O O3 0.784080 0.335989 0.392040
O O4 0.930982 0.420546 0.633983
O O5 0.833884 0.750000 0.108381
O O6 0.694767 0.892529 0.120425
O O7 0.733678 0.866289 0.866839
O O8 0.905948 0.935984 0.100346
O O9 0.607410 0.520953 0.303705
O O10 0.698236 0.416784 0.128750
O O11 0.500000 0.500000 0.000000
O O12 0.500000 0.500000 0.500000
O O13 0.305233 0.392530 0.425658
O O14 0.177467 0.750000 0.827810
O O15 0.069018 0.920545 0.703000
O O16 0.094051 0.064017 0.194397
O O17 0.833884 0.750000 0.725503
#
# Coordination Sequence:
#
# PCOD8069531 Si02
#       7
#     4   4   4   4   4   4   4
#     4   9  18  32  51  77 108 140 173 213 267 327
#     4  10  21  36  55  80 111 147 183 223 274 327
#     4  10  21  37  57  80 107 141 181 226 274 325
#     4  10  21  37  57  80 107 141 181 226 274 325
#     4   9  18  32  51  77 108 140 173 213 267 327
#     4  10  18  32  54  80 107 140 181 226 267 318
#     4  10  21  36  55  80 111 147 183 223 274 327
#
# _framework density 19.47212
#
# number of rings (size 3 to 8) (size 9 to 14) (size 15 to 20)
#    0.000    2.286    0.000    2.571    0.000    2.857 
#    0.000    2.857    0.000   16.286    0.000    0.000 
#    0.000    0.000    0.000    0.000    0.000    0.000 
#
# Total GULP energy -346892.338211 kJ/mol
# GULP energy per Si atom -12389.012079 kJ/mol
# Density = 1.942780 g / cm^3
# Si number density = 19.472120 Si / 1000 Ang^3
#
#
#
# Elastic Constant Matrix: (Units=GPa)
#
#
# Indices 1 2 3 4 5 6 
#
# 1 125.5545 60.3791 47.5740 0.0000 8.9714 0.0000
# 2 60.3791 159.8402 42.7326 0.0000 7.9627 0.0000
# 3 47.5740 42.7326 90.0753 0.0000 7.0387 0.0000
# 4 0.0000 0.0000 0.0000 22.2260 0.0000 -2.4475
# 5 8.9714 7.9627 7.0387 0.0000 29.9212 0.0000
# 6 0.0000 0.0000 0.0000 -2.4475 0.0000 16.8020
#
#
#
# Elastic Compliance Matrix: (Units=1/GPa)
#
#
# Indices 1 2 3 4 5 6 
#
# 1 0.011156 -0.002972 -0.004363 0.000000 -0.001528 0.000000
# 2 -0.002972 0.007994 -0.002166 0.000000 -0.000727 0.000000
# 3 -0.004363 -0.002166 0.014554 0.000000 -0.001539 0.000000
# 4 0.000000 0.000000 0.000000 0.045726 0.000000 0.006661
# 5 -0.001528 -0.000727 -0.001539 0.000000 0.034435 0.000000
# 6 0.000000 0.000000 0.000000 0.006661 0.000000 0.060487
#
#
# Mechanical properties :
#
#
# Convention : Reuss Voigt Hill
#
# Bulk Modulus (GPa) = 68.01509 75.20459 71.60984
# Shear Modulus (GPa) = 25.22013 28.77546 26.99780
#
# Velocity S-wave (km/s) = 3.60278 3.84836 3.72759
# Velocity P-wave (km/s) = 7.23270 7.64539 7.44191
#
# Compressibility (1/GPa) = 0.01470262
#
# Stress axis : x y z
#
# Youngs Moduli (GPa) = 89.63714 125.09223 68.70910
#
# Poissons Ratio (x) = 0.37173 0.29978
# Poissons Ratio (y) = 0.26637 0.14884
# Poissons Ratio (z) = 0.39109 0.27097
#
# Static dielectric constant tensor:
#      x y z
#    x 3.456090 0.000000 0.035360 
#    y 0.000000 4.429320 0.000000 
#    z 0.035360 0.000000 3.377730 
# 
# 
# High freq. dielectric constant tensor:
#      x y z
#    x 1.751370 0.000000 0.004400 
#    y 0.000000 1.773900 0.000000 
#    z 0.004400 0.000000 1.741620 
# 
# From -- ./inp_files/17793.got.cif
#   From: 2010.06.25/outbox.cif.g09.slc.cpg/sg11_9_cif.got.tgz:17793.got - 2010.06.27 23:14:04.
