data_PCOD8069814
_publ_section_title
;
Structure prediction by ZEFSAII (Michael W. Deem and Ramdas Pophale) SiO2 
 PCOD8069814
Probable space group: P 21/M
;
_chemical_formula_sum "Si O2"
_cell_formula_units_Z 26
_cell_length_a 20.718816
_cell_length_b 11.883687
_cell_length_c 14.673140
_cell_angle_alpha 90.000000
_cell_angle_beta 159.756188
_cell_angle_gamma 90.000000
_cell_volume 1250.072039
_symmetry_space_group_name_H-M "P 21/M"
_symmetry_group_IT_number 11
_symmetry_cell_setting 'monoclinic'
loop_
_space_group_symop_operation_xyz
x,y,z
-x,1/2+y,-z
-x,-y,-z
x,1/2-y,z
loop_
_atom_site_type_symbol
_atom_site_label
_atom_site_fract_x
_atom_site_fract_y
_atom_site_fract_z
Si Si1 0.723161 0.750000 0.569386
Si Si2 0.199743 0.026513 0.226468
Si Si3 0.007088 0.542498 0.649751
Si Si4 0.882478 0.750000 0.593584
Si Si5 0.526450 0.250000 0.919885
Si Si6 0.368164 0.620953 0.588791
Si Si7 0.696829 0.475619 0.106134
Si Si8 0.975167 0.879652 0.170040
O O1 0.729463 0.642771 0.640072
O O2 0.890232 0.750000 0.714646
O O3 0.524945 0.750000 0.255575
O O4 0.340419 0.928854 0.448908
O O5 0.178499 0.045348 0.089393
O O6 0.000000 0.000000 0.000000
O O7 0.988732 0.640940 0.698800
O O8 0.831390 0.547709 0.349090
O O9 0.017069 0.424435 0.716634
O O10 0.196083 0.559761 0.843751
O O11 0.664040 0.750000 0.272450
O O12 0.641637 0.363942 0.090672
O O13 0.433364 0.750000 0.666154
O O14 0.177118 0.609317 0.391253
O O15 0.518503 0.550342 0.844810
O O16 0.911801 0.750000 0.088625
#
# Coordination Sequence:
#
# PCOD8069814 Si02
#       8
#     2   4   4   2   2   4   4   4
#     4  10  18  36  63  92 116 151 198 254 310 355
#     4  10  18  34  61  92 125 153 200 252 313 358
#     4  11  25  41  59  89 126 164 208 242 311 364
#     4  10  21  39  62  91 118 147 204 263 289 358
#     4  10  21  39  67  89 114 156 206 257 301 351
#     4  10  21  38  62  92 123 159 208 253 306 358
#     4  11  24  42  62  83 125 172 199 250 305 376
#     4  10  21  38  61  94 123 158 205 262 296 358
#
# _framework density 20.798801000000001
#
# number of rings (size 3 to 8) (size 9 to 14) (size 15 to 20)
#    0.462    1.231    2.308    3.231    3.231    3.077 
#    1.385    0.769    0.000    0.000    0.000    0.000 
#    0.000    0.000    0.000    0.000    0.000    0.000 
#
# Total GULP energy -322270.196207 kJ/mol
# GULP energy per Si atom -12395.007546 kJ/mol
# Density = 2.075146 g / cm^3
# Si number density = 20.798801 Si / 1000 Ang^3
#
#
#
# Elastic Constant Matrix: (Units=GPa)
#
#
# Indices 1 2 3 4 5 6 
#
# 1 62.5583 10.9322 -1.0923 0.0000 -7.1724 0.0000
# 2 10.9322 111.8453 13.0216 0.0000 -1.9381 0.0000
# 3 -1.0923 13.0216 33.8041 0.0000 -20.0006 0.0000
# 4 0.0000 0.0000 0.0000 24.7420 0.0000 -4.9213
# 5 -7.1724 -1.9381 -20.0006 0.0000 24.6270 0.0000
# 6 0.0000 0.0000 0.0000 -4.9213 0.0000 20.5685
#
#
#
# Elastic Compliance Matrix: (Units=1/GPa)
#
#
# Indices 1 2 3 4 5 6 
#
# 1 0.017979 -0.002566 0.008755 0.000000 0.012144 0.000000
# 2 -0.002566 0.009960 -0.007504 0.000000 -0.006058 0.000000
# 3 0.008755 -0.007504 0.065286 0.000000 0.054981 0.000000
# 4 0.000000 0.000000 0.000000 0.042437 0.000000 0.010154
# 5 0.012144 -0.006058 0.054981 0.000000 0.088318 0.000000
# 6 0.000000 0.000000 0.000000 0.010154 0.000000 0.051047
#
#
# Mechanical properties :
#
#
# Convention : Reuss Voigt Hill
#
# Bulk Modulus (GPa) = 11.03822 28.21451 19.62636
# Shear Modulus (GPa) = 16.24138 26.34390 21.29264
#
# Velocity S-wave (km/s) = 2.79746 3.56280 3.20307
# Velocity P-wave (km/s) = 3.96901 5.52446 4.81002
#
# Compressibility (1/GPa) = 0.09059434
#
# Stress axis : x y z
#
# Youngs Moduli (GPa) = 55.62124 100.39743 15.31730
#
# Poissons Ratio (x) = 0.25763 -0.13410
# Poissons Ratio (y) = 0.14273 0.11494
# Poissons Ratio (z) = -0.48695 0.75337
#
# Static dielectric constant tensor:
#      x y z
#    x 3.582090 0.000000 -0.206910 
#    y 0.000000 3.798120 0.000000 
#    z -0.206910 0.000000 3.735970 
# 
# 
# High freq. dielectric constant tensor:
#      x y z
#    x 1.788940 0.000000 -0.017950 
#    y 0.000000 1.823990 0.000000 
#    z -0.017950 0.000000 1.808440 
# 
# From -- ./inp_files/54851.got.cif
#   From: 2010.06.25/outbox.cif.g09.slc.cpg/sg11_28_cif.got.tgz:54851.got - 2010.06.27 23:14:04.
