data_PCOD8069051
_publ_section_title
;
Structure prediction by ZEFSAII (Michael W. Deem and Ramdas Pophale) SiO2 
 PCOD8069051
Probable space group: P 21/M
;
_chemical_formula_sum "Si O2"
_cell_formula_units_Z 32
_cell_length_a 11.705047
_cell_length_b 9.316710
_cell_length_c 21.288192
_cell_angle_alpha 90.000000
_cell_angle_beta 127.584550
_cell_angle_gamma 90.000000
_cell_volume 1839.706987
_symmetry_space_group_name_H-M "P 21/M"
_symmetry_group_IT_number 11
_symmetry_cell_setting 'monoclinic'
loop_
_space_group_symop_operation_xyz
x,y,z
-x,1/2+y,-z
-x,-y,-z
x,1/2-y,z
loop_
_atom_site_type_symbol
_atom_site_label
_atom_site_fract_x
_atom_site_fract_y
_atom_site_fract_z
Si Si1 0.440989 0.591592 0.170839
Si Si2 0.357324 0.081031 0.473964
Si Si3 0.671708 0.083279 0.410943
Si Si4 0.445529 0.419840 0.920938
Si Si5 0.237112 0.409694 0.670134
Si Si6 0.864813 0.581236 0.231421
Si Si7 0.857461 0.583437 0.711154
Si Si8 0.646713 0.914722 0.747749
O O1 0.372333 0.750000 0.148340
O O2 0.451607 0.533679 0.102953
O O3 0.600537 0.597894 0.251635
O O4 0.340997 0.493317 0.181125
O O5 0.391120 0.250000 0.494491
O O6 0.234305 0.055575 0.381784
O O7 0.500000 0.000000 0.500000
O O8 0.297203 0.010456 0.517223
O O9 0.708081 0.250000 0.435255
O O10 0.506041 0.061283 0.336912
O O11 0.776359 0.023230 0.391155
O O12 0.454425 0.250000 0.933908
O O13 0.281901 0.467267 0.851971
O O14 0.500000 0.500000 0.000000
O O15 0.190456 0.250000 0.631734
O O16 0.138928 0.460876 0.695775
O O17 0.887342 0.750000 0.232223
O O18 0.994359 0.501714 0.240797
O O19 0.893302 0.750000 0.730810
O O20 0.768171 0.526306 0.741307
O O21 0.672216 0.750000 0.771372
#
# Coordination Sequence:
#
# PCOD8069051 Si02
#       8
#     4   4   4   4   4   4   4   4
#     4   8  15  28  47  73 100 126 159 200 241 288
#     4  11  21  34  49  69  99 132 169 215 259 298
#     4  10  18  30  48  72  98 125 166 214 257 300
#     4   9  18  33  54  81 109 130 158 200 243 291
#     4   8  15  30  49  69  95 127 162 205 253 293
#     4   9  19  35  53  75 103 132 167 206 243 298
#     4  10  21  35  49  70 102 134 167 209 253 298
#     4   9  17  30  46  69 100 129 162 208 250 289
#
# _framework density 17.394074
#
# number of rings (size 3 to 8) (size 9 to 14) (size 15 to 20)
#    0.000    2.750    1.250    2.250    0.000    3.500 
#    0.000    3.125    0.000    0.750    0.000    0.000 
#    0.000    0.000    0.000    0.000    0.000    0.000 
#
# Total GULP energy -396697.079466 kJ/mol
# GULP energy per Si atom -12396.783733 kJ/mol
# Density = 1.735448 g / cm^3
# Si number density = 17.394074 Si / 1000 Ang^3
#
#
#
# Elastic Constant Matrix: (Units=GPa)
#
#
# Indices 1 2 3 4 5 6 
#
# 1 127.1169 60.6160 56.0692 0.0000 -22.9529 0.0000
# 2 60.6160 83.7159 51.1110 0.0000 -16.2082 0.0000
# 3 56.0692 51.1110 76.9938 0.0000 -23.9165 0.0000
# 4 0.0000 0.0000 0.0000 28.3272 0.0000 -5.7254
# 5 -22.9529 -16.2082 -23.9165 0.0000 29.2877 0.0000
# 6 0.0000 0.0000 0.0000 -5.7254 0.0000 34.5034
#
#
#
# Elastic Compliance Matrix: (Units=1/GPa)
#
#
# Indices 1 2 3 4 5 6 
#
# 1 0.013519 -0.006331 -0.004609 0.000000 0.003328 0.000000
# 2 -0.006331 0.023052 -0.011082 0.000000 -0.001254 0.000000
# 3 -0.004609 -0.011082 0.027700 0.000000 0.012875 0.000000
# 4 0.000000 0.000000 0.000000 0.036527 0.000000 0.006061
# 5 0.003328 -0.001254 0.012875 0.000000 0.046573 0.000000
# 6 0.000000 0.000000 0.000000 0.006061 0.000000 0.029988
#
#
# Mechanical properties :
#
#
# Convention : Reuss Voigt Hill
#
# Bulk Modulus (GPa) = 49.43448 69.26879 59.35164
# Shear Modulus (GPa) = 21.91575 26.42568 24.17072
#
# Velocity S-wave (km/s) = 3.55344 3.90196 3.73177
# Velocity P-wave (km/s) = 6.73185 7.75952 7.26388
#
# Compressibility (1/GPa) = 0.02022880
#
# Stress axis : x y z
#
# Youngs Moduli (GPa) = 73.96731 43.37976 36.10045
#
# Poissons Ratio (x) = 0.27463 0.16638
# Poissons Ratio (y) = 0.46827 0.40006
# Poissons Ratio (z) = 0.34091 0.48073
#
# Static dielectric constant tensor:
#      x y z
#    x 3.393040 0.000000 -0.295590 
#    y 0.000000 3.340680 0.000000 
#    z -0.295590 0.000000 3.047570 
# 
# 
# High freq. dielectric constant tensor:
#      x y z
#    x 1.672750 0.000000 -0.025050 
#    y 0.000000 1.672310 0.000000 
#    z -0.025050 0.000000 1.639700 
# 
# From -- ./inp_files/40629.got.cif
#   From: 2010.06.25/outbox.cif.g09.slc.cpg/sg11_21_cif.got.tgz:40629.got - 2010.06.27 23:14:04.
