data_PCOD8069348
_publ_section_title
;
Structure prediction by ZEFSAII (Michael W. Deem and Ramdas Pophale) SiO2 
 PCOD8069348
Probable space group: P 21/M
;
_chemical_formula_sum "Si O2"
_cell_formula_units_Z 32
_cell_length_a 25.026527
_cell_length_b 8.762200
_cell_length_c 16.229441
_cell_angle_alpha 90.000000
_cell_angle_beta 153.535231
_cell_angle_gamma 90.000000
_cell_volume 1586.020226
_symmetry_space_group_name_H-M "P 21/M"
_symmetry_group_IT_number 11
_symmetry_cell_setting 'monoclinic'
loop_
_space_group_symop_operation_xyz
x,y,z
-x,1/2+y,-z
-x,-y,-z
x,1/2-y,z
loop_
_atom_site_type_symbol
_atom_site_label
_atom_site_fract_x
_atom_site_fract_y
_atom_site_fract_z
Si Si1 0.815874 0.430505 0.902123
Si Si2 0.601376 0.570464 0.697281
Si Si3 0.747803 0.070311 0.628095
Si Si4 0.926905 0.931614 0.323548
Si Si5 0.724422 0.430083 0.135807
Si Si6 0.481239 0.070344 0.235101
Si Si7 0.129686 0.426127 0.518118
Si Si8 0.089501 0.075527 0.281180
O O1 0.797666 0.250000 0.884641
O O2 0.733504 0.509632 0.857386
O O3 0.776725 0.494156 0.758576
O O4 0.953157 0.479044 0.105971
O O5 0.500000 0.500000 0.500000
O O6 0.597616 0.750000 0.680064
O O7 0.573669 0.525080 0.752666
O O8 0.746106 0.250000 0.632004
O O9 0.618010 0.011359 0.419805
O O10 0.849525 0.023620 0.704674
O O11 0.927173 0.750000 0.321238
O O12 0.792787 0.993530 0.151661
O O13 0.000000 0.000000 0.500000
O O14 0.996207 0.999475 0.340497
O O15 0.740620 0.250000 0.156649
O O16 0.772097 0.489795 0.289783
O O17 0.587152 0.480201 0.932567
O O18 0.471325 0.250000 0.204582
O O19 0.123765 0.250000 0.537530
O O20 0.163401 0.443305 0.468634
O O21 0.090705 0.250000 0.253064
#
# Coordination Sequence:
#
# PCOD8069348 Si02
#       8
#     4   4   4   4   4   4   4   4
#     4  10  21  40  61  89 124 157 194 242 296 350
#     4  11  22  38  61  90 124 159 196 240 296 355
#     4  10  21  40  63  84 118 158 196 242 295 352
#     4  10  18  31  52  78 111 149 187 233 285 347
#     4  11  22  36  57  85 114 154 199 243 294 354
#     4  10  22  40  59  86 121 159 198 241 295 349
#     4  10  20  37  56  82 118 155 194 246 298 345
#     4  10  23  39  61  89 119 153 198 249 295 345
#
# _framework density 20.176286999999999
#
# number of rings (size 3 to 8) (size 9 to 14) (size 15 to 20)
#    0.000    1.750    1.250    4.875    1.750    3.500 
#    0.000    0.625    0.000    0.000    0.000    0.000 
#    0.000    0.000    0.000    0.000    0.000    0.000 
#
# Total GULP energy -396772.941763 kJ/mol
# GULP energy per Si atom -12399.154430 kJ/mol
# Density = 2.013037 g / cm^3
# Si number density = 20.176287 Si / 1000 Ang^3
#
#
#
# Elastic Constant Matrix: (Units=GPa)
#
#
# Indices 1 2 3 4 5 6 
#
# 1 77.8149 22.1838 26.9902 0.0000 13.9639 0.0000
# 2 22.1838 91.4921 32.0010 0.0000 1.3629 0.0000
# 3 26.9902 32.0010 113.9971 0.0000 9.1945 0.0000
# 4 0.0000 0.0000 0.0000 26.3557 0.0000 6.1171
# 5 13.9639 1.3629 9.1945 0.0000 25.4856 0.0000
# 6 0.0000 0.0000 0.0000 6.1171 0.0000 30.2207
#
#
#
# Elastic Compliance Matrix: (Units=1/GPa)
#
#
# Indices 1 2 3 4 5 6 
#
# 1 0.015870 -0.002923 -0.002315 0.000000 -0.007704 0.000000
# 2 -0.002923 0.012667 -0.003026 0.000000 0.002016 0.000000
# 3 -0.002315 -0.003026 0.010356 0.000000 -0.002306 0.000000
# 4 0.000000 0.000000 0.000000 0.039813 0.000000 -0.008059
# 5 -0.007704 0.002016 -0.002306 0.000000 0.044183 0.000000
# 6 0.000000 0.000000 0.000000 -0.008059 0.000000 0.034721
#
#
# Mechanical properties :
#
#
# Convention : Reuss Voigt Hill
#
# Bulk Modulus (GPa) = 44.71720 49.51712 47.11716
# Shear Modulus (GPa) = 27.53392 29.88769 28.71080
#
# Velocity S-wave (km/s) = 3.69815 3.85298 3.77636
# Velocity P-wave (km/s) = 6.35975 6.66254 6.51290
#
# Compressibility (1/GPa) = 0.02236276
#
# Stress axis : x y z
#
# Youngs Moduli (GPa) = 63.01222 78.94399 96.56353
#
# Poissons Ratio (x) = 0.23078 0.22359
# Poissons Ratio (y) = 0.18420 0.29224
# Poissons Ratio (z) = 0.14590 0.23892
#
# Static dielectric constant tensor:
#      x y z
#    x 3.779550 0.000000 0.200040 
#    y 0.000000 3.569280 0.000000 
#    z 0.200040 0.000000 3.943020 
# 
# 
# High freq. dielectric constant tensor:
#      x y z
#    x 1.775650 0.000000 -0.002360 
#    y 0.000000 1.783920 0.000000 
#    z -0.002360 0.000000 1.796370 
# 
# From -- ./inp_files/55773.got.cif
#   From: 2010.06.25/outbox.cif.g09.slc.cpg/sg11_28_cif.got.tgz:55773.got - 2010.06.27 23:14:04.
