data_PCOD8069991
_publ_section_title
;
Structure prediction by ZEFSAII (Michael W. Deem and Ramdas Pophale) SiO2 
 PCOD8069991
Probable space group: P 21/M
;
_chemical_formula_sum "Si O2"
_cell_formula_units_Z 32
_cell_length_a 12.937802
_cell_length_b 13.684794
_cell_length_c 11.720206
_cell_angle_alpha 90.000000
_cell_angle_beta 108.665732
_cell_angle_gamma 90.000000
_cell_volume 1965.930880
_symmetry_space_group_name_H-M "P 21/M"
_symmetry_group_IT_number 11
_symmetry_cell_setting 'monoclinic'
loop_
_space_group_symop_operation_xyz
x,y,z
-x,1/2+y,-z
-x,-y,-z
x,1/2-y,z
loop_
_atom_site_type_symbol
_atom_site_label
_atom_site_fract_x
_atom_site_fract_y
_atom_site_fract_z
Si Si1 0.692633 0.642477 0.984394
Si Si2 0.892365 0.976759 0.109112
Si Si3 0.640074 0.639902 0.233135
Si Si4 0.853712 0.536758 0.358406
Si Si5 0.079110 0.636694 0.467531
Si Si6 0.555302 0.025784 0.900791
Si Si7 0.899285 0.360188 0.783991
Si Si8 0.772388 0.139467 0.953177
O O1 0.689219 0.750000 0.929852
O O2 0.609345 0.576610 0.878968
O O3 0.814088 0.600308 0.017544
O O4 0.660727 0.643366 0.105797
O O5 0.863222 0.988946 0.230346
O O6 0.014997 0.939008 0.136936
O O7 0.873114 0.082800 0.047642
O O8 0.619205 0.750000 0.271006
O O9 0.740297 0.593753 0.338952
O O10 0.532758 0.572264 0.217176
O O11 0.852322 0.434604 0.426385
O O12 0.951443 0.608412 0.431023
O O13 0.093034 0.750000 0.509525
O O14 0.126360 0.618718 0.357251
O O15 0.654958 0.101277 0.951933
O O16 0.500000 0.000000 0.000000
O O17 0.948661 0.250000 0.810988
O O18 0.789660 0.369048 0.821544
O O19 0.781212 0.250000 0.998259
#
# Coordination Sequence:
#
# PCOD8069991 Si02
#       8
#     4   4   4   4   4   4   4   4
#     4   8  14  24  39  59  84 114 145 176 210 253
#     4   9  16  27  43  65  93 118 145 179 217 263
#     4   9  15  25  41  60  83 110 142 178 216 257
#     4   9  17  28  44  66  86 110 147 184 220 262
#     4   9  17  30  46  64  88 114 143 181 222 263
#     4   9  17  28  41  61  87 115 146 180 220 260
#     4   9  17  29  46  65  87 121 156 182 213 259
#     4  10  19  29  43  66  94 120 148 182 220 262
#
# _framework density 16.277277000000002
#
# number of rings (size 3 to 8) (size 9 to 14) (size 15 to 20)
#    0.000    3.000    0.000    2.250    0.000    4.000 
#    0.000    0.625    0.000    0.750    0.000    0.000 
#    0.000    0.000    0.000    0.000    0.000    0.000 
#
# Total GULP energy -396517.516041 kJ/mol
# GULP energy per Si atom -12391.172376 kJ/mol
# Density = 1.624023 g / cm^3
# Si number density = 16.277277 Si / 1000 Ang^3
#
#
#
# Elastic Constant Matrix: (Units=GPa)
#
#
# Indices 1 2 3 4 5 6 
#
# 1 68.9714 43.4032 29.3086 0.0000 5.9048 0.0000
# 2 43.4032 146.2079 43.3857 0.0000 13.2743 0.0000
# 3 29.3086 43.3857 44.1408 0.0000 12.7188 0.0000
# 4 0.0000 0.0000 0.0000 25.4578 0.0000 5.2621
# 5 5.9048 13.2743 12.7188 0.0000 19.7303 0.0000
# 6 0.0000 0.0000 0.0000 5.2621 0.0000 20.1372
#
#
#
# Elastic Compliance Matrix: (Units=1/GPa)
#
#
# Indices 1 2 3 4 5 6 
#
# 1 0.021269 -0.003024 -0.012161 0.000000 0.003508 0.000000
# 2 -0.003024 0.010089 -0.007631 0.000000 -0.000964 0.000000
# 3 -0.012161 -0.007631 0.043846 0.000000 -0.019491 0.000000
# 4 0.000000 0.000000 0.000000 0.041523 0.000000 -0.010851
# 5 0.003508 -0.000964 -0.019491 0.000000 0.062846 0.000000
# 6 0.000000 0.000000 0.000000 -0.010851 0.000000 0.052495
#
#
# Mechanical properties :
#
#
# Convention : Reuss Voigt Hill
#
# Bulk Modulus (GPa) = 33.81538 54.61277 44.21407
# Shear Modulus (GPa) = 17.38779 22.61323 20.00051
#
# Velocity S-wave (km/s) = 3.27192 3.73131 3.50914
# Velocity P-wave (km/s) = 5.92399 7.22412 6.60612
#
# Compressibility (1/GPa) = 0.02957234
#
# Stress axis : x y z
#
# Youngs Moduli (GPa) = 47.01700 99.11616 22.80701
#
# Poissons Ratio (x) = 0.29970 0.27736
# Poissons Ratio (y) = 0.14217 0.17404
# Poissons Ratio (z) = 0.57177 0.75637
#
# Static dielectric constant tensor:
#      x y z
#    x 3.072250 0.000000 0.135900 
#    y 0.000000 3.352120 0.000000 
#    z 0.135900 0.000000 2.798790 
# 
# 
# High freq. dielectric constant tensor:
#      x y z
#    x 1.615590 0.000000 0.010110 
#    y 0.000000 1.640550 0.000000 
#    z 0.010110 0.000000 1.578860 
# 
# From -- ./inp_files/35525.got.cif
#   From: 2010.06.25/outbox.cif.g09.slc.cpg/sg11_18_cif.got.tgz:35525.got - 2010.06.27 23:14:04.
