data_PCOD8069824
_publ_section_title
;
Structure prediction by ZEFSAII (Michael W. Deem and Ramdas Pophale) SiO2 
 PCOD8069824
Probable space group: P 21/M
;
_chemical_formula_sum "Si O2"
_cell_formula_units_Z 26
_cell_length_a 14.608155
_cell_length_b 11.817282
_cell_length_c 9.727078
_cell_angle_alpha 90.000000
_cell_angle_beta 52.581830
_cell_angle_gamma 90.000000
_cell_volume 1333.635846
_symmetry_space_group_name_H-M "P 21/M"
_symmetry_group_IT_number 11
_symmetry_cell_setting 'monoclinic'
loop_
_space_group_symop_operation_xyz
x,y,z
-x,1/2+y,-z
-x,-y,-z
x,1/2-y,z
loop_
_atom_site_type_symbol
_atom_site_label
_atom_site_fract_x
_atom_site_fract_y
_atom_site_fract_z
Si Si1 0.218706 0.750000 0.346928
Si Si2 0.273923 0.117325 0.086965
Si Si3 0.075989 0.374976 0.060836
Si Si4 0.518417 0.482792 0.143497
Si Si5 0.357922 0.750000 0.964706
Si Si6 0.901463 0.250000 0.812082
Si Si7 0.080399 0.426187 0.756618
Si Si8 0.263974 0.505517 0.387196
O O1 0.107146 0.750000 0.346950
O O2 0.218649 0.635102 0.436290
O O3 0.336615 0.750000 0.148860
O O4 0.278717 0.250000 0.118876
O O5 0.172086 0.082473 0.078452
O O6 0.256831 0.042588 0.239132
O O7 0.389949 0.080154 0.899714
O O8 0.038038 0.250000 0.137624
O O9 0.960177 0.446574 0.178520
O O10 0.124707 0.375177 0.860271
O O11 0.568238 0.360341 0.141150
O O12 0.394132 0.499190 0.328800
O O13 0.500000 0.500000 0.000000
O O14 0.230645 0.750000 0.006904
O O15 0.970472 0.359503 0.798468
O O16 0.185018 0.425652 0.553868
#
# Coordination Sequence:
#
# PCOD8069824 Si02
#       8
#     2   4   4   4   2   2   4   4
#     4  10  20  36  53  88 121 148 193 234 296 332
#     4  10  21  35  60  89 116 150 197 235 287 343
#     4  10  22  42  59  82 112 158 195 239 287 351
#     4  10  19  33  57  84 120 153 188 236 285 343
#     4  10  18  35  53  83 117 160 189 226 285 351
#     4  10  20  37  60  81 120 154 188 236 287 343
#     4  11  23  39  60  85 117 153 197 237 293 343
#     4  11  24  35  59  92 119 152 188 249 288 342
#
# _framework density 19.495577000000001
#
# number of rings (size 3 to 8) (size 9 to 14) (size 15 to 20)
#    0.462    1.231    3.846    1.846    7.538    2.462 
#    0.000    0.769    0.000    0.000    0.000    0.000 
#    0.000    0.000    0.000    0.000    0.000    0.000 
#
# Total GULP energy -322244.423272 kJ/mol
# GULP energy per Si atom -12394.016280 kJ/mol
# Density = 1.945120 g / cm^3
# Si number density = 19.495577 Si / 1000 Ang^3
#
#
#
# Elastic Constant Matrix: (Units=GPa)
#
#
# Indices 1 2 3 4 5 6 
#
# 1 61.8727 30.7281 40.9006 0.0000 -18.3923 0.0000
# 2 30.7281 102.6419 21.5466 0.0000 -8.3289 0.0000
# 3 40.9006 21.5466 69.6078 0.0000 -11.2542 0.0000
# 4 0.0000 0.0000 0.0000 10.0020 0.0000 2.1255
# 5 -18.3923 -8.3289 -11.2542 0.0000 15.1817 0.0000
# 6 0.0000 0.0000 0.0000 2.1255 0.0000 29.1403
#
#
#
# Elastic Compliance Matrix: (Units=1/GPa)
#
#
# Indices 1 2 3 4 5 6 
#
# 1 0.039315 -0.005757 -0.016053 0.000000 0.032571 0.000000
# 2 -0.005757 0.011457 -0.000313 0.000000 -0.000921 0.000000
# 3 -0.016053 -0.000313 0.023545 0.000000 -0.002165 0.000000
# 4 0.000000 0.000000 0.000000 0.101554 0.000000 -0.007407
# 5 0.032571 -0.000921 -0.002165 0.000000 0.103218 0.000000
# 6 0.000000 0.000000 0.000000 -0.007407 0.000000 0.034857
#
#
# Mechanical properties :
#
#
# Convention : Reuss Voigt Hill
#
# Bulk Modulus (GPa) = 33.25297 46.71924 39.98611
# Shear Modulus (GPa) = 13.57898 20.26124 16.92011
#
# Velocity S-wave (km/s) = 2.64202 3.22727 2.94920
# Velocity P-wave (km/s) = 5.13817 6.15655 5.67027
#
# Compressibility (1/GPa) = 0.03007250
#
# Stress axis : x y z
#
# Youngs Moduli (GPa) = 25.43547 87.28282 42.47113
#
# Poissons Ratio (x) = 0.50249 0.68179
# Poissons Ratio (y) = 0.14643 0.01327
# Poissons Ratio (z) = 0.40831 0.02728
#
# Static dielectric constant tensor:
#      x y z
#    x 3.850760 0.000000 -0.246960 
#    y 0.000000 3.655300 0.000000 
#    z -0.246960 0.000000 3.286180 
# 
# 
# High freq. dielectric constant tensor:
#      x y z
#    x 1.760000 0.000000 -0.014780 
#    y 0.000000 1.776810 0.000000 
#    z -0.014780 0.000000 1.715510 
# 
# From -- ./inp_files/21130.got.cif
#   From: 2010.06.25/outbox.cif.g09.slc.cpg/sg11_11_cif.got.tgz:21130.got - 2010.06.27 23:14:04.
