data_PCOD8069732
_publ_section_title
;
Structure prediction by ZEFSAII (Michael W. Deem and Ramdas Pophale) SiO2 
 PCOD8069732
Probable space group: P 21/M
;
_chemical_formula_sum "Si O2"
_cell_formula_units_Z 32
_cell_length_a 20.712563
_cell_length_b 15.704863
_cell_length_c 14.271389
_cell_angle_alpha 90.000000
_cell_angle_beta 21.077526
_cell_angle_gamma 90.000000
_cell_volume 1669.518203
_symmetry_space_group_name_H-M "P 21/M"
_symmetry_group_IT_number 11
_symmetry_cell_setting 'monoclinic'
loop_
_space_group_symop_operation_xyz
x,y,z
-x,1/2+y,-z
-x,-y,-z
x,1/2-y,z
loop_
_atom_site_type_symbol
_atom_site_label
_atom_site_fract_x
_atom_site_fract_y
_atom_site_fract_z
Si Si1 0.117107 0.847777 0.423290
Si Si2 0.643085 0.993082 0.885975
Si Si3 0.058132 0.151923 0.541726
Si Si4 0.250401 0.924901 0.916064
Si Si5 0.531664 0.548073 0.238434
Si Si6 0.810621 0.001760 0.204887
Si Si7 0.214991 0.346679 0.019555
Si Si8 0.375778 0.153132 0.605982
O O1 0.177750 0.750000 0.362882
O O2 0.278871 0.912421 0.211887
O O3 0.037102 0.852632 0.428493
O O4 0.972649 0.887657 0.692468
O O5 0.778746 0.915691 0.679960
O O6 0.533653 0.981434 0.129834
O O7 0.500000 0.000000 0.000000
O O8 0.122957 0.250000 0.473347
O O9 0.915180 0.125478 0.814736
O O10 0.334737 0.993663 0.873440
O O11 0.410495 0.859197 0.675253
O O12 0.177406 0.966937 0.918532
O O13 0.328179 0.560061 0.549135
O O14 0.627409 0.639865 0.116900
O O15 0.718845 0.908173 0.341294
O O16 0.000000 0.000000 0.000000
O O17 0.164876 0.250000 0.085230
O O18 0.281628 0.377552 0.828738
O O19 0.333788 0.250000 0.635861
#
# Coordination Sequence:
#
# PCOD8069732 Si02
#       8
#     4   4   4   4   4   4   4   4
#     4  10  21  39  62  90 117 158 210 257 301 358
#     4  12  26  39  61  90 129 166 197 247 312 368
#     4  11  23  39  64  91 120 159 210 256 298 359
#     4  11  20  39  64  86 118 157 207 248 298 353
#     4  11  20  40  60  87 114 160 210 242 293 361
#     4  11  24  38  60  90 126 160 194 245 308 368
#     4  10  18  33  62  89 109 143 203 263 297 338
#     4  10  20  37  60  88 116 155 206 253 298 354
#
# _framework density 19.167206
#
# number of rings (size 3 to 8) (size 9 to 14) (size 15 to 20)
#    0.000    1.250    5.000    2.250    1.750    0.500 
#    0.000    1.875    0.000    0.000    0.000    0.000 
#    0.000    0.000    0.000    0.000    0.000    0.000 
#
# Total GULP energy -396470.021675 kJ/mol
# GULP energy per Si atom -12389.688177 kJ/mol
# Density = 1.912358 g / cm^3
# Si number density = 19.167206 Si / 1000 Ang^3
#
#
#
# Elastic Constant Matrix: (Units=GPa)
#
#
# Indices 1 2 3 4 5 6 
#
# 1 95.9355 25.2204 39.6649 0.0000 -5.2911 0.0000
# 2 25.2204 72.0343 29.4290 0.0000 -6.9938 0.0000
# 3 39.6649 29.4290 89.7782 0.0000 7.6219 0.0000
# 4 0.0000 0.0000 0.0000 21.3260 0.0000 5.6964
# 5 -5.2911 -6.9938 7.6219 0.0000 40.3237 0.0000
# 6 0.0000 0.0000 0.0000 5.6964 0.0000 17.8351
#
#
#
# Elastic Compliance Matrix: (Units=1/GPa)
#
#
# Indices 1 2 3 4 5 6 
#
# 1 0.013367 -0.002256 -0.005368 0.000000 0.002377 0.000000
# 2 -0.002256 0.017015 -0.004884 0.000000 0.003578 0.000000
# 3 -0.005368 -0.004884 0.015492 0.000000 -0.004480 0.000000
# 4 0.000000 0.000000 0.000000 0.051265 0.000000 -0.016374
# 5 0.002377 0.003578 -0.004480 0.000000 0.026579 0.000000
# 6 0.000000 0.000000 0.000000 -0.016374 0.000000 0.061299
#
#
# Mechanical properties :
#
#
# Convention : Reuss Voigt Hill
#
# Bulk Modulus (GPa) = 47.94641 49.59738 48.77189
# Shear Modulus (GPa) = 23.04293 26.79254 24.91774
#
# Velocity S-wave (km/s) = 3.47105 3.74282 3.60949
# Velocity P-wave (km/s) = 6.41353 6.67911 6.54767
#
# Compressibility (1/GPa) = 0.02085662
#
# Stress axis : x y z
#
# Youngs Moduli (GPa) = 74.80896 58.77120 64.55085
#
# Poissons Ratio (x) = 0.13260 0.34651
# Poissons Ratio (y) = 0.16879 0.31530
# Poissons Ratio (z) = 0.40158 0.28707
#
# Static dielectric constant tensor:
#      x y z
#    x 3.755370 0.000000 0.821160 
#    y 0.000000 3.712520 0.000000 
#    z 0.821160 0.000000 4.284990 
# 
# 
# High freq. dielectric constant tensor:
#      x y z
#    x 1.726090 0.000000 0.025200 
#    y 0.000000 1.753410 0.000000 
#    z 0.025200 0.000000 1.754560 
# 
# From -- ./inp_files/54977.got.cif
#   From: 2010.06.25/outbox.cif.g09.slc.cpg/sg11_28_cif.got.tgz:54977.got - 2010.06.27 23:14:04.
