data_PCOD8069133
_publ_section_title
;
Structure prediction by ZEFSAII (Michael W. Deem and Ramdas Pophale) SiO2 
 PCOD8069133
Probable space group: P 21/M
;
_chemical_formula_sum "Si O2"
_cell_formula_units_Z 32
_cell_length_a 25.225025
_cell_length_b 9.056614
_cell_length_c 11.919442
_cell_angle_alpha 90.000000
_cell_angle_beta 46.538248
_cell_angle_gamma 90.000000
_cell_volume 1976.471381
_symmetry_space_group_name_H-M "P 21/M"
_symmetry_group_IT_number 11
_symmetry_cell_setting 'monoclinic'
loop_
_space_group_symop_operation_xyz
x,y,z
-x,1/2+y,-z
-x,-y,-z
x,1/2-y,z
loop_
_atom_site_type_symbol
_atom_site_label
_atom_site_fract_x
_atom_site_fract_y
_atom_site_fract_z
Si Si1 0.536105 0.579508 0.252199
Si Si2 0.174917 0.914282 0.415750
Si Si3 0.371871 0.575885 0.500390
Si Si4 0.693143 0.075385 0.635095
Si Si5 0.923177 0.924219 0.593314
Si Si6 0.205343 0.915814 0.129607
Si Si7 0.569410 0.579316 0.949559
Si Si8 0.341436 0.924446 0.791532
O O1 0.535019 0.750000 0.289921
O O2 0.454130 0.512090 0.372546
O O3 0.583849 0.492472 0.272536
O O4 0.571548 0.557818 0.079415
O O5 0.142416 0.750000 0.483907
O O6 0.223193 0.964150 0.452558
O O7 0.228243 0.910076 0.228012
O O8 0.108248 0.026345 0.484199
O O9 0.378134 0.750000 0.481189
O O10 0.322601 0.518114 0.468325
O O11 0.333483 0.529701 0.672631
O O12 0.679179 0.250000 0.667434
O O13 0.642098 0.991144 0.795588
O O14 0.931566 0.750000 0.586834
O O15 0.867601 0.981968 0.771928
O O16 0.000000 0.000000 0.500000
O O17 0.186996 0.750000 0.112801
O O18 0.270721 0.986148 0.960923
O O19 0.565141 0.750000 0.922429
O O20 0.500000 0.500000 0.000000
O O21 0.346847 0.750000 0.799902
#
# Coordination Sequence:
#
# PCOD8069133 Si02
#       8
#     4   4   4   4   4   4   4   4
#     4  10  20  33  46  64  92 122 161 211 255 292
#     4   8  16  29  47  70  96 124 152 181 225 280
#     4   9  18  32  48  66  90 125 166 207 247 282
#     4  10  18  33  50  66  94 126 157 198 242 288
#     4  10  18  30  50  75 104 128 148 180 224 277
#     4   8  16  30  45  69  97 122 156 189 227 279
#     4  11  21  32  47  66  89 120 159 204 252 298
#     4  10  19  32  50  68  90 124 167 205 239 285
#
# _framework density 16.190470000000001
#
# number of rings (size 3 to 8) (size 9 to 14) (size 15 to 20)
#    0.750    1.750    1.250    2.250    0.000    3.000 
#    0.000    0.625    0.000    0.000    0.000    0.875 
#    0.000    0.000    0.000    0.000    0.000    0.000 
#
# Total GULP energy -396523.424321 kJ/mol
# GULP energy per Si atom -12391.357010 kJ/mol
# Density = 1.615362 g / cm^3
# Si number density = 16.190470 Si / 1000 Ang^3
#
#
#
# Elastic Constant Matrix: (Units=GPa)
#
#
# Indices 1 2 3 4 5 6 
#
# 1 122.1797 45.6724 53.2747 0.0000 -9.7795 0.0000
# 2 45.6724 66.8529 22.5575 0.0000 -5.8589 0.0000
# 3 53.2747 22.5575 60.0753 0.0000 -1.6556 0.0000
# 4 0.0000 0.0000 0.0000 18.4885 0.0000 -4.3718
# 5 -9.7795 -5.8589 -1.6556 0.0000 20.5408 0.0000
# 6 0.0000 0.0000 0.0000 -4.3718 0.0000 24.8745
#
#
#
# Elastic Compliance Matrix: (Units=1/GPa)
#
#
# Indices 1 2 3 4 5 6 
#
# 1 0.016169 -0.006674 -0.011699 0.000000 0.004852 0.000000
# 2 -0.006674 0.020285 -0.001630 0.000000 0.002477 0.000000
# 3 -0.011699 -0.001630 0.027527 0.000000 -0.003816 0.000000
# 4 0.000000 0.000000 0.000000 0.056433 0.000000 0.009918
# 5 0.004852 0.002477 -0.003816 0.000000 0.051392 0.000000
# 6 0.000000 0.000000 0.000000 0.009918 0.000000 0.041945
#
#
# Mechanical properties :
#
#
# Convention : Reuss Voigt Hill
#
# Bulk Modulus (GPa) = 41.70959 54.67968 48.19463
# Shear Modulus (GPa) = 19.10231 21.28764 20.19498
#
# Velocity S-wave (km/s) = 3.43862 3.62999 3.53560
# Velocity P-wave (km/s) = 6.44851 7.17043 6.81903
#
# Compressibility (1/GPa) = 0.02397530
#
# Stress axis : x y z
#
# Youngs Moduli (GPa) = 61.84745 49.29853 36.32746
#
# Poissons Ratio (x) = 0.32899 0.42499
# Poissons Ratio (y) = 0.41274 0.05922
# Poissons Ratio (z) = 0.72355 0.08037
#
# Static dielectric constant tensor:
#      x y z
#    x 3.071860 0.000000 0.114300 
#    y 0.000000 2.822020 0.000000 
#    z 0.114300 0.000000 2.699800 
# 
# 
# High freq. dielectric constant tensor:
#      x y z
#    x 1.615300 0.000000 0.002350 
#    y 0.000000 1.611650 0.000000 
#    z 0.002350 0.000000 1.595340 
# 
# From -- ./inp_files/43780.got.cif
#   From: 2010.06.25/outbox.cif.g09.slc.cpg/sg11_22_cif.got.tgz:43780.got - 2010.06.27 23:14:04.
