data_PCOD8069054
_publ_section_title
;
Structure prediction by ZEFSAII (Michael W. Deem and Ramdas Pophale) SiO2 
 PCOD8069054
Probable space group: P 21/M
;
_chemical_formula_sum "Si O2"
_cell_formula_units_Z 24
_cell_length_a 25.158697
_cell_length_b 8.809370
_cell_length_c 17.419504
_cell_angle_alpha 90.000000
_cell_angle_beta 156.889488
_cell_angle_gamma 90.000000
_cell_volume 1515.356916
_symmetry_space_group_name_H-M "P 21/M"
_symmetry_group_IT_number 11
_symmetry_cell_setting 'monoclinic'
loop_
_space_group_symop_operation_xyz
x,y,z
-x,1/2+y,-z
-x,-y,-z
x,1/2-y,z
loop_
_atom_site_type_symbol
_atom_site_label
_atom_site_fract_x
_atom_site_fract_y
_atom_site_fract_z
Si Si1 0.481476 0.571897 0.058353
Si Si2 0.278102 0.920616 0.535171
Si Si3 0.211417 0.424410 0.752493
Si Si4 0.032605 0.074141 0.654870
Si Si5 0.939413 0.571905 0.843902
Si Si6 0.003468 0.080897 0.784253
O O1 0.493749 0.750000 0.064979
O O2 0.337755 0.530783 0.903652
O O3 0.500000 0.500000 0.000000
O O4 0.595459 0.515910 0.268139
O O5 0.325421 0.750000 0.576745
O O6 0.161048 0.916101 0.445350
O O7 0.210486 0.001034 0.370363
O O8 0.251185 0.250000 0.789916
O O9 0.166085 0.450343 0.780597
O O10 0.087317 0.466745 0.532756
O O11 0.985315 0.250000 0.588700
O O12 0.068611 0.026595 0.790361
O O13 0.928440 0.750000 0.839444
O O14 0.037525 0.530394 0.901177
O O15 0.000000 0.500000 0.000000
O O16 0.055394 0.250000 0.874376
#
# Coordination Sequence:
#
# PCOD8069054 Si02
#       6
#     4   4   4   4   4   4
#     4  12  23  34  48  67  95 131 167 203 242 290
#     4   9  18  32  49  70  97 125 157 197 241 289
#     4  10  20  31  47  68  94 128 166 203 241 284
#     4   9  17  32  49  67  93 127 165 204 241 282
#     4  10  18  30  48  73 101 128 159 196 244 293
#     4   8  16  29  47  68  94 123 154 195 241 283
#
# _framework density 15.837853000000001
#
# number of rings (size 3 to 8) (size 9 to 14) (size 15 to 20)
#    1.000    1.333    0.000    4.500    0.000    2.667 
#    0.000    0.000    0.000    0.000    0.000    1.167 
#    0.000    0.000    0.000    0.000    0.000    0.000 
#
# Total GULP energy -297402.514136 kJ/mol
# GULP energy per Si atom -12391.771422 kJ/mol
# Density = 1.580181 g / cm^3
# Si number density = 15.837853 Si / 1000 Ang^3
#
#
#
# Elastic Constant Matrix: (Units=GPa)
#
#
# Indices 1 2 3 4 5 6 
#
# 1 101.0994 45.2284 43.6546 0.0000 -14.3235 0.0000
# 2 45.2284 128.0579 46.8446 0.0000 -10.0529 0.0000
# 3 43.6546 46.8446 79.8215 0.0000 -12.2553 0.0000
# 4 0.0000 0.0000 0.0000 27.8626 0.0000 -1.9814
# 5 -14.3235 -10.0529 -12.2553 0.0000 23.1213 0.0000
# 6 0.0000 0.0000 0.0000 -1.9814 0.0000 23.7577
#
#
#
# Elastic Compliance Matrix: (Units=1/GPa)
#
#
# Indices 1 2 3 4 5 6 
#
# 1 0.014076 -0.002611 -0.005444 0.000000 0.004699 0.000000
# 2 -0.002611 0.010466 -0.004642 0.000000 0.000473 0.000000
# 3 -0.005444 -0.004642 0.018944 0.000000 0.004650 0.000000
# 4 0.000000 0.000000 0.000000 0.036105 0.000000 0.003011
# 5 0.004699 0.000473 0.004650 0.000000 0.048831 0.000000
# 6 0.000000 0.000000 0.000000 0.003011 0.000000 0.042343
#
#
# Mechanical properties :
#
#
# Convention : Reuss Voigt Hill
#
# Bulk Modulus (GPa) = 55.27479 64.49267 59.88373
# Shear Modulus (GPa) = 24.72932 26.49840 25.61386
#
# Velocity S-wave (km/s) = 3.95575 4.09480 4.02587
# Velocity P-wave (km/s) = 7.47263 7.94767 7.71381
#
# Compressibility (1/GPa) = 0.01809143
#
# Stress axis : x y z
#
# Youngs Moduli (GPa) = 71.04319 95.54537 52.78843
#
# Poissons Ratio (x) = 0.24946 0.28740
# Poissons Ratio (y) = 0.18549 0.24503
# Poissons Ratio (z) = 0.38679 0.44350
#
# Static dielectric constant tensor:
#      x y z
#    x 3.249770 0.000000 -0.211310 
#    y 0.000000 3.131790 0.000000 
#    z -0.211310 0.000000 2.898950 
# 
# 
# High freq. dielectric constant tensor:
#      x y z
#    x 1.598860 0.000000 -0.008020 
#    y 0.000000 1.622670 0.000000 
#    z -0.008020 0.000000 1.572120 
# 
# From -- ./inp_files/62129.got.cif
#   From: 2010.06.25/outbox.cif.g09.slc.cpg/sg11_32_cif.got.tgz:62129.got - 2010.06.27 23:14:04.
