data_PCOD8069794
_publ_section_title
;
Structure prediction by ZEFSAII (Michael W. Deem and Ramdas Pophale) SiO2 
 PCOD8069794
Probable space group: P 21/M
;
_chemical_formula_sum "Si O2"
_cell_formula_units_Z 32
_cell_length_a 13.896804
_cell_length_b 9.319937
_cell_length_c 22.162668
_cell_angle_alpha 90.000000
_cell_angle_beta 143.384690
_cell_angle_gamma 90.000000
_cell_volume 1712.049258
_symmetry_space_group_name_H-M "P 21/M"
_symmetry_group_IT_number 11
_symmetry_cell_setting 'monoclinic'
loop_
_space_group_symop_operation_xyz
x,y,z
-x,1/2+y,-z
-x,-y,-z
x,1/2-y,z
loop_
_atom_site_type_symbol
_atom_site_label
_atom_site_fract_x
_atom_site_fract_y
_atom_site_fract_z
Si Si1 0.666322 0.916883 0.081242
Si Si2 0.795511 0.419571 0.502358
Si Si3 0.513236 0.416803 0.444941
Si Si4 0.808942 0.583467 0.791677
Si Si5 0.157724 0.082391 0.706527
Si Si6 0.120625 0.419724 0.924486
Si Si7 0.335066 0.920778 0.690305
Si Si8 0.700166 0.920086 0.865999
O O1 0.624331 0.750000 0.055932
O O2 0.774835 0.952301 0.193637
O O3 0.764636 0.968076 0.072249
O O4 0.500000 0.000000 0.000000
O O5 0.776900 0.250000 0.492528
O O6 0.665028 0.480473 0.484055
O O7 0.759139 0.475423 0.416536
O O8 0.972439 0.469524 0.611634
O O9 0.500000 0.500000 0.500000
O O10 0.537587 0.250000 0.471793
O O11 0.354939 0.443825 0.326224
O O12 0.857175 0.750000 0.815855
O O13 0.785663 0.524574 0.848133
O O14 0.948525 0.494312 0.829244
O O15 0.171429 0.250000 0.697336
O O16 0.257615 0.991989 0.709349
O O17 0.094223 0.250000 0.911130
O O18 0.200094 0.476139 0.026448
O O19 0.326450 0.750000 0.693489
O O20 0.517935 0.977561 0.777892
O O21 0.692996 0.750000 0.861209
#
# Coordination Sequence:
#
# PCOD8069794 Si02
#       8
#     4   4   4   4   4   4   4   4
#     4  10  22  39  57  80 110 144 183 224 270 324
#     4   9  18  35  58  80 107 145 181 216 268 327
#     4  10  21  37  58  82 110 146 183 220 269 326
#     4  10  20  36  56  81 110 142 181 224 268 319
#     4  10  21  35  53  80 112 142 176 223 274 323
#     4  10  21  35  55  82 109 142 183 224 267 319
#     4  10  18  34  59  82 105 141 184 223 265 318
#     4   9  17  33  56  80 108 141 181 222 264 319
#
# _framework density 18.691050000000001
#
# number of rings (size 3 to 8) (size 9 to 14) (size 15 to 20)
#    0.000    2.250    1.250    1.500    1.750    2.500 
#    0.000    2.500    0.000    0.000    0.000    0.000 
#    0.000    0.000    0.000    0.000    0.000    0.000 
#
# Total GULP energy -396871.034295 kJ/mol
# GULP energy per Si atom -12402.219822 kJ/mol
# Density = 1.864851 g / cm^3
# Si number density = 18.691050 Si / 1000 Ang^3
#
#
#
# Elastic Constant Matrix: (Units=GPa)
#
#
# Indices 1 2 3 4 5 6 
#
# 1 159.3457 45.9812 56.2336 0.0000 4.4090 0.0000
# 2 45.9812 34.8071 35.1413 0.0000 4.2151 0.0000
# 3 56.2336 35.1413 94.8760 0.0000 12.1537 0.0000
# 4 0.0000 0.0000 0.0000 27.2756 0.0000 1.7483
# 5 4.4090 4.2151 12.1537 0.0000 41.1421 0.0000
# 6 0.0000 0.0000 0.0000 1.7483 0.0000 33.3268
#
#
#
# Elastic Compliance Matrix: (Units=1/GPa)
#
#
# Indices 1 2 3 4 5 6 
#
# 1 0.010327 -0.011912 -0.001791 0.000000 0.000643 0.000000
# 2 -0.011912 0.059635 -0.014975 0.000000 -0.000409 0.000000
# 3 -0.001791 -0.014975 0.017593 0.000000 -0.003471 0.000000
# 4 0.000000 0.000000 0.000000 0.036787 0.000000 -0.001930
# 5 0.000643 -0.000409 -0.003471 0.000000 0.025304 0.000000
# 6 0.000000 0.000000 0.000000 -0.001930 0.000000 0.030107
#
#
# Mechanical properties :
#
#
# Convention : Reuss Voigt Hill
#
# Bulk Modulus (GPa) = 33.11514 62.63789 47.87652
# Shear Modulus (GPa) = 20.22839 30.46042 25.34441
#
# Velocity S-wave (km/s) = 3.29333 4.04131 3.68634
# Velocity P-wave (km/s) = 5.67599 7.44051 6.61733
#
# Compressibility (1/GPa) = 0.03019767
#
# Stress axis : x y z
#
# Youngs Moduli (GPa) = 96.82939 16.76871 56.84011
#
# Poissons Ratio (x) = 0.19975 0.10182
# Poissons Ratio (y) = 1.15345 0.85121
# Poissons Ratio (z) = 0.17345 0.25112
#
# Static dielectric constant tensor:
#      x y z
#    x 3.605050 0.000000 -0.050290 
#    y 0.000000 3.093430 0.000000 
#    z -0.050290 0.000000 3.692750 
# 
# 
# High freq. dielectric constant tensor:
#      x y z
#    x 1.741150 0.000000 -0.000050 
#    y 0.000000 1.689510 0.000000 
#    z -0.000050 0.000000 1.741720 
# 
# From -- ./inp_files/44220.got.cif
#   From: 2010.06.25/outbox.cif.g09.slc.cpg/sg11_23_cif.got.tgz:44220.got - 2010.06.27 23:14:04.
