data_PCOD8069184
_publ_section_title
;
Structure prediction by ZEFSAII (Michael W. Deem and Ramdas Pophale) SiO2 
 PCOD8069184
Probable space group: P 21/M
;
_chemical_formula_sum "Si O2"
_cell_formula_units_Z 28
_cell_length_a 30.042872
_cell_length_b 8.710815
_cell_length_c 9.465673
_cell_angle_alpha 90.000000
_cell_angle_beta 37.615523
_cell_angle_gamma 90.000000
_cell_volume 1511.950779
_symmetry_space_group_name_H-M "P 21/M"
_symmetry_group_IT_number 11
_symmetry_cell_setting 'monoclinic'
loop_
_space_group_symop_operation_xyz
x,y,z
-x,1/2+y,-z
-x,-y,-z
x,1/2-y,z
loop_
_atom_site_type_symbol
_atom_site_label
_atom_site_fract_x
_atom_site_fract_y
_atom_site_fract_z
Si Si1 0.866355 0.567982 0.506935
Si Si2 0.717364 0.573215 0.576805
Si Si3 0.432881 0.431928 0.751659
Si Si4 0.716153 0.428972 0.875131
Si Si5 0.124492 0.072327 0.838457
Si Si6 0.003422 0.567698 0.646428
Si Si7 0.560519 0.574755 0.942801
O O1 0.874476 0.750000 0.500769
O O2 0.786405 0.516719 0.761780
O O3 0.879457 0.509695 0.312524
O O4 0.922769 0.483180 0.465140
O O5 0.717258 0.750000 0.636612
O O6 0.715037 0.454853 0.710525
O O7 0.793640 0.544415 0.302307
O O8 0.643181 0.548125 0.672109
O O9 0.500000 0.500000 0.500000
O O10 0.430619 0.250000 0.743052
O O11 0.358329 0.500806 0.872952
O O12 0.441205 0.487094 0.892888
O O13 0.721118 0.250000 0.899020
O O14 0.105968 0.250000 0.877857
O O15 0.064398 0.996867 0.092085
O O16 0.999530 0.750000 0.645931
O O17 0.000000 0.500000 0.500000
O O18 0.539133 0.750000 0.996919
O O19 0.500000 0.500000 0.000000
#
# Coordination Sequence:
#
# PCOD8069184 Si02
#       7
#     4   4   4   4   4   4   4
#     4  10  19  35  57  79 101 131 170 215 259 306
#     4   8  15  31  51  73  99 130 168 214 259 303
#     4  10  20  35  53  76 105 140 177 216 258 305
#     4  10  18  30  51  79 105 132 167 212 259 307
#     4   8  16  32  56  78  98 127 171 218 259 304
#     4  11  22  36  52  75 106 140 172 210 260 315
#     4   9  18  31  50  74 103 134 169 211 258 308
#
# _framework density 18.519120999999998
#
# number of rings (size 3 to 8) (size 9 to 14) (size 15 to 20)
#    0.000    2.571    0.000    4.714    0.000    2.857 
#    0.000    7.857    0.000    5.143    0.000    0.000 
#    0.000    0.000    0.000    0.000    0.000    0.000 
#
# Total GULP energy -346947.958008 kJ/mol
# GULP energy per Si atom -12390.998500 kJ/mol
# Density = 1.847697 g / cm^3
# Si number density = 18.519121 Si / 1000 Ang^3
#
#
#
# Elastic Constant Matrix: (Units=GPa)
#
#
# Indices 1 2 3 4 5 6 
#
# 1 126.6506 29.4863 74.2201 0.0000 -26.7957 0.0000
# 2 29.4863 63.7646 36.0265 0.0000 -5.9203 0.0000
# 3 74.2201 36.0265 135.4738 0.0000 -30.0508 0.0000
# 4 0.0000 0.0000 0.0000 25.0415 0.0000 -4.2924
# 5 -26.7957 -5.9203 -30.0508 0.0000 30.6318 0.0000
# 6 0.0000 0.0000 0.0000 -4.2924 0.0000 32.3402
#
#
#
# Elastic Compliance Matrix: (Units=1/GPa)
#
#
# Indices 1 2 3 4 5 6 
#
# 1 0.012589 -0.002481 -0.004986 0.000000 0.005642 0.000000
# 2 -0.002481 0.019006 -0.004297 0.000000 -0.002712 0.000000
# 3 -0.004986 -0.004297 0.012914 0.000000 0.007478 0.000000
# 4 0.000000 0.000000 0.000000 0.040863 0.000000 0.005424
# 5 0.005642 -0.002712 0.007478 0.000000 0.044392 0.000000
# 6 0.000000 0.000000 0.000000 0.005424 0.000000 0.031641
#
#
# Mechanical properties :
#
#
# Convention : Reuss Voigt Hill
#
# Bulk Modulus (GPa) = 47.65883 67.26165 57.46024
# Shear Modulus (GPa) = 26.05180 30.01310 28.03245
#
# Velocity S-wave (km/s) = 3.75474 4.03010 3.89485
# Velocity P-wave (km/s) = 6.67744 7.61936 7.16390
#
# Compressibility (1/GPa) = 0.02098247
#
# Stress axis : x y z
#
# Youngs Moduli (GPa) = 79.43729 52.61611 77.43414
#
# Poissons Ratio (x) = 0.13052 0.38606
# Poissons Ratio (y) = 0.19705 0.33271
# Poissons Ratio (z) = 0.39605 0.22607
#
# Static dielectric constant tensor:
#      x y z
#    x 3.466410 0.000000 -0.365700 
#    y 0.000000 3.315240 0.000000 
#    z -0.365700 0.000000 3.714810 
# 
# 
# High freq. dielectric constant tensor:
#      x y z
#    x 1.702470 0.000000 -0.039410 
#    y 0.000000 1.710230 0.000000 
#    z -0.039410 0.000000 1.714840 
# 
# From -- ./inp_files/28983.got.cif
#   From: 2010.06.25/outbox.cif.g09.slc.cpg/sg11_15_cif.got.tgz:28983.got - 2010.06.27 23:14:04.
