data_PCOD8069791
_publ_section_title
;
Structure prediction by ZEFSAII (Michael W. Deem and Ramdas Pophale) SiO2 
 PCOD8069791
Probable space group: P 21/M
;
_chemical_formula_sum "Si O2"
_cell_formula_units_Z 32
_cell_length_a 11.782099
_cell_length_b 8.928004
_cell_length_c 28.557048
_cell_angle_alpha 90.000000
_cell_angle_beta 147.592420
_cell_angle_gamma 90.000000
_cell_volume 1609.923741
_symmetry_space_group_name_H-M "P 21/M"
_symmetry_group_IT_number 11
_symmetry_cell_setting 'monoclinic'
loop_
_space_group_symop_operation_xyz
x,y,z
-x,1/2+y,-z
-x,-y,-z
x,1/2-y,z
loop_
_atom_site_type_symbol
_atom_site_label
_atom_site_fract_x
_atom_site_fract_y
_atom_site_fract_z
Si Si1 0.613926 0.075754 0.741784
Si Si2 0.403110 0.424638 0.767228
Si Si3 0.933890 0.427374 0.100177
Si Si4 0.801126 0.573539 0.651970
Si Si5 0.595818 0.927625 0.923067
Si Si6 0.427579 0.576233 0.590309
Si Si7 0.205557 0.572614 0.847864
Si Si8 0.078587 0.576035 0.397937
O O1 0.669077 0.250000 0.755312
O O2 0.499369 0.041843 0.750391
O O3 0.453774 0.024654 0.645333
O O4 0.825663 0.979245 0.812507
O O5 0.414395 0.250000 0.783961
O O6 0.539738 0.517091 0.851898
O O7 0.161585 0.483941 0.683043
O O8 0.929465 0.250000 0.092549
O O9 0.810014 0.480683 0.103842
O O10 0.821034 0.503665 0.016480
O O11 0.815944 0.750000 0.651790
O O12 0.597098 0.525653 0.610415
O O13 0.788232 0.505249 0.595922
O O14 0.007684 0.507037 0.750030
O O15 0.613312 0.750000 0.928729
O O16 0.420223 0.987025 0.898833
O O17 0.461118 0.750000 0.615400
O O18 0.194222 0.546526 0.487854
O O19 0.196188 0.750000 0.842380
O O20 0.081927 0.750000 0.387018
#
# Coordination Sequence:
#
# PCOD8069791 Si02
#       8
#     4   4   4   4   4   4   4   4
#     4  11  24  41  60  83 113 151 199 247 285 335
#     4  10  23  42  59  81 116 154 195 244 291 333
#     4  11  22  40  63  87 119 154 186 232 292 346
#     4  10  18  34  58  86 120 153 186 232 287 344
#     4  11  22  38  61  90 118 149 192 235 281 346
#     4  10  21  38  60  86 120 155 189 234 291 346
#     4   9  18  34  58  87 119 151 184 229 285 341
#     4  10  21  37  59  88 118 153 194 236 285 344
#
# _framework density 19.876718
#
# number of rings (size 3 to 8) (size 9 to 14) (size 15 to 20)
#    0.000    1.750    2.500    1.875    0.000    3.000 
#    0.000    1.875    0.000    0.000    0.000    0.000 
#    0.000    0.000    0.000    0.000    0.000    0.000 
#
# Total GULP energy -396915.300237 kJ/mol
# GULP energy per Si atom -12403.603132 kJ/mol
# Density = 1.983148 g / cm^3
# Si number density = 19.876718 Si / 1000 Ang^3
#
#
#
# Elastic Constant Matrix: (Units=GPa)
#
#
# Indices 1 2 3 4 5 6 
#
# 1 101.7353 43.6053 32.1472 0.0000 -22.4566 0.0000
# 2 43.6053 60.7671 32.4713 0.0000 -15.9171 0.0000
# 3 32.1472 32.4713 107.2976 0.0000 -29.3414 0.0000
# 4 0.0000 0.0000 0.0000 29.5091 0.0000 -6.5435
# 5 -22.4566 -15.9171 -29.3414 0.0000 22.5421 0.0000
# 6 0.0000 0.0000 0.0000 -6.5435 0.0000 27.6756
#
#
#
# Elastic Compliance Matrix: (Units=1/GPa)
#
#
# Indices 1 2 3 4 5 6 
#
# 1 0.015720 -0.009013 0.000869 0.000000 0.010427 0.000000
# 2 -0.009013 0.026208 -0.004077 0.000000 0.004220 0.000000
# 3 0.000869 -0.004077 0.015127 0.000000 0.017677 0.000000
# 4 0.000000 0.000000 0.000000 0.035763 0.000000 0.008456
# 5 0.010427 0.004220 0.017677 0.000000 0.080738 0.000000
# 6 0.000000 0.000000 0.000000 0.008456 0.000000 0.038132
#
#
# Mechanical properties :
#
#
# Convention : Reuss Voigt Hill
#
# Bulk Modulus (GPa) = 30.66252 54.02751 42.34502
# Shear Modulus (GPa) = 20.24287 26.71711 23.47999
#
# Velocity S-wave (km/s) = 3.19473 3.67023 3.44071
# Velocity P-wave (km/s) = 5.39150 6.72318 6.09382
#
# Compressibility (1/GPa) = 0.03261310
#
# Stress axis : x y z
#
# Youngs Moduli (GPa) = 63.61464 38.15641 66.10618
#
# Poissons Ratio (x) = 0.34392 -0.05747
# Poissons Ratio (y) = 0.57338 0.26950
# Poissons Ratio (z) = -0.05531 0.15556
#
# Static dielectric constant tensor:
#      x y z
#    x 3.602840 0.000000 0.005110 
#    y 0.000000 3.401980 0.000000 
#    z 0.005110 0.000000 3.742240 
# 
# 
# High freq. dielectric constant tensor:
#      x y z
#    x 1.770920 0.000000 -0.004610 
#    y 0.000000 1.760440 0.000000 
#    z -0.004610 0.000000 1.789690 
# 
# From -- ./inp_files/42890.got.cif
#   From: 2010.06.25/outbox.cif.g09.slc.cpg/sg11_22_cif.got.tgz:42890.got - 2010.06.27 23:14:04.
