data_PCOD8069623
_publ_section_title
;
Structure prediction by ZEFSAII (Michael W. Deem and Ramdas Pophale) SiO2 
 PCOD8069623
Probable space group: P 21/M
;
_chemical_formula_sum "Si O2"
_cell_formula_units_Z 28
_cell_length_a 12.422722
_cell_length_b 27.192800
_cell_length_c 5.175009
_cell_angle_alpha 90.000000
_cell_angle_beta 113.745256
_cell_angle_gamma 90.000000
_cell_volume 1600.171511
_symmetry_space_group_name_H-M "P 21/M"
_symmetry_group_IT_number 11
_symmetry_cell_setting 'monoclinic'
loop_
_space_group_symop_operation_xyz
x,y,z
-x,1/2+y,-z
-x,-y,-z
x,1/2-y,z
loop_
_atom_site_type_symbol
_atom_site_label
_atom_site_fract_x
_atom_site_fract_y
_atom_site_fract_z
Si Si1 0.912188 0.553007 0.178466
Si Si2 0.661285 0.898736 0.911952
Si Si3 0.470547 0.391620 0.709109
Si Si4 0.425936 0.305124 0.353023
Si Si5 0.728035 0.366566 0.982596
Si Si6 0.688628 0.305561 0.445028
Si Si7 0.941067 0.060011 0.180609
O O1 0.962815 0.568979 0.503864
O O2 0.889834 0.494877 0.146486
O O3 0.789882 0.579850 0.016277
O O4 0.000680 0.570004 0.040101
O O5 0.667371 0.838652 0.897065
O O6 0.579474 0.918761 0.596967
O O7 0.599112 0.914237 0.117541
O O8 0.449034 0.332196 0.652313
O O9 0.609854 0.399909 0.875225
O O10 0.377832 0.250000 0.350340
O O11 0.547393 0.305815 0.311755
O O12 0.741752 0.337610 0.728133
O O13 0.731390 0.327588 0.216777
O O14 0.835193 0.403186 0.121526
O O15 0.736388 0.250000 0.515379
#
# Coordination Sequence:
#
# PCOD8069623 Si02
#       7
#     4   4   4   4   4   4   4
#     4  10  21  39  56  81 100 138 194 221 266 306
#     4  10  18  33  53  75 111 135 170 222 260 314
#     4   9  18  30  48  80 108 136 163 209 269 322
#     4   8  17  29  49  77 105 138 170 205 254 314
#     4  11  18  35  53  81 112 136 180 216 271 312
#     4  10  19  31  53  81 113 141 173 212 259 326
#     4  10  22  37  60  77 101 141 187 230 254 321
#
# _framework density 17.498125999999999
#
# number of rings (size 3 to 8) (size 9 to 14) (size 15 to 20)
#    0.857    1.429    1.429    2.143    0.000    1.143 
#    0.000    1.429    0.000    5.143    0.000    0.000 
#    0.000    0.000    0.000    0.000    0.000    0.000 
#
# Total GULP energy -347027.236261 kJ/mol
# GULP energy per Si atom -12393.829866 kJ/mol
# Density = 1.745830 g / cm^3
# Si number density = 17.498126 Si / 1000 Ang^3
#
#
#
# Elastic Constant Matrix: (Units=GPa)
#
#
# Indices 1 2 3 4 5 6 
#
# 1 61.1558 39.6505 22.7860 0.0000 6.7647 0.0000
# 2 39.6505 58.3241 24.1768 0.0000 13.1194 0.0000
# 3 22.7860 24.1768 85.1407 0.0000 -10.6158 0.0000
# 4 0.0000 0.0000 0.0000 20.6356 0.0000 2.4406
# 5 6.7647 13.1194 -10.6158 0.0000 28.2455 0.0000
# 6 0.0000 0.0000 0.0000 2.4406 0.0000 27.6949
#
#
#
# Elastic Compliance Matrix: (Units=1/GPa)
#
#
# Indices 1 2 3 4 5 6 
#
# 1 0.029731 -0.019510 -0.002282 0.000000 0.001084 0.000000
# 2 -0.019510 0.036732 -0.007086 0.000000 -0.015052 0.000000
# 3 -0.002282 -0.007086 0.015576 0.000000 0.009692 0.000000
# 4 0.000000 0.000000 0.000000 0.048970 0.000000 -0.004316
# 5 0.001084 -0.015052 0.009692 0.000000 0.045778 0.000000
# 6 0.000000 0.000000 0.000000 -0.004316 0.000000 0.036488
#
#
# Mechanical properties :
#
#
# Convention : Reuss Voigt Hill
#
# Bulk Modulus (GPa) = 41.17839 41.98302 41.58071
# Shear Modulus (GPa) = 17.91298 23.18236 20.54767
#
# Velocity S-wave (km/s) = 3.20302 3.64380 3.43049
# Velocity P-wave (km/s) = 6.10436 6.46127 6.28535
#
# Compressibility (1/GPa) = 0.02428458
#
# Stress axis : x y z
#
# Youngs Moduli (GPa) = 33.63440 27.22394 64.19959
#
# Poissons Ratio (x) = 0.53115 0.14647
# Poissons Ratio (y) = 0.65622 0.45491
# Poissons Ratio (z) = 0.07674 0.19291
#
# Static dielectric constant tensor:
#      x y z
#    x 3.004560 0.000000 -0.127520 
#    y 0.000000 3.117540 0.000000 
#    z -0.127520 0.000000 3.325640 
# 
# 
# High freq. dielectric constant tensor:
#      x y z
#    x 1.657890 0.000000 -0.014290 
#    y 0.000000 1.655490 0.000000 
#    z -0.014290 0.000000 1.688810 
# 
# From -- ./inp_files/5092.got.cif
#   From: 2010.06.25/outbox.cif.g09.slc.cpg/sg11_3_cif.got.tgz:5092.got - 2010.06.27 23:14:04.
