data_PCOD8069422
_publ_section_title
;
Structure prediction by ZEFSAII (Michael W. Deem and Ramdas Pophale) SiO2 
 PCOD8069422
Probable space group: P 21/M
;
_chemical_formula_sum "Si O2"
_cell_formula_units_Z 28
_cell_length_a 9.870604
_cell_length_b 13.389765
_cell_length_c 12.328587
_cell_angle_alpha 90.000000
_cell_angle_beta 127.646985
_cell_angle_gamma 90.000000
_cell_volume 1290.147809
_symmetry_space_group_name_H-M "P 21/M"
_symmetry_group_IT_number 11
_symmetry_cell_setting 'monoclinic'
loop_
_space_group_symop_operation_xyz
x,y,z
-x,1/2+y,-z
-x,-y,-z
x,1/2-y,z
loop_
_atom_site_type_symbol
_atom_site_label
_atom_site_fract_x
_atom_site_fract_y
_atom_site_fract_z
Si Si1 0.666578 0.432255 0.269149
Si Si2 0.246123 0.509057 0.302063
Si Si3 0.353207 0.136308 0.982524
Si Si4 0.580715 0.856189 0.225088
Si Si5 0.801228 0.360059 0.912691
Si Si6 0.445515 0.636103 0.568149
Si Si7 0.110920 0.542775 0.821968
O O1 0.691812 0.548756 0.316168
O O2 0.677983 0.369373 0.385614
O O3 0.806654 0.406037 0.245899
O O4 0.474721 0.414449 0.130683
O O5 0.144934 0.557648 0.149890
O O6 0.345346 0.593904 0.416360
O O7 0.377387 0.423603 0.327184
O O8 0.092683 0.463690 0.299654
O O9 0.301760 0.250000 0.991593
O O10 0.459411 0.136926 0.922843
O O11 0.186418 0.067757 0.883337
O O12 0.676370 0.750000 0.296813
O O13 0.402789 0.857472 0.199701
O O14 0.876313 0.250000 0.922074
O O15 0.860652 0.386062 0.062085
O O16 0.492374 0.750000 0.566866
#
# Coordination Sequence:
#
# PCOD8069422 Si02
#       7
#     4   4   4   4   4   4   4
#     4  11  19  37  62  92 124 157 200 251 302 361
#     4  11  25  44  62  88 123 165 208 253 300 359
#     4  10  18  31  55  89 125 158 193 242 306 366
#     4   9  16  29  53  86 119 153 195 236 288 354
#     4  11  20  35  61  91 124 160 198 243 302 366
#     4  11  25  45  65  84 117 167 215 252 297 360
#     4  11  22  38  63  94 127 152 197 259 316 360
#
# _framework density 21.702939000000001
#
# number of rings (size 3 to 8) (size 9 to 14) (size 15 to 20)
#    0.000    1.429    4.286    2.143    0.000    2.857 
#    0.000    0.000    0.000    0.000    0.000    0.000 
#    0.000    0.000    0.000    0.000    0.000    0.000 
#
# Total GULP energy -347058.694393 kJ/mol
# GULP energy per Si atom -12394.953371 kJ/mol
# Density = 2.165354 g / cm^3
# Si number density = 21.702939 Si / 1000 Ang^3
#
#
#
# Elastic Constant Matrix: (Units=GPa)
#
#
# Indices 1 2 3 4 5 6 
#
# 1 101.2972 30.1182 34.4816 0.0000 -4.7776 0.0000
# 2 30.1182 126.2919 32.7114 0.0000 -4.6363 0.0000
# 3 34.4816 32.7114 47.5434 0.0000 -8.3595 0.0000
# 4 0.0000 0.0000 0.0000 20.0728 0.0000 -9.8828
# 5 -4.7776 -4.6363 -8.3595 0.0000 22.7434 0.0000
# 6 0.0000 0.0000 0.0000 -9.8828 0.0000 16.9257
#
#
#
# Elastic Compliance Matrix: (Units=1/GPa)
#
#
# Indices 1 2 3 4 5 6 
#
# 1 0.013188 -0.000804 -0.009144 0.000000 -0.000755 0.000000
# 2 -0.000804 0.009690 -0.006164 0.000000 -0.000459 0.000000
# 3 -0.009144 -0.006164 0.033514 0.000000 0.009141 0.000000
# 4 0.000000 0.000000 0.000000 0.069919 0.000000 0.040825
# 5 -0.000755 -0.000459 0.009141 0.000000 0.047076 0.000000
# 6 0.000000 0.000000 0.000000 0.040825 0.000000 0.082919
#
#
# Mechanical properties :
#
#
# Convention : Reuss Voigt Hill
#
# Bulk Modulus (GPa) = 41.38028 52.19500 46.78764
# Shear Modulus (GPa) = 16.85847 23.80313 20.33080
#
# Velocity S-wave (km/s) = 2.79011 3.31534 3.06400
# Velocity P-wave (km/s) = 5.43025 6.22554 5.84144
#
# Compressibility (1/GPa) = 0.02416610
#
# Stress axis : x y z
#
# Youngs Moduli (GPa) = 75.82538 103.20171 29.83844
#
# Poissons Ratio (x) = 0.08301 0.27285
# Poissons Ratio (y) = 0.06099 0.18393
# Poissons Ratio (z) = 0.69336 0.63616
#
# Static dielectric constant tensor:
#      x y z
#    x 3.888940 0.000000 -0.264070 
#    y 0.000000 4.156460 0.000000 
#    z -0.264070 0.000000 3.463850 
# 
# 
# High freq. dielectric constant tensor:
#      x y z
#    x 1.844240 0.000000 -0.026440 
#    y 0.000000 1.860660 0.000000 
#    z -0.026440 0.000000 1.815380 
# 
# From -- ./inp_files/31962.got.cif
#   From: 2010.06.25/outbox.cif.g09.slc.cpg/sg11_16_cif.got.tgz:31962.got - 2010.06.27 23:14:04.
