data_PCOD8069038
_publ_section_title
;
Structure prediction by ZEFSAII (Michael W. Deem and Ramdas Pophale) SiO2 
 PCOD8069038
Probable space group: P 21/M
;
_chemical_formula_sum "Si O2"
_cell_formula_units_Z 24
_cell_length_a 20.699907
_cell_length_b 8.643298
_cell_length_c 12.025689
_cell_angle_alpha 90.000000
_cell_angle_beta 141.093566
_cell_angle_gamma 90.000000
_cell_volume 1351.301870
_symmetry_space_group_name_H-M "P 21/M"
_symmetry_group_IT_number 11
_symmetry_cell_setting 'monoclinic'
loop_
_space_group_symop_operation_xyz
x,y,z
-x,1/2+y,-z
-x,-y,-z
x,1/2-y,z
loop_
_atom_site_type_symbol
_atom_site_label
_atom_site_fract_x
_atom_site_fract_y
_atom_site_fract_z
Si Si1 0.938051 0.569425 0.572628
Si Si2 0.218398 0.929784 0.475002
Si Si3 0.768842 0.567268 0.181025
Si Si4 0.892721 0.073558 0.893845
Si Si5 0.856431 0.570279 0.077604
Si Si6 0.386734 0.065427 0.843423
O O1 0.968515 0.750000 0.610481
O O2 0.865413 0.539228 0.580564
O O3 0.875975 0.511669 0.380655
O O4 0.036733 0.462718 0.718031
O O5 0.205677 0.750000 0.492626
O O6 0.199090 0.950571 0.317585
O O7 0.331020 0.991791 0.660731
O O8 0.767856 0.750000 0.188628
O O9 0.768541 0.516775 0.050142
O O10 0.671531 0.506481 0.121867
O O11 0.921161 0.250000 0.948402
O O12 0.846186 0.015020 0.947439
O O13 0.000000 0.000000 0.000000
O O14 0.847389 0.750000 0.039580
O O15 0.387315 0.250000 0.833867
O O16 0.500000 0.000000 0.000000
#
# Coordination Sequence:
#
# PCOD8069038 Si02
#       6
#     4   4   4   4   4   4
#     4  10  18  30  48  71 103 139 176 215 257 305
#     4  10  20  34  52  76 104 137 177 218 260 307
#     4   8  18  33  49  73 103 135 170 213 262 312
#     4  11  22  34  50  73 106 144 182 218 254 301
#     4  11  20  31  48  71 104 143 178 210 253 308
#     4  10  20  37  60  83 105 130 166 216 270 319
#
# _framework density 17.760649999999998
#
# number of rings (size 3 to 8) (size 9 to 14) (size 15 to 20)
#    0.000    2.000    1.667    4.000    0.000    2.000 
#    0.000    9.167    0.000    1.000    0.000    0.000 
#    0.000    0.000    0.000    0.000    0.000    0.000 
#
# Total GULP energy -297423.491768 kJ/mol
# GULP energy per Si atom -12392.645490 kJ/mol
# Density = 1.772023 g / cm^3
# Si number density = 17.760650 Si / 1000 Ang^3
#
#
#
# Elastic Constant Matrix: (Units=GPa)
#
#
# Indices 1 2 3 4 5 6 
#
# 1 99.7715 26.9613 74.4442 0.0000 -24.7837 0.0000
# 2 26.9613 68.7469 42.0561 0.0000 -15.6048 0.0000
# 3 74.4442 42.0561 99.6705 0.0000 -6.3193 0.0000
# 4 0.0000 0.0000 0.0000 28.7427 0.0000 -2.6136
# 5 -24.7837 -15.6048 -6.3193 0.0000 30.5316 0.0000
# 6 0.0000 0.0000 0.0000 -2.6136 0.0000 22.1460
#
#
#
# Elastic Compliance Matrix: (Units=1/GPa)
#
#
# Indices 1 2 3 4 5 6 
#
# 1 0.036966 0.010628 -0.030244 0.000000 0.029179 0.000000
# 2 0.010628 0.025060 -0.017381 0.000000 0.017838 0.000000
# 3 -0.030244 -0.017381 0.038340 0.000000 -0.025499 0.000000
# 4 0.000000 0.000000 0.000000 0.035169 0.000000 0.004151
# 5 0.029179 0.017838 -0.025499 0.000000 0.060278 0.000000
# 6 0.000000 0.000000 0.000000 0.004151 0.000000 0.045645
#
#
# Mechanical properties :
#
#
# Convention : Reuss Voigt Hill
#
# Bulk Modulus (GPa) = 37.92095 61.67911 49.80003
# Shear Modulus (GPa) = 15.42052 24.59921 20.00987
#
# Velocity S-wave (km/s) = 2.94979 3.72565 3.36019
# Velocity P-wave (km/s) = 5.74449 7.30141 6.56924
#
# Compressibility (1/GPa) = 0.02637065
#
# Stress axis : x y z
#
# Youngs Moduli (GPa) = 27.05197 39.90416 26.08231
#
# Poissons Ratio (x) = -0.42410 0.78885
# Poissons Ratio (y) = -0.28751 0.45334
# Poissons Ratio (z) = 0.81817 0.69359
#
# Static dielectric constant tensor:
#      x y z
#    x 3.510200 0.000000 -0.214010 
#    y 0.000000 3.339360 0.000000 
#    z -0.214010 0.000000 3.296950 
# 
# 
# High freq. dielectric constant tensor:
#      x y z
#    x 1.678560 0.000000 -0.021270 
#    y 0.000000 1.691210 0.000000 
#    z -0.021270 0.000000 1.666030 
# 
# From -- ./inp_files/36994.got.cif
#   From: 2010.06.25/outbox.cif.g09.slc.cpg/sg11_19_cif.got.tgz:36994.got - 2010.06.27 23:14:04.
