data_PCOD8069117
_publ_section_title
;
Structure prediction by ZEFSAII (Michael W. Deem and Ramdas Pophale) SiO2 
 PCOD8069117
Probable space group: P 21/M
;
_chemical_formula_sum "Si O2"
_cell_formula_units_Z 32
_cell_length_a 20.098299
_cell_length_b 8.782947
_cell_length_c 28.114121
_cell_angle_alpha 90.000000
_cell_angle_beta 158.991233
_cell_angle_gamma 90.000000
_cell_volume 1779.206318
_symmetry_space_group_name_H-M "P 21/M"
_symmetry_group_IT_number 11
_symmetry_cell_setting 'monoclinic'
loop_
_space_group_symop_operation_xyz
x,y,z
-x,1/2+y,-z
-x,-y,-z
x,1/2-y,z
loop_
_atom_site_type_symbol
_atom_site_label
_atom_site_fract_x
_atom_site_fract_y
_atom_site_fract_z
Si Si1 0.464523 0.431131 0.425169
Si Si2 0.816846 0.070824 0.399284
Si Si3 0.676363 0.075731 0.873167
Si Si4 0.432972 0.423765 0.105829
Si Si5 0.695086 0.925603 0.416694
Si Si6 0.795614 0.429610 0.580571
Si Si7 0.060190 0.073390 0.156222
Si Si8 0.911220 0.071277 0.158005
O O1 0.500000 0.500000 0.500000
O O2 0.477087 0.250000 0.436436
O O3 0.616834 0.494225 0.489883
O O4 0.259188 0.491267 0.271724
O O5 0.839784 0.250000 0.424512
O O6 0.653726 0.041424 0.251239
O O7 0.774524 0.986592 0.420309
O O8 0.000000 0.000000 0.500000
O O9 0.661094 0.250000 0.883034
O O10 0.531684 0.055253 0.733229
O O11 0.621897 0.955200 0.876527
O O12 0.895020 0.042938 0.007107
O O13 0.390529 0.250000 0.064707
O O14 0.307849 0.526235 0.986913
O O15 0.751191 0.750000 0.459684
O O16 0.783951 0.019593 0.518466
O O17 0.802039 0.250000 0.587057
O O18 0.984546 0.493820 0.728615
O O19 0.091376 0.250000 0.185131
O O20 0.999252 0.008086 0.167281
O O21 0.930450 0.250000 0.176521
#
# Coordination Sequence:
#
# PCOD8069117 Si02
#       8
#     4   4   4   4   4   4   4   4
#     4  10  19  31  47  69  99 133 173 222 268 311
#     4  10  20  35  58  86 113 138 166 205 250 300
#     4   8  15  29  49  70  93 128 172 214 256 303
#     4   9  17  29  48  77 108 132 162 208 254 295
#     4  10  20  35  54  75 103 138 176 214 254 310
#     4  11  22  33  48  72 104 140 176 219 268 313
#     4   8  14  27  47  69  93 124 166 218 264 302
#     4  10  18  30  50  72  98 135 177 217 257 306
#
# _framework density 17.985547
#
# number of rings (size 3 to 8) (size 9 to 14) (size 15 to 20)
#    0.000    2.500    1.250    2.625    0.000    2.500 
#    0.000    0.625    0.000    0.750    0.000    0.000 
#    0.000    0.000    0.000    0.000    0.000    0.000 
#
# Total GULP energy -396478.197100 kJ/mol
# GULP energy per Si atom -12389.943659 kJ/mol
# Density = 1.794461 g / cm^3
# Si number density = 17.985547 Si / 1000 Ang^3
#
#
#
# Elastic Constant Matrix: (Units=GPa)
#
#
# Indices 1 2 3 4 5 6 
#
# 1 52.2622 20.7248 46.6515 0.0000 1.0646 0.0000
# 2 20.7248 61.6480 43.8606 0.0000 1.9306 0.0000
# 3 46.6515 43.8606 147.8474 0.0000 5.2677 0.0000
# 4 0.0000 0.0000 0.0000 28.0763 0.0000 -3.1971
# 5 1.0646 1.9306 5.2677 0.0000 26.9354 0.0000
# 6 0.0000 0.0000 0.0000 -3.1971 0.0000 19.7203
#
#
#
# Elastic Compliance Matrix: (Units=1/GPa)
#
#
# Indices 1 2 3 4 5 6 
#
# 1 0.027359 -0.003878 -0.007506 0.000000 0.000665 0.000000
# 2 -0.003878 0.021113 -0.005026 0.000000 -0.000377 0.000000
# 3 -0.007506 -0.005026 0.010674 0.000000 -0.001431 0.000000
# 4 0.000000 0.000000 0.000000 0.036287 0.000000 0.005883
# 5 0.000665 -0.000377 -0.001431 0.000000 0.037406 0.000000
# 6 0.000000 0.000000 0.000000 0.005883 0.000000 0.051663
#
#
# Mechanical properties :
#
#
# Convention : Reuss Voigt Hill
#
# Bulk Modulus (GPa) = 37.98640 53.80348 45.89494
# Shear Modulus (GPa) = 22.11436 24.98111 23.54774
#
# Velocity S-wave (km/s) = 3.51032 3.73091 3.62229
# Velocity P-wave (km/s) = 6.13157 6.96702 6.56260
#
# Compressibility (1/GPa) = 0.02632521
#
# Stress axis : x y z
#
# Youngs Moduli (GPa) = 36.55143 47.36500 93.68403
#
# Poissons Ratio (x) = 0.18368 0.70318
# Poissons Ratio (y) = 0.14175 0.47087
# Poissons Ratio (z) = 0.27435 0.23807
#
# Static dielectric constant tensor:
#      x y z
#    x 2.926230 0.000000 0.264320 
#    y 0.000000 3.283060 0.000000 
#    z 0.264320 0.000000 3.872090 
# 
# 
# High freq. dielectric constant tensor:
#      x y z
#    x 1.637320 0.000000 0.010010 
#    y 0.000000 1.695030 0.000000 
#    z 0.010010 0.000000 1.719780 
# 
# From -- ./inp_files/42430.got.cif
#   From: 2010.06.25/outbox.cif.g09.slc.cpg/sg11_22_cif.got.tgz:42430.got - 2010.06.27 23:14:04.
