data_PCOD8069099
_publ_section_title
;
Structure prediction by ZEFSAII (Michael W. Deem and Ramdas Pophale) SiO2 
 PCOD8069099
Probable space group: P 21/M
;
_chemical_formula_sum "Si O2"
_cell_formula_units_Z 24
_cell_length_a 15.461611
_cell_length_b 16.426764
_cell_length_c 9.151315
_cell_angle_alpha 90.000000
_cell_angle_beta 32.657377
_cell_angle_gamma 90.000000
_cell_volume 1254.219658
_symmetry_space_group_name_H-M "P 21/M"
_symmetry_group_IT_number 11
_symmetry_cell_setting 'monoclinic'
loop_
_space_group_symop_operation_xyz
x,y,z
-x,1/2+y,-z
-x,-y,-z
x,1/2-y,z
loop_
_atom_site_type_symbol
_atom_site_label
_atom_site_fract_x
_atom_site_fract_y
_atom_site_fract_z
Si Si1 0.096324 0.346531 0.994766
Si Si2 0.283240 0.343059 0.998871
Si Si3 0.247937 0.652892 0.615128
Si Si4 0.399060 0.156675 0.390451
Si Si5 0.555831 0.092181 0.420569
Si Si6 0.466178 0.410377 0.989139
O O1 0.094653 0.250000 0.983847
O O2 0.130757 0.370430 0.116639
O O3 0.923665 0.380699 0.194091
O O4 0.233927 0.382561 0.690507
O O5 0.266007 0.250000 0.080235
O O6 0.316688 0.404378 0.087257
O O7 0.433540 0.347195 0.676080
O O8 0.251054 0.750000 0.629342
O O9 0.277863 0.607911 0.729543
O O10 0.376900 0.625651 0.311071
O O11 0.397366 0.250000 0.430335
O O12 0.554656 0.117998 0.251671
O O13 0.415005 0.144868 0.196555
O O14 0.500000 0.000000 0.500000
O O15 0.500000 0.500000 0.000000
#
# Coordination Sequence:
#
# PCOD8069099 Si02
#       6
#     4   4   4   4   4   4
#     4   8  17  33  56  78  97 126 175 217 247 296
#     4   9  17  34  54  71  96 139 175 200 247 316
#     4  10  19  36  57  77 100 135 173 209 250 302
#     4  10  18  32  52  76 101 132 169 210 252 299
#     4  10  18  30  49  75 103 133 167 207 249 300
#     4  11  21  33  50  77 106 135 170 211 252 299
#
# _framework density 19.135404999999999
#
# number of rings (size 3 to 8) (size 9 to 14) (size 15 to 20)
#    0.000    2.333    0.000    7.000    0.000    0.000 
#    0.000   10.000    0.000    4.000    0.000    0.000 
#    0.000    0.000    0.000    0.000    0.000    0.000 
#
# Total GULP energy -297334.275502 kJ/mol
# GULP energy per Si atom -12388.928146 kJ/mol
# Density = 1.909185 g / cm^3
# Si number density = 19.135405 Si / 1000 Ang^3
#
#
#
# Elastic Constant Matrix: (Units=GPa)
#
#
# Indices 1 2 3 4 5 6 
#
# 1 190.5944 31.2064 59.1889 0.0000 -15.1537 0.0000
# 2 31.2064 65.7197 10.6462 0.0000 -8.2275 0.0000
# 3 59.1889 10.6462 65.4142 0.0000 1.3452 0.0000
# 4 0.0000 0.0000 0.0000 13.1616 0.0000 6.4012
# 5 -15.1537 -8.2275 1.3452 0.0000 29.3095 0.0000
# 6 0.0000 0.0000 0.0000 6.4012 0.0000 30.9584
#
#
#
# Elastic Compliance Matrix: (Units=1/GPa)
#
#
# Indices 1 2 3 4 5 6 
#
# 1 0.008112 -0.002221 -0.007059 0.000000 0.003895 0.000000
# 2 -0.002221 0.016855 -0.000808 0.000000 0.003620 0.000000
# 3 -0.007059 -0.000808 0.021906 0.000000 -0.004882 0.000000
# 4 0.000000 0.000000 0.000000 0.084474 0.000000 -0.017466
# 5 0.003895 0.003620 -0.004882 0.000000 0.037373 0.000000
# 6 0.000000 0.000000 0.000000 -0.017466 0.000000 0.035913
#
#
# Mechanical properties :
#
#
# Convention : Reuss Voigt Hill
#
# Bulk Modulus (GPa) = 37.45648 58.20124 47.82886
# Shear Modulus (GPa) = 21.39435 29.39836 25.39635
#
# Velocity S-wave (km/s) = 3.34735 3.92386 3.64702
# Velocity P-wave (km/s) = 5.87849 7.14216 6.54091
#
# Compressibility (1/GPa) = 0.02669765
#
# Stress axis : x y z
#
# Youngs Moduli (GPa) = 123.27241 59.33026 45.64947
#
# Poissons Ratio (x) = 0.13177 0.32223
# Poissons Ratio (y) = 0.27378 0.03689
# Poissons Ratio (z) = 0.87015 0.04794
#
# Static dielectric constant tensor:
#      x y z
#    x 4.415020 0.000000 0.039150 
#    y 0.000000 3.322860 0.000000 
#    z 0.039150 0.000000 3.370480 
# 
# 
# High freq. dielectric constant tensor:
#      x y z
#    x 1.771060 0.000000 0.007810 
#    y 0.000000 1.737590 0.000000 
#    z 0.007810 0.000000 1.693470 
# 
# From -- ./inp_files/13141.got.cif
#   From: 2010.06.25/outbox.cif.g09.slc.cpg/sg11_7_cif.got.tgz:13141.got - 2010.06.27 23:14:04.
