data_PCOD8069627
_publ_section_title
;
Structure prediction by ZEFSAII (Michael W. Deem and Ramdas Pophale) SiO2 
 PCOD8069627
Probable space group: P 21/M
;
_chemical_formula_sum "Si O2"
_cell_formula_units_Z 32
_cell_length_a 11.640974
_cell_length_b 11.112718
_cell_length_c 24.654296
_cell_angle_alpha 90.000000
_cell_angle_beta 147.047530
_cell_angle_gamma 90.000000
_cell_volume 1734.825153
_symmetry_space_group_name_H-M "P 21/M"
_symmetry_group_IT_number 11
_symmetry_cell_setting 'monoclinic'
loop_
_space_group_symop_operation_xyz
x,y,z
-x,1/2+y,-z
-x,-y,-z
x,1/2-y,z
loop_
_atom_site_type_symbol
_atom_site_label
_atom_site_fract_x
_atom_site_fract_y
_atom_site_fract_z
Si Si1 0.498756 0.892457 0.290114
Si Si2 0.962941 0.384449 0.864633
Si Si3 0.548882 0.388929 0.392840
Si Si4 0.661722 0.611943 0.239418
Si Si5 0.287630 0.620894 0.886392
Si Si6 0.891700 0.388290 0.619674
Si Si7 0.847995 0.507337 0.710744
Si Si8 0.640527 0.461869 0.972331
O O1 0.555267 0.750000 0.328476
O O2 0.246421 0.900350 0.182094
O O3 0.604852 0.936691 0.276420
O O4 0.570511 0.998006 0.360107
O O5 0.052254 0.250000 0.903346
O O6 0.901303 0.409091 0.777726
O O7 0.144596 0.470681 0.959874
O O8 0.551874 0.250000 0.369689
O O9 0.331710 0.401155 0.340291
O O10 0.746906 0.406518 0.510221
O O11 0.712804 0.750000 0.267371
O O12 0.877089 0.552080 0.301507
O O13 0.460772 0.597627 0.120533
O O14 0.313833 0.750000 0.870546
O O15 0.474491 0.548550 0.934107
O O16 0.059874 0.575432 0.779265
O O17 0.302681 0.632254 0.957964
O O18 0.923355 0.250000 0.647106
O O19 0.777197 0.445879 0.626541
#
# Coordination Sequence:
#
# PCOD8069627 Si02
#       8
#     4   4   4   4   4   4   4   4
#     4   9  20  39  60  79 105 144 188 230 271 323
#     4   9  18  32  52  77 105 140 181 221 264 319
#     4  10  21  37  58  82 111 142 180 230 282 327
#     4  10  20  36  56  77 106 142 186 228 266 319
#     4  10  19  30  46  72 106 138 169 208 261 320
#     4  10  20  34  55  82 109 142 181 225 274 329
#     4  10  18  33  53  78 108 141 174 216 267 331
#     4  10  19  31  49  74 104 139 175 215 264 319
#
# _framework density 18.445663
#
# number of rings (size 3 to 8) (size 9 to 14) (size 15 to 20)
#    0.000    2.250    1.250    1.875    0.000    1.500 
#    0.000    3.125    0.000    0.000    0.000    0.000 
#    0.000    0.000    0.000    0.000    0.000    0.000 
#
# Total GULP energy -396442.929211 kJ/mol
# GULP energy per Si atom -12388.841538 kJ/mol
# Density = 1.840368 g / cm^3
# Si number density = 18.445663 Si / 1000 Ang^3
#
#
#
# Elastic Constant Matrix: (Units=GPa)
#
#
# Indices 1 2 3 4 5 6 
#
# 1 80.6831 26.5847 23.9383 0.0000 -7.2488 0.0000
# 2 26.5847 70.0982 16.8510 0.0000 -5.4549 0.0000
# 3 23.9383 16.8510 77.7897 0.0000 2.1560 0.0000
# 4 0.0000 0.0000 0.0000 27.5326 0.0000 -7.8147
# 5 -7.2488 -5.4549 2.1560 0.0000 22.5240 0.0000
# 6 0.0000 0.0000 0.0000 -7.8147 0.0000 18.0615
#
#
#
# Elastic Compliance Matrix: (Units=1/GPa)
#
#
# Indices 1 2 3 4 5 6 
#
# 1 0.015437 -0.004595 -0.003872 0.000000 0.004226 0.000000
# 2 -0.004595 0.016779 -0.002299 0.000000 0.002805 0.000000
# 3 -0.003872 -0.002299 0.014633 0.000000 -0.003203 0.000000
# 4 0.000000 0.000000 0.000000 0.041405 0.000000 0.017915
# 5 0.004226 0.002805 -0.003203 0.000000 0.046743 0.000000
# 6 0.000000 0.000000 0.000000 0.017915 0.000000 0.063118
#
#
# Mechanical properties :
#
#
# Convention : Reuss Voigt Hill
#
# Bulk Modulus (GPa) = 39.49693 40.36879 39.93286
# Shear Modulus (GPa) = 21.92160 24.37007 23.14584
#
# Velocity S-wave (km/s) = 3.45112 3.63875 3.54618
# Velocity P-wave (km/s) = 6.11059 6.29180 6.20186
#
# Compressibility (1/GPa) = 0.02531842
#
# Stress axis : x y z
#
# Youngs Moduli (GPa) = 64.78115 59.59814 68.33657
#
# Poissons Ratio (x) = 0.27383 0.26461
# Poissons Ratio (y) = 0.29765 0.15707
# Poissons Ratio (z) = 0.25084 0.13699
#
# Static dielectric constant tensor:
#      x y z
#    x 3.464760 0.000000 0.159880 
#    y 0.000000 3.436940 0.000000 
#    z 0.159880 0.000000 3.379500 
# 
# 
# High freq. dielectric constant tensor:
#      x y z
#    x 1.711770 0.000000 0.014270 
#    y 0.000000 1.707330 0.000000 
#    z 0.014270 0.000000 1.711930 
# 
# From -- ./inp_files/34817.got.cif
#   From: 2010.06.25/outbox.cif.g09.slc.cpg/sg11_18_cif.got.tgz:34817.got - 2010.06.27 23:14:04.
