data_PCOD8069363
_publ_section_title
;
Structure prediction by ZEFSAII (Michael W. Deem and Ramdas Pophale) SiO2 
 PCOD8069363
Probable space group: P 21/M
;
_chemical_formula_sum "Si O2"
_cell_formula_units_Z 32
_cell_length_a 27.148209
_cell_length_b 8.771181
_cell_length_c 21.703347
_cell_angle_alpha 90.000000
_cell_angle_beta 20.423336
_cell_angle_gamma 90.000000
_cell_volume 1803.407446
_symmetry_space_group_name_H-M "P 21/M"
_symmetry_group_IT_number 11
_symmetry_cell_setting 'monoclinic'
loop_
_space_group_symop_operation_xyz
x,y,z
-x,1/2+y,-z
-x,-y,-z
x,1/2-y,z
loop_
_atom_site_type_symbol
_atom_site_label
_atom_site_fract_x
_atom_site_fract_y
_atom_site_fract_z
Si Si1 0.144917 0.575133 0.310783
Si Si2 0.643430 0.426168 0.186632
Si Si3 0.721858 0.076677 0.967667
Si Si4 0.435971 0.430106 0.013738
Si Si5 0.656333 0.929533 0.512941
Si Si6 0.447548 0.924900 0.250010
Si Si7 0.151240 0.569186 0.811764
Si Si8 0.650641 0.430887 0.311755
O O1 0.144314 0.750000 0.332423
O O2 0.148576 0.560040 0.231500
O O3 0.281033 0.498519 0.182328
O O4 0.000000 0.500000 0.500000
O O5 0.617392 0.250000 0.228798
O O6 0.490436 0.491239 0.344837
O O7 0.697869 0.492188 0.188130
O O8 0.759421 0.454150 0.995988
O O9 0.658301 0.250000 0.037131
O O10 0.607178 0.951923 0.084415
O O11 0.417318 0.250000 0.042600
O O12 0.500000 0.500000 0.000000
O O13 0.549019 0.469274 0.826693
O O14 0.676000 0.750000 0.484423
O O15 0.658609 0.975559 0.583138
O O16 0.785159 0.010121 0.327092
O O17 0.405784 0.750000 0.308278
O O18 0.142591 0.750000 0.820130
O O19 0.243377 0.507060 0.761029
O O20 0.000000 0.500000 0.000000
O O21 0.500000 0.500000 0.500000
O O22 0.643116 0.250000 0.324563
#
# Coordination Sequence:
#
# PCOD8069363 Si02
#       8
#     4   4   4   4   4   4   4   4
#     4  10  19  32  52  77 106 141 179 217 259 314
#     4   8  14  27  49  75 100 124 156 208 258 297
#     4   8  15  28  47  72 100 132 169 207 253 305
#     4  10  20  34  54  80 109 140 175 218 265 311
#     4  10  18  31  53  76 101 133 170 212 258 307
#     4   9  17  29  48  76 106 132 166 214 259 303
#     4  11  23  36  52  74 103 140 177 213 258 312
#     4  10  19  32  52  78 103 128 165 211 256 304
#
# _framework density 17.744187
#
# number of rings (size 3 to 8) (size 9 to 14) (size 15 to 20)
#    0.000    2.500    1.250    2.625    0.000    2.500 
#    0.000    0.000    2.750    0.000    0.000    0.000 
#    0.000    0.000    0.000    0.000    0.000    0.000 
#
# Total GULP energy -396437.534266 kJ/mol
# GULP energy per Si atom -12388.672946 kJ/mol
# Density = 1.770380 g / cm^3
# Si number density = 17.744187 Si / 1000 Ang^3
#
#
#
# Elastic Constant Matrix: (Units=GPa)
#
#
# Indices 1 2 3 4 5 6 
#
# 1 125.5722 44.3478 71.7806 0.0000 26.4306 0.0000
# 2 44.3478 70.4907 45.3207 0.0000 8.5014 0.0000
# 3 71.7806 45.3207 126.4294 0.0000 20.9623 0.0000
# 4 0.0000 0.0000 0.0000 29.7766 0.0000 2.5429
# 5 26.4306 8.5014 20.9623 0.0000 31.5868 0.0000
# 6 0.0000 0.0000 0.0000 2.5429 0.0000 20.6190
#
#
#
# Elastic Compliance Matrix: (Units=1/GPa)
#
#
# Indices 1 2 3 4 5 6 
#
# 1 0.014033 -0.004687 -0.005112 0.000000 -0.007088 0.000000
# 2 -0.004687 0.020012 -0.004798 0.000000 0.001720 0.000000
# 3 -0.005112 -0.004798 0.013044 0.000000 -0.003088 0.000000
# 4 0.000000 0.000000 0.000000 0.033941 0.000000 -0.004186
# 5 -0.007088 0.001720 -0.003088 0.000000 0.039176 0.000000
# 6 0.000000 0.000000 0.000000 -0.004186 0.000000 0.049015
#
#
# Mechanical properties :
#
#
# Convention : Reuss Voigt Hill
#
# Bulk Modulus (GPa) = 55.88022 71.71004 63.79513
# Shear Modulus (GPa) = 24.46431 27.13269 25.79850
#
# Velocity S-wave (km/s) = 3.71714 3.91462 3.81716
# Velocity P-wave (km/s) = 7.06989 7.80598 7.44703
#
# Compressibility (1/GPa) = 0.01789542
#
# Stress axis : x y z
#
# Youngs Moduli (GPa) = 71.26134 49.96930 76.66640
#
# Poissons Ratio (x) = 0.23421 0.39190
# Poissons Ratio (y) = 0.33401 0.36783
# Poissons Ratio (z) = 0.36427 0.23974
#
# Static dielectric constant tensor:
#      x y z
#    x 2.777700 0.000000 0.325220 
#    y 0.000000 3.256770 0.000000 
#    z 0.325220 0.000000 3.164180 
# 
# 
# High freq. dielectric constant tensor:
#      x y z
#    x 1.679340 0.000000 0.041780 
#    y 0.000000 1.685390 0.000000 
#    z 0.041780 0.000000 1.665570 
# 
# From -- ./inp_files/67109.got.cif
#   From: 2010.06.25/outbox.cif.g09.slc.cpg/sg11_34_cif.got.tgz:67109.got - 2010.06.27 23:14:04.
