data_PCOD8069662
_publ_section_title
;
Structure prediction by ZEFSAII (Michael W. Deem and Ramdas Pophale) SiO2 
 PCOD8069662
Probable space group: P 21/M
;
_chemical_formula_sum "Si O2"
_cell_formula_units_Z 32
_cell_length_a 12.092766
_cell_length_b 8.579558
_cell_length_c 22.712245
_cell_angle_alpha 90.000000
_cell_angle_beta 134.243648
_cell_angle_gamma 90.000000
_cell_volume 1688.082452
_symmetry_space_group_name_H-M "P 21/M"
_symmetry_group_IT_number 11
_symmetry_cell_setting 'monoclinic'
loop_
_space_group_symop_operation_xyz
x,y,z
-x,1/2+y,-z
-x,-y,-z
x,1/2-y,z
loop_
_atom_site_type_symbol
_atom_site_label
_atom_site_fract_x
_atom_site_fract_y
_atom_site_fract_z
Si Si1 0.453494 0.568027 0.722558
Si Si2 0.189239 0.566316 0.816586
Si Si3 0.354306 0.434501 0.980373
Si Si4 0.861673 0.432095 0.680776
Si Si5 0.166686 0.072359 0.558495
Si Si6 0.323462 0.427709 0.492439
Si Si7 0.520495 0.567380 0.143309
Si Si8 0.609211 0.933998 0.659999
O O1 0.465942 0.750000 0.741007
O O2 0.277342 0.526912 0.641887
O O3 0.508008 0.471974 0.799313
O O4 0.563577 0.517116 0.709334
O O5 0.201578 0.750000 0.825233
O O6 0.320728 0.508071 0.820723
O O7 0.024043 0.516621 0.730275
O O8 0.205989 0.494905 0.888948
O O9 0.354012 0.250000 0.982357
O O10 0.370197 0.501804 0.052365
O O11 0.500000 0.500000 0.000000
O O12 0.890203 0.250000 0.699174
O O13 0.753934 0.464632 0.585046
O O14 0.779302 0.500311 0.708872
O O15 0.165904 0.250000 0.580726
O O16 0.219386 0.060818 0.511271
O O17 0.000000 0.000000 0.500000
O O18 0.335326 0.250000 0.474043
O O19 0.493751 0.490937 0.569477
O O20 0.532724 0.750000 0.137946
O O21 0.603194 0.750000 0.650488
#
# Coordination Sequence:
#
# PCOD8069662 Si02
#       8
#     4   4   4   4   4   4   4   4
#     4  10  21  37  57  80 107 142 185 227 271 323
#     4  11  22  37  56  82 115 146 181 224 275 327
#     4  10  18  33  55  81 113 146 180 218 268 325
#     4  12  24  37  56  81 110 144 184 231 278 326
#     4  10  21  35  52  74 107 145 181 224 275 328
#     4  10  21  37  55  77 105 143 187 229 275 324
#     4  11  21  35  57  85 115 147 183 221 268 327
#     4  10  21  39  59  79 106 143 187 232 277 324
#
# _framework density 18.956420999999999
#
# number of rings (size 3 to 8) (size 9 to 14) (size 15 to 20)
#    0.000    1.500    0.000    7.875    1.750    3.000 
#    0.000    0.000    0.000    0.750    0.000    0.000 
#    0.000    0.000    0.000    0.000    0.000    0.000 
#
# Total GULP energy -396882.796927 kJ/mol
# GULP energy per Si atom -12402.587404 kJ/mol
# Density = 1.891327 g / cm^3
# Si number density = 18.956421 Si / 1000 Ang^3
#
#
#
# Elastic Constant Matrix: (Units=GPa)
#
#
# Indices 1 2 3 4 5 6 
#
# 1 46.3518 27.2860 32.6230 0.0000 -2.9406 0.0000
# 2 27.2860 126.4018 30.2636 0.0000 -6.1338 0.0000
# 3 32.6230 30.2636 84.1879 0.0000 -21.0712 0.0000
# 4 0.0000 0.0000 0.0000 36.3298 0.0000 -0.3476
# 5 -2.9406 -6.1338 -21.0712 0.0000 22.9455 0.0000
# 6 0.0000 0.0000 0.0000 -0.3476 0.0000 28.5070
#
#
#
# Elastic Compliance Matrix: (Units=1/GPa)
#
#
# Indices 1 2 3 4 5 6 
#
# 1 0.033133 -0.004345 -0.013640 0.000000 -0.009441 0.000000
# 2 -0.004345 0.009235 -0.001503 0.000000 0.000532 0.000000
# 3 -0.013640 -0.001503 0.022289 0.000000 0.018319 0.000000
# 4 0.000000 0.000000 0.000000 0.027529 0.000000 0.000336
# 5 -0.009441 0.000532 0.018319 0.000000 0.059336 0.000000
# 6 0.000000 0.000000 0.000000 0.000336 0.000000 0.035083
#
#
# Mechanical properties :
#
#
# Convention : Reuss Voigt Hill
#
# Bulk Modulus (GPa) = 38.93983 48.58740 43.76361
# Shear Modulus (GPa) = 21.35464 28.67438 25.01451
#
# Velocity S-wave (km/s) = 3.36000 3.89350 3.63654
# Velocity P-wave (km/s) = 5.96985 6.77489 6.38507
#
# Compressibility (1/GPa) = 0.02568065
#
# Stress axis : x y z
#
# Youngs Moduli (GPa) = 30.18143 108.28580 44.86505
#
# Poissons Ratio (x) = 0.47046 0.61197
# Poissons Ratio (y) = 0.13113 0.06744
# Poissons Ratio (z) = 0.41168 0.16276
#
# Static dielectric constant tensor:
#      x y z
#    x 3.466330 0.000000 -0.132120 
#    y 0.000000 3.625390 0.000000 
#    z -0.132120 0.000000 3.851560 
# 
# 
# High freq. dielectric constant tensor:
#      x y z
#    x 1.718830 0.000000 -0.009730 
#    y 0.000000 1.757980 0.000000 
#    z -0.009730 0.000000 1.734280 
# 
# From -- ./inp_files/64409.got.cif
#   From: 2010.06.25/outbox.cif.g09.slc.cpg/sg11_33_cif.got.tgz:64409.got - 2010.06.27 23:14:04.
