data_PCOD8069610
_publ_section_title
;
Structure prediction by ZEFSAII (Michael W. Deem and Ramdas Pophale) SiO2 
 PCOD8069610
Probable space group: P 21/M
;
_chemical_formula_sum "Si O2"
_cell_formula_units_Z 32
_cell_length_a 27.986231
_cell_length_b 9.032825
_cell_length_c 14.119990
_cell_angle_alpha 90.000000
_cell_angle_beta 29.949283
_cell_angle_gamma 90.000000
_cell_volume 1781.992508
_symmetry_space_group_name_H-M "P 21/M"
_symmetry_group_IT_number 11
_symmetry_cell_setting 'monoclinic'
loop_
_space_group_symop_operation_xyz
x,y,z
-x,1/2+y,-z
-x,-y,-z
x,1/2-y,z
loop_
_atom_site_type_symbol
_atom_site_label
_atom_site_fract_x
_atom_site_fract_y
_atom_site_fract_z
Si Si1 0.232761 0.076547 0.855199
Si Si2 0.600098 0.426820 0.798092
Si Si3 0.918887 0.075858 0.762910
Si Si4 0.883791 0.074271 0.610504
Si Si5 0.561129 0.084874 0.192454
Si Si6 0.643343 0.579806 0.531028
Si Si7 0.402963 0.422507 0.694421
Si Si8 0.710815 0.417738 0.782804
O O1 0.213236 0.250000 0.903122
O O2 0.263109 0.043416 0.693876
O O3 0.316779 0.018876 0.778911
O O4 0.139333 0.986853 0.047203
O O5 0.586985 0.250000 0.825501
O O6 0.636787 0.472614 0.631694
O O7 0.686195 0.481562 0.720815
O O8 0.500000 0.500000 0.000000
O O9 0.929593 0.250000 0.756741
O O10 0.869423 0.034726 0.746740
O O11 0.022760 0.003480 0.590601
O O12 0.894769 0.250000 0.581230
O O13 0.795427 0.007355 0.699727
O O14 0.578540 0.250000 0.203422
O O15 0.448265 0.053483 0.379037
O O16 0.615554 0.967389 0.165204
O O17 0.607959 0.068919 0.009631
O O18 0.645141 0.750000 0.562821
O O19 0.500000 0.500000 0.500000
O O20 0.415882 0.250000 0.659369
O O21 0.744368 0.250000 0.714442
#
# Coordination Sequence:
#
# PCOD8069610 Si02
#       8
#     4   4   4   4   4   4   4   4
#     4  10  21  36  52  72 105 147 180 212 263 321
#     4  11  21  35  54  78 107 141 184 228 268 313
#     4  10  20  34  56  84 109 135 174 221 263 313
#     4   9  18  35  57  80 107 141 174 210 266 325
#     4  10  18  33  51  71 104 141 174 213 258 314
#     4  10  20  36  53  72 104 144 180 217 264 315
#     4  11  21  32  46  70 102 138 177 213 252 304
#     4   9  18  33  55  77 103 140 176 213 265 322
#
# _framework density 17.957426999999999
#
# number of rings (size 3 to 8) (size 9 to 14) (size 15 to 20)
#    0.000    2.000    2.500    1.875    0.000    3.500 
#    0.000    1.875    0.000    0.750    0.000    0.000 
#    0.000    0.000    0.000    0.000    0.000    0.000 
#
# Total GULP energy -396610.908823 kJ/mol
# GULP energy per Si atom -12394.090901 kJ/mol
# Density = 1.791655 g / cm^3
# Si number density = 17.957427 Si / 1000 Ang^3
#
#
#
# Elastic Constant Matrix: (Units=GPa)
#
#
# Indices 1 2 3 4 5 6 
#
# 1 89.4434 29.5471 42.0319 0.0000 4.4633 0.0000
# 2 29.5471 46.6464 34.1989 0.0000 2.1662 0.0000
# 3 42.0319 34.1989 108.0854 0.0000 4.9350 0.0000
# 4 0.0000 0.0000 0.0000 30.0731 0.0000 4.1301
# 5 4.4633 2.1662 4.9350 0.0000 24.3743 0.0000
# 6 0.0000 0.0000 0.0000 4.1301 0.0000 25.2741
#
#
#
# Elastic Compliance Matrix: (Units=1/GPa)
#
#
# Indices 1 2 3 4 5 6 
#
# 1 0.015264 -0.006898 -0.003687 0.000000 -0.001435 0.000000
# 2 -0.006898 0.031042 -0.007137 0.000000 -0.000051 0.000000
# 3 -0.003687 -0.007137 0.013005 0.000000 -0.001323 0.000000
# 4 0.000000 0.000000 0.000000 0.034016 0.000000 -0.005559
# 5 -0.001435 -0.000051 -0.001323 0.000000 0.041562 0.000000
# 6 0.000000 0.000000 0.000000 -0.005559 0.000000 0.040475
#
#
# Mechanical properties :
#
#
# Convention : Reuss Voigt Hill
#
# Bulk Modulus (GPa) = 41.90265 50.63680 46.26972
# Shear Modulus (GPa) = 22.85576 25.17079 24.01328
#
# Velocity S-wave (km/s) = 3.57147 3.74798 3.66079
# Velocity P-wave (km/s) = 6.35549 6.85487 6.60990
#
# Compressibility (1/GPa) = 0.02386484
#
# Stress axis : x y z
#
# Youngs Moduli (GPa) = 65.51577 32.21404 76.89598
#
# Poissons Ratio (x) = 0.22222 0.28355
# Poissons Ratio (y) = 0.45194 0.54882
# Poissons Ratio (z) = 0.24159 0.22992
#
# Static dielectric constant tensor:
#      x y z
#    x 3.606950 0.000000 0.098550 
#    y 0.000000 3.465710 0.000000 
#    z 0.098550 0.000000 3.287940 
# 
# 
# High freq. dielectric constant tensor:
#      x y z
#    x 1.683880 0.000000 0.009190 
#    y 0.000000 1.681940 0.000000 
#    z 0.009190 0.000000 1.689820 
# 
# From -- ./inp_files/56471.got.cif
#   From: 2010.06.25/outbox.cif.g09.slc.cpg/sg11_29_cif.got.tgz:56471.got - 2010.06.27 23:14:04.
