data_PCOD8069334
_publ_section_title
;
Structure prediction by ZEFSAII (Michael W. Deem and Ramdas Pophale) SiO2 
 PCOD8069334
Probable space group: P 21/M
;
_chemical_formula_sum "Si O2"
_cell_formula_units_Z 24
_cell_length_a 18.430120
_cell_length_b 8.551929
_cell_length_c 24.878271
_cell_angle_alpha 90.000000
_cell_angle_beta 160.687758
_cell_angle_gamma 90.000000
_cell_volume 1296.784180
_symmetry_space_group_name_H-M "P 21/M"
_symmetry_group_IT_number 11
_symmetry_cell_setting 'monoclinic'
loop_
_space_group_symop_operation_xyz
x,y,z
-x,1/2+y,-z
-x,-y,-z
x,1/2-y,z
loop_
_atom_site_type_symbol
_atom_site_label
_atom_site_fract_x
_atom_site_fract_y
_atom_site_fract_z
Si Si1 0.895943 0.568218 0.140962
Si Si2 0.241953 0.564569 0.665099
Si Si3 0.046780 0.434629 0.974360
Si Si4 0.593693 0.067999 0.840922
Si Si5 0.539616 0.929151 0.970244
Si Si6 0.257276 0.064726 0.331981
O O1 0.875225 0.750000 0.108917
O O2 0.144888 0.507667 0.307790
O O3 0.753768 0.460125 0.002686
O O4 0.794504 0.545756 0.129844
O O5 0.242309 0.750000 0.662793
O O6 0.354822 0.501000 0.689220
O O7 0.376266 0.500905 0.810869
O O8 0.000000 0.500000 0.500000
O O9 0.016914 0.250000 0.952441
O O10 0.874772 0.511039 0.812880
O O11 0.297372 0.480976 0.134102
O O12 0.000000 0.500000 0.000000
O O13 0.571739 0.250000 0.812346
O O14 0.481981 0.750000 0.935779
O O15 0.500000 0.000000 0.000000
O O16 0.260234 0.250000 0.337785
O O17 0.500000 0.000000 0.500000
#
# Coordination Sequence:
#
# PCOD8069334 Si02
#       6
#     4   4   4   4   4   4
#     4   9  17  32  51  74 102 135 173 214 254 305
#     4  10  20  35  53  77 104 135 173 216 260 308
#     4  11  21  36  56  80 108 139 174 217 262 312
#     4  10  18  31  52  77 102 136 175 211 254 311
#     4   9  19  33  52  76 104 133 168 209 253 302
#     4  11  21  35  55  80 106 138 176 217 262 312
#
# _framework density 18.507318999999999
#
# number of rings (size 3 to 8) (size 9 to 14) (size 15 to 20)
#    0.000    2.000    0.000    8.500    0.000    4.000 
#    0.000    1.667    0.000    4.000    0.000    0.000 
#    0.000    0.000    0.000    0.000    0.000    0.000 
#
# Total GULP energy -297446.089125 kJ/mol
# GULP energy per Si atom -12393.587047 kJ/mol
# Density = 1.846520 g / cm^3
# Si number density = 18.507319 Si / 1000 Ang^3
#
#
#
# Elastic Constant Matrix: (Units=GPa)
#
#
# Indices 1 2 3 4 5 6 
#
# 1 144.1577 50.2596 62.9851 0.0000 34.8212 0.0000
# 2 50.2596 112.8112 41.2429 0.0000 14.0907 0.0000
# 3 62.9851 41.2429 121.2703 0.0000 39.0255 0.0000
# 4 0.0000 0.0000 0.0000 31.7510 0.0000 6.9281
# 5 34.8212 14.0907 39.0255 0.0000 32.9699 0.0000
# 6 0.0000 0.0000 0.0000 6.9281 0.0000 34.0597
#
#
#
# Elastic Compliance Matrix: (Units=1/GPa)
#
#
# Indices 1 2 3 4 5 6 
#
# 1 0.010754 -0.003077 -0.002111 0.000000 -0.007544 0.000000
# 2 -0.003077 0.011007 -0.002709 0.000000 0.001752 0.000000
# 3 -0.002111 -0.002709 0.014818 0.000000 -0.014152 0.000000
# 4 0.000000 0.000000 0.000000 0.032958 0.000000 -0.006704
# 5 -0.007544 0.001752 -0.014152 0.000000 0.054301 0.000000
# 6 0.000000 0.000000 0.000000 -0.006704 0.000000 0.030724
#
#
# Mechanical properties :
#
#
# Convention : Reuss Voigt Hill
#
# Bulk Modulus (GPa) = 48.11323 76.35713 62.23518
# Shear Modulus (GPa) = 28.20311 34.67288 31.43799
#
# Velocity S-wave (km/s) = 3.90794 4.33305 4.12597
# Velocity P-wave (km/s) = 6.81292 8.14746 7.50990
#
# Compressibility (1/GPa) = 0.02078430
#
# Stress axis : x y z
#
# Youngs Moduli (GPa) = 92.98497 90.85285 67.48441
#
# Poissons Ratio (x) = 0.27956 0.14249
# Poissons Ratio (y) = 0.28612 0.18282
# Poissons Ratio (z) = 0.19633 0.24613
#
# Static dielectric constant tensor:
#      x y z
#    x 4.677420 0.000000 -0.105000 
#    y 0.000000 3.615300 0.000000 
#    z -0.105000 0.000000 3.928810 
# 
# 
# High freq. dielectric constant tensor:
#      x y z
#    x 1.712140 0.000000 0.041710 
#    y 0.000000 1.733910 0.000000 
#    z 0.041710 0.000000 1.699140 
# 
# From -- ./inp_files/71853.got.cif
#   From: 2010.06.25/outbox.cif.g09.slc.cpg/sg11_36_cif.got.tgz:71853.got - 2010.06.27 23:14:04.
