data_PCOD8069507
_publ_section_title
;
Structure prediction by ZEFSAII (Michael W. Deem and Ramdas Pophale) SiO2 
 PCOD8069507
Probable space group: P 21/M
;
_chemical_formula_sum "Si O2"
_cell_formula_units_Z 32
_cell_length_a 12.848899
_cell_length_b 8.786986
_cell_length_c 21.947695
_cell_angle_alpha 90.000000
_cell_angle_beta 139.188677
_cell_angle_gamma 90.000000
_cell_volume 1619.522561
_symmetry_space_group_name_H-M "P 21/M"
_symmetry_group_IT_number 11
_symmetry_cell_setting 'monoclinic'
loop_
_space_group_symop_operation_xyz
x,y,z
-x,1/2+y,-z
-x,-y,-z
x,1/2-y,z
loop_
_atom_site_type_symbol
_atom_site_label
_atom_site_fract_x
_atom_site_fract_y
_atom_site_fract_z
Si Si1 0.639717 0.569790 0.400400
Si Si2 0.297378 0.069581 0.078966
Si Si3 0.176784 0.922191 0.628394
Si Si4 0.388923 0.919657 0.841832
Si Si5 0.001275 0.429954 0.867884
Si Si6 0.315432 0.430375 0.224903
Si Si7 0.878780 0.571143 0.210229
Si Si8 0.913243 0.430305 0.584974
O O1 0.637454 0.750000 0.401907
O O2 0.720539 0.512370 0.374710
O O3 0.460972 0.507250 0.324926
O O4 0.738025 0.504300 0.501892
O O5 0.317603 0.250000 0.089655
O O6 0.441941 0.003488 0.101646
O O7 0.306480 0.005863 0.151724
O O8 0.129711 0.021759 0.975647
O O9 0.140126 0.750000 0.589574
O O10 0.279744 0.917150 0.734478
O O11 0.012747 0.011388 0.570002
O O12 0.417535 0.750000 0.879568
O O13 0.299422 0.011576 0.855369
O O14 0.967051 0.250000 0.854039
O O15 0.066058 0.484565 0.831292
O O16 0.842749 0.523217 0.809845
O O17 0.337114 0.250000 0.235406
O O18 0.868699 0.750000 0.208763
O O19 0.005751 0.511663 0.316647
O O20 0.900391 0.250000 0.577304
#
# Coordination Sequence:
#
# PCOD8069507 Si02
#       8
#     4   4   4   4   4   4   4   4
#     4  12  23  35  54  82 111 144 185 230 282 335
#     4   9  18  35  59  85 115 147 180 227 283 334
#     4  10  18  32  53  80 116 151 183 224 275 332
#     4   9  17  32  55  82 114 152 185 222 274 329
#     4  10  21  39  60  82 111 149 189 231 280 327
#     4  11  22  39  59  83 114 146 186 231 280 333
#     4   9  20  37  56  81 115 150 187 231 274 323
#     4  10  20  35  54  79 112 150 188 227 274 329
#
# _framework density 19.75891
#
# number of rings (size 3 to 8) (size 9 to 14) (size 15 to 20)
#    0.000    2.000    1.250    3.000    0.000    2.000 
#    0.000    1.875    0.000    0.000    0.000    0.000 
#    0.000    0.000    0.000    0.000    0.000    0.000 
#
# Total GULP energy -396825.651564 kJ/mol
# GULP energy per Si atom -12400.801611 kJ/mol
# Density = 1.971394 g / cm^3
# Si number density = 19.758910 Si / 1000 Ang^3
#
#
#
# Elastic Constant Matrix: (Units=GPa)
#
#
# Indices 1 2 3 4 5 6 
#
# 1 103.0741 25.8054 25.5628 0.0000 14.9524 0.0000
# 2 25.8054 71.0972 22.4096 0.0000 10.6145 0.0000
# 3 25.5628 22.4096 46.3404 0.0000 20.0054 0.0000
# 4 0.0000 0.0000 0.0000 20.0441 0.0000 4.8527
# 5 14.9524 10.6145 20.0054 0.0000 34.4660 0.0000
# 6 0.0000 0.0000 0.0000 4.8527 0.0000 30.7236
#
#
#
# Elastic Compliance Matrix: (Units=1/GPa)
#
#
# Indices 1 2 3 4 5 6 
#
# 1 0.011704 -0.002585 -0.004481 0.000000 -0.001681 0.000000
# 2 -0.002585 0.017175 -0.006779 0.000000 -0.000233 0.000000
# 3 -0.004481 -0.006779 0.034145 0.000000 -0.015787 0.000000
# 4 0.000000 0.000000 0.000000 0.051874 0.000000 -0.008193
# 5 -0.001681 -0.000233 -0.015787 0.000000 0.038979 0.000000
# 6 0.000000 0.000000 0.000000 -0.008193 0.000000 0.033842
#
#
# Mechanical properties :
#
#
# Convention : Reuss Voigt Hill
#
# Bulk Modulus (GPa) = 28.30083 40.89636 34.59859
# Shear Modulus (GPa) = 22.00842 26.82901 24.41871
#
# Velocity S-wave (km/s) = 3.34106 3.68886 3.51926
# Velocity P-wave (km/s) = 5.40719 6.23588 5.83626
#
# Compressibility (1/GPa) = 0.03533465
#
# Stress axis : x y z
#
# Youngs Moduli (GPa) = 85.44132 58.22420 29.28694
#
# Poissons Ratio (x) = 0.15050 0.13123
# Poissons Ratio (y) = 0.22085 0.19854
# Poissons Ratio (z) = 0.38284 0.39471
#
# Static dielectric constant tensor:
#      x y z
#    x 3.599010 0.000000 0.060480 
#    y 0.000000 3.526860 0.000000 
#    z 0.060480 0.000000 3.881510 
# 
# 
# High freq. dielectric constant tensor:
#      x y z
#    x 1.759700 0.000000 0.010820 
#    y 0.000000 1.756370 0.000000 
#    z 0.010820 0.000000 1.778720 
# 
# From -- ./inp_files/64417.got.cif
#   From: 2010.06.25/outbox.cif.g09.slc.cpg/sg11_33_cif.got.tgz:64417.got - 2010.06.27 23:14:04.
