data_PCOD8069487
_publ_section_title
;
Structure prediction by ZEFSAII (Michael W. Deem and Ramdas Pophale) SiO2 
 PCOD8069487
Probable space group: P 21/M
;
_chemical_formula_sum "Si O2"
_cell_formula_units_Z 32
_cell_length_a 13.886046
_cell_length_b 13.800974
_cell_length_c 20.385012
_cell_angle_alpha 90.000000
_cell_angle_beta 154.046671
_cell_angle_gamma 90.000000
_cell_volume 1709.681468
_symmetry_space_group_name_H-M "P 21/M"
_symmetry_group_IT_number 11
_symmetry_cell_setting 'monoclinic'
loop_
_space_group_symop_operation_xyz
x,y,z
-x,1/2+y,-z
-x,-y,-z
x,1/2-y,z
loop_
_atom_site_type_symbol
_atom_site_label
_atom_site_fract_x
_atom_site_fract_y
_atom_site_fract_z
Si Si1 0.183297 0.360601 0.587913
Si Si2 0.100239 0.637282 0.905800
Si Si3 0.163528 0.145703 0.727179
Si Si4 0.008487 0.055193 0.358075
Si Si5 0.620312 0.410767 0.039801
Si Si6 0.520848 0.547011 0.410767
Si Si7 0.649787 0.361606 0.816241
Si Si8 0.411738 0.137749 0.414519
O O1 0.133833 0.250000 0.539412
O O2 0.138709 0.382047 0.635998
O O3 0.434600 0.386627 0.726657
O O4 0.020974 0.425327 0.443549
O O5 0.159080 0.750000 0.927928
O O6 0.251467 0.570792 0.950723
O O7 0.846542 0.615826 0.736235
O O8 0.147703 0.612380 0.011353
O O9 0.048941 0.250000 0.671905
O O10 0.046006 0.057514 0.692724
O O11 0.420104 0.162415 0.903692
O O12 0.813866 0.122970 0.208581
O O13 0.239534 0.081063 0.466608
O O14 0.500000 0.500000 0.000000
O O15 0.343263 0.574383 0.245846
O O16 0.468063 0.608103 0.444113
O O17 0.507503 0.431426 0.415828
O O18 0.656908 0.250000 0.798675
O O19 0.459022 0.250000 0.425934
#
# Coordination Sequence:
#
# PCOD8069487 Si02
#       8
#     4   4   4   4   4   4   4   4
#     4   9  17  29  47  73 101 129 163 203 246 288
#     4  10  18  32  53  76 100 130 168 210 251 290
#     4  10  19  32  49  71 101 136 168 199 241 297
#     4  10  20  32  49  74 101 131 164 205 249 296
#     4  10  19  31  48  74 102 131 166 206 245 293
#     4  10  20  35  52  76 102 130 165 208 254 298
#     4   9  17  30  51  77 102 128 162 207 252 295
#     4  10  21  35  54  76 100 129 167 209 252 300
#
# _framework density 18.716936
#
# number of rings (size 3 to 8) (size 9 to 14) (size 15 to 20)
#    0.000    2.250    2.500    1.125    0.000    2.500 
#    0.000    0.000    0.000    0.000    0.000    0.875 
#    0.000    0.000    0.000    0.000    0.000    0.000 
#
# Total GULP energy -396488.153359 kJ/mol
# GULP energy per Si atom -12390.254792 kJ/mol
# Density = 1.867434 g / cm^3
# Si number density = 18.716936 Si / 1000 Ang^3
#
#
#
# Elastic Constant Matrix: (Units=GPa)
#
#
# Indices 1 2 3 4 5 6 
#
# 1 51.8218 16.2499 23.1968 0.0000 -18.2656 0.0000
# 2 16.2499 63.6791 21.6737 0.0000 -12.6531 0.0000
# 3 23.1968 21.6737 78.6994 0.0000 -22.8922 0.0000
# 4 0.0000 0.0000 0.0000 15.5963 0.0000 3.0348
# 5 -18.2656 -12.6531 -22.8922 0.0000 29.3381 0.0000
# 6 0.0000 0.0000 0.0000 3.0348 0.0000 22.1343
#
#
#
# Elastic Compliance Matrix: (Units=1/GPa)
#
#
# Indices 1 2 3 4 5 6 
#
# 1 0.026078 -0.003095 -0.003234 0.000000 0.012378 0.000000
# 2 -0.003095 0.018246 -0.003084 0.000000 0.003536 0.000000
# 3 -0.003234 -0.003084 0.017511 0.000000 0.010320 0.000000
# 4 0.000000 0.000000 0.000000 0.065875 0.000000 -0.009032
# 5 0.012378 0.003536 0.010320 0.000000 0.051369 0.000000
# 6 0.000000 0.000000 0.000000 -0.009032 0.000000 0.046417
#
#
# Mechanical properties :
#
#
# Convention : Reuss Voigt Hill
#
# Bulk Modulus (GPa) = 23.25069 35.16011 29.20540
# Shear Modulus (GPa) = 19.33060 22.28575 20.80818
#
# Velocity S-wave (km/s) = 3.21719 3.45436 3.33788
# Velocity P-wave (km/s) = 5.12344 5.89373 5.52203
#
# Compressibility (1/GPa) = 0.04300948
#
# Stress axis : x y z
#
# Youngs Moduli (GPa) = 38.34721 54.80733 57.10674
#
# Poissons Ratio (x) = 0.16960 0.18467
# Poissons Ratio (y) = 0.11867 0.17613
# Poissons Ratio (z) = 0.12400 0.16904
#
# Static dielectric constant tensor:
#      x y z
#    x 3.212270 0.000000 -0.259320 
#    y 0.000000 3.282040 0.000000 
#    z -0.259320 0.000000 3.713030 
# 
# 
# High freq. dielectric constant tensor:
#      x y z
#    x 1.703400 0.000000 -0.021740 
#    y 0.000000 1.709270 0.000000 
#    z -0.021740 0.000000 1.734410 
# 
# From -- ./inp_files/47596.got.cif
#   From: 2010.06.25/outbox.cif.g09.slc.cpg/sg11_24_cif.got.tgz:47596.got - 2010.06.27 23:14:04.
