data_PCOD8069394
_publ_section_title
;
Structure prediction by ZEFSAII (Michael W. Deem and Ramdas Pophale) SiO2 
 PCOD8069394
Probable space group: P 21/M
;
_chemical_formula_sum "Si O2"
_cell_formula_units_Z 24
_cell_length_a 27.511692
_cell_length_b 10.472080
_cell_length_c 12.079569
_cell_angle_alpha 90.000000
_cell_angle_beta 158.156608
_cell_angle_gamma 90.000000
_cell_volume 1294.873665
_symmetry_space_group_name_H-M "P 21/M"
_symmetry_group_IT_number 11
_symmetry_cell_setting 'monoclinic'
loop_
_space_group_symop_operation_xyz
x,y,z
-x,1/2+y,-z
-x,-y,-z
x,1/2-y,z
loop_
_atom_site_type_symbol
_atom_site_label
_atom_site_fract_x
_atom_site_fract_y
_atom_site_fract_z
Si Si1 0.405664 0.395318 0.352457
Si Si2 0.163969 0.390491 0.694303
Si Si3 0.542809 0.897107 0.285672
Si Si4 0.259589 0.489864 0.680466
Si Si5 0.779406 0.600674 0.644729
Si Si6 0.968097 0.105828 0.691682
O O1 0.500000 0.500000 0.500000
O O2 0.452900 0.250000 0.424024
O O3 0.400356 0.415700 0.471910
O O4 0.260178 0.418574 0.999691
O O5 0.098982 0.250000 0.571157
O O6 0.246913 0.388402 0.754290
O O7 0.056047 0.504725 0.460459
O O8 0.515810 0.750000 0.201630
O O9 0.649443 0.957792 0.427096
O O10 0.408482 0.969943 0.984423
O O11 0.212139 0.430251 0.465814
O O12 0.160580 0.606538 0.500804
O O13 0.774484 0.750000 0.653085
O O14 0.909139 0.550823 0.980551
O O15 0.989603 0.250000 0.691682
#
# Coordination Sequence:
#
# PCOD8069394 Si02
#       6
#     4   4   4   4   4   4
#     4  10  18  33  53  77 103 136 173 215 254 307
#     4   9  19  31  53  79 103 131 171 216 261 295
#     4  10  20  33  52  76 108 138 173 210 260 312
#     4  10  18  31  54  74 105 129 177 209 256 295
#     4  10  20  34  50  76 107 142 170 210 262 312
#     4   9  19  34  55  78 103 135 180 213 251 305
#
# _framework density 18.534627
#
# number of rings (size 3 to 8) (size 9 to 14) (size 15 to 20)
#    1.000    1.333    1.667    2.000    0.000    0.667 
#    0.000    1.667    0.000    4.000    0.000    0.000 
#    0.000    0.000    0.000    0.000    0.000    0.000 
#
# Total GULP energy -297361.750113 kJ/mol
# GULP energy per Si atom -12390.072921 kJ/mol
# Density = 1.849244 g / cm^3
# Si number density = 18.534627 Si / 1000 Ang^3
#
#
#
# Elastic Constant Matrix: (Units=GPa)
#
#
# Indices 1 2 3 4 5 6 
#
# 1 12.3078 3.7415 -5.5584 0.0000 -3.4189 0.0000
# 2 3.7415 55.4868 34.2225 0.0000 0.2102 0.0000
# 3 -5.5584 34.2225 113.6491 0.0000 -4.5927 0.0000
# 4 0.0000 0.0000 0.0000 29.8433 0.0000 -2.6505
# 5 -3.4189 0.2102 -4.5927 0.0000 23.3226 0.0000
# 6 0.0000 0.0000 0.0000 -2.6505 0.0000 11.4413
#
#
#
# Elastic Compliance Matrix: (Units=1/GPa)
#
#
# Indices 1 2 3 4 5 6 
#
# 1 0.093024 -0.011694 0.008696 0.000000 0.015454 0.000000
# 2 -0.011694 0.023657 -0.007836 0.000000 -0.003471 0.000000
# 3 0.008696 -0.007836 0.011732 0.000000 0.003656 0.000000
# 4 0.000000 0.000000 0.000000 0.034212 0.000000 0.007926
# 5 0.015454 -0.003471 0.003656 0.000000 0.045893 0.000000
# 6 0.000000 0.000000 0.000000 0.007926 0.000000 0.089239
#
#
# Mechanical properties :
#
#
# Convention : Reuss Voigt Hill
#
# Bulk Modulus (GPa) = 9.36825 27.36166 18.36495
# Shear Modulus (GPa) = 14.08421 22.85733 18.47077
#
# Velocity S-wave (km/s) = 2.75959 3.51554 3.16025
# Velocity P-wave (km/s) = 3.90118 5.59224 4.82143
#
# Compressibility (1/GPa) = 0.10674357
#
# Stress axis : x y z
#
# Youngs Moduli (GPa) = 10.74990 42.27095 85.23980
#
# Poissons Ratio (x) = 0.49433 -0.74122
# Poissons Ratio (y) = 0.12571 0.66793
# Poissons Ratio (z) = -0.09348 0.33123
#
# Static dielectric constant tensor:
#      x y z
#    x 3.249790 0.000000 -0.045560 
#    y 0.000000 3.276820 0.000000 
#    z -0.045560 0.000000 3.526230 
# 
# 
# High freq. dielectric constant tensor:
#      x y z
#    x 1.698960 0.000000 -0.010890 
#    y 0.000000 1.703000 0.000000 
#    z -0.010890 0.000000 1.731430 
# 
# From -- ./inp_files/45427.got.cif
#   From: 2010.06.25/outbox.cif.g09.slc.cpg/sg11_23_cif.got.tgz:45427.got - 2010.06.27 23:14:04.
