data_PCOD8069882
_publ_section_title
;
Structure prediction by ZEFSAII (Michael W. Deem and Ramdas Pophale) SiO2 
 PCOD8069882
Probable space group: P 21/M
;
_chemical_formula_sum "Si O2"
_cell_formula_units_Z 32
_cell_length_a 9.164456
_cell_length_b 18.636799
_cell_length_c 13.983025
_cell_angle_alpha 90.000000
_cell_angle_beta 138.348156
_cell_angle_gamma 90.000000
_cell_volume 1587.234782
_symmetry_space_group_name_H-M "P 21/M"
_symmetry_group_IT_number 11
_symmetry_cell_setting 'monoclinic'
loop_
_space_group_symop_operation_xyz
x,y,z
-x,1/2+y,-z
-x,-y,-z
x,1/2-y,z
loop_
_atom_site_type_symbol
_atom_site_label
_atom_site_fract_x
_atom_site_fract_y
_atom_site_fract_z
Si Si1 0.109514 0.968490 0.254606
Si Si2 0.830195 0.622801 0.655617
Si Si3 0.397768 0.979073 0.226822
Si Si4 0.379212 0.052567 0.010955
Si Si5 0.096687 0.832247 0.534849
Si Si6 0.728331 0.331871 0.183859
Si Si7 0.366972 0.166814 0.641277
Si Si8 0.590640 0.405633 0.450622
O O1 0.166777 0.982723 0.171079
O O2 0.303818 0.919425 0.393368
O O3 0.113065 0.038792 0.323119
O O4 0.870509 0.933128 0.143697
O O5 0.720687 0.657566 0.509014
O O6 0.649380 0.631361 0.652519
O O7 0.068579 0.659832 0.792994
O O8 0.457228 0.894261 0.244157
O O9 0.379381 0.019213 0.117230
O O10 0.574094 0.021667 0.379283
O O11 0.501991 0.127412 0.053811
O O12 0.500000 0.000000 0.000000
O O13 0.126903 0.750000 0.573345
O O14 0.181071 0.868977 0.674004
O O15 0.243404 0.851477 0.517104
O O16 0.840224 0.848460 0.389701
O O17 0.656338 0.250000 0.153772
O O18 0.454136 0.250000 0.696272
#
# Coordination Sequence:
#
# PCOD8069882 Si02
#       8
#     4   4   4   4   4   4   4   4
#     4  11  22  39  61  95 125 157 208 253 310 369
#     4  10  18  36  62  90 121 153 202 255 304 364
#     4  11  22  41  62  88 125 161 204 265 303 362
#     4  12  25  41  64  91 118 168 214 249 303 373
#     4   9  20  34  56  90 121 154 200 252 310 366
#     4  10  21  41  62  88 124 165 208 254 308 368
#     4  10  20  36  59  89 125 163 200 254 321 370
#     4  11  20  36  65  96 123 151 205 259 313 362
#
# _framework density 20.160848000000001
#
# number of rings (size 3 to 8) (size 9 to 14) (size 15 to 20)
#    0.000    1.500    5.000    2.250    1.750    1.500 
#    0.000    1.875    0.000    0.000    0.000    0.000 
#    0.000    0.000    0.000    0.000    0.000    0.000 
#
# Total GULP energy -396417.848459 kJ/mol
# GULP energy per Si atom -12388.057764 kJ/mol
# Density = 2.011496 g / cm^3
# Si number density = 20.160848 Si / 1000 Ang^3
#
#
#
# Elastic Constant Matrix: (Units=GPa)
#
#
# Indices 1 2 3 4 5 6 
#
# 1 120.2440 31.6761 34.1511 0.0000 10.9524 0.0000
# 2 31.6761 51.4380 26.1078 0.0000 12.8346 0.0000
# 3 34.1511 26.1078 68.0305 0.0000 11.7849 0.0000
# 4 0.0000 0.0000 0.0000 25.5324 0.0000 7.8583
# 5 10.9524 12.8346 11.7849 0.0000 27.5360 0.0000
# 6 0.0000 0.0000 0.0000 7.8583 0.0000 26.7474
#
#
#
# Elastic Compliance Matrix: (Units=1/GPa)
#
#
# Indices 1 2 3 4 5 6 
#
# 1 0.010559 -0.004618 -0.003428 0.000000 -0.000580 0.000000
# 2 -0.004618 0.027853 -0.006956 0.000000 -0.008169 0.000000
# 3 -0.003428 -0.006956 0.019757 0.000000 -0.003850 0.000000
# 4 0.000000 0.000000 0.000000 0.043060 0.000000 -0.012651
# 5 -0.000580 -0.008169 -0.003850 0.000000 0.042002 0.000000
# 6 0.000000 0.000000 0.000000 -0.012651 0.000000 0.041104
#
#
# Mechanical properties :
#
#
# Convention : Reuss Voigt Hill
#
# Bulk Modulus (GPa) = 35.50429 47.06470 41.28450
# Shear Modulus (GPa) = 22.34868 25.81499 24.08184
#
# Velocity S-wave (km/s) = 3.33305 3.58222 3.45988
# Velocity P-wave (km/s) = 5.69746 6.36436 6.04012
#
# Compressibility (1/GPa) = 0.02816561
#
# Stress axis : x y z
#
# Youngs Moduli (GPa) = 94.70230 35.90225 50.61618
#
# Poissons Ratio (x) = 0.16579 0.17352
# Poissons Ratio (y) = 0.43732 0.35208
# Poissons Ratio (z) = 0.32465 0.24973
#
# Static dielectric constant tensor:
#      x y z
#    x 4.259640 0.000000 0.232530 
#    y 0.000000 3.306940 0.000000 
#    z 0.232530 0.000000 3.646650 
# 
# 
# High freq. dielectric constant tensor:
#      x y z
#    x 1.799660 0.000000 0.016840 
#    y 0.000000 1.773560 0.000000 
#    z 0.016840 0.000000 1.759190 
# 
# From -- ./inp_files/48266.got.cif
#   From: 2010.06.25/outbox.cif.g09.slc.cpg/sg11_25_cif.got.tgz:48266.got - 2010.06.27 23:14:04.
