data_PCOD8069717
_publ_section_title
;
Structure prediction by ZEFSAII (Michael W. Deem and Ramdas Pophale) SiO2 
 PCOD8069717
Probable space group: P 21/M
;
_chemical_formula_sum "Si O2"
_cell_formula_units_Z 28
_cell_length_a 19.794945
_cell_length_b 10.330781
_cell_length_c 23.259693
_cell_angle_alpha 90.000000
_cell_angle_beta 17.814501
_cell_angle_gamma 90.000000
_cell_volume 1455.199041
_symmetry_space_group_name_H-M "P 21/M"
_symmetry_group_IT_number 11
_symmetry_cell_setting 'monoclinic'
loop_
_space_group_symop_operation_xyz
x,y,z
-x,1/2+y,-z
-x,-y,-z
x,1/2-y,z
loop_
_atom_site_type_symbol
_atom_site_label
_atom_site_fract_x
_atom_site_fract_y
_atom_site_fract_z
Si Si1 0.337185 0.901940 0.985368
Si Si2 0.598896 0.902257 0.580963
Si Si3 0.910662 0.403662 0.024481
Si Si4 0.044206 0.401882 0.792750
Si Si5 0.625462 0.610932 0.953381
Si Si6 0.151735 0.527760 0.321715
Si Si7 0.258860 0.397517 0.412855
O O1 0.320613 0.750000 0.016406
O O2 0.580174 0.948004 0.768113
O O3 0.281654 0.991238 0.084821
O O4 0.174274 0.937441 0.065649
O O5 0.644024 0.750000 0.546099
O O6 0.346283 0.934224 0.774925
O O7 0.742450 0.962314 0.412203
O O8 0.688802 0.965012 0.568003
O O9 0.949942 0.250000 0.006506
O O10 0.000000 0.500000 0.000000
O O11 0.029681 0.451964 0.869742
O O12 0.064546 0.250000 0.780711
O O13 0.705494 0.750000 0.912847
O O14 0.357692 0.620016 0.169378
O O15 0.729824 0.596838 0.804295
O O16 0.000000 0.500000 0.500000
O O17 0.993572 0.589399 0.401381
O O18 0.327556 0.250000 0.365851
#
# Coordination Sequence:
#
# PCOD8069717 Si02
#       7
#     4   4   4   4   4   4   4
#     4  10  19  36  62  87 111 147 193 238 282 335
#     4   9  17  31  55  83 107 137 180 232 276 315
#     4  10  20  35  55  82 114 144 180 222 271 328
#     4   9  17  32  57  84 110 143 187 232 270 317
#     4  11  25  40  57  86 120 152 190 240 296 347
#     4  11  23  40  57  79 111 158 196 234 283 348
#     4  10  18  33  59  85 107 140 193 243 281 325
#
# _framework density 19.241354000000001
#
# number of rings (size 3 to 8) (size 9 to 14) (size 15 to 20)
#    0.000    2.000    2.857    1.286    0.000    5.714 
#    0.000    0.714    0.000    3.429    0.000    0.000 
#    0.000    0.000    0.000    0.000    0.000    0.000 
#
# Total GULP energy -346885.566089 kJ/mol
# GULP energy per Si atom -12388.770217 kJ/mol
# Density = 1.919756 g / cm^3
# Si number density = 19.241354 Si / 1000 Ang^3
#
#
#
# Elastic Constant Matrix: (Units=GPa)
#
#
# Indices 1 2 3 4 5 6 
#
# 1 124.7190 52.8302 48.8907 0.0000 11.7685 0.0000
# 2 52.8302 71.8021 24.7330 0.0000 8.3114 0.0000
# 3 48.8907 24.7330 115.3246 0.0000 31.2193 0.0000
# 4 0.0000 0.0000 0.0000 7.7152 0.0000 0.1687
# 5 11.7685 8.3114 31.2193 0.0000 29.7963 0.0000
# 6 0.0000 0.0000 0.0000 0.1687 0.0000 22.8268
#
#
#
# Elastic Compliance Matrix: (Units=1/GPa)
#
#
# Indices 1 2 3 4 5 6 
#
# 1 0.013032 -0.008336 -0.004150 0.000000 0.001526 0.000000
# 2 -0.008336 0.020398 -0.000268 0.000000 -0.002117 0.000000
# 3 -0.004150 -0.000268 0.013993 0.000000 -0.012947 0.000000
# 4 0.000000 0.000000 0.000000 0.129635 0.000000 -0.000958
# 5 0.001526 -0.002117 -0.012947 0.000000 0.047115 0.000000
# 6 0.000000 0.000000 0.000000 -0.000958 0.000000 0.043815
#
#
# Mechanical properties :
#
#
# Convention : Reuss Voigt Hill
#
# Bulk Modulus (GPa) = 45.63011 62.75038 54.19024
# Shear Modulus (GPa) = 16.62240 24.42712 20.52476
#
# Velocity S-wave (km/s) = 2.94239 3.56689 3.26958
# Velocity P-wave (km/s) = 5.94219 7.04604 6.51752
#
# Compressibility (1/GPa) = 0.02191535
#
# Stress axis : x y z
#
# Youngs Moduli (GPa) = 76.73522 49.02545 71.46417
#
# Poissons Ratio (x) = 0.40866 0.29659
# Poissons Ratio (y) = 0.63963 0.01913
# Poissons Ratio (z) = 0.31847 0.01312
#
# Static dielectric constant tensor:
#      x y z
#    x 3.640080 0.000000 0.336450 
#    y 0.000000 3.010470 0.000000 
#    z 0.336450 0.000000 4.021090 
# 
# 
# High freq. dielectric constant tensor:
#      x y z
#    x 1.750120 0.000000 0.012410 
#    y 0.000000 1.688810 0.000000 
#    z 0.012410 0.000000 1.771110 
# 
# From -- ./inp_files/66165.got.cif
#   From: 2010.06.25/outbox.cif.g09.slc.cpg/sg11_34_cif.got.tgz:66165.got - 2010.06.27 23:14:04.
