data_PCOD8069605
_publ_section_title
;
Structure prediction by ZEFSAII (Michael W. Deem and Ramdas Pophale) SiO2 
 PCOD8069605
Probable space group: P 21/M
;
_chemical_formula_sum "Si O2"
_cell_formula_units_Z 32
_cell_length_a 10.855045
_cell_length_b 21.505821
_cell_length_c 9.638178
_cell_angle_alpha 90.000000
_cell_angle_beta 135.458058
_cell_angle_gamma 90.000000
_cell_volume 1578.220476
_symmetry_space_group_name_H-M "P 21/M"
_symmetry_group_IT_number 11
_symmetry_cell_setting 'monoclinic'
loop_
_space_group_symop_operation_xyz
x,y,z
-x,1/2+y,-z
-x,-y,-z
x,1/2-y,z
loop_
_atom_site_type_symbol
_atom_site_label
_atom_site_fract_x
_atom_site_fract_y
_atom_site_fract_z
Si Si1 0.448743 0.566156 0.306821
Si Si2 0.282807 0.050938 0.242623
Si Si3 0.992068 0.961018 0.755995
Si Si4 0.499505 0.322136 0.831630
Si Si5 0.777284 0.383536 0.228733
Si Si6 0.804411 0.922477 0.111312
Si Si7 0.887839 0.678522 0.377643
Si Si8 0.285676 0.010220 0.689018
O O1 0.548097 0.568709 0.532739
O O2 0.276056 0.523803 0.197876
O O3 0.424391 0.636833 0.234939
O O4 0.545523 0.525056 0.266700
O O5 0.112036 0.066395 0.197106
O O6 0.300533 0.091480 0.115591
O O7 0.883206 0.959514 0.522689
O O8 0.039210 0.032911 0.817665
O O9 0.163792 0.918685 0.866340
O O10 0.535150 0.250000 0.827979
O O11 0.291526 0.336060 0.680383
O O12 0.604331 0.342520 0.055654
O O13 0.733590 0.435472 0.310111
O O14 0.937260 0.338448 0.398193
O O15 0.884004 0.858353 0.230003
O O16 0.693012 0.957132 0.143098
O O17 0.893599 0.750000 0.341644
#
# Coordination Sequence:
#
# PCOD8069605 Si02
#       8
#     4   4   4   4   4   4   4   4
#     4  10  20  39  54  90 125 154 201 249 309 355
#     4  10  22  32  58  87 122 160 189 245 313 362
#     4  10  18  35  55  89 122 155 187 246 307 360
#     4  11  24  39  61  89 121 162 209 248 292 363
#     4  11  20  37  65  92 120 153 202 251 309 358
#     4  11  18  33  54  85 115 153 194 239 302 355
#     4  11  22  38  57  85 125 157 197 254 299 354
#     4  10  18  32  62  90 121 152 192 256 312 355
#
# _framework density 20.276001000000001
#
# number of rings (size 3 to 8) (size 9 to 14) (size 15 to 20)
#    0.000    1.500    3.750    3.750    1.750    1.000 
#    0.000    0.625    0.000    3.750    0.000    0.000 
#    0.000    0.000    0.000    0.000    0.000    0.000 
#
# Total GULP energy -396624.414969 kJ/mol
# GULP energy per Si atom -12394.512968 kJ/mol
# Density = 2.022985 g / cm^3
# Si number density = 20.276001 Si / 1000 Ang^3
#
#
#
# Elastic Constant Matrix: (Units=GPa)
#
#
# Indices 1 2 3 4 5 6 
#
# 1 49.0852 12.3985 26.7131 0.0000 -3.5338 0.0000
# 2 12.3985 110.3470 36.4133 0.0000 1.2666 0.0000
# 3 26.7131 36.4133 91.0602 0.0000 -19.6965 0.0000
# 4 0.0000 0.0000 0.0000 26.8386 0.0000 1.9822
# 5 -3.5338 1.2666 -19.6965 0.0000 33.0703 0.0000
# 6 0.0000 0.0000 0.0000 1.9822 0.0000 24.9538
#
#
#
# Elastic Compliance Matrix: (Units=1/GPa)
#
#
# Indices 1 2 3 4 5 6 
#
# 1 0.024353 -0.000263 -0.007431 0.000000 -0.001814 0.000000
# 2 -0.000263 0.010769 -0.004964 0.000000 -0.003397 0.000000
# 3 -0.007431 -0.004964 0.017237 0.000000 0.009662 0.000000
# 4 0.000000 0.000000 0.000000 0.037480 0.000000 -0.002977
# 5 -0.001814 -0.003397 0.009662 0.000000 0.035930 0.000000
# 6 0.000000 0.000000 0.000000 -0.002977 0.000000 0.040311
#
#
# Mechanical properties :
#
#
# Convention : Reuss Voigt Hill
#
# Bulk Modulus (GPa) = 36.97961 44.61582 40.79772
# Shear Modulus (GPa) = 24.94904 28.63702 26.79303
#
# Velocity S-wave (km/s) = 3.51161 3.76222 3.63907
# Velocity P-wave (km/s) = 5.89234 6.39722 6.14996
#
# Compressibility (1/GPa) = 0.02704193
#
# Stress axis : x y z
#
# Youngs Moduli (GPa) = 41.06309 92.85990 58.01619
#
# Poissons Ratio (x) = 0.02445 0.43112
# Poissons Ratio (y) = 0.01081 0.28798
# Poissons Ratio (z) = 0.30514 0.46094
#
# Static dielectric constant tensor:
#      x y z
#    x 3.528730 0.000000 0.040140 
#    y 0.000000 3.572450 0.000000 
#    z 0.040140 0.000000 3.961970 
# 
# 
# High freq. dielectric constant tensor:
#      x y z
#    x 1.773780 0.000000 0.008630 
#    y 0.000000 1.764220 0.000000 
#    z 0.008630 0.000000 1.808700 
# 
# From -- ./inp_files/19416.got.cif
#   From: 2010.06.25/outbox.cif.g09.slc.cpg/sg11_10_cif.got.tgz:19416.got - 2010.06.27 23:14:04.
