data_PCOD8069737
_publ_section_title
;
Structure prediction by ZEFSAII (Michael W. Deem and Ramdas Pophale) SiO2 
 PCOD8069737
Probable space group: P 21/M
;
_chemical_formula_sum "Si O2"
_cell_formula_units_Z 24
_cell_length_a 10.976200
_cell_length_b 14.466838
_cell_length_c 9.844869
_cell_angle_alpha 90.000000
_cell_angle_beta 55.544189
_cell_angle_gamma 90.000000
_cell_volume 1289.018942
_symmetry_space_group_name_H-M "P 21/M"
_symmetry_group_IT_number 11
_symmetry_cell_setting 'monoclinic'
loop_
_space_group_symop_operation_xyz
x,y,z
-x,1/2+y,-z
-x,-y,-z
x,1/2-y,z
loop_
_atom_site_type_symbol
_atom_site_label
_atom_site_fract_x
_atom_site_fract_y
_atom_site_fract_z
Si Si1 0.543339 0.482450 0.126791
Si Si2 0.943917 0.146813 0.214635
Si Si3 0.230066 0.437779 0.332556
Si Si4 0.813418 0.143656 0.009483
Si Si5 0.998861 0.538642 0.317713
Si Si6 0.725732 0.649795 0.978762
O O1 0.387666 0.465839 0.301553
O O2 0.500000 0.500000 0.000000
O O3 0.652686 0.396187 0.073995
O O4 0.625954 0.575697 0.122114
O O5 0.913502 0.250000 0.298049
O O6 0.112994 0.143803 0.055540
O O7 0.923839 0.061935 0.332336
O O8 0.836371 0.131618 0.155346
O O9 0.124104 0.401911 0.521824
O O10 0.258152 0.363877 0.195018
O O11 0.145160 0.525207 0.318222
O O12 0.815474 0.250000 0.963100
O O13 0.948589 0.091865 0.849189
O O14 0.653594 0.750000 0.047860
#
# Coordination Sequence:
#
# PCOD8069737 Si02
#       6
#     4   4   4   4   4   4
#     4  10  18  34  49  78 106 132 169 211 259 307
#     4   9  18  33  55  79 101 136 179 214 254 303
#     4   9  19  33  51  77 110 132 169 211 261 310
#     4  11  21  33  55  80 103 134 178 219 253 302
#     4  10  18  35  55  75 106 137 171 216 255 304
#     4   9  17  31  54  75 101 139 175 212 256 306
#
# _framework density 18.61881
#
# number of rings (size 3 to 8) (size 9 to 14) (size 15 to 20)
#    0.000    2.333    5.000    0.500    0.000    3.333 
#    0.000    4.167    0.000    0.000    0.000    0.000 
#    0.000    0.000    0.000    0.000    0.000    0.000 
#
# Total GULP energy -297321.084217 kJ/mol
# GULP energy per Si atom -12388.378509 kJ/mol
# Density = 1.857643 g / cm^3
# Si number density = 18.618810 Si / 1000 Ang^3
#
#
#
# Elastic Constant Matrix: (Units=GPa)
#
#
# Indices 1 2 3 4 5 6 
#
# 1 86.5459 31.7524 25.1559 0.0000 -12.0125 0.0000
# 2 31.7524 100.3345 21.3334 0.0000 -6.6080 0.0000
# 3 25.1559 21.3334 63.0061 0.0000 -14.7217 0.0000
# 4 0.0000 0.0000 0.0000 15.3108 0.0000 3.4491
# 5 -12.0125 -6.6080 -14.7217 0.0000 21.4866 0.0000
# 6 0.0000 0.0000 0.0000 3.4491 0.0000 22.3391
#
#
#
# Elastic Compliance Matrix: (Units=1/GPa)
#
#
# Indices 1 2 3 4 5 6 
#
# 1 0.014518 -0.003542 -0.003518 0.000000 0.004616 0.000000
# 2 -0.003542 0.011621 -0.002558 0.000000 -0.000159 0.000000
# 3 -0.003518 -0.002558 0.020834 0.000000 0.011521 0.000000
# 4 0.000000 0.000000 0.000000 0.067667 0.000000 -0.010448
# 5 0.004616 -0.000159 0.011521 0.000000 0.056967 0.000000
# 6 0.000000 0.000000 0.000000 -0.010448 0.000000 0.046378
#
#
# Mechanical properties :
#
#
# Convention : Reuss Voigt Hill
#
# Bulk Modulus (GPa) = 36.05358 45.15220 40.60289
# Shear Modulus (GPa) = 20.28681 23.27029 21.77855
#
# Velocity S-wave (km/s) = 3.30447 3.53912 3.42381
# Velocity P-wave (km/s) = 5.82799 6.40344 6.12248
#
# Compressibility (1/GPa) = 0.02773649
#
# Stress axis : x y z
#
# Youngs Moduli (GPa) = 68.88228 86.05118 47.99809
#
# Poissons Ratio (x) = 0.30481 0.16887
# Poissons Ratio (y) = 0.24399 0.12276
# Poissons Ratio (z) = 0.24235 0.22009
#
# Static dielectric constant tensor:
#      x y z
#    x 3.726080 0.000000 -0.448670 
#    y 0.000000 3.579420 0.000000 
#    z -0.448670 0.000000 3.386850 
# 
# 
# High freq. dielectric constant tensor:
#      x y z
#    x 1.722210 0.000000 -0.015610 
#    y 0.000000 1.716040 0.000000 
#    z -0.015610 0.000000 1.683050 
# 
# From -- ./inp_files/35192.got.cif
#   From: 2010.06.25/outbox.cif.g09.slc.cpg/sg11_18_cif.got.tgz:35192.got - 2010.06.27 23:14:04.
