data_PCOD8069981
_publ_section_title
;
Structure prediction by ZEFSAII (Michael W. Deem and Ramdas Pophale) SiO2 
 PCOD8069981
Probable space group: P 21/M
;
_chemical_formula_sum "Si O2"
_cell_formula_units_Z 32
_cell_length_a 16.057599
_cell_length_b 9.049585
_cell_length_c 21.566593
_cell_angle_alpha 90.000000
_cell_angle_beta 39.485152
_cell_angle_gamma 90.000000
_cell_volume 1992.804864
_symmetry_space_group_name_H-M "P 21/M"
_symmetry_group_IT_number 11
_symmetry_cell_setting 'monoclinic'
loop_
_space_group_symop_operation_xyz
x,y,z
-x,1/2+y,-z
-x,-y,-z
x,1/2-y,z
loop_
_atom_site_type_symbol
_atom_site_label
_atom_site_fract_x
_atom_site_fract_y
_atom_site_fract_z
Si Si1 0.026706 0.086058 0.577938
Si Si2 0.184591 0.412897 0.360438
Si Si3 0.577939 0.574092 0.696548
Si Si4 0.208831 0.417074 0.769484
Si Si5 0.059806 0.578994 0.024347
Si Si6 0.637823 0.078977 0.422871
Si Si7 0.742492 0.422806 0.497683
Si Si8 0.304688 0.076967 0.853189
O O1 0.014703 0.250000 0.613664
O O2 0.095721 0.093776 0.472294
O O3 0.880191 0.020635 0.653261
O O4 0.111188 0.983150 0.574920
O O5 0.193129 0.250000 0.325716
O O6 0.328269 0.467325 0.299169
O O7 0.567794 0.750000 0.693733
O O8 0.634905 0.506547 0.600575
O O9 0.439576 0.502823 0.791490
O O10 0.248449 0.250000 0.728898
O O11 0.269227 0.528261 0.685929
O O12 0.266188 0.454369 0.804246
O O13 0.050313 0.434678 0.858670
O O14 0.088476 0.750000 0.992710
O O15 0.195697 0.495235 0.961800
O O16 0.000000 0.500000 0.000000
O O17 0.609598 0.250000 0.430659
O O18 0.710179 0.044394 0.445293
O O19 0.500000 0.000000 0.500000
O O20 0.737251 0.250000 0.517188
O O21 0.315464 0.250000 0.861200
#
# Coordination Sequence:
#
# PCOD8069981 Si02
#       8
#     4   4   4   4   4   4   4   4
#     4   9  16  26  42  61  79 107 145 178 212 254
#     4   8  15  26  39  58  84 111 139 173 213 255
#     4  10  19  29  43  64  88 117 149 178 214 259
#     4   9  19  33  47  63  85 113 146 183 220 255
#     4   9  17  30  47  66  86 110 141 178 219 262
#     4  11  23  34  46  63  85 116 151 185 220 255
#     4  10  20  32  43  59  85 116 149 184 220 256
#     4  10  19  30  45  66  90 116 144 177 219 262
#
# _framework density 16.057769
#
# number of rings (size 3 to 8) (size 9 to 14) (size 15 to 20)
#    0.000    2.500    0.000    4.500    0.000   11.500 
#    0.000    0.000    0.000    0.000    0.000    0.000 
#    0.000    1.000    0.000    3.250    0.000    4.250 
#
# Total GULP energy -396681.499772 kJ/mol
# GULP energy per Si atom -12396.296868 kJ/mol
# Density = 1.602122 g / cm^3
# Si number density = 16.057769 Si / 1000 Ang^3
#
#
#
# Elastic Constant Matrix: (Units=GPa)
#
#
# Indices 1 2 3 4 5 6 
#
# 1 84.0756 57.7425 45.0488 0.0000 -26.4380 0.0000
# 2 57.7425 110.3280 46.4253 0.0000 -16.3866 0.0000
# 3 45.0488 46.4253 77.8122 0.0000 -23.0971 0.0000
# 4 0.0000 0.0000 0.0000 27.0397 0.0000 -6.2735
# 5 -26.4380 -16.3866 -23.0971 0.0000 24.9461 0.0000
# 6 0.0000 0.0000 0.0000 -6.2735 0.0000 27.0548
#
#
#
# Elastic Compliance Matrix: (Units=1/GPa)
#
#
# Indices 1 2 3 4 5 6 
#
# 1 0.026079 -0.009189 -0.004417 0.000000 0.017512 0.000000
# 2 -0.009189 0.015395 -0.005177 0.000000 -0.004419 0.000000
# 3 -0.004417 -0.005177 0.022200 0.000000 0.012472 0.000000
# 4 0.000000 0.000000 0.000000 0.039085 0.000000 0.009063
# 5 0.017512 -0.004419 0.012472 0.000000 0.067291 0.000000
# 6 0.000000 0.000000 0.000000 0.009063 0.000000 0.039064
#
#
# Mechanical properties :
#
#
# Convention : Reuss Voigt Hill
#
# Bulk Modulus (GPa) = 38.30440 63.40544 50.85492
# Shear Modulus (GPa) = 19.57842 24.00806 21.79324
#
# Velocity S-wave (km/s) = 3.49556 3.87085 3.68799
# Velocity P-wave (km/s) = 6.34018 7.71684 7.06213
#
# Compressibility (1/GPa) = 0.02610666
#
# Stress axis : x y z
#
# Youngs Moduli (GPa) = 38.34531 64.95478 45.04538
#
# Poissons Ratio (x) = 0.59687 0.19899
# Poissons Ratio (y) = 0.35236 0.23321
# Poissons Ratio (z) = 0.16939 0.33628
#
# Static dielectric constant tensor:
#      x y z
#    x 3.056400 0.000000 -0.362410 
#    y 0.000000 3.378890 0.000000 
#    z -0.362410 0.000000 2.997670 
# 
# 
# High freq. dielectric constant tensor:
#      x y z
#    x 1.598170 0.000000 -0.033860 
#    y 0.000000 1.637250 0.000000 
#    z -0.033860 0.000000 1.583520 
# 
# From -- ./inp_files/51360.got.cif
#   From: 2010.06.25/outbox.cif.g09.slc.cpg/sg11_26_cif.got.tgz:51360.got - 2010.06.27 23:14:04.
