data_PCOD8069307
_publ_section_title
;
Structure prediction by ZEFSAII (Michael W. Deem and Ramdas Pophale) SiO2 
 PCOD8069307
Probable space group: P 21/M
;
_chemical_formula_sum "Si O2"
_cell_formula_units_Z 32
_cell_length_a 27.662252
_cell_length_b 8.877954
_cell_length_c 19.753573
_cell_angle_alpha 90.000000
_cell_angle_beta 155.995033
_cell_angle_gamma 90.000000
_cell_volume 1973.530929
_symmetry_space_group_name_H-M "P 21/M"
_symmetry_group_IT_number 11
_symmetry_cell_setting 'monoclinic'
loop_
_space_group_symop_operation_xyz
x,y,z
-x,1/2+y,-z
-x,-y,-z
x,1/2-y,z
loop_
_atom_site_type_symbol
_atom_site_label
_atom_site_fract_x
_atom_site_fract_y
_atom_site_fract_z
Si Si1 0.704915 0.577978 0.512540
Si Si2 0.922072 0.922110 0.708041
Si Si3 0.230477 0.926298 0.884602
Si Si4 0.469962 0.428295 0.166880
Si Si5 0.076315 0.571381 0.156644
Si Si6 0.998011 0.574760 0.660947
Si Si7 0.168153 0.919700 0.656786
Si Si8 0.438402 0.922051 0.983528
O O1 0.680092 0.750000 0.502884
O O2 0.582325 0.488717 0.351926
O O3 0.789199 0.495824 0.676136
O O4 0.777973 0.573703 0.534205
O O5 0.968691 0.750000 0.773239
O O6 0.958383 0.995987 0.682329
O O7 0.980774 0.020503 0.843840
O O8 0.263481 0.750000 0.920729
O O9 0.137062 0.959564 0.825081
O O10 0.172162 0.979827 0.739065
O O11 0.350751 0.017849 0.052985
O O12 0.473763 0.250000 0.169257
O O13 0.475172 0.492399 0.098248
O O14 0.078171 0.750000 0.152553
O O15 0.000000 0.500000 0.000000
O O16 0.973167 0.750000 0.633015
O O17 0.921074 0.518169 0.500328
O O18 0.120052 0.750000 0.593632
O O19 0.298362 0.931073 0.791037
O O20 0.481240 0.750000 0.045224
O O21 0.500000 0.000000 0.000000
#
# Coordination Sequence:
#
# PCOD8069307 Si02
#       8
#     4   4   4   4   4   4   4   4
#     4   9  18  33  51  72 101 130 158 195 241 287
#     4   8  18  32  47  73 102 130 161 195 243 293
#     4   9  19  35  50  66  92 129 169 212 256 293
#     4  11  21  33  49  69  93 125 166 206 245 292
#     4  10  18  31  51  77 107 135 161 191 232 288
#     4  10  19  32  51  71  94 126 166 208 252 298
#     4   9  19  32  45  65  92 123 163 209 255 297
#     4  10  21  34  46  64  91 124 161 203 252 301
#
# _framework density 16.214593000000001
#
# number of rings (size 3 to 8) (size 9 to 14) (size 15 to 20)
#    0.750    1.750    0.000    3.750    1.750    3.500 
#    0.000    0.000    0.000    0.000    0.000    0.875 
#    0.000    0.000    0.000    0.000    0.000    0.000 
#
# Total GULP energy -396607.481624 kJ/mol
# GULP energy per Si atom -12393.983801 kJ/mol
# Density = 1.617769 g / cm^3
# Si number density = 16.214593 Si / 1000 Ang^3
#
#
#
# Elastic Constant Matrix: (Units=GPa)
#
#
# Indices 1 2 3 4 5 6 
#
# 1 56.9291 29.6200 39.6995 0.0000 3.6424 0.0000
# 2 29.6200 110.3480 56.4930 0.0000 -0.2718 0.0000
# 3 39.6995 56.4930 111.9178 0.0000 -5.0604 0.0000
# 4 0.0000 0.0000 0.0000 30.0626 0.0000 -1.2574
# 5 3.6424 -0.2718 -5.0604 0.0000 15.0039 0.0000
# 6 0.0000 0.0000 0.0000 -1.2574 0.0000 20.6468
#
#
#
# Elastic Compliance Matrix: (Units=1/GPa)
#
#
# Indices 1 2 3 4 5 6 
#
# 1 0.025058 -0.002688 -0.007930 0.000000 -0.008806 0.000000
# 2 -0.002688 0.012561 -0.005430 0.000000 -0.000951 0.000000
# 3 -0.007930 -0.005430 0.014797 0.000000 0.006817 0.000000
# 4 0.000000 0.000000 0.000000 0.033349 0.000000 0.002031
# 5 -0.008806 -0.000951 0.006817 0.000000 0.071069 0.000000
# 6 0.000000 0.000000 0.000000 0.002031 0.000000 0.048557
#
#
# Mechanical properties :
#
#
# Convention : Reuss Voigt Hill
#
# Bulk Modulus (GPa) = 49.21199 58.97999 54.09599
# Shear Modulus (GPa) = 20.46993 23.36816 21.91905
#
# Velocity S-wave (km/s) = 3.55694 3.80041 3.68069
# Velocity P-wave (km/s) = 6.87644 7.46398 7.17623
#
# Compressibility (1/GPa) = 0.02032025
#
# Stress axis : x y z
#
# Youngs Moduli (GPa) = 39.90820 79.60883 67.58044
#
# Poissons Ratio (x) = 0.21400 0.53589
# Poissons Ratio (y) = 0.10728 0.36697
# Poissons Ratio (z) = 0.31646 0.43229
#
# Static dielectric constant tensor:
#      x y z
#    x 3.010520 0.000000 0.123610 
#    y 0.000000 3.825280 0.000000 
#    z 0.123610 0.000000 2.926630 
# 
# 
# High freq. dielectric constant tensor:
#      x y z
#    x 1.599850 0.000000 0.011960 
#    y 0.000000 1.630590 0.000000 
#    z 0.011960 0.000000 1.608610 
# 
# From -- ./inp_files/67453.got.cif
#   From: 2010.06.25/outbox.cif.g09.slc.cpg/sg11_34_cif.got.tgz:67453.got - 2010.06.27 23:14:04.
