data_PCOD8069078
_publ_section_title
;
Structure prediction by ZEFSAII (Michael W. Deem and Ramdas Pophale) SiO2 
 PCOD8069078
Probable space group: P 21/M
;
_chemical_formula_sum "Si O2"
_cell_formula_units_Z 32
_cell_length_a 11.695426
_cell_length_b 8.514682
_cell_length_c 22.027143
_cell_angle_alpha 90.000000
_cell_angle_beta 124.480043
_cell_angle_gamma 90.000000
_cell_volume 1808.174298
_symmetry_space_group_name_H-M "P 21/M"
_symmetry_group_IT_number 11
_symmetry_cell_setting 'monoclinic'
loop_
_space_group_symop_operation_xyz
x,y,z
-x,1/2+y,-z
-x,-y,-z
x,1/2-y,z
loop_
_atom_site_type_symbol
_atom_site_label
_atom_site_fract_x
_atom_site_fract_y
_atom_site_fract_z
Si Si1 0.417715 0.064611 0.648625
Si Si2 0.312485 0.566610 0.917953
Si Si3 0.875341 0.435792 0.627400
Si Si4 0.860309 0.063364 0.485696
Si Si5 0.566238 0.428562 0.926292
Si Si6 0.159991 0.435634 0.768812
Si Si7 0.577374 0.068480 0.221044
Si Si8 0.417525 0.935676 0.418132
O O1 0.427891 0.250000 0.657918
O O2 0.516590 0.000179 0.624538
O O3 0.261131 0.014590 0.589281
O O4 0.467770 0.987905 0.726253
O O5 0.347403 0.750000 0.916603
O O6 0.429679 0.453893 0.925677
O O7 0.174163 0.517450 0.839674
O O8 0.304099 0.535255 0.988691
O O9 0.887390 0.250000 0.629201
O O10 0.852021 0.497518 0.552224
O O11 0.743061 0.490483 0.627427
O O12 0.017479 0.504429 0.697898
O O13 0.850478 0.250000 0.477641
O O14 0.000000 0.000000 0.500000
O O15 0.572071 0.250000 0.905190
O O16 0.555372 0.537409 0.863270
O O17 0.152051 0.250000 0.774767
O O18 0.287461 0.476464 0.762477
O O19 0.614948 0.250000 0.233025
O O20 0.428926 0.750000 0.424373
O O21 0.500000 0.000000 0.500000
#
# Coordination Sequence:
#
# PCOD8069078 Si02
#       8
#     4   4   4   4   4   4   4   4
#     4  11  22  35  52  73  97 127 165 206 252 300
#     4   9  16  26  42  67  99 132 164 198 238 287
#     4   9  19  34  51  71  96 127 161 202 248 289
#     4  11  21  34  52  72 101 132 164 201 242 296
#     4   9  16  27  44  66  96 132 166 199 238 288
#     4  10  18  30  49  72 102 135 165 200 243 295
#     4  11  21  32  48  71 102 134 165 204 246 293
#     4  10  20  37  57  74  93 122 164 212 254 295
#
# _framework density 17.697409
#
# number of rings (size 3 to 8) (size 9 to 14) (size 15 to 20)
#    0.000    2.000    1.250    5.250    0.000    3.000 
#    0.000    3.125    0.000    0.000    0.000    0.875 
#    0.000    0.000    0.000    0.000    0.000    0.000 
#
# Total GULP energy -396633.505080 kJ/mol
# GULP energy per Si atom -12394.797034 kJ/mol
# Density = 1.765713 g / cm^3
# Si number density = 17.697409 Si / 1000 Ang^3
#
#
#
# Elastic Constant Matrix: (Units=GPa)
#
#
# Indices 1 2 3 4 5 6 
#
# 1 77.2744 11.5772 39.8372 0.0000 -17.4736 0.0000
# 2 11.5772 45.5579 27.8721 0.0000 -4.8293 0.0000
# 3 39.8372 27.8721 145.4366 0.0000 -22.3415 0.0000
# 4 0.0000 0.0000 0.0000 31.4665 0.0000 -1.7290
# 5 -17.4736 -4.8293 -22.3415 0.0000 17.4241 0.0000
# 6 0.0000 0.0000 0.0000 -1.7290 0.0000 14.9098
#
#
#
# Elastic Compliance Matrix: (Units=1/GPa)
#
#
# Indices 1 2 3 4 5 6 
#
# 1 0.017592 -0.001531 -0.002342 0.000000 0.014215 0.000000
# 2 -0.001531 0.025012 -0.004414 0.000000 -0.000263 0.000000
# 3 -0.002342 -0.004414 0.009731 0.000000 0.008906 0.000000
# 4 0.000000 0.000000 0.000000 0.031984 0.000000 0.003709
# 5 0.014215 -0.000263 0.008906 0.000000 0.082994 0.000000
# 6 0.000000 0.000000 0.000000 0.003709 0.000000 0.067500
#
#
# Mechanical properties :
#
#
# Convention : Reuss Voigt Hill
#
# Bulk Modulus (GPa) = 27.96341 47.42688 37.69515
# Shear Modulus (GPa) = 18.98923 25.35892 22.17407
#
# Velocity S-wave (km/s) = 3.27921 3.78950 3.54355
# Velocity P-wave (km/s) = 5.49298 6.78262 6.17158
#
# Compressibility (1/GPa) = 0.03576101
#
# Stress axis : x y z
#
# Youngs Moduli (GPa) = 56.84470 39.98078 102.76059
#
# Poissons Ratio (x) = 0.06121 0.24062
# Poissons Ratio (y) = 0.08703 0.45364
# Poissons Ratio (z) = 0.13310 0.17649
#
# Static dielectric constant tensor:
#      x y z
#    x 3.066100 0.000000 -0.104380 
#    y 0.000000 3.226210 0.000000 
#    z -0.104380 0.000000 3.822930 
# 
# 
# High freq. dielectric constant tensor:
#      x y z
#    x 1.634990 0.000000 -0.006010 
#    y 0.000000 1.685260 0.000000 
#    z -0.006010 0.000000 1.703920 
# 
# From -- ./inp_files/64235.got.cif
#   From: 2010.06.25/outbox.cif.g09.slc.cpg/sg11_33_cif.got.tgz:64235.got - 2010.06.27 23:14:04.
