data_PCOD8069813
_publ_section_title
;
Structure prediction by ZEFSAII (Michael W. Deem and Ramdas Pophale) SiO2 
 PCOD8069813
Probable space group: P 21/M
;
_chemical_formula_sum "Si O2"
_cell_formula_units_Z 32
_cell_length_a 24.989236
_cell_length_b 15.359479
_cell_length_c 8.763656
_cell_angle_alpha 90.000000
_cell_angle_beta 28.746208
_cell_angle_gamma 90.000000
_cell_volume 1617.697541
_symmetry_space_group_name_H-M "P 21/M"
_symmetry_group_IT_number 11
_symmetry_cell_setting 'monoclinic'
loop_
_space_group_symop_operation_xyz
x,y,z
-x,1/2+y,-z
-x,-y,-z
x,1/2-y,z
loop_
_atom_site_type_symbol
_atom_site_label
_atom_site_fract_x
_atom_site_fract_y
_atom_site_fract_z
Si Si1 0.878917 0.002671 0.872329
Si Si2 0.736029 0.150286 0.734252
Si Si3 0.490321 0.602746 0.198399
Si Si4 0.509693 0.102738 0.149948
Si Si5 0.263989 0.849719 0.914399
Si Si6 0.270001 0.345997 0.755625
Si Si7 0.121074 0.502672 0.766967
Si Si8 0.270001 0.345997 0.394428
O O1 0.811012 0.919921 0.974203
O O2 0.000000 0.000000 0.500000
O O3 0.816804 0.091366 0.984854
O O4 0.888594 0.996673 0.028500
O O5 0.771611 0.250000 0.618979
O O6 0.816799 0.091356 0.431089
O O7 0.608406 0.137981 0.006766
O O8 0.749997 0.123384 0.874985
O O9 0.500021 0.500003 0.184030
O O10 0.391601 0.637960 0.548821
O O11 0.468487 0.632516 0.078791
O O12 0.604372 0.642524 0.980425
O O13 0.395645 0.142515 0.502250
O O14 0.228410 0.750000 0.977021
O O15 0.225908 0.250000 0.912964
O O16 0.274006 0.357550 0.565012
O O17 0.188969 0.419906 0.529361
O O18 0.000000 0.500000 0.000000
O O19 0.225887 0.250000 0.457624
#
# Coordination Sequence:
#
# PCOD8069813 Si02
#       8
#     4   4   4   4   4   4   4   4
#     4  11  23  41  62  86 116 154 202 249 299 354
#     4  11  24  40  59  87 122 160 200 245 298 351
#     4  10  18  34  61  91 118 150 193 238 293 360
#     4  10  18  34  61  91 118 150 193 238 293 360
#     4  11  24  40  59  87 122 160 200 245 298 351
#     4   9  18  34  58  86 116 150 187 232 290 356
#     4  11  23  41  62  86 116 154 202 249 299 354
#     4   9  18  34  58  86 116 150 187 232 290 356
#
# _framework density 19.781200999999999
#
# number of rings (size 3 to 8) (size 9 to 14) (size 15 to 20)
#    0.000    1.750    2.500    2.250    0.000    4.500 
#    0.000    2.500    0.000    3.750    0.000    0.000 
#    0.000    0.000    0.000    0.000    0.000    0.000 
#
# Total GULP energy -396848.563406 kJ/mol
# GULP energy per Si atom -12401.517606 kJ/mol
# Density = 1.973618 g / cm^3
# Si number density = 19.781201 Si / 1000 Ang^3
#
#
#
# Elastic Constant Matrix: (Units=GPa)
#
#
# Indices 1 2 3 4 5 6 
#
# 1 71.7578 38.6110 33.9115 0.0000 -18.3906 0.0000
# 2 38.6110 128.3280 59.3388 0.0000 -13.2322 0.0000
# 3 33.9115 59.3388 132.6597 0.0000 -20.4938 0.0000
# 4 0.0000 0.0000 0.0000 14.9875 0.0000 4.4735
# 5 -18.3906 -13.2322 -20.4938 0.0000 34.6660 0.0000
# 6 0.0000 0.0000 0.0000 4.4735 0.0000 22.0087
#
#
#
# Elastic Compliance Matrix: (Units=1/GPa)
#
#
# Indices 1 2 3 4 5 6 
#
# 1 0.018893 -0.004057 -0.001877 0.000000 0.007365 0.000000
# 2 -0.004057 0.010747 -0.003817 0.000000 -0.000307 0.000000
# 3 -0.001877 -0.003817 0.010286 0.000000 0.003628 0.000000
# 4 0.000000 0.000000 0.000000 0.071032 0.000000 -0.014438
# 5 0.007365 -0.000307 0.003628 0.000000 0.034781 0.000000
# 6 0.000000 0.000000 0.000000 -0.014438 0.000000 0.048371
#
#
# Mechanical properties :
#
#
# Convention : Reuss Voigt Hill
#
# Bulk Modulus (GPa) = 48.96522 66.27423 57.61973
# Shear Modulus (GPa) = 22.68381 27.72471 25.20426
#
# Velocity S-wave (km/s) = 3.39002 3.74781 3.57340
# Velocity P-wave (km/s) = 6.33484 7.23219 6.79833
#
# Compressibility (1/GPa) = 0.02042266
#
# Stress axis : x y z
#
# Youngs Moduli (GPa) = 52.92841 93.05162 97.22073
#
# Poissons Ratio (x) = 0.37753 0.18250
# Poissons Ratio (y) = 0.21474 0.37112
# Poissons Ratio (z) = 0.09935 0.35521
#
# Static dielectric constant tensor:
#      x y z
#    x 3.445410 0.000000 -0.123330 
#    y 0.000000 3.916770 0.000000 
#    z -0.123330 0.000000 3.637620 
# 
# 
# High freq. dielectric constant tensor:
#      x y z
#    x 1.749420 0.000000 -0.011420 
#    y 0.000000 1.788800 0.000000 
#    z -0.011420 0.000000 1.767240 
# 
# From -- ./inp_files/27787.got.cif
#   From: 2010.06.25/outbox.cif.g09.slc.cpg/sg11_14_cif.got.tgz:27787.got - 2010.06.27 23:14:04.
