data_PCOD8069321
_publ_section_title
;
Structure prediction by ZEFSAII (Michael W. Deem and Ramdas Pophale) SiO2 
 PCOD8069321
Probable space group: P 21/M
;
_chemical_formula_sum "Si O2"
_cell_formula_units_Z 32
_cell_length_a 12.509486
_cell_length_b 8.844570
_cell_length_c 23.933350
_cell_angle_alpha 90.000000
_cell_angle_beta 46.295660
_cell_angle_gamma 90.000000
_cell_volume 1914.285914
_symmetry_space_group_name_H-M "P 21/M"
_symmetry_group_IT_number 11
_symmetry_cell_setting 'monoclinic'
loop_
_space_group_symop_operation_xyz
x,y,z
-x,1/2+y,-z
-x,-y,-z
x,1/2-y,z
loop_
_atom_site_type_symbol
_atom_site_label
_atom_site_fract_x
_atom_site_fract_y
_atom_site_fract_z
Si Si1 0.557640 0.428145 0.422287
Si Si2 0.393814 0.926596 0.993290
Si Si3 0.414088 0.929128 0.158014
Si Si4 0.672016 0.428106 0.575564
Si Si5 0.939148 0.575095 0.418292
Si Si6 0.832404 0.426496 0.838649
Si Si7 0.135165 0.075405 0.684106
Si Si8 0.732538 0.071579 0.678180
O O1 0.500000 0.500000 0.500000
O O2 0.543675 0.250000 0.433443
O O3 0.459455 0.482456 0.406227
O O4 0.725279 0.474844 0.349606
O O5 0.425247 0.750000 0.978955
O O6 0.429553 0.999985 0.919907
O O7 0.226486 0.957863 0.076678
O O8 0.500000 0.000000 0.000000
O O9 0.429844 0.750000 0.149010
O O10 0.282506 0.991312 0.165669
O O11 0.379206 0.986955 0.233270
O O12 0.647575 0.250000 0.576827
O O13 0.829328 0.472430 0.493482
O O14 0.668866 0.477767 0.641498
O O15 0.922695 0.750000 0.442466
O O16 0.902705 0.555619 0.366802
O O17 0.102090 0.508944 0.371774
O O18 0.843734 0.250000 0.821579
O O19 0.997428 0.491096 0.770062
O O20 0.170292 0.250000 0.685562
O O21 0.745147 0.250000 0.678966
#
# Coordination Sequence:
#
# PCOD8069321 Si02
#       8
#     4   4   4   4   4   4   4   4
#     4  12  24  38  53  70  94 125 164 209 254 292
#     4   9  16  26  42  67  97 130 162 192 231 283
#     4   9  15  28  47  68  97 132 162 190 231 283
#     4  11  22  35  51  72  98 129 169 207 242 290
#     4  10  18  31  52  73  98 131 165 201 244 287
#     4   8  14  26  46  69  96 128 159 189 232 291
#     4  10  18  31  53  75  95 127 165 199 242 291
#     4   9  18  32  51  74 100 134 169 198 237 295
#
# _framework density 16.716417
#
# number of rings (size 3 to 8) (size 9 to 14) (size 15 to 20)
#    0.000    2.250    2.500    3.000    0.000    0.000 
#    0.000    5.625    0.000    0.000    0.000    0.875 
#    0.000    0.000    0.000    0.000    0.000    0.000 
#
# Total GULP energy -396638.777588 kJ/mol
# GULP energy per Si atom -12394.961800 kJ/mol
# Density = 1.667837 g / cm^3
# Si number density = 16.716417 Si / 1000 Ang^3
#
#
#
# Elastic Constant Matrix: (Units=GPa)
#
#
# Indices 1 2 3 4 5 6 
#
# 1 80.3345 34.3113 61.8171 0.0000 9.6153 0.0000
# 2 34.3113 67.5487 47.1343 0.0000 0.7855 0.0000
# 3 61.8171 47.1343 164.2503 0.0000 -4.5287 0.0000
# 4 0.0000 0.0000 0.0000 26.4341 0.0000 -2.9794
# 5 9.6153 0.7855 -4.5287 0.0000 10.6282 0.0000
# 6 0.0000 0.0000 0.0000 -2.9794 0.0000 17.8945
#
#
#
# Elastic Compliance Matrix: (Units=1/GPa)
#
#
# Indices 1 2 3 4 5 6 
#
# 1 0.024365 -0.006511 -0.007990 0.000000 -0.024967 0.000000
# 2 -0.006511 0.020393 -0.003320 0.000000 0.002968 0.000000
# 3 -0.007990 -0.003320 0.010376 0.000000 0.011895 0.000000
# 4 0.000000 0.000000 0.000000 0.038553 0.000000 0.006419
# 5 -0.024967 0.002968 0.011895 0.000000 0.121526 0.000000
# 6 0.000000 0.000000 0.000000 0.006419 0.000000 0.056952
#
#
# Mechanical properties :
#
#
# Convention : Reuss Voigt Hill
#
# Bulk Modulus (GPa) = 51.29993 66.51765 58.90879
# Shear Modulus (GPa) = 15.90809 22.24941 19.07875
#
# Velocity S-wave (km/s) = 3.08822 3.65223 3.38201
# Velocity P-wave (km/s) = 6.59326 7.59363 7.11106
#
# Compressibility (1/GPa) = 0.01949320
#
# Stress axis : x y z
#
# Youngs Moduli (GPa) = 41.04182 49.03562 96.37490
#
# Poissons Ratio (x) = 0.31925 0.77005
# Poissons Ratio (y) = 0.26721 0.31997
# Poissons Ratio (z) = 0.32793 0.16280
#
# Static dielectric constant tensor:
#      x y z
#    x 2.979910 0.000000 -0.037390 
#    y 0.000000 3.027850 0.000000 
#    z -0.037390 0.000000 3.745980 
# 
# 
# High freq. dielectric constant tensor:
#      x y z
#    x 1.605960 0.000000 -0.003780 
#    y 0.000000 1.627350 0.000000 
#    z -0.003780 0.000000 1.658380 
# 
# From -- ./inp_files/68296.got.cif
#   From: 2010.06.25/outbox.cif.g09.slc.cpg/sg11_35_cif.got.tgz:68296.got - 2010.06.27 23:14:04.
