data_PCOD8069865
_publ_section_title
;
Structure prediction by ZEFSAII (Michael W. Deem and Ramdas Pophale) SiO2 
 PCOD8069865
Probable space group: P 21/M
;
_chemical_formula_sum "Si O2"
_cell_formula_units_Z 28
_cell_length_a 18.281018
_cell_length_b 13.279356
_cell_length_c 9.661596
_cell_angle_alpha 90.000000
_cell_angle_beta 39.839399
_cell_angle_gamma 90.000000
_cell_volume 1502.584343
_symmetry_space_group_name_H-M "P 21/M"
_symmetry_group_IT_number 11
_symmetry_cell_setting 'monoclinic'
loop_
_space_group_symop_operation_xyz
x,y,z
-x,1/2+y,-z
-x,-y,-z
x,1/2-y,z
loop_
_atom_site_type_symbol
_atom_site_label
_atom_site_fract_x
_atom_site_fract_y
_atom_site_fract_z
Si Si1 0.786290 0.955294 0.129995
Si Si2 0.241534 0.633786 0.619233
Si Si3 0.177419 0.136337 0.458804
Si Si4 0.309635 0.366077 0.995668
Si Si5 0.350470 0.360410 0.445753
Si Si6 0.035221 0.967606 0.797321
Si Si7 0.529438 0.458862 0.806232
O O1 0.712558 0.942886 0.098063
O O2 0.745667 0.870921 0.297432
O O3 0.769116 0.065633 0.225575
O O4 0.917794 0.929047 0.898454
O O5 0.242919 0.750000 0.663238
O O6 0.135314 0.615075 0.667978
O O7 0.354754 0.607241 0.366876
O O8 0.132901 0.250000 0.546709
O O9 0.290309 0.117656 0.386316
O O10 0.076530 0.061963 0.647016
O O11 0.210368 0.117643 0.252112
O O12 0.311982 0.250000 0.941711
O O13 0.431046 0.391028 0.885814
O O14 0.405577 0.250000 0.371037
O O15 0.451173 0.441862 0.317930
O O16 0.000000 0.000000 0.000000
O O17 0.500000 0.500000 0.000000
#
# Coordination Sequence:
#
# PCOD8069865 Si02
#       7
#     4   4   4   4   4   4   4
#     4  10  22  38  56  85 117 152 190 236 283 333
#     4  10  21  35  56  86 114 149 193 237 287 338
#     4  10  19  35  58  87 114 146 191 230 277 344
#     4  11  23  38  59  85 116 155 190 230 287 341
#     4  10  19  34  57  85 112 144 191 231 273 337
#     4  10  18  36  57  85 113 148 190 239 282 331
#     4  11  20  37  58  82 114 145 187 236 281 335
#
# _framework density 18.63456
#
# number of rings (size 3 to 8) (size 9 to 14) (size 15 to 20)
#    0.000    1.714    5.714    0.857    0.000    6.857 
#    0.000    2.143    0.000    0.857    0.000    0.000 
#    0.000    0.000    0.000    0.000    0.000    0.000 
#
# Total GULP energy -347042.288416 kJ/mol
# GULP energy per Si atom -12394.367443 kJ/mol
# Density = 1.859215 g / cm^3
# Si number density = 18.634560 Si / 1000 Ang^3
#
#
#
# Elastic Constant Matrix: (Units=GPa)
#
#
# Indices 1 2 3 4 5 6 
#
# 1 84.0709 33.1137 44.0416 0.0000 -0.9610 0.0000
# 2 33.1137 93.1557 50.5361 0.0000 5.2759 0.0000
# 3 44.0416 50.5361 99.7460 0.0000 -9.4728 0.0000
# 4 0.0000 0.0000 0.0000 26.0753 0.0000 2.0915
# 5 -0.9610 5.2759 -9.4728 0.0000 28.1549 0.0000
# 6 0.0000 0.0000 0.0000 2.0915 0.0000 21.1445
#
#
#
# Elastic Compliance Matrix: (Units=1/GPa)
#
#
# Indices 1 2 3 4 5 6 
#
# 1 0.015924 -0.002397 -0.005911 0.000000 -0.000996 0.000000
# 2 -0.002397 0.016028 -0.007598 0.000000 -0.005642 0.000000
# 3 -0.005911 -0.007598 0.017149 0.000000 0.006992 0.000000
# 4 0.000000 0.000000 0.000000 0.038657 0.000000 -0.003824
# 5 -0.000996 -0.005642 0.006992 0.000000 0.038893 0.000000
# 6 0.000000 0.000000 0.000000 -0.003824 0.000000 0.047672
#
#
# Mechanical properties :
#
#
# Convention : Reuss Voigt Hill
#
# Bulk Modulus (GPa) = 57.84176 59.15060 58.49618
# Shear Modulus (GPa) = 23.59610 25.02702 24.31156
#
# Velocity S-wave (km/s) = 3.56231 3.66873 3.61591
# Velocity P-wave (km/s) = 6.93019 7.05390 6.99231
#
# Compressibility (1/GPa) = 0.01728855
#
# Stress axis : x y z
#
# Youngs Moduli (GPa) = 62.79747 62.38995 58.31278
#
# Poissons Ratio (x) = 0.14957 0.34469
# Poissons Ratio (y) = 0.15055 0.44306
# Poissons Ratio (z) = 0.37120 0.47403
#
# Static dielectric constant tensor:
#      x y z
#    x 3.608790 0.000000 -0.397240 
#    y 0.000000 3.475880 0.000000 
#    z -0.397240 0.000000 3.836120 
# 
# 
# High freq. dielectric constant tensor:
#      x y z
#    x 1.695560 0.000000 -0.005780 
#    y 0.000000 1.721150 0.000000 
#    z -0.005780 0.000000 1.732440 
# 
# From -- ./inp_files/24933.got.cif
#   From: 2010.06.25/outbox.cif.g09.slc.cpg/sg11_13_cif.got.tgz:24933.got - 2010.06.27 23:14:04.
