data_PCOD8069926
_publ_section_title
;
Structure prediction by ZEFSAII (Michael W. Deem and Ramdas Pophale) SiO2 
 PCOD8069926
Probable space group: P 21/M
;
_chemical_formula_sum "Si O2"
_cell_formula_units_Z 32
_cell_length_a 20.448232
_cell_length_b 9.267409
_cell_length_c 12.332139
_cell_angle_alpha 90.000000
_cell_angle_beta 59.420718
_cell_angle_gamma 90.000000
_cell_volume 2011.955397
_symmetry_space_group_name_H-M "P 21/M"
_symmetry_group_IT_number 11
_symmetry_cell_setting 'monoclinic'
loop_
_space_group_symop_operation_xyz
x,y,z
-x,1/2+y,-z
-x,-y,-z
x,1/2-y,z
loop_
_atom_site_type_symbol
_atom_site_label
_atom_site_fract_x
_atom_site_fract_y
_atom_site_fract_z
Si Si1 0.131895 0.413734 0.721509
Si Si2 0.578308 0.583419 0.932796
Si Si3 0.570985 0.585787 0.178726
Si Si4 0.311178 0.917639 0.787608
Si Si5 0.005810 0.080303 0.108274
Si Si6 0.723109 0.082529 0.429843
Si Si7 0.397451 0.581897 0.287050
Si Si8 0.830065 0.590509 0.057935
O O1 0.122809 0.250000 0.686819
O O2 0.054850 0.504384 0.759798
O O3 0.202834 0.489262 0.601995
O O4 0.146564 0.418411 0.836683
O O5 0.565057 0.750000 0.913710
O O6 0.629712 0.507938 0.796600
O O7 0.500000 0.500000 0.000000
O O8 0.611907 0.569599 0.026221
O O9 0.576437 0.750000 0.214726
O O10 0.612363 0.486463 0.230863
O O11 0.482953 0.537915 0.248015
O O12 0.313990 0.750000 0.808746
O O13 0.307593 0.955123 0.663706
O O14 0.236667 0.978511 0.912416
O O15 0.986478 0.250000 0.110778
O O16 0.093011 0.059898 0.076765
O O17 0.000000 0.000000 0.000000
O O18 0.745564 0.250000 0.418463
O O19 0.657220 0.040111 0.568509
O O20 0.393208 0.750000 0.261061
O O21 0.798705 0.750000 0.057379
#
# Coordination Sequence:
#
# PCOD8069926 Si02
#       8
#     4   4   4   4   4   4   4   4
#     4   9  16  25  38  57  80 109 143 175 209 249
#     4   9  17  30  48  67  84 104 134 176 222 261
#     4   9  18  31  45  61  84 112 140 175 219 259
#     4  10  19  28  41  61  85 115 148 178 208 248
#     4   9  15  23  37  56  77 105 140 175 211 250
#     4   9  18  31  43  59  87 118 146 177 213 251
#     4   9  18  32  48  64  84 112 143 178 219 257
#     4   8  15  26  38  53  77 109 141 172 209 250
#
# _framework density 15.904926
#
# number of rings (size 3 to 8) (size 9 to 14) (size 15 to 20)
#    0.000    3.000    0.000    3.000    0.000    7.500 
#    0.000    0.000    0.000    0.000    0.000    0.000 
#    0.000    1.000    0.000    3.250    0.000    4.875 
#
# Total GULP energy -396564.819231 kJ/mol
# GULP energy per Si atom -12392.650601 kJ/mol
# Density = 1.586873 g / cm^3
# Si number density = 15.904926 Si / 1000 Ang^3
#
#
#
# Elastic Constant Matrix: (Units=GPa)
#
#
# Indices 1 2 3 4 5 6 
#
# 1 36.5225 31.8293 48.1149 0.0000 -21.2892 0.0000
# 2 31.8293 93.9389 54.5531 0.0000 -14.2464 0.0000
# 3 48.1149 54.5531 88.8741 0.0000 -20.0633 0.0000
# 4 0.0000 0.0000 0.0000 23.4293 0.0000 -3.8422
# 5 -21.2892 -14.2464 -20.0633 0.0000 19.4866 0.0000
# 6 0.0000 0.0000 0.0000 -3.8422 0.0000 27.1612
#
#
#
# Elastic Compliance Matrix: (Units=1/GPa)
#
#
# Indices 1 2 3 4 5 6 
#
# 1 0.313516 -0.004942 -0.117502 0.000000 0.217926 0.000000
# 2 -0.004942 0.016688 -0.007859 0.000000 -0.001291 0.000000
# 3 -0.117502 -0.007859 0.064376 0.000000 -0.067837 0.000000
# 4 0.000000 0.000000 0.000000 0.043695 0.000000 0.006181
# 5 0.217926 -0.001291 -0.067837 0.000000 0.218616 0.000000
# 6 0.000000 0.000000 0.000000 0.006181 0.000000 0.037692
#
#
# Mechanical properties :
#
#
# Convention : Reuss Voigt Hill
#
# Bulk Modulus (GPa) = 7.46418 54.25892 30.86155
# Shear Modulus (GPa) = 5.00077 19.67130 12.33603
#
# Velocity S-wave (km/s) = 1.77510 3.52064 2.78800
# Velocity P-wave (km/s) = 2.98404 7.12146 5.45984
#
# Compressibility (1/GPa) = 0.13397318
#
# Stress axis : x y z
#
# Youngs Moduli (GPa) = 3.18963 59.92255 15.53385
#
# Poissons Ratio (x) = 0.29614 1.82526
# Poissons Ratio (y) = 0.01576 0.12209
# Poissons Ratio (z) = 0.37479 0.47096
#
# Static dielectric constant tensor:
#      x y z
#    x 2.961100 0.000000 -0.271700 
#    y 0.000000 3.200080 0.000000 
#    z -0.271700 0.000000 3.194920 
# 
# 
# High freq. dielectric constant tensor:
#      x y z
#    x 1.578920 0.000000 -0.028710 
#    y 0.000000 1.624510 0.000000 
#    z -0.028710 0.000000 1.583630 
# 
# From -- ./inp_files/42448.got.cif
#   From: 2010.06.25/outbox.cif.g09.slc.cpg/sg11_22_cif.got.tgz:42448.got - 2010.06.27 23:14:04.
