data_PCOD8069996
_publ_section_title
;
Structure prediction by ZEFSAII (Michael W. Deem and Ramdas Pophale) SiO2 
 PCOD8069996
Probable space group: P 21/M
;
_chemical_formula_sum "Si O2"
_cell_formula_units_Z 28
_cell_length_a 17.104155
_cell_length_b 9.030642
_cell_length_c 14.284323
_cell_angle_alpha 90.000000
_cell_angle_beta 50.639486
_cell_angle_gamma 90.000000
_cell_volume 1705.907063
_symmetry_space_group_name_H-M "P 21/M"
_symmetry_group_IT_number 11
_symmetry_cell_setting 'monoclinic'
loop_
_space_group_symop_operation_xyz
x,y,z
-x,1/2+y,-z
-x,-y,-z
x,1/2-y,z
loop_
_atom_site_type_symbol
_atom_site_label
_atom_site_fract_x
_atom_site_fract_y
_atom_site_fract_z
Si Si1 0.914775 0.417661 0.195701
Si Si2 0.864401 0.920910 0.548184
Si Si3 0.608167 0.573477 0.411499
Si Si4 0.863697 0.577358 0.920765
Si Si5 0.757502 0.423390 0.159449
Si Si6 0.770015 0.921714 0.434761
Si Si7 0.087249 0.577889 0.308212
O O1 0.893928 0.250000 0.240961
O O2 0.860122 0.453758 0.139533
O O3 0.870175 0.513307 0.312947
O O4 0.033614 0.450182 0.098476
O O5 0.862044 0.750000 0.581967
O O6 0.773705 0.957136 0.543223
O O7 0.969890 0.956273 0.416075
O O8 0.848859 0.024329 0.649892
O O9 0.500000 0.500000 0.500000
O O10 0.598913 0.750000 0.409582
O O11 0.664622 0.508828 0.277979
O O12 0.668098 0.523018 0.460568
O O13 0.836323 0.750000 0.935323
O O14 0.873166 0.513647 0.809832
O O15 0.774770 0.491517 0.043329
O O16 0.731216 0.250000 0.171820
O O17 0.780498 0.750000 0.409108
O O18 0.108033 0.750000 0.274716
#
# Coordination Sequence:
#
# PCOD8069996 Si02
#       7
#     4   4   4   4   4   4   4
#     4   9  18  29  43  65  94 127 162 197 232 275
#     4   9  17  30  45  65  93 126 164 202 238 275
#     4  10  20  35  54  75  98 123 155 197 244 290
#     4  11  20  30  44  66  96 131 165 197 235 279
#     4  10  20  33  48  68  94 125 161 199 238 284
#     4   9  17  30  49  70  94 126 161 197 238 283
#     4  10  19  29  44  65  93 130 167 201 236 274
#
# _framework density 16.413554999999999
#
# number of rings (size 3 to 8) (size 9 to 14) (size 15 to 20)
#    0.000    2.286    1.429    2.143    0.000    2.857 
#    0.000    0.000    0.000    0.000    0.000    1.000 
#    0.000    0.000    0.000    0.000    0.000    0.000 
#
# Total GULP energy -347117.424479 kJ/mol
# GULP energy per Si atom -12397.050874 kJ/mol
# Density = 1.637620 g / cm^3
# Si number density = 16.413555 Si / 1000 Ang^3
#
#
#
# Elastic Constant Matrix: (Units=GPa)
#
#
# Indices 1 2 3 4 5 6 
#
# 1 65.7588 39.0459 50.5191 0.0000 6.0562 0.0000
# 2 39.0459 73.6657 49.3422 0.0000 4.5044 0.0000
# 3 50.5191 49.3422 92.1162 0.0000 8.6308 0.0000
# 4 0.0000 0.0000 0.0000 31.1049 0.0000 4.0970
# 5 6.0562 4.5044 8.6308 0.0000 19.8404 0.0000
# 6 0.0000 0.0000 0.0000 4.0970 0.0000 22.6102
#
#
#
# Elastic Compliance Matrix: (Units=1/GPa)
#
#
# Indices 1 2 3 4 5 6 
#
# 1 0.028641 -0.007272 -0.011621 0.000000 -0.002036 0.000000
# 2 -0.007272 0.023017 -0.008402 0.000000 0.000649 0.000000
# 3 -0.011621 -0.008402 0.022120 0.000000 -0.004168 0.000000
# 4 0.000000 0.000000 0.000000 0.032935 0.000000 -0.005968
# 5 -0.002036 0.000649 -0.004168 0.000000 0.052689 0.000000
# 6 0.000000 0.000000 0.000000 -0.005968 0.000000 0.045309
#
#
# Mechanical properties :
#
#
# Convention : Reuss Voigt Hill
#
# Bulk Modulus (GPa) = 52.11663 56.59503 54.35583
# Shear Modulus (GPa) = 18.81834 20.88667 19.85250
#
# Velocity S-wave (km/s) = 3.38969 3.57112 3.48159
# Velocity P-wave (km/s) = 6.86594 7.18048 7.02497
#
# Compressibility (1/GPa) = 0.01918773
#
# Stress axis : x y z
#
# Youngs Moduli (GPa) = 34.91552 43.44549 45.20761
#
# Poissons Ratio (x) = 0.31594 0.52537
# Poissons Ratio (y) = 0.25391 0.37983
# Poissons Ratio (z) = 0.40576 0.36502
#
# Static dielectric constant tensor:
#      x y z
#    x 3.178420 0.000000 0.145950 
#    y 0.000000 3.182520 0.000000 
#    z 0.145950 0.000000 2.861650 
# 
# 
# High freq. dielectric constant tensor:
#      x y z
#    x 1.612720 0.000000 0.023380 
#    y 0.000000 1.644820 0.000000 
#    z 0.023380 0.000000 1.604130 
# 
# From -- ./inp_files/51005.got.cif
#   From: 2010.06.25/outbox.cif.g09.slc.cpg/sg11_26_cif.got.tgz:51005.got - 2010.06.27 23:14:04.
