data_PCOD8069804
_publ_section_title
;
Structure prediction by ZEFSAII (Michael W. Deem and Ramdas Pophale) SiO2 
 PCOD8069804
Probable space group: P 21/M
;
_chemical_formula_sum "Si O2"
_cell_formula_units_Z 32
_cell_length_a 18.700561
_cell_length_b 9.301196
_cell_length_c 14.100466
_cell_angle_alpha 90.000000
_cell_angle_beta 135.864432
_cell_angle_gamma 90.000000
_cell_volume 1707.889440
_symmetry_space_group_name_H-M "P 21/M"
_symmetry_group_IT_number 11
_symmetry_cell_setting 'monoclinic'
loop_
_space_group_symop_operation_xyz
x,y,z
-x,1/2+y,-z
-x,-y,-z
x,1/2-y,z
loop_
_atom_site_type_symbol
_atom_site_label
_atom_site_fract_x
_atom_site_fract_y
_atom_site_fract_z
Si Si1 0.048580 0.082558 0.959840
Si Si2 0.804927 0.920073 0.205613
Si Si3 0.801298 0.580028 0.418040
Si Si4 0.589707 0.580426 0.314225
Si Si5 0.414316 0.084466 0.473910
Si Si6 0.387805 0.420717 0.100053
Si Si7 0.725749 0.915916 0.826162
Si Si8 0.013875 0.917419 0.308272
O O1 0.054143 0.250000 0.992058
O O2 0.162267 0.015626 0.053684
O O3 0.984919 0.057700 0.803415
O O4 0.000000 0.000000 0.000000
O O5 0.805224 0.750000 0.200027
O O6 0.804844 0.974602 0.313376
O O7 0.907270 0.977735 0.250784
O O8 0.701267 0.974734 0.056013
O O9 0.817379 0.750000 0.441116
O O10 0.692280 0.533334 0.357507
O O11 0.891717 0.505018 0.560921
O O12 0.571296 0.750000 0.288711
O O13 0.602136 0.529204 0.435146
O O14 0.493998 0.499355 0.174626
O O15 0.447205 0.250000 0.504790
O O16 0.309313 0.059767 0.315462
O O17 0.500000 0.000000 0.500000
O O18 0.405838 0.250000 0.111163
O O19 0.355782 0.476789 0.174954
O O20 0.736092 0.750000 0.863306
O O21 0.027406 0.750000 0.346465
#
# Coordination Sequence:
#
# PCOD8069804 Si02
#       8
#     4   4   4   4   4   4   4   4
#     4  10  21  36  55  81 111 142 178 221 270 322
#     4   9  18  36  61  84 105 138 186 232 272 323
#     4  10  22  38  56  80 112 148 181 221 280 334
#     4  10  22  36  50  78 116 144 173 223 277 322
#     4  10  19  32  51  74 100 135 175 213 255 310
#     4  10  18  34  60  81 101 140 188 224 263 322
#     4   9  17  32  54  75  99 138 181 215 258 319
#     4  10  20  37  59  83 110 141 184 232 269 316
#
# _framework density 18.736574999999998
#
# number of rings (size 3 to 8) (size 9 to 14) (size 15 to 20)
#    0.000    2.250    2.500    0.375    1.750    1.500 
#    0.000    2.500    0.000    0.000    0.000    0.000 
#    0.000    0.000    0.000    0.000    0.000    0.000 
#
# Total GULP energy -396758.388267 kJ/mol
# GULP energy per Si atom -12398.699633 kJ/mol
# Density = 1.869393 g / cm^3
# Si number density = 18.736575 Si / 1000 Ang^3
#
#
#
# Elastic Constant Matrix: (Units=GPa)
#
#
# Indices 1 2 3 4 5 6 
#
# 1 140.6138 39.4624 71.5530 0.0000 4.0767 0.0000
# 2 39.4624 35.2049 42.6089 0.0000 4.0531 0.0000
# 3 71.5530 42.6089 134.7964 0.0000 14.1806 0.0000
# 4 0.0000 0.0000 0.0000 30.4097 0.0000 4.1565
# 5 4.0767 4.0531 14.1806 0.0000 34.6831 0.0000
# 6 0.0000 0.0000 0.0000 4.1565 0.0000 25.2870
#
#
#
# Elastic Compliance Matrix: (Units=1/GPa)
#
#
# Indices 1 2 3 4 5 6 
#
# 1 0.011200 -0.008659 -0.003319 0.000000 0.001052 0.000000
# 2 -0.008659 0.052712 -0.012043 0.000000 -0.000218 0.000000
# 3 -0.003319 -0.012043 0.013373 0.000000 -0.003670 0.000000
# 4 0.000000 0.000000 0.000000 0.033640 0.000000 -0.005530
# 5 0.001052 -0.000218 -0.003670 0.000000 0.030235 0.000000
# 6 0.000000 0.000000 0.000000 -0.005530 0.000000 0.040455
#
#
# Mechanical properties :
#
#
# Convention : Reuss Voigt Hill
#
# Bulk Modulus (GPa) = 34.19517 68.65153 51.42335
# Shear Modulus (GPa) = 20.88520 28.54201 24.71360
#
# Velocity S-wave (km/s) = 3.34230 3.90722 3.63575
# Velocity P-wave (km/s) = 5.76062 7.55481 6.71788
#
# Compressibility (1/GPa) = 0.02924389
#
# Stress axis : x y z
#
# Youngs Moduli (GPa) = 89.28496 18.97112 74.77635
#
# Poissons Ratio (x) = 0.16427 0.24818
# Poissons Ratio (y) = 0.77310 0.90052
# Poissons Ratio (z) = 0.29633 0.22847
#
# Static dielectric constant tensor:
#      x y z
#    x 3.684180 0.000000 0.067960 
#    y 0.000000 2.996840 0.000000 
#    z 0.067960 0.000000 3.850480 
# 
# 
# High freq. dielectric constant tensor:
#      x y z
#    x 1.732700 0.000000 -0.000430 
#    y 0.000000 1.689940 0.000000 
#    z -0.000430 0.000000 1.742510 
# 
# From -- ./inp_files/54373.got.cif
#   From: 2010.06.25/outbox.cif.g09.slc.cpg/sg11_28_cif.got.tgz:54373.got - 2010.06.27 23:14:04.
