data_PCOD8069083
_publ_section_title
;
Structure prediction by ZEFSAII (Michael W. Deem and Ramdas Pophale) SiO2 
 PCOD8069083
Probable space group: P 21/M
;
_chemical_formula_sum "Si O2"
_cell_formula_units_Z 28
_cell_length_a 10.317210
_cell_length_b 8.721497
_cell_length_c 32.299731
_cell_angle_alpha 90.000000
_cell_angle_beta 146.786591
_cell_angle_gamma 90.000000
_cell_volume 1591.995234
_symmetry_space_group_name_H-M "P 21/M"
_symmetry_group_IT_number 11
_symmetry_cell_setting 'monoclinic'
loop_
_space_group_symop_operation_xyz
x,y,z
-x,1/2+y,-z
-x,-y,-z
x,1/2-y,z
loop_
_atom_site_type_symbol
_atom_site_label
_atom_site_fract_x
_atom_site_fract_y
_atom_site_fract_z
Si Si1 0.567217 0.926613 0.974838
Si Si2 0.756117 0.425523 0.187493
Si Si3 0.197551 0.921907 0.336523
Si Si4 0.506855 0.066898 0.807674
Si Si5 0.393030 0.566629 0.512871
Si Si6 0.008604 0.069051 0.047839
Si Si7 0.936685 0.921041 0.354469
O O1 0.641185 0.750000 0.000199
O O2 0.339679 0.941912 0.884522
O O3 0.500000 0.000000 0.000000
O O4 0.785716 0.018924 0.014725
O O5 0.750430 0.250000 0.201237
O O6 0.585992 0.524342 0.171523
O O7 0.026607 0.485729 0.259713
O O8 0.229950 0.750000 0.328290
O O9 0.079060 0.923086 0.349624
O O10 0.458861 0.000526 0.408668
O O11 0.528138 0.250000 0.811300
O O12 0.318872 0.000651 0.722777
O O13 0.757746 0.989467 0.865902
O O14 0.500000 0.500000 0.500000
O O15 0.408809 0.750000 0.516548
O O16 0.113583 0.511181 0.437345
O O17 0.016575 0.250000 0.045780
O O18 0.000000 0.000000 0.000000
O O19 0.877444 0.750000 0.352357
#
# Coordination Sequence:
#
# PCOD8069083 Si02
#       7
#     4   4   4   4   4   4   4
#     4  11  24  40  57  78 104 135 172 215 266 316
#     4  10  19  31  48  70  96 127 168 210 252 304
#     4   9  16  25  38  58  86 122 162 201 246 295
#     4  10  18  30  49  72  99 130 167 210 255 302
#     4   9  14  22  35  54  83 120 160 197 241 295
#     4  12  23  36  55  78 104 136 175 217 260 308
#     4   7  13  23  36  57  86 121 157 196 242 292
#
# _framework density 17.587992
#
# number of rings (size 3 to 8) (size 9 to 14) (size 15 to 20)
#    0.000    2.286    1.429    5.143    0.000    1.714 
#    0.000    2.143    0.000    0.000    0.000    0.000 
#    0.000    1.143    0.000    3.429    0.000    6.571 
#
# Total GULP energy -346883.703544 kJ/mol
# GULP energy per Si atom -12388.703698 kJ/mol
# Density = 1.754796 g / cm^3
# Si number density = 17.587992 Si / 1000 Ang^3
#
#
#
# Elastic Constant Matrix: (Units=GPa)
#
#
# Indices 1 2 3 4 5 6 
#
# 1 52.4628 27.1858 39.6536 0.0000 4.7157 0.0000
# 2 27.1858 117.8318 64.0692 0.0000 7.7946 0.0000
# 3 39.6536 64.0692 173.7390 0.0000 23.2591 0.0000
# 4 0.0000 0.0000 0.0000 31.4911 0.0000 3.4335
# 5 4.7157 7.7946 23.2591 0.0000 13.6703 0.0000
# 6 0.0000 0.0000 0.0000 3.4335 0.0000 18.1189
#
#
#
# Elastic Compliance Matrix: (Units=1/GPa)
#
#
# Indices 1 2 3 4 5 6 
#
# 1 0.023973 -0.003188 -0.004445 0.000000 0.001110 0.000000
# 2 -0.003188 0.011046 -0.003431 0.000000 0.000640 0.000000
# 3 -0.004445 -0.003431 0.009801 0.000000 -0.013186 0.000000
# 4 0.000000 0.000000 0.000000 0.032425 0.000000 -0.006144
# 5 0.001110 0.000640 -0.013186 0.000000 0.094838 0.000000
# 6 0.000000 0.000000 0.000000 -0.006144 0.000000 0.056355
#
#
# Mechanical properties :
#
#
# Convention : Reuss Voigt Hill
#
# Bulk Modulus (GPa) = 44.06884 67.31674 55.69279
# Shear Modulus (GPa) = 19.37021 26.86439 23.11730
#
# Velocity S-wave (km/s) = 3.32223 3.91247 3.62937
# Velocity P-wave (km/s) = 6.31086 7.66598 7.02119
#
# Compressibility (1/GPa) = 0.02269177
#
# Stress axis : x y z
#
# Youngs Moduli (GPa) = 41.71442 90.53431 102.03301
#
# Poissons Ratio (x) = 0.28859 0.45349
# Poissons Ratio (y) = 0.13297 0.35011
# Poissons Ratio (z) = 0.18540 0.31065
#
# Static dielectric constant tensor:
#      x y z
#    x 2.805700 0.000000 0.279770 
#    y 0.000000 3.408410 0.000000 
#    z 0.279770 0.000000 4.131650 
# 
# 
# High freq. dielectric constant tensor:
#      x y z
#    x 1.593860 0.000000 0.018390 
#    y 0.000000 1.686100 0.000000 
#    z 0.018390 0.000000 1.714200 
# 
# From -- ./inp_files/72767.got.cif
#   From: 2010.06.25/outbox.cif.g09.slc.cpg/sg11_37_cif.got.tgz:72767.got - 2010.06.27 23:14:04.
