data_PCOD8069412
_publ_section_title
;
Structure prediction by ZEFSAII (Michael W. Deem and Ramdas Pophale) SiO2 
 PCOD8069412
Probable space group: P 21/M
;
_chemical_formula_sum "Si O2"
_cell_formula_units_Z 28
_cell_length_a 20.307750
_cell_length_b 8.728699
_cell_length_c 14.680330
_cell_angle_alpha 90.000000
_cell_angle_beta 32.499064
_cell_angle_gamma 90.000000
_cell_volume 1398.146022
_symmetry_space_group_name_H-M "P 21/M"
_symmetry_group_IT_number 11
_symmetry_cell_setting 'monoclinic'
loop_
_space_group_symop_operation_xyz
x,y,z
-x,1/2+y,-z
-x,-y,-z
x,1/2-y,z
loop_
_atom_site_type_symbol
_atom_site_label
_atom_site_fract_x
_atom_site_fract_y
_atom_site_fract_z
Si Si1 0.709833 0.430667 0.907546
Si Si2 0.435037 0.431086 0.249890
Si Si3 0.241460 0.929844 0.348145
Si Si4 0.277212 0.570762 0.587552
Si Si5 0.365608 0.430648 0.663510
Si Si6 0.054648 0.926736 0.717996
Si Si7 0.199280 0.929908 0.006968
O O1 0.702310 0.250000 0.917830
O O2 0.775157 0.483181 0.737310
O O3 0.571595 0.493990 0.073388
O O4 0.788041 0.487194 0.903079
O O5 0.430056 0.250000 0.270709
O O6 0.354863 0.476711 0.256413
O O7 0.387679 0.511822 0.396361
O O8 0.272381 0.750000 0.321620
O O9 0.117818 0.968036 0.547667
O O10 0.294985 0.750000 0.582863
O O11 0.279977 0.485725 0.680568
O O12 0.147637 0.534358 0.691159
O O13 0.500000 0.500000 0.500000
O O14 0.376816 0.250000 0.648869
O O15 0.303118 0.483562 0.829504
O O16 0.014924 0.750000 0.766957
O O17 0.935863 0.030356 0.870688
O O18 0.222097 0.750000 0.970002
#
# Coordination Sequence:
#
# PCOD8069412 Si02
#       7
#     4   4   4   4   4   4   4
#     4   9  19  34  53  79 112 151 190 235 288 338
#     4  10  18  31  54  85 117 146 186 238 291 345
#     4   9  18  35  56  78 111 152 192 235 285 340
#     4  10  21  39  62  85 114 153 192 233 286 341
#     4  12  25  42  64  90 119 148 184 229 281 340
#     4   9  20  38  58  82 113 149 191 238 287 338
#     4  11  23  39  59  83 114 152 194 238 285 339
#
# _framework density 20.026520000000001
#
# number of rings (size 3 to 8) (size 9 to 14) (size 15 to 20)
#    0.000    2.000    0.000    4.714    0.000    5.143 
#    0.000    4.286    0.000    0.000    0.000    0.000 
#    0.000    0.000    0.000    0.000    0.000    0.000 
#
# Total GULP energy -347261.351541 kJ/mol
# GULP energy per Si atom -12402.191126 kJ/mol
# Density = 1.998094 g / cm^3
# Si number density = 20.026520 Si / 1000 Ang^3
#
#
#
# Elastic Constant Matrix: (Units=GPa)
#
#
# Indices 1 2 3 4 5 6 
#
# 1 112.1542 40.6169 48.0251 0.0000 10.9849 0.0000
# 2 40.6169 93.2499 37.0696 0.0000 -1.4482 0.0000
# 3 48.0251 37.0696 91.5184 0.0000 -7.2195 0.0000
# 4 0.0000 0.0000 0.0000 32.7273 0.0000 -1.0677
# 5 10.9849 -1.4482 -7.2195 0.0000 32.3998 0.0000
# 6 0.0000 0.0000 0.0000 -1.0677 0.0000 29.9188
#
#
#
# Elastic Compliance Matrix: (Units=1/GPa)
#
#
# Indices 1 2 3 4 5 6 
#
# 1 0.013381 -0.003506 -0.006079 0.000000 -0.006048 0.000000
# 2 -0.003506 0.013712 -0.003636 0.000000 0.000991 0.000000
# 3 -0.006079 -0.003636 0.016021 0.000000 0.005468 0.000000
# 4 0.000000 0.000000 0.000000 0.030591 0.000000 0.001092
# 5 -0.006048 0.000991 0.005468 0.000000 0.034178 0.000000
# 6 0.000000 0.000000 0.000000 0.001092 0.000000 0.033463
#
#
# Mechanical properties :
#
#
# Convention : Reuss Voigt Hill
#
# Bulk Modulus (GPa) = 59.98004 60.92729 60.45367
# Shear Modulus (GPa) = 28.84416 30.42323 29.63370
#
# Velocity S-wave (km/s) = 3.79924 3.90185 3.85089
# Velocity P-wave (km/s) = 7.01862 7.12661 7.07282
#
# Compressibility (1/GPa) = 0.01667221
#
# Stress axis : x y z
#
# Youngs Moduli (GPa) = 74.73034 72.93016 62.41814
#
# Poissons Ratio (x) = 0.25568 0.37945
# Poissons Ratio (y) = 0.26199 0.22695
# Poissons Ratio (z) = 0.45429 0.26518
#
# Static dielectric constant tensor:
#      x y z
#    x 3.917880 0.000000 0.199080 
#    y 0.000000 3.509130 0.000000 
#    z 0.199080 0.000000 3.654470 
# 
# 
# High freq. dielectric constant tensor:
#      x y z
#    x 1.788880 0.000000 0.007310 
#    y 0.000000 1.772490 0.000000 
#    z 0.007310 0.000000 1.781840 
# 
# From -- ./inp_files/54501.got.cif
#   From: 2010.06.25/outbox.cif.g09.slc.cpg/sg11_28_cif.got.tgz:54501.got - 2010.06.27 23:14:04.
