data_PCOD8069626
_publ_section_title
;
Structure prediction by ZEFSAII (Michael W. Deem and Ramdas Pophale) SiO2 
 PCOD8069626
Probable space group: P 21/M
;
_chemical_formula_sum "Si O2"
_cell_formula_units_Z 28
_cell_length_a 10.026467
_cell_length_b 14.045369
_cell_length_c 17.431673
_cell_angle_alpha 90.000000
_cell_angle_beta 42.257224
_cell_angle_gamma 90.000000
_cell_volume 1650.770477
_symmetry_space_group_name_H-M "P 21/M"
_symmetry_group_IT_number 11
_symmetry_cell_setting 'monoclinic'
loop_
_space_group_symop_operation_xyz
x,y,z
-x,1/2+y,-z
-x,-y,-z
x,1/2-y,z
loop_
_atom_site_type_symbol
_atom_site_label
_atom_site_fract_x
_atom_site_fract_y
_atom_site_fract_z
Si Si1 0.239839 0.142114 0.773156
Si Si2 0.816678 0.358625 0.899251
Si Si3 0.745323 0.992016 0.481431
Si Si4 0.195185 0.974968 0.248853
Si Si5 0.549150 0.859061 0.831478
Si Si6 0.550050 0.481032 0.722796
Si Si7 0.496452 0.142232 0.512482
O O1 0.247100 0.250000 0.801439
O O2 0.349633 0.075120 0.787681
O O3 0.342053 0.134768 0.647391
O O4 0.014642 0.105897 0.858698
O O5 0.848737 0.250000 0.858452
O O6 0.771401 0.421491 0.844608
O O7 0.636033 0.368239 0.033676
O O8 0.704179 0.016370 0.587096
O O9 0.692677 0.082368 0.449937
O O10 0.608245 0.901961 0.517604
O O11 0.972099 0.966251 0.372818
O O12 0.336634 0.928406 0.254614
O O13 0.261928 0.086079 0.210947
O O14 0.607191 0.750000 0.790841
O O15 0.494438 0.911359 0.774076
O O16 0.560125 0.250000 0.467543
#
# Coordination Sequence:
#
# PCOD8069626 Si02
#       7
#     4   4   4   4   4   4   4
#     4   9  17  33  54  79 104 132 172 220 263 300
#     4  10  19  35  59  78  99 136 182 219 255 306
#     4  10  18  33  53  78 108 135 172 213 257 316
#     4  10  20  34  56  77 104 139 174 213 264 302
#     4   9  21  37  52  74 107 143 176 212 259 312
#     4   9  21  33  53  77 109 139 163 215 262 316
#     4   9  18  31  51  78 105 137 174 213 255 303
#
# _framework density 16.961776
#
# number of rings (size 3 to 8) (size 9 to 14) (size 15 to 20)
#    0.857    1.714    1.429    0.857    0.000    2.286 
#    0.000    0.000    0.000    0.000    0.000    0.000 
#    0.000    0.000    0.000    0.000    0.000    0.000 
#
# Total GULP energy -347043.545324 kJ/mol
# GULP energy per Si atom -12394.412333 kJ/mol
# Density = 1.692317 g / cm^3
# Si number density = 16.961776 Si / 1000 Ang^3
#
#
#
# Elastic Constant Matrix: (Units=GPa)
#
#
# Indices 1 2 3 4 5 6 
#
# 1 93.7823 38.5313 17.4516 0.0000 -6.6799 0.0000
# 2 38.5313 86.7312 1.2004 0.0000 1.1800 0.0000
# 3 17.4516 1.2004 33.3581 0.0000 0.1362 0.0000
# 4 0.0000 0.0000 0.0000 22.9843 0.0000 1.1665
# 5 -6.6799 1.1800 0.1362 0.0000 8.7841 0.0000
# 6 0.0000 0.0000 0.0000 1.1665 0.0000 29.9807
#
#
#
# Elastic Compliance Matrix: (Units=1/GPa)
#
#
# Indices 1 2 3 4 5 6 
#
# 1 0.016113 -0.007226 -0.008224 0.000000 0.013352 0.000000
# 2 -0.007226 0.014797 0.003279 0.000000 -0.007534 0.000000
# 3 -0.008224 0.003279 0.034192 0.000000 -0.007225 0.000000
# 4 0.000000 0.000000 0.000000 0.043594 0.000000 -0.001696
# 5 0.013352 -0.007534 -0.007225 0.000000 0.125119 0.000000
# 6 0.000000 0.000000 0.000000 -0.001696 0.000000 0.033421
#
#
# Mechanical properties :
#
#
# Convention : Reuss Voigt Hill
#
# Bulk Modulus (GPa) = 24.53453 36.47090 30.50272
# Shear Modulus (GPa) = 16.38445 22.79569 19.59007
#
# Velocity S-wave (km/s) = 3.11137 3.66996 3.40215
# Velocity P-wave (km/s) = 5.23483 6.28543 5.78404
#
# Compressibility (1/GPa) = 0.04075888
#
# Stress axis : x y z
#
# Youngs Moduli (GPa) = 62.05978 67.57935 29.24668
#
# Poissons Ratio (x) = 0.48836 0.24054
# Poissons Ratio (y) = 0.44847 -0.09589
# Poissons Ratio (z) = 0.51040 -0.22158
#
# Static dielectric constant tensor:
#      x y z
#    x 3.143020 0.000000 -0.054750 
#    y 0.000000 3.216800 0.000000 
#    z -0.054750 0.000000 3.003210 
# 
# 
# High freq. dielectric constant tensor:
#      x y z
#    x 1.652220 0.000000 -0.005070 
#    y 0.000000 1.646460 0.000000 
#    z -0.005070 0.000000 1.646790 
# 
# From -- ./inp_files/58108.got.cif
#   From: 2010.06.25/outbox.cif.g09.slc.cpg/sg11_30_cif.got.tgz:58108.got - 2010.06.27 23:14:04.
