data_PCOD8069147
_publ_section_title
;
Structure prediction by ZEFSAII (Michael W. Deem and Ramdas Pophale) SiO2 
 PCOD8069147
Probable space group: P 21/M
;
_chemical_formula_sum "Si O2"
_cell_formula_units_Z 32
_cell_length_a 20.160276
_cell_length_b 9.045701
_cell_length_c 24.940934
_cell_angle_alpha 90.000000
_cell_angle_beta 22.924851
_cell_angle_gamma 90.000000
_cell_volume 1771.678990
_symmetry_space_group_name_H-M "P 21/M"
_symmetry_group_IT_number 11
_symmetry_cell_setting 'monoclinic'
loop_
_space_group_symop_operation_xyz
x,y,z
-x,1/2+y,-z
-x,-y,-z
x,1/2-y,z
loop_
_atom_site_type_symbol
_atom_site_label
_atom_site_fract_x
_atom_site_fract_y
_atom_site_fract_z
Si Si1 0.563564 0.924067 0.080589
Si Si2 0.002088 0.080050 0.141647
Si Si3 0.135509 0.575768 0.210134
Si Si4 0.508375 0.078378 0.343416
Si Si5 0.851672 0.420222 0.141742
Si Si6 0.161262 0.576445 0.624084
Si Si7 0.643015 0.419170 0.861700
Si Si8 0.643402 0.421327 0.125681
O O1 0.601013 0.750000 0.057127
O O2 0.726190 0.998890 0.931267
O O3 0.386005 0.956916 0.179845
O O4 0.539578 0.991898 0.157137
O O5 0.063008 0.250000 0.098364
O O6 0.869874 0.053707 0.191703
O O7 0.907387 0.033840 0.266259
O O8 0.165067 0.978611 0.011434
O O9 0.133061 0.750000 0.199431
O O10 0.177178 0.544420 0.242841
O O11 0.951391 0.506430 0.336743
O O12 0.468312 0.250000 0.384721
O O13 0.668261 0.021003 0.259328
O O14 0.543773 0.050979 0.254638
O O15 0.352855 0.978343 0.477369
O O16 0.866531 0.250000 0.114491
O O17 0.000000 0.500000 0.000000
O O18 0.153434 0.750000 0.619031
O O19 0.600750 0.250000 0.902007
O O20 0.500000 0.500000 0.000000
O O21 0.650467 0.250000 0.105217
#
# Coordination Sequence:
#
# PCOD8069147 Si02
#       8
#     4   4   4   4   4   4   4   4
#     4  10  18  30  50  79 112 142 178 225 270 318
#     4  10  21  36  57  82 110 141 179 226 273 323
#     4  10  18  31  52  77 108 146 182 221 269 319
#     4  10  23  40  56  79 110 144 184 227 272 327
#     4  10  20  37  59  82 109 142 179 224 275 323
#     4  11  23  37  54  81 112 146 185 225 273 327
#     4   8  16  28  45  73 107 141 177 218 267 317
#     4  11  21  34  55  82 109 142 185 226 271 323
#
# _framework density 18.061962999999999
#
# number of rings (size 3 to 8) (size 9 to 14) (size 15 to 20)
#    0.000    2.000    2.500    1.500    0.000    3.500 
#    0.000    0.000    0.000    0.750    0.000    0.000 
#    0.000    0.000    0.000    0.000    0.000    0.000 
#
# Total GULP energy -396657.278592 kJ/mol
# GULP energy per Si atom -12395.539956 kJ/mol
# Density = 1.802085 g / cm^3
# Si number density = 18.061963 Si / 1000 Ang^3
#
#
#
# Elastic Constant Matrix: (Units=GPa)
#
#
# Indices 1 2 3 4 5 6 
#
# 1 119.8826 37.8469 30.8634 0.0000 -25.8400 0.0000
# 2 37.8469 74.3043 33.0559 0.0000 -7.2974 0.0000
# 3 30.8634 33.0559 73.4291 0.0000 -11.8887 0.0000
# 4 0.0000 0.0000 0.0000 28.5029 0.0000 -2.3923
# 5 -25.8400 -7.2974 -11.8887 0.0000 24.1354 0.0000
# 6 0.0000 0.0000 0.0000 -2.3923 0.0000 27.0644
#
#
#
# Elastic Compliance Matrix: (Units=1/GPa)
#
#
# Indices 1 2 3 4 5 6 
#
# 1 0.012644 -0.004722 -0.001335 0.000000 0.011452 0.000000
# 2 -0.004722 0.018640 -0.006860 0.000000 -0.002798 0.000000
# 3 -0.001335 -0.006860 0.018148 0.000000 0.005436 0.000000
# 4 0.000000 0.000000 0.000000 0.035346 0.000000 0.003124
# 5 0.011452 -0.002798 0.005436 0.000000 0.055526 0.000000
# 6 0.000000 0.000000 0.000000 0.003124 0.000000 0.037225
#
#
# Mechanical properties :
#
#
# Convention : Reuss Voigt Hill
#
# Bulk Modulus (GPa) = 42.37363 52.34984 47.36174
# Shear Modulus (GPa) = 23.67103 26.99718 25.33410
#
# Velocity S-wave (km/s) = 3.62407 3.87033 3.74922
# Velocity P-wave (km/s) = 6.40492 7.00135 6.70977
#
# Compressibility (1/GPa) = 0.02359958
#
# Stress axis : x y z
#
# Youngs Moduli (GPa) = 79.08721 53.64771 55.10297
#
# Poissons Ratio (x) = 0.25332 0.07355
# Poissons Ratio (y) = 0.37344 0.37799
# Poissons Ratio (z) = 0.10556 0.36801
#
# Static dielectric constant tensor:
#      x y z
#    x 4.089720 0.000000 -0.272370 
#    y 0.000000 3.411550 0.000000 
#    z -0.272370 0.000000 3.018430 
# 
# 
# High freq. dielectric constant tensor:
#      x y z
#    x 1.723190 0.000000 -0.017290 
#    y 0.000000 1.708660 0.000000 
#    z -0.017290 0.000000 1.659840 
# 
# From -- ./inp_files/67095.got.cif
#   From: 2010.06.25/outbox.cif.g09.slc.cpg/sg11_34_cif.got.tgz:67095.got - 2010.06.27 23:14:04.
