data_PCOD8069655
_publ_section_title
;
Structure prediction by ZEFSAII (Michael W. Deem and Ramdas Pophale) SiO2 
 PCOD8069655
Probable space group: P 21/M
;
_chemical_formula_sum "Si O2"
_cell_formula_units_Z 28
_cell_length_a 14.096340
_cell_length_b 9.930347
_cell_length_c 22.212395
_cell_angle_alpha 90.000000
_cell_angle_beta 31.083708
_cell_angle_gamma 90.000000
_cell_volume 1605.313095
_symmetry_space_group_name_H-M "P 21/M"
_symmetry_group_IT_number 11
_symmetry_cell_setting 'monoclinic'
loop_
_space_group_symop_operation_xyz
x,y,z
-x,1/2+y,-z
-x,-y,-z
x,1/2-y,z
loop_
_atom_site_type_symbol
_atom_site_label
_atom_site_fract_x
_atom_site_fract_y
_atom_site_fract_z
Si Si1 0.262043 0.902129 0.667288
Si Si2 0.533457 0.898598 0.104154
Si Si3 0.335834 0.100884 0.281646
Si Si4 0.231239 0.100407 0.471603
Si Si5 0.548749 0.093589 0.563127
Si Si6 0.153814 0.525805 0.275992
Si Si7 0.864316 0.905871 0.844351
O O1 0.304101 0.750000 0.667735
O O2 0.329638 0.916052 0.562366
O O3 0.045159 0.931839 0.786181
O O4 0.357564 0.013682 0.657453
O O5 0.593709 0.750000 0.093714
O O6 0.340279 0.885182 0.172805
O O7 0.504185 0.996618 0.177646
O O8 0.689618 0.962202 0.976169
O O9 0.420106 0.250000 0.237352
O O10 0.236693 0.065586 0.397961
O O11 0.187624 0.092013 0.307440
O O12 0.315875 0.250000 0.438121
O O13 0.021420 0.109650 0.607184
O O14 0.341706 0.981586 0.443958
O O15 0.510637 0.250000 0.601207
O O16 0.113218 0.475504 0.231611
O O17 0.834346 0.750000 0.847074
#
# Coordination Sequence:
#
# PCOD8069655 Si02
#       7
#     4   4   4   4   4   4   4
#     4   9  18  34  53  76 105 135 167 210 264 318
#     4   9  20  34  51  76 107 141 179 217 252 301
#     4   9  21  35  51  73 106 145 180 215 256 303
#     4  11  21  35  53  77 107 142 178 215 261 308
#     4  10  20  34  53  79 104 133 170 214 267 316
#     4  10  19  33  51  77 107 142 175 214 251 306
#     4  10  18  33  55  79 107 140 175 212 261 312
#
# _framework density 17.442080000000001
#
# number of rings (size 3 to 8) (size 9 to 14) (size 15 to 20)
#    0.857    1.429    1.429    2.143    0.000    1.714 
#    0.000    1.429    0.000    0.857    0.000    0.000 
#    0.000    0.000    0.000    0.000    0.000    0.000 
#
# Total GULP energy -346939.645993 kJ/mol
# GULP energy per Si atom -12390.701643 kJ/mol
# Density = 1.740238 g / cm^3
# Si number density = 17.442080 Si / 1000 Ang^3
#
#
#
# Elastic Constant Matrix: (Units=GPa)
#
#
# Indices 1 2 3 4 5 6 
#
# 1 56.6637 42.0917 47.3806 0.0000 -3.7639 0.0000
# 2 42.0917 106.4203 45.8174 0.0000 1.0342 0.0000
# 3 47.3806 45.8174 113.5529 0.0000 6.5004 0.0000
# 4 0.0000 0.0000 0.0000 14.2454 0.0000 -3.6743
# 5 -3.7639 1.0342 6.5004 0.0000 21.0152 0.0000
# 6 0.0000 0.0000 0.0000 -3.6743 0.0000 27.6380
#
#
#
# Elastic Compliance Matrix: (Units=1/GPa)
#
#
# Indices 1 2 3 4 5 6 
#
# 1 0.034353 -0.008793 -0.011364 0.000000 0.010101 0.000000
# 2 -0.008793 0.013639 -0.001736 0.000000 -0.001709 0.000000
# 3 -0.011364 -0.001736 0.014619 0.000000 -0.006472 0.000000
# 4 0.000000 0.000000 0.000000 0.072690 0.000000 0.009664
# 5 0.010101 -0.001709 -0.006472 0.000000 0.051480 0.000000
# 6 0.000000 0.000000 0.000000 0.009664 0.000000 0.037467
#
#
# Mechanical properties :
#
#
# Convention : Reuss Voigt Hill
#
# Bulk Modulus (GPa) = 53.12384 60.80181 56.96283
# Shear Modulus (GPa) = 18.22754 22.00289 20.11521
#
# Velocity S-wave (km/s) = 3.23620 3.55559 3.39965
# Velocity P-wave (km/s) = 6.66989 7.19661 6.93825
#
# Compressibility (1/GPa) = 0.01882394
#
# Stress axis : x y z
#
# Youngs Moduli (GPa) = 29.10936 73.32108 68.40197
#
# Poissons Ratio (x) = 0.64470 0.77735
# Poissons Ratio (y) = 0.25595 0.11877
# Poissons Ratio (z) = 0.33081 0.12731
#
# Static dielectric constant tensor:
#      x y z
#    x 2.975640 0.000000 -0.011750 
#    y 0.000000 3.242580 0.000000 
#    z -0.011750 0.000000 3.243450 
# 
# 
# High freq. dielectric constant tensor:
#      x y z
#    x 1.648290 0.000000 0.000270 
#    y 0.000000 1.675150 0.000000 
#    z 0.000270 0.000000 1.666290 
# 
# From -- ./inp_files/64663.got.cif
#   From: 2010.06.25/outbox.cif.g09.slc.cpg/sg11_33_cif.got.tgz:64663.got - 2010.06.27 23:14:04.
