data_PCOD8069405
_publ_section_title
;
Structure prediction by ZEFSAII (Michael W. Deem and Ramdas Pophale) SiO2 
 PCOD8069405
Probable space group: P 21/M
;
_chemical_formula_sum "Si O2"
_cell_formula_units_Z 32
_cell_length_a 21.343272
_cell_length_b 8.648086
_cell_length_c 11.968966
_cell_angle_alpha 90.000000
_cell_angle_beta 51.947484
_cell_angle_gamma 90.000000
_cell_volume 1739.636377
_symmetry_space_group_name_H-M "P 21/M"
_symmetry_group_IT_number 11
_symmetry_cell_setting 'monoclinic'
loop_
_space_group_symop_operation_xyz
x,y,z
-x,1/2+y,-z
-x,-y,-z
x,1/2-y,z
loop_
_atom_site_type_symbol
_atom_site_label
_atom_site_fract_x
_atom_site_fract_y
_atom_site_fract_z
Si Si1 0.172991 0.069322 0.421859
Si Si2 0.710362 0.431845 0.530566
Si Si3 0.155801 0.567344 0.778272
Si Si4 0.122585 0.929786 0.060079
Si Si5 0.439381 0.070247 0.212956
Si Si6 0.957502 0.068054 0.293171
Si Si7 0.234376 0.927950 0.138251
Si Si8 0.601309 0.929796 0.994987
O O1 0.186501 0.250000 0.428145
O O2 0.239362 0.973647 0.415198
O O3 0.084974 0.018859 0.557100
O O4 0.184011 0.031745 0.279568
O O5 0.694613 0.250000 0.547360
O O6 0.759952 0.487446 0.367006
O O7 0.625836 0.518827 0.624213
O O8 0.156848 0.750000 0.784533
O O9 0.083660 0.513050 0.777517
O O10 0.143835 0.498566 0.915112
O O11 0.098885 0.750000 0.077404
O O12 0.198641 0.955489 0.054674
O O13 0.049186 0.022930 0.192067
O O14 0.458083 0.250000 0.203708
O O15 0.520634 0.978046 0.146988
O O16 0.405627 0.027910 0.127946
O O17 0.946999 0.250000 0.322695
O O18 0.226904 0.750000 0.182498
O O19 0.326324 0.975682 0.031791
O O20 0.617670 0.750000 0.994887
#
# Coordination Sequence:
#
# PCOD8069405 Si02
#       8
#     4   4   4   4   4   4   4   4
#     4  11  21  34  52  75 105 140 174 213 261 312
#     4  10  18  31  54  81 109 137 169 214 262 309
#     4   8  17  34  55  79 105 134 172 217 263 307
#     4  10  21  37  55  76 103 139 178 214 259 312
#     4  10  19  31  51  80 110 139 171 210 257 307
#     4  10  20  35  56  80 104 132 171 222 269 309
#     4  11  22  35  53  75 106 143 175 212 256 311
#     4  10  20  33  51  76 108 142 172 211 256 305
#
# _framework density 18.394649000000001
#
# number of rings (size 3 to 8) (size 9 to 14) (size 15 to 20)
#    0.000    2.000    1.250    4.125    0.000    2.500 
#    0.000    3.125    0.000    0.750    0.000    0.000 
#    0.000    0.000    0.000    0.000    0.000    0.000 
#
# Total GULP energy -396875.660558 kJ/mol
# GULP energy per Si atom -12402.364392 kJ/mol
# Density = 1.835278 g / cm^3
# Si number density = 18.394649 Si / 1000 Ang^3
#
#
#
# Elastic Constant Matrix: (Units=GPa)
#
#
# Indices 1 2 3 4 5 6 
#
# 1 80.2804 22.9241 42.3920 0.0000 -14.2006 0.0000
# 2 22.9241 47.8872 18.4958 0.0000 -4.0767 0.0000
# 3 42.3920 18.4958 87.5872 0.0000 -22.9818 0.0000
# 4 0.0000 0.0000 0.0000 27.9286 0.0000 -9.1339
# 5 -14.2006 -4.0767 -22.9818 0.0000 27.3490 0.0000
# 6 0.0000 0.0000 0.0000 -9.1339 0.0000 22.1319
#
#
#
# Elastic Compliance Matrix: (Units=1/GPa)
#
#
# Indices 1 2 3 4 5 6 
#
# 1 0.018246 -0.005847 -0.006850 0.000000 0.002847 0.000000
# 2 -0.005847 0.024625 -0.002827 0.000000 -0.001741 0.000000
# 3 -0.006850 -0.002827 0.018326 0.000000 0.011422 0.000000
# 4 0.000000 0.000000 0.000000 0.041393 0.000000 0.017083
# 5 0.002847 -0.001741 0.011422 0.000000 0.047381 0.000000
# 6 0.000000 0.000000 0.000000 0.017083 0.000000 0.052234
#
#
# Mechanical properties :
#
#
# Convention : Reuss Voigt Hill
#
# Bulk Modulus (GPa) = 33.16638 42.59761 37.88199
# Shear Modulus (GPa) = 20.55055 24.27808 22.41431
#
# Velocity S-wave (km/s) = 3.34608 3.63691 3.49452
# Velocity P-wave (km/s) = 5.74439 6.39093 6.07626
#
# Compressibility (1/GPa) = 0.03015102
#
# Stress axis : x y z
#
# Youngs Moduli (GPa) = 54.80538 40.60913 54.56627
#
# Poissons Ratio (x) = 0.23743 0.37375
# Poissons Ratio (y) = 0.32044 0.15426
# Poissons Ratio (z) = 0.37539 0.11480
#
# Static dielectric constant tensor:
#      x y z
#    x 3.184500 0.000000 -0.071710 
#    y 0.000000 3.312590 0.000000 
#    z -0.071710 0.000000 3.617470 
# 
# 
# High freq. dielectric constant tensor:
#      x y z
#    x 1.685930 0.000000 -0.019580 
#    y 0.000000 1.713450 0.000000 
#    z -0.019580 0.000000 1.715060 
# 
# From -- ./inp_files/42797.got.cif
#   From: 2010.06.25/outbox.cif.g09.slc.cpg/sg11_22_cif.got.tgz:42797.got - 2010.06.27 23:14:04.
