data_PCOD8069705
_publ_section_title
;
Structure prediction by ZEFSAII (Michael W. Deem and Ramdas Pophale) SiO2 
 PCOD8069705
Probable space group: P 21/M
;
_chemical_formula_sum "Si O2"
_cell_formula_units_Z 28
_cell_length_a 13.725231
_cell_length_b 18.794676
_cell_length_c 8.572657
_cell_angle_alpha 90.000000
_cell_angle_beta 39.472901
_cell_angle_gamma 90.000000
_cell_volume 1405.824734
_symmetry_space_group_name_H-M "P 21/M"
_symmetry_group_IT_number 11
_symmetry_cell_setting 'monoclinic'
loop_
_space_group_symop_operation_xyz
x,y,z
-x,1/2+y,-z
-x,-y,-z
x,1/2-y,z
loop_
_atom_site_type_symbol
_atom_site_label
_atom_site_fract_x
_atom_site_fract_y
_atom_site_fract_z
Si Si1 0.542037 0.613199 0.875793
Si Si2 0.855333 0.044047 0.124215
Si Si3 0.381860 0.536943 0.316741
Si Si4 0.685083 0.567097 0.127836
Si Si5 0.959162 0.831128 0.235703
Si Si6 0.638789 0.830500 0.459105
Si Si7 0.804428 0.669977 0.741754
O O1 0.645640 0.542863 0.710580
O O2 0.509854 0.652785 0.751120
O O3 0.637837 0.666408 0.866784
O O4 0.387255 0.590447 0.160095
O O5 0.750377 0.060825 0.403322
O O6 0.765275 0.000794 0.104060
O O7 0.904615 0.119321 0.992535
O O8 0.000000 0.000000 0.000000
O O9 0.549560 0.538371 0.188067
O O10 0.609881 0.617316 0.351574
O O11 0.810895 0.612916 0.874709
O O12 0.011540 0.750000 0.146548
O O13 0.804878 0.845886 0.328547
O O14 0.931952 0.846798 0.452925
O O15 0.621280 0.750000 0.421985
O O16 0.826259 0.750000 0.781379
#
# Coordination Sequence:
#
# PCOD8069705 Si02
#       7
#     4   4   4   4   4   4   4
#     4   9  17  34  55  80 107 150 181 224 292 327
#     4  12  21  36  58  85 113 150 196 226 281 353
#     4  10  21  35  57  82 117 140 185 244 282 328
#     4  11  21  34  58  89 111 143 189 247 290 318
#     4   9  19  36  55  76 112 155 187 227 282 341
#     4  10  18  33  58  84 108 144 196 235 275 339
#     4   9  18  35  57  84 113 146 193 237 277 334
#
# _framework density 19.917134000000001
#
# number of rings (size 3 to 8) (size 9 to 14) (size 15 to 20)
#    0.000    2.000    2.857    3.000    0.000    0.571 
#    0.000    4.286    0.000    0.000    0.000    0.000 
#    0.000    0.000    0.000    0.000    0.000    0.000 
#
# Total GULP energy -347114.409333 kJ/mol
# GULP energy per Si atom -12396.943190 kJ/mol
# Density = 1.987180 g / cm^3
# Si number density = 19.917134 Si / 1000 Ang^3
#
#
#
# Elastic Constant Matrix: (Units=GPa)
#
#
# Indices 1 2 3 4 5 6 
#
# 1 41.9627 17.4643 18.2972 0.0000 9.7727 0.0000
# 2 17.4643 101.0951 56.8473 0.0000 4.7701 0.0000
# 3 18.2972 56.8473 139.9996 0.0000 15.4978 0.0000
# 4 0.0000 0.0000 0.0000 39.2263 0.0000 3.0872
# 5 9.7727 4.7701 15.4978 0.0000 27.1670 0.0000
# 6 0.0000 0.0000 0.0000 3.0872 0.0000 16.0579
#
#
#
# Elastic Compliance Matrix: (Units=1/GPa)
#
#
# Indices 1 2 3 4 5 6 
#
# 1 0.027934 -0.003763 -0.001156 0.000000 -0.008728 0.000000
# 2 -0.003763 0.013341 -0.005140 0.000000 0.001944 0.000000
# 3 -0.001156 -0.005140 0.009858 0.000000 -0.004305 0.000000
# 4 0.000000 0.000000 0.000000 0.025885 0.000000 -0.004977
# 5 -0.008728 0.001944 -0.004305 0.000000 0.042064 0.000000
# 6 0.000000 0.000000 0.000000 -0.004977 0.000000 0.063232
#
#
# Mechanical properties :
#
#
# Convention : Reuss Voigt Hill
#
# Bulk Modulus (GPa) = 32.24573 52.03054 42.13814
# Shear Modulus (GPa) = 23.49955 29.18681 26.34318
#
# Velocity S-wave (km/s) = 3.43864 3.83222 3.64076
# Velocity P-wave (km/s) = 5.65604 6.76472 6.23507
#
# Compressibility (1/GPa) = 0.03101185
#
# Stress axis : x y z
#
# Youngs Moduli (GPa) = 35.79873 74.95931 101.44248
#
# Poissons Ratio (x) = 0.28211 0.11731
# Poissons Ratio (y) = 0.13473 0.52144
# Poissons Ratio (z) = 0.04140 0.38531
#
# Static dielectric constant tensor:
#      x y z
#    x 3.349680 0.000000 0.387570 
#    y 0.000000 3.728810 0.000000 
#    z 0.387570 0.000000 3.814820 
# 
# 
# High freq. dielectric constant tensor:
#      x y z
#    x 1.740180 0.000000 0.037670 
#    y 0.000000 1.785100 0.000000 
#    z 0.037670 0.000000 1.775430 
# 
# From -- ./inp_files/22698.got.cif
#   From: 2010.06.25/outbox.cif.g09.slc.cpg/sg11_12_cif.got.tgz:22698.got - 2010.06.27 23:14:04.
