data_PCOD8069684
_publ_section_title
;
Structure prediction by ZEFSAII (Michael W. Deem and Ramdas Pophale) SiO2 
 PCOD8069684
Probable space group: P 21/M
;
_chemical_formula_sum "Si O2"
_cell_formula_units_Z 32
_cell_length_a 12.192320
_cell_length_b 20.241096
_cell_length_c 9.628369
_cell_angle_alpha 90.000000
_cell_angle_beta 46.977843
_cell_angle_gamma 90.000000
_cell_volume 1737.176290
_symmetry_space_group_name_H-M "P 21/M"
_symmetry_group_IT_number 11
_symmetry_cell_setting 'monoclinic'
loop_
_space_group_symop_operation_xyz
x,y,z
-x,1/2+y,-z
-x,-y,-z
x,1/2-y,z
loop_
_atom_site_type_symbol
_atom_site_label
_atom_site_fract_x
_atom_site_fract_y
_atom_site_fract_z
Si Si1 0.604408 0.323676 0.930928
Si Si2 0.111921 0.898090 0.347370
Si Si3 0.207356 0.396757 0.466181
Si Si4 0.133068 0.964522 0.628825
Si Si5 0.815051 0.500611 0.957860
Si Si6 0.626608 0.055966 0.367527
Si Si7 0.520317 0.674613 0.658792
Si Si8 0.403734 0.437094 0.040552
O O1 0.559108 0.250000 0.925632
O O2 0.778410 0.335543 0.747172
O O3 0.574943 0.335379 0.119173
O O4 0.509482 0.374465 0.920526
O O5 0.108989 0.935250 0.496936
O O6 0.950691 0.867091 0.448573
O O7 0.165967 0.950209 0.186200
O O8 0.178399 0.458582 0.590947
O O9 0.304612 0.341903 0.463109
O O10 0.291641 0.423040 0.260296
O O11 0.272076 0.928180 0.584306
O O12 0.972817 0.961247 0.848925
O O13 0.686726 0.552413 0.023447
O O14 0.752220 0.465125 0.147682
O O15 0.545859 0.124333 0.397199
O O16 0.500000 0.000000 0.500000
O O17 0.509250 0.750000 0.613806
O O18 0.500000 0.500000 0.000000
#
# Coordination Sequence:
#
# PCOD8069684 Si02
#       8
#     4   4   4   4   4   4   4   4
#     4  10  21  34  56  87 116 150 196 243 294 351
#     4  11  19  35  60  87 122 148 190 241 302 351
#     4  10  18  33  56  89 112 143 193 241 289 348
#     4  11  21  35  57  90 121 150 186 245 298 351
#     4  11  20  36  57  87 117 151 190 245 295 343
#     4  12  24  37  58  90 118 155 204 243 290 350
#     4  10  21  40  59  81 116 161 200 242 293 352
#     4  11  17  31  58  83 112 148 189 239 296 335
#
# _framework density 18.420698000000002
#
# number of rings (size 3 to 8) (size 9 to 14) (size 15 to 20)
#    0.000    1.250    6.250    1.875    1.750    0.500 
#    0.000    0.625    0.000    0.750    0.000    0.000 
#    0.000    0.000    0.000    0.000    0.000    0.000 
#
# Total GULP energy -396705.083377 kJ/mol
# GULP energy per Si atom -12397.033856 kJ/mol
# Density = 1.837877 g / cm^3
# Si number density = 18.420698 Si / 1000 Ang^3
#
#
#
# Elastic Constant Matrix: (Units=GPa)
#
#
# Indices 1 2 3 4 5 6 
#
# 1 127.6653 46.0271 35.5569 0.0000 -22.9929 0.0000
# 2 46.0271 105.2980 22.9091 0.0000 -13.5843 0.0000
# 3 35.5569 22.9091 73.9078 0.0000 -17.2500 0.0000
# 4 0.0000 0.0000 0.0000 17.6487 0.0000 -0.0811
# 5 -22.9929 -13.5843 -17.2500 0.0000 32.6212 0.0000
# 6 0.0000 0.0000 0.0000 -0.0811 0.0000 27.2768
#
#
#
# Elastic Compliance Matrix: (Units=1/GPa)
#
#
# Indices 1 2 3 4 5 6 
#
# 1 0.010738 -0.003448 -0.003041 0.000000 0.004525 0.000000
# 2 -0.003448 0.011543 -0.001556 0.000000 0.001553 0.000000
# 3 -0.003041 -0.001556 0.016912 0.000000 0.006151 0.000000
# 4 0.000000 0.000000 0.000000 0.056662 0.000000 0.000168
# 5 0.004525 0.001553 0.006151 0.000000 0.037743 0.000000
# 6 0.000000 0.000000 0.000000 0.000168 0.000000 0.036662
#
#
# Mechanical properties :
#
#
# Convention : Reuss Voigt Hill
#
# Bulk Modulus (GPa) = 43.28859 57.31747 50.30303
# Shear Modulus (GPa) = 25.76621 29.00121 27.38371
#
# Velocity S-wave (km/s) = 3.74406 3.97215 3.85979
# Velocity P-wave (km/s) = 6.49936 7.22639 6.87249
#
# Compressibility (1/GPa) = 0.02310078
#
# Stress axis : x y z
#
# Youngs Moduli (GPa) = 93.12597 86.63095 59.13111
#
# Poissons Ratio (x) = 0.29874 0.17983
# Poissons Ratio (y) = 0.32114 0.09204
# Poissons Ratio (z) = 0.28321 0.13484
#
# Static dielectric constant tensor:
#      x y z
#    x 3.662630 0.000000 -0.324880 
#    y 0.000000 3.117220 0.000000 
#    z -0.324880 0.000000 3.473300 
# 
# 
# High freq. dielectric constant tensor:
#      x y z
#    x 1.721970 0.000000 -0.023210 
#    y 0.000000 1.683870 0.000000 
#    z -0.023210 0.000000 1.714170 
# 
# From -- ./inp_files/19147.got.cif
#   From: 2010.06.25/outbox.cif.g09.slc.cpg/sg11_10_cif.got.tgz:19147.got - 2010.06.27 23:14:04.
