data_PCOD8069001
_publ_section_title
;
Structure prediction by ZEFSAII (Michael W. Deem and Ramdas Pophale) SiO2 
 PCOD8069001
Probable space group: P 21/M
;
_chemical_formula_sum "Si O2"
_cell_formula_units_Z 32
_cell_length_a 14.075948
_cell_length_b 9.093625
_cell_length_c 28.249641
_cell_angle_alpha 90.000000
_cell_angle_beta 149.850359
_cell_angle_gamma 90.000000
_cell_volume 1816.169256
_symmetry_space_group_name_H-M "P 21/M"
_symmetry_group_IT_number 11
_symmetry_cell_setting 'monoclinic'
loop_
_space_group_symop_operation_xyz
x,y,z
-x,1/2+y,-z
-x,-y,-z
x,1/2-y,z
loop_
_atom_site_type_symbol
_atom_site_label
_atom_site_fract_x
_atom_site_fract_y
_atom_site_fract_z
Si Si1 0.876172 0.423517 0.649590
Si Si2 0.181432 0.419648 0.097774
Si Si3 0.791589 0.925914 0.711133
Si Si4 0.203496 0.076689 0.724528
Si Si5 0.960036 0.424809 0.532505
Si Si6 0.984565 0.419099 0.104985
Si Si7 0.371960 0.576239 0.544885
Si Si8 0.622570 0.075354 0.893631
O O1 0.867684 0.250000 0.656399
O O2 0.845065 0.512364 0.683656
O O3 0.718016 0.473871 0.543795
O O4 0.079459 0.473396 0.716041
O O5 0.183289 0.250000 0.083246
O O6 0.165547 0.435881 0.147681
O O7 0.360125 0.501930 0.151226
O O8 0.000000 0.500000 0.000000
O O9 0.791011 0.750000 0.709085
O O10 0.947652 0.987003 0.815888
O O11 0.585588 0.984983 0.639097
O O12 0.190231 0.250000 0.715363
O O13 0.419219 0.025325 0.825940
O O14 0.118406 0.018522 0.638160
O O15 0.966308 0.250000 0.528268
O O16 0.755462 0.476665 0.465381
O O17 0.000000 0.500000 0.500000
O O18 0.936545 0.250000 0.092287
O O19 0.788883 0.488245 0.999885
O O20 0.370387 0.750000 0.545156
O O21 0.639623 0.250000 0.894769
#
# Coordination Sequence:
#
# PCOD8069001 Si02
#       8
#     4   4   4   4   4   4   4   4
#     4   9  17  32  49  66  85 112 151 190 222 266
#     4   9  16  28  45  66  91 121 152 185 221 264
#     4  10  18  30  47  67  89 116 145 182 229 272
#     4   8  16  31  50  65  86 122 157 181 220 277
#     4   9  17  31  48  69  94 121 150 184 222 268
#     4   8  16  28  43  64  91 117 145 177 219 269
#     4   8  16  30  48  65  88 120 149 175 219 277
#     4   9  16  30  49  66  86 121 158 186 216 263
#
# _framework density 17.619503999999999
#
# number of rings (size 3 to 8) (size 9 to 14) (size 15 to 20)
#    0.000    3.250    0.000    3.000    0.000    1.000 
#    0.000    9.375    0.000    0.000    0.000    0.000 
#    0.000    0.000    0.000    0.000    0.000    0.000 
#
# Total GULP energy -396422.247637 kJ/mol
# GULP energy per Si atom -12388.195239 kJ/mol
# Density = 1.757940 g / cm^3
# Si number density = 17.619504 Si / 1000 Ang^3
#
#
#
# Elastic Constant Matrix: (Units=GPa)
#
#
# Indices 1 2 3 4 5 6 
#
# 1 144.3828 28.9007 80.5507 0.0000 2.0158 0.0000
# 2 28.9007 29.4271 19.8563 0.0000 0.5854 0.0000
# 3 80.5507 19.8563 115.0099 0.0000 9.8093 0.0000
# 4 0.0000 0.0000 0.0000 14.0911 0.0000 -3.2876
# 5 2.0158 0.5854 9.8093 0.0000 29.4497 0.0000
# 6 0.0000 0.0000 0.0000 -3.2876 0.0000 30.9520
#
#
#
# Elastic Compliance Matrix: (Units=1/GPa)
#
#
# Indices 1 2 3 4 5 6 
#
# 1 0.012707 -0.007248 -0.007808 0.000000 0.001875 0.000000
# 2 -0.007248 0.042661 -0.002325 0.000000 0.000422 0.000000
# 3 -0.007808 -0.002325 0.014940 0.000000 -0.004396 0.000000
# 4 0.000000 0.000000 0.000000 0.072770 0.000000 0.007729
# 5 0.001875 0.000422 -0.004396 0.000000 0.035284 0.000000
# 6 0.000000 0.000000 0.000000 0.007729 0.000000 0.033129
#
#
# Mechanical properties :
#
#
# Convention : Reuss Voigt Hill
#
# Bulk Modulus (GPa) = 28.13307 60.82614 44.47960
# Shear Modulus (GPa) = 19.37218 25.53269 22.45244
#
# Velocity S-wave (km/s) = 3.31943 3.81085 3.57360
# Velocity P-wave (km/s) = 5.54014 7.34578 6.50591
#
# Compressibility (1/GPa) = 0.03554536
#
# Stress axis : x y z
#
# Youngs Moduli (GPa) = 78.69761 23.44049 66.93486
#
# Poissons Ratio (x) = 0.16990 0.52264
# Poissons Ratio (y) = 0.57042 0.15562
# Poissons Ratio (z) = 0.61448 0.05450
#
# Static dielectric constant tensor:
#      x y z
#    x 3.583320 0.000000 0.185240 
#    y 0.000000 4.413960 0.000000 
#    z 0.185240 0.000000 3.552200 
# 
# 
# High freq. dielectric constant tensor:
#      x y z
#    x 1.685780 0.000000 0.005570 
#    y 0.000000 1.641080 0.000000 
#    z 0.005570 0.000000 1.674310 
# 
# From -- ./inp_files/73312.got.cif
#   From: 2010.06.25/outbox.cif.g09.slc.cpg/sg11_37_cif.got.tgz:73312.got - 2010.06.27 23:14:04.
