data_PCOD8069611
_publ_section_title
;
Structure prediction by ZEFSAII (Michael W. Deem and Ramdas Pophale) SiO2 
 PCOD8069611
Probable space group: P 21/M
;
_chemical_formula_sum "Si O2"
_cell_formula_units_Z 32
_cell_length_a 14.915217
_cell_length_b 8.834812
_cell_length_c 30.752446
_cell_angle_alpha 90.000000
_cell_angle_beta 151.257868
_cell_angle_gamma 90.000000
_cell_volume 1948.645167
_symmetry_space_group_name_H-M "P 21/M"
_symmetry_group_IT_number 11
_symmetry_cell_setting 'monoclinic'
loop_
_space_group_symop_operation_xyz
x,y,z
-x,1/2+y,-z
-x,-y,-z
x,1/2-y,z
loop_
_atom_site_type_symbol
_atom_site_label
_atom_site_fract_x
_atom_site_fract_y
_atom_site_fract_z
Si Si1 0.261110 0.927764 0.435343
Si Si2 0.961257 0.572281 0.918188
Si Si3 0.346023 0.429494 0.617535
Si Si4 0.048394 0.570314 0.429629
Si Si5 0.673505 0.071796 0.296747
Si Si6 0.731373 0.574017 0.902867
Si Si7 0.293574 0.427298 0.267433
Si Si8 0.681590 0.925377 0.625287
O O1 0.253190 0.750000 0.428930
O O2 0.122727 0.984085 0.414243
O O3 0.468649 0.985537 0.535219
O O4 0.200262 0.992935 0.362416
O O5 0.981952 0.750000 0.928616
O O6 0.821718 0.512164 0.896386
O O7 0.876139 0.521387 0.835700
O O8 0.167101 0.502954 0.012666
O O9 0.338216 0.250000 0.621250
O O10 0.158637 0.484106 0.514320
O O11 0.359132 0.514022 0.668693
O O12 0.523471 0.475178 0.664349
O O13 0.070720 0.750000 0.445597
O O14 0.834460 0.521372 0.341390
O O15 0.718665 0.250000 0.317126
O O16 0.487505 0.037420 0.189836
O O17 0.769249 0.750000 0.922590
O O18 0.344388 0.250000 0.282429
O O19 0.229528 0.459296 0.289710
O O20 0.685403 0.750000 0.615865
#
# Coordination Sequence:
#
# PCOD8069611 Si02
#       8
#     4   4   4   4   4   4   4   4
#     4   9  18  32  49  69  96 128 159 199 244 285
#     4   9  17  30  50  71  96 127 160 197 241 292
#     4  12  23  33  48  72  99 133 171 205 236 283
#     4  11  22  37  52  69  97 133 169 205 243 286
#     4  11  22  37  52  69  97 133 169 205 243 286
#     4   9  18  32  49  69  96 128 159 199 244 285
#     4  10  18  33  51  72 101 135 163 197 247 289
#     4   9  17  30  50  71  96 127 160 197 241 292
#
# _framework density 16.421665999999998
#
# number of rings (size 3 to 8) (size 9 to 14) (size 15 to 20)
#    0.000    2.000    2.500    2.250    0.000    3.000 
#    0.000    0.000    0.000    0.000    0.000    0.875 
#    0.000    0.000    0.000    0.000    0.000    0.000 
#
# Total GULP energy -396790.484112 kJ/mol
# GULP energy per Si atom -12399.702629 kJ/mol
# Density = 1.638429 g / cm^3
# Si number density = 16.421666 Si / 1000 Ang^3
#
#
#
# Elastic Constant Matrix: (Units=GPa)
#
#
# Indices 1 2 3 4 5 6 
#
# 1 54.4185 16.2319 27.3085 0.0000 -10.4379 0.0000
# 2 16.2319 29.7088 24.1960 0.0000 -1.8594 0.0000
# 3 27.3085 24.1960 103.1047 0.0000 -9.9457 0.0000
# 4 0.0000 0.0000 0.0000 26.4925 0.0000 -0.2467
# 5 -10.4379 -1.8594 -9.9457 0.0000 21.0105 0.0000
# 6 0.0000 0.0000 0.0000 -0.2467 0.0000 25.9769
#
#
#
# Elastic Compliance Matrix: (Units=1/GPa)
#
#
# Indices 1 2 3 4 5 6 
#
# 1 0.025013 -0.010422 -0.003216 0.000000 0.009982 0.000000
# 2 -0.010422 0.045976 -0.008525 0.000000 -0.005144 0.000000
# 3 -0.003216 -0.008525 0.012914 0.000000 0.003761 0.000000
# 4 0.000000 0.000000 0.000000 0.037750 0.000000 0.000359
# 5 0.009982 -0.005144 0.003761 0.000000 0.053879 0.000000
# 6 0.000000 0.000000 0.000000 0.000359 0.000000 0.038499
#
#
# Mechanical properties :
#
#
# Convention : Reuss Voigt Hill
#
# Bulk Modulus (GPa) = 25.26796 35.85609 30.56203
# Shear Modulus (GPa) = 18.41278 22.66235 20.53757
#
# Velocity S-wave (km/s) = 3.35214 3.71890 3.54027
# Velocity P-wave (km/s) = 5.51387 6.34999 5.94664
#
# Compressibility (1/GPa) = 0.03957581
#
# Stress axis : x y z
#
# Youngs Moduli (GPa) = 39.97849 21.75067 77.43419
#
# Poissons Ratio (x) = 0.22669 0.24906
# Poissons Ratio (y) = 0.41666 0.66013
# Poissons Ratio (z) = 0.12859 0.18543
#
# Static dielectric constant tensor:
#      x y z
#    x 3.073210 0.000000 -0.116460 
#    y 0.000000 3.063570 0.000000 
#    z -0.116460 0.000000 3.129980 
# 
# 
# High freq. dielectric constant tensor:
#      x y z
#    x 1.611570 0.000000 -0.012390 
#    y 0.000000 1.633880 0.000000 
#    z -0.012390 0.000000 1.619960 
# 
# From -- ./inp_files/51370.got.cif
#   From: 2010.06.25/outbox.cif.g09.slc.cpg/sg11_26_cif.got.tgz:51370.got - 2010.06.27 23:14:04.
