data_PCOD8069171
_publ_section_title
;
Structure prediction by ZEFSAII (Michael W. Deem and Ramdas Pophale) SiO2 
 PCOD8069171
Probable space group: P 21/M
;
_chemical_formula_sum "Si O2"
_cell_formula_units_Z 20
_cell_length_a 12.123639
_cell_length_b 8.858693
_cell_length_c 12.172076
_cell_angle_alpha 90.000000
_cell_angle_beta 118.282319
_cell_angle_gamma 90.000000
_cell_volume 1151.218151
_symmetry_space_group_name_H-M "P 21/M"
_symmetry_group_IT_number 11
_symmetry_cell_setting 'monoclinic'
loop_
_space_group_symop_operation_xyz
x,y,z
-x,1/2+y,-z
-x,-y,-z
x,1/2-y,z
loop_
_atom_site_type_symbol
_atom_site_label
_atom_site_fract_x
_atom_site_fract_y
_atom_site_fract_z
Si Si1 0.691046 0.073167 0.085453
Si Si2 0.087862 0.426089 0.696454
Si Si3 0.845077 0.574383 0.519193
Si Si4 0.482716 0.072992 0.163657
Si Si5 0.561761 0.928181 0.423499
O O1 0.691538 0.250000 0.061573
O O2 0.603536 0.031797 0.147665
O O3 0.830684 0.015589 0.175671
O O4 0.641720 0.987623 0.954518
O O5 0.097185 0.250000 0.726397
O O6 0.141178 0.467719 0.601968
O O7 0.944085 0.479634 0.637860
O O8 0.872233 0.750000 0.551214
O O9 0.707558 0.526173 0.492661
O O10 0.469742 0.250000 0.177041
O O11 0.492925 0.991351 0.284394
O O12 0.544819 0.750000 0.417149
O O13 0.500000 0.000000 0.500000
#
# Coordination Sequence:
#
# PCOD8069171 Si02
#       5
#     4   4   4   4   4
#     4  10  19  31  51  77 108 139 169 213 265 314
#     4  10  18  30  51  77 106 136 170 214 262 312
#     4   9  19  33  49  73 105 138 173 213 259 308
#     4  10  20  33  51  76 105 138 177 215 259 310
#     4  11  22  37  55  76 106 141 179 218 257 306
#
# _framework density 17.372902
#
# number of rings (size 3 to 8) (size 9 to 14) (size 15 to 20)
#    0.000    2.000    2.000    2.400    0.000    4.000 
#    0.000    0.000    0.000    1.200    0.000    0.000 
#    0.000    0.000    0.000    0.000    0.000    0.000 
#
# Total GULP energy -248084.913751 kJ/mol
# GULP energy per Si atom -12404.245688 kJ/mol
# Density = 1.733336 g / cm^3
# Si number density = 17.372902 Si / 1000 Ang^3
#
#
#
# Elastic Constant Matrix: (Units=GPa)
#
#
# Indices 1 2 3 4 5 6 
#
# 1 90.0625 41.0251 63.1863 0.0000 7.3180 0.0000
# 2 41.0251 72.7295 54.3696 0.0000 5.7099 0.0000
# 3 63.1863 54.3696 129.9554 0.0000 14.5731 0.0000
# 4 0.0000 0.0000 0.0000 36.9163 0.0000 4.0291
# 5 7.3180 5.7099 14.5731 0.0000 28.5245 0.0000
# 6 0.0000 0.0000 0.0000 4.0291 0.0000 26.2327
#
#
#
# Elastic Compliance Matrix: (Units=1/GPa)
#
#
# Indices 1 2 3 4 5 6 
#
# 1 0.018156 -0.005302 -0.006584 0.000000 -0.000233 0.000000
# 2 -0.005302 0.021557 -0.006481 0.000000 0.000356 0.000000
# 3 -0.006584 -0.006481 0.014079 0.000000 -0.004207 0.000000
# 4 0.000000 0.000000 0.000000 0.027550 0.000000 -0.004231
# 5 -0.000233 0.000356 -0.004207 0.000000 0.037195 0.000000
# 6 0.000000 0.000000 0.000000 -0.004231 0.000000 0.038770
#
#
# Mechanical properties :
#
#
# Convention : Reuss Voigt Hill
#
# Bulk Modulus (GPa) = 58.61677 67.76774 63.19225
# Shear Modulus (GPa) = 25.03406 27.27912 26.15659
#
# Velocity S-wave (km/s) = 3.80015 3.96689 3.88441
# Velocity P-wave (km/s) = 7.28481 7.75074 7.52138
#
# Compressibility (1/GPa) = 0.01705996
#
# Stress axis : x y z
#
# Youngs Moduli (GPa) = 55.07720 46.38839 71.02626
#
# Poissons Ratio (x) = 0.24593 0.46762
# Poissons Ratio (y) = 0.29199 0.46033
# Poissons Ratio (z) = 0.36261 0.30065
#
# Static dielectric constant tensor:
#      x y z
#    x 3.035960 0.000000 0.206710 
#    y 0.000000 3.295420 0.000000 
#    z 0.206710 0.000000 3.201410 
# 
# 
# High freq. dielectric constant tensor:
#      x y z
#    x 1.639220 0.000000 0.025270 
#    y 0.000000 1.685780 0.000000 
#    z 0.025270 0.000000 1.670910 
# 
# From -- ./inp_files/33408.got.cif
#   From: 2010.06.25/outbox.cif.g09.slc.cpg/sg11_17_cif.got.tgz:33408.got - 2010.06.27 23:14:04.
