data_PCOD8069116
_publ_section_title
;
Structure prediction by ZEFSAII (Michael W. Deem and Ramdas Pophale) SiO2 
 PCOD8069116
Probable space group: P 21/M
;
_chemical_formula_sum "Si O2"
_cell_formula_units_Z 32
_cell_length_a 12.693329
_cell_length_b 8.774857
_cell_length_c 23.378296
_cell_angle_alpha 90.000000
_cell_angle_beta 135.424809
_cell_angle_gamma 90.000000
_cell_volume 1827.550768
_symmetry_space_group_name_H-M "P 21/M"
_symmetry_group_IT_number 11
_symmetry_cell_setting 'monoclinic'
loop_
_space_group_symop_operation_xyz
x,y,z
-x,1/2+y,-z
-x,-y,-z
x,1/2-y,z
loop_
_atom_site_type_symbol
_atom_site_label
_atom_site_fract_x
_atom_site_fract_y
_atom_site_fract_z
Si Si1 0.573960 0.930333 0.792150
Si Si2 0.174771 0.428508 0.315428
Si Si3 0.546936 0.929928 0.651814
Si Si4 0.703796 0.931309 0.012618
Si Si5 0.592745 0.070957 0.163219
Si Si6 0.159770 0.568508 0.823443
Si Si7 0.622595 0.572367 0.507181
Si Si8 0.152841 0.930693 0.038335
O O1 0.606598 0.750000 0.807972
O O2 0.536082 0.982324 0.713261
O O3 0.437157 0.977669 0.782171
O O4 0.720822 0.019780 0.867926
O O5 0.164794 0.250000 0.300525
O O6 0.299642 0.493823 0.319025
O O7 0.219571 0.460457 0.399398
O O8 0.009459 0.500144 0.241492
O O9 0.541826 0.750000 0.643628
O O10 0.397378 0.996350 0.562937
O O11 0.715841 0.750000 0.018075
O O12 0.740303 0.997744 0.088338
O O13 0.539928 0.991297 0.929284
O O14 0.823589 0.999078 0.014995
O O15 0.582956 0.250000 0.155594
O O16 0.755691 0.018024 0.202925
O O17 0.156441 0.750000 0.828552
O O18 0.500000 0.500000 0.500000
O O19 0.593312 0.750000 0.489496
O O20 0.144436 0.750000 0.030961
O O21 0.000000 0.000000 0.000000
#
# Coordination Sequence:
#
# PCOD8069116 Si02
#       8
#     4   4   4   4   4   4   4   4
#     4   9  18  33  51  71  97 128 163 203 242 284
#     4   8  16  28  44  70  96 120 153 195 244 291
#     4   9  17  30  49  71  96 126 157 194 239 293
#     4  10  20  34  48  69  97 127 165 206 246 288
#     4   8  16  31  49  68  93 127 167 206 243 285
#     4  10  18  30  50  72  94 125 166 207 248 295
#     4   9  16  29  47  68  95 125 155 192 239 292
#     4  11  22  35  50  70  98 132 164 198 243 289
#
# _framework density 17.509772999999999
#
# number of rings (size 3 to 8) (size 9 to 14) (size 15 to 20)
#    0.000    2.750    0.000    3.750    1.750    0.500 
#    0.000    5.625    0.000    0.750    0.000    0.000 
#    0.000    0.000    0.000    0.000    0.000    0.500 
#
# Total GULP energy -396496.017900 kJ/mol
# GULP energy per Si atom -12390.500559 kJ/mol
# Density = 1.746992 g / cm^3
# Si number density = 17.509773 Si / 1000 Ang^3
#
#
#
# Elastic Constant Matrix: (Units=GPa)
#
#
# Indices 1 2 3 4 5 6 
#
# 1 109.0881 22.1837 64.0986 0.0000 -14.9095 0.0000
# 2 22.1837 39.4304 19.6252 0.0000 -4.1109 0.0000
# 3 64.0986 19.6252 99.2088 0.0000 -19.4225 0.0000
# 4 0.0000 0.0000 0.0000 27.0027 0.0000 -4.1423
# 5 -14.9095 -4.1109 -19.4225 0.0000 24.5514 0.0000
# 6 0.0000 0.0000 0.0000 -4.1423 0.0000 15.1676
#
#
#
# Elastic Compliance Matrix: (Units=1/GPa)
#
#
# Indices 1 2 3 4 5 6 
#
# 1 0.015413 -0.004108 -0.008813 0.000000 0.001700 0.000000
# 2 -0.004108 0.029228 -0.003145 0.000000 -0.000089 0.000000
# 3 -0.008813 -0.003145 0.018039 0.000000 0.008392 0.000000
# 4 0.000000 0.000000 0.000000 0.038653 0.000000 0.010556
# 5 0.001700 -0.000089 0.008392 0.000000 0.048387 0.000000
# 6 0.000000 0.000000 0.000000 0.010556 0.000000 0.068813
#
#
# Mechanical properties :
#
#
# Convention : Reuss Voigt Hill
#
# Bulk Modulus (GPa) = 32.73483 51.06028 41.89755
# Shear Modulus (GPa) = 19.16828 22.79899 20.98364
#
# Velocity S-wave (km/s) = 3.31224 3.61234 3.46554
# Velocity P-wave (km/s) = 5.77613 6.82810 6.32403
#
# Compressibility (1/GPa) = 0.03054850
#
# Stress axis : x y z
#
# Youngs Moduli (GPa) = 64.88078 34.21328 55.43620
#
# Poissons Ratio (x) = 0.14054 0.48855
# Poissons Ratio (y) = 0.26652 0.17436
# Poissons Ratio (z) = 0.57178 0.10761
#
# Static dielectric constant tensor:
#      x y z
#    x 3.549440 0.000000 -0.033690 
#    y 0.000000 3.152030 0.000000 
#    z -0.033690 0.000000 3.593300 
# 
# 
# High freq. dielectric constant tensor:
#      x y z
#    x 1.667730 0.000000 -0.009600 
#    y 0.000000 1.657130 0.000000 
#    z -0.009600 0.000000 1.670330 
# 
# From -- ./inp_files/43777.got.cif
#   From: 2010.06.25/outbox.cif.g09.slc.cpg/sg11_22_cif.got.tgz:43777.got - 2010.06.27 23:14:04.
