data_PCOD8069407
_publ_section_title
;
Structure prediction by ZEFSAII (Michael W. Deem and Ramdas Pophale) SiO2 
 PCOD8069407
Probable space group: P 21/M
;
_chemical_formula_sum "Si O2"
_cell_formula_units_Z 28
_cell_length_a 19.090085
_cell_length_b 8.661390
_cell_length_c 15.773805
_cell_angle_alpha 90.000000
_cell_angle_beta 145.695690
_cell_angle_gamma 90.000000
_cell_volume 1469.920367
_symmetry_space_group_name_H-M "P 21/M"
_symmetry_group_IT_number 11
_symmetry_cell_setting 'monoclinic'
loop_
_space_group_symop_operation_xyz
x,y,z
-x,1/2+y,-z
-x,-y,-z
x,1/2-y,z
loop_
_atom_site_type_symbol
_atom_site_label
_atom_site_fract_x
_atom_site_fract_y
_atom_site_fract_z
Si Si1 0.893325 0.067877 0.833644
Si Si2 0.614150 0.428284 0.564574
Si Si3 0.694368 0.077439 0.214832
Si Si4 0.483356 0.923520 0.096510
Si Si5 0.867880 0.432486 0.615134
Si Si6 0.070400 0.072361 0.491271
Si Si7 0.387790 0.426283 0.610745
O O1 0.897228 0.250000 0.847282
O O2 0.754982 0.007162 0.723833
O O3 0.918456 0.022210 0.759822
O O4 0.000000 0.000000 0.000000
O O5 0.500000 0.500000 0.500000
O O6 0.613571 0.250000 0.585177
O O7 0.584285 0.457761 0.437102
O O8 0.747900 0.250000 0.285642
O O9 0.565440 0.056333 0.135445
O O10 0.786508 0.947410 0.340204
O O11 0.659308 0.057071 0.079413
O O12 0.529638 0.750000 0.118368
O O13 0.494253 0.942161 0.208695
O O14 0.847545 0.250000 0.589158
O O15 0.957735 0.489149 0.627953
O O16 0.737887 0.519596 0.467770
O O17 0.033627 0.250000 0.444703
O O18 0.000000 0.000000 0.500000
O O19 0.372354 0.250000 0.563150
#
# Coordination Sequence:
#
# PCOD8069407 Si02
#       7
#     4   4   4   4   4   4   4
#     4   9  20  37  60  88 117 147 188 235 285 344
#     4  10  21  37  56  83 115 148 187 233 284 341
#     4  10  19  32  51  75 106 140 173 218 267 312
#     4   9  18  31  50  78 107 136 175 217 260 313
#     4  10  20  36  56  82 111 143 186 235 277 330
#     4  12  24  38  55  77 106 145 190 235 282 336
#     4  10  18  31  54  82 110 143 182 224 269 326
#
# _framework density 19.048651
#
# number of rings (size 3 to 8) (size 9 to 14) (size 15 to 20)
#    0.000    2.000    1.429    3.857    0.000    4.571 
#    0.000    1.429    0.000    1.714    0.000    0.000 
#    0.000    0.000    0.000    0.000    0.000    0.000 
#
# Total GULP energy -346877.796155 kJ/mol
# GULP energy per Si atom -12388.492720 kJ/mol
# Density = 1.900530 g / cm^3
# Si number density = 19.048651 Si / 1000 Ang^3
#
#
#
# Elastic Constant Matrix: (Units=GPa)
#
#
# Indices 1 2 3 4 5 6 
#
# 1 114.7024 26.0299 49.3607 0.0000 -7.5218 0.0000
# 2 26.0299 66.4099 32.2609 0.0000 -2.1531 0.0000
# 3 49.3607 32.2609 122.6250 0.0000 -20.8749 0.0000
# 4 0.0000 0.0000 0.0000 29.4243 0.0000 -2.1129
# 5 -7.5218 -2.1531 -20.8749 0.0000 20.8936 0.0000
# 6 0.0000 0.0000 0.0000 -2.1129 0.0000 31.9971
#
#
#
# Elastic Compliance Matrix: (Units=1/GPa)
#
#
# Indices 1 2 3 4 5 6 
#
# 1 0.010882 -0.002446 -0.003751 0.000000 -0.000082 0.000000
# 2 -0.002446 0.018008 -0.004322 0.000000 -0.003343 0.000000
# 3 -0.003751 -0.004322 0.012647 0.000000 0.010840 0.000000
# 4 0.000000 0.000000 0.000000 0.034147 0.000000 0.002255
# 5 -0.000082 -0.003343 0.010840 0.000000 0.058318 0.000000
# 6 0.000000 0.000000 0.000000 0.002255 0.000000 0.031402
#
#
# Mechanical properties :
#
#
# Convention : Reuss Voigt Hill
#
# Bulk Modulus (GPa) = 48.78195 57.67114 53.22655
# Shear Modulus (GPa) = 25.86981 29.53538 27.70260
#
# Velocity S-wave (km/s) = 3.68923 3.94194 3.81768
# Velocity P-wave (km/s) = 6.61906 7.14563 6.88738
#
# Compressibility (1/GPa) = 0.02049938
#
# Stress axis : x y z
#
# Youngs Moduli (GPa) = 91.89465 55.53107 79.06838
#
# Poissons Ratio (x) = 0.13582 0.29658
# Poissons Ratio (y) = 0.22476 0.34175
# Poissons Ratio (z) = 0.34469 0.24002
#
# Static dielectric constant tensor:
#      x y z
#    x 3.836980 0.000000 -0.008970 
#    y 0.000000 3.189130 0.000000 
#    z -0.008970 0.000000 3.954960 
# 
# 
# High freq. dielectric constant tensor:
#      x y z
#    x 1.714960 0.000000 -0.022750 
#    y 0.000000 1.746700 0.000000 
#    z -0.022750 0.000000 1.737720 
# 
# From -- ./inp_files/53283.got.cif
#   From: 2010.06.25/outbox.cif.g09.slc.cpg/sg11_27_cif.got.tgz:53283.got - 2010.06.27 23:14:04.
