data_PCOD8069728
_publ_section_title
;
Structure prediction by ZEFSAII (Michael W. Deem and Ramdas Pophale) SiO2 
 PCOD8069728
Probable space group: P 21/M
;
_chemical_formula_sum "Si O2"
_cell_formula_units_Z 22
_cell_length_a 9.668559
_cell_length_b 13.457994
_cell_length_c 7.522407
_cell_angle_alpha 90.000000
_cell_angle_beta 104.312549
_cell_angle_gamma 90.000000
_cell_volume 948.430431
_symmetry_space_group_name_H-M "P 21/M"
_symmetry_group_IT_number 11
_symmetry_cell_setting 'monoclinic'
loop_
_space_group_symop_operation_xyz
x,y,z
-x,1/2+y,-z
-x,-y,-z
x,1/2-y,z
loop_
_atom_site_type_symbol
_atom_site_label
_atom_site_fract_x
_atom_site_fract_y
_atom_site_fract_z
Si Si1 0.170217 0.573679 0.556705
Si Si2 0.133049 0.137948 0.455375
Si Si3 0.388141 0.750000 0.224170
Si Si4 0.856832 0.103057 0.864665
Si Si5 0.842660 0.613783 0.935192
Si Si6 0.382331 0.750000 0.634482
Si Si7 0.381251 0.250000 0.996111
O O1 0.204025 0.454029 0.592886
O O2 0.127737 0.587054 0.339041
O O3 0.297831 0.647610 0.650053
O O4 0.033452 0.609272 0.625289
O O5 0.152038 0.250000 0.546819
O O6 0.200953 0.140806 0.280481
O O7 0.290591 0.657356 0.138835
O O8 0.431005 0.750000 0.444630
O O9 0.534804 0.750000 0.162641
O O10 0.845874 0.002821 0.974088
O O11 0.001136 0.160033 0.969967
O O12 0.721610 0.654816 0.027659
O O13 0.516609 0.750000 0.802399
#
# Coordination Sequence:
#
# PCOD8069728 Si02
#       7
#     4   4   2   4   4   2   2
#     4   9  19  35  60  93 121 164 209 262 333 371
#     4  10  18  33  60  90 125 151 214 274 311 379
#     4  10  23  41  63  89 127 174 212 250 332 376
#     4   9  20  40  65  86 122 159 210 273 309 373
#     4  10  21  39  61  93 119 157 215 267 317 367
#     4  10  22  43  60  89 134 173 212 262 312 406
#     4  12  25  40  65  94 129 173 212 252 326 396
#
# _framework density 23.19622
#
# number of rings (size 3 to 8) (size 9 to 14) (size 15 to 20)
#    0.000    2.182    1.818    0.545    2.545    0.727 
#    3.273    8.182    0.000    0.000    0.000    0.000 
#    0.000    0.000    0.000    0.000    0.000    0.000 
#
# Total GULP energy -272599.964632 kJ/mol
# GULP energy per Si atom -12390.907483 kJ/mol
# Density = 2.314342 g / cm^3
# Si number density = 23.196220 Si / 1000 Ang^3
#
#
#
# Elastic Constant Matrix: (Units=GPa)
#
#
# Indices 1 2 3 4 5 6 
#
# 1 127.3100 47.3484 23.1266 0.0000 -21.0299 0.0000
# 2 47.3484 187.6622 13.2797 0.0000 -0.5486 0.0000
# 3 23.1266 13.2797 28.9095 0.0000 -0.8499 0.0000
# 4 0.0000 0.0000 0.0000 21.0661 0.0000 -8.0239
# 5 -21.0299 -0.5486 -0.8499 0.0000 37.0670 0.0000
# 6 0.0000 0.0000 0.0000 -8.0239 0.0000 39.5880
#
#
#
# Elastic Compliance Matrix: (Units=1/GPa)
#
#
# Indices 1 2 3 4 5 6 
#
# 1 0.011082 -0.002236 -0.007659 0.000000 0.006079 0.000000
# 2 -0.002236 0.005959 -0.000984 0.000000 -0.001203 0.000000
# 3 -0.007659 -0.000984 0.041069 0.000000 -0.003418 0.000000
# 4 0.000000 0.000000 0.000000 0.051441 0.000000 0.010426
# 5 0.006079 -0.001203 -0.003418 0.000000 0.030331 0.000000
# 6 0.000000 0.000000 0.000000 0.010426 0.000000 0.027373
#
#
# Mechanical properties :
#
#
# Convention : Reuss Voigt Hill
#
# Bulk Modulus (GPa) = 27.50902 56.82121 42.16511
# Shear Modulus (GPa) = 24.85942 36.88603 30.87272
#
# Velocity S-wave (km/s) = 3.27724 3.99202 3.65216
# Velocity P-wave (km/s) = 5.11912 6.76738 6.00012
#
# Compressibility (1/GPa) = 0.03635171
#
# Stress axis : x y z
#
# Youngs Moduli (GPa) = 90.23634 167.81202 24.34917
#
# Poissons Ratio (x) = 0.37528 0.18650
# Poissons Ratio (y) = 0.20180 0.02395
# Poissons Ratio (z) = 0.69114 0.16508
#
# Static dielectric constant tensor:
#      x y z
#    x 3.928730 0.000000 -0.146160 
#    y 0.000000 4.910510 0.000000 
#    z -0.146160 0.000000 3.804450 
# 
# 
# High freq. dielectric constant tensor:
#      x y z
#    x 1.896190 0.000000 -0.015680 
#    y 0.000000 1.934350 0.000000 
#    z -0.015680 0.000000 1.900480 
# 
# From -- ./inp_files/12642.got.cif
#   From: 2010.06.25/outbox.cif.g09.slc.cpg/sg11_7_cif.got.tgz:12642.got - 2010.06.27 23:14:04.
