data_PCOD8069581
_publ_section_title
;
Structure prediction by ZEFSAII (Michael W. Deem and Ramdas Pophale) SiO2 
 PCOD8069581
Probable space group: P 21/M
;
_chemical_formula_sum "Si O2"
_cell_formula_units_Z 28
_cell_length_a 27.316385
_cell_length_b 8.893452
_cell_length_c 21.640617
_cell_angle_alpha 90.000000
_cell_angle_beta 162.031617
_cell_angle_gamma 90.000000
_cell_volume 1621.837452
_symmetry_space_group_name_H-M "P 21/M"
_symmetry_group_IT_number 11
_symmetry_cell_setting 'monoclinic'
loop_
_space_group_symop_operation_xyz
x,y,z
-x,1/2+y,-z
-x,-y,-z
x,1/2-y,z
loop_
_atom_site_type_symbol
_atom_site_label
_atom_site_fract_x
_atom_site_fract_y
_atom_site_fract_z
Si Si1 0.515055 0.419985 0.198642
Si Si2 0.449644 0.925579 0.245513
Si Si3 0.081805 0.075826 0.005772
Si Si4 0.165111 0.920686 0.471240
Si Si5 0.216096 0.075926 0.298578
Si Si6 0.429168 0.428317 0.854074
Si Si7 0.858497 0.073112 0.048353
O O1 0.452390 0.250000 0.115599
O O2 0.438346 0.489147 0.167300
O O3 0.708893 0.422600 0.434850
O O4 0.464862 0.516443 0.077568
O O5 0.449760 0.750000 0.230971
O O6 0.606388 0.972819 0.471230
O O7 0.300736 0.974359 0.107648
O O8 0.076281 0.250000 0.981227
O O9 0.903158 0.022323 0.803962
O O10 0.157827 0.985190 0.040801
O O11 0.192310 0.043509 0.197520
O O12 0.129038 0.750000 0.448736
O O13 0.247950 0.010828 0.627591
O O14 0.004803 0.999862 0.259253
O O15 0.182591 0.250000 0.273540
O O16 0.430567 0.250000 0.860561
O O17 0.500000 0.500000 0.000000
O O18 0.884106 0.250000 0.078098
#
# Coordination Sequence:
#
# PCOD8069581 Si02
#       7
#     4   4   4   4   4   4   4
#     4   9  19  33  52  79 106 136 174 216 258 306
#     4  10  21  35  51  73 103 140 181 219 263 319
#     4  10  20  34  53  76 100 132 175 224 272 321
#     4   9  19  34  53  79 105 135 175 216 256 308
#     4   9  19  36  55  73  99 134 175 223 272 319
#     4  10  18  32  56  85 113 139 170 213 256 301
#     4  11  22  34  50  74 105 141 177 218 267 319
#
# _framework density 17.264368999999999
#
# number of rings (size 3 to 8) (size 9 to 14) (size 15 to 20)
#    0.857    1.429    0.000    3.429    0.000    5.143 
#    0.000    0.000    0.000    0.857    0.000    0.000 
#    0.000    0.000    0.000    0.000    0.000    0.000 
#
# Total GULP energy -347100.778157 kJ/mol
# GULP energy per Si atom -12396.456363 kJ/mol
# Density = 1.722507 g / cm^3
# Si number density = 17.264369 Si / 1000 Ang^3
#
#
#
# Elastic Constant Matrix: (Units=GPa)
#
#
# Indices 1 2 3 4 5 6 
#
# 1 127.8369 73.4922 70.3609 0.0000 -5.6279 0.0000
# 2 73.4922 113.2397 40.1654 0.0000 1.7304 0.0000
# 3 70.3609 40.1654 54.8289 0.0000 4.3472 0.0000
# 4 0.0000 0.0000 0.0000 24.6741 0.0000 -2.8389
# 5 -5.6279 1.7304 4.3472 0.0000 23.0330 0.0000
# 6 0.0000 0.0000 0.0000 -2.8389 0.0000 34.2152
#
#
#
# Elastic Compliance Matrix: (Units=1/GPa)
#
#
# Indices 1 2 3 4 5 6 
#
# 1 0.037558 -0.009524 -0.042644 0.000000 0.017941 0.000000
# 2 -0.009524 0.014359 0.002003 0.000000 -0.003784 0.000000
# 3 -0.042644 0.002003 0.073432 0.000000 -0.024429 0.000000
# 4 0.000000 0.000000 0.000000 0.040919 0.000000 0.003395
# 5 0.017941 -0.003784 -0.024429 0.000000 0.052695 0.000000
# 6 0.000000 0.000000 0.000000 0.003395 0.000000 0.029509
#
#
# Mechanical properties :
#
#
# Convention : Reuss Voigt Hill
#
# Bulk Modulus (GPa) = 39.96748 73.77139 56.86944
# Shear Modulus (GPa) = 14.00007 23.84358 18.92183
#
# Velocity S-wave (km/s) = 2.85076 3.72033 3.31419
# Velocity P-wave (km/s) = 5.83406 7.82800 6.90340
#
# Compressibility (1/GPa) = 0.02502034
#
# Stress axis : x y z
#
# Youngs Moduli (GPa) = 26.62521 69.64156 13.61808
#
# Poissons Ratio (x) = 0.66327 0.58072
# Poissons Ratio (y) = 0.25358 -0.02728
# Poissons Ratio (z) = 1.13539 -0.13949
#
# Static dielectric constant tensor:
#      x y z
#    x 3.116530 0.000000 -0.031740 
#    y 0.000000 3.343350 0.000000 
#    z -0.031740 0.000000 3.054210 
# 
# 
# High freq. dielectric constant tensor:
#      x y z
#    x 1.658170 0.000000 -0.009110 
#    y 0.000000 1.681600 0.000000 
#    z -0.009110 0.000000 1.647050 
# 
# From -- ./inp_files/66768.got.cif
#   From: 2010.06.25/outbox.cif.g09.slc.cpg/sg11_34_cif.got.tgz:66768.got - 2010.06.27 23:14:04.
