data_PCOD8069873
_publ_section_title
;
Structure prediction by ZEFSAII (Michael W. Deem and Ramdas Pophale) SiO2 
 PCOD8069873
Probable space group: P 21/M
;
_chemical_formula_sum "Si O2"
_cell_formula_units_Z 32
_cell_length_a 9.347389
_cell_length_b 19.155231
_cell_length_c 11.739074
_cell_angle_alpha 90.000000
_cell_angle_beta 57.203309
_cell_angle_gamma 90.000000
_cell_volume 1766.850667
_symmetry_space_group_name_H-M "P 21/M"
_symmetry_group_IT_number 11
_symmetry_cell_setting 'monoclinic'
loop_
_space_group_symop_operation_xyz
x,y,z
-x,1/2+y,-z
-x,-y,-z
x,1/2-y,z
loop_
_atom_site_type_symbol
_atom_site_label
_atom_site_fract_x
_atom_site_fract_y
_atom_site_fract_z
Si Si1 0.423313 0.967199 0.357636
Si Si2 0.225265 0.456063 0.879583
Si Si3 0.896416 0.671258 0.363846
Si Si4 0.911221 0.046751 0.627751
Si Si5 0.000580 0.032931 0.185396
Si Si6 0.187882 0.831074 0.776259
Si Si7 0.531924 0.608294 0.535822
Si Si8 0.027612 0.172968 0.921551
O O1 0.575377 0.967066 0.201338
O O2 0.275493 0.939556 0.339850
O O3 0.451697 0.914456 0.450141
O O4 0.395495 0.044203 0.420959
O O5 0.169088 0.493163 0.784581
O O6 0.180356 0.374771 0.898964
O O7 0.138468 0.486903 0.029292
O O8 0.918532 0.750000 0.398792
O O9 0.694381 0.656856 0.440153
O O10 0.990619 0.620113 0.409866
O O11 0.999524 0.660435 0.200806
O O12 0.918844 0.001546 0.739167
O O13 0.000000 0.000000 0.500000
O O14 0.944418 0.114447 0.229016
O O15 0.154859 0.750000 0.752482
O O16 0.384593 0.850504 0.668622
O O17 0.146258 0.840029 0.930189
O O18 0.096940 0.250000 0.914150
#
# Coordination Sequence:
#
# PCOD8069873 Si02
#       8
#     4   4   4   4   4   4   4   4
#     4  11  22  34  59  86 117 149 190 246 289 337
#     4  10  18  36  59  87 108 151 199 246 275 342
#     4  11  22  39  61  84 115 153 195 236 292 356
#     4  12  23  38  55  83 121 161 187 238 297 349
#     4  10  20  35  60  82 118 152 197 236 289 348
#     4  10  20  34  58  89 114 145 195 249 292 334
#     4  11  20  37  59  87 115 146 196 241 289 340
#     4   9  18  34  58  85 113 147 189 241 290 335
#
# _framework density 18.111321
#
# number of rings (size 3 to 8) (size 9 to 14) (size 15 to 20)
#    0.000    1.500    5.000    1.125    0.000    0.500 
#    0.000    3.750    0.000    0.000    0.000    0.000 
#    0.000    0.000    0.000    0.000    0.000    0.000 
#
# Total GULP energy -396527.030897 kJ/mol
# GULP energy per Si atom -12391.469716 kJ/mol
# Density = 1.807010 g / cm^3
# Si number density = 18.111321 Si / 1000 Ang^3
#
#
#
# Elastic Constant Matrix: (Units=GPa)
#
#
# Indices 1 2 3 4 5 6 
#
# 1 119.3859 51.0848 49.4591 0.0000 -2.6735 0.0000
# 2 51.0848 119.8463 39.0815 0.0000 4.7957 0.0000
# 3 49.4591 39.0815 99.1032 0.0000 -7.4780 0.0000
# 4 0.0000 0.0000 0.0000 25.0333 0.0000 -0.4725
# 5 -2.6735 4.7957 -7.4780 0.0000 27.7883 0.0000
# 6 0.0000 0.0000 0.0000 -0.4725 0.0000 23.5367
#
#
#
# Elastic Compliance Matrix: (Units=1/GPa)
#
#
# Indices 1 2 3 4 5 6 
#
# 1 0.011752 -0.003596 -0.004404 0.000000 0.000566 0.000000
# 2 -0.003596 0.010882 -0.002720 0.000000 -0.002956 0.000000
# 3 -0.004404 -0.002720 0.013642 0.000000 0.003717 0.000000
# 4 0.000000 0.000000 0.000000 0.039962 0.000000 0.000802
# 5 0.000566 -0.002956 0.003717 0.000000 0.037551 0.000000
# 6 0.000000 0.000000 0.000000 0.000802 0.000000 0.042503
#
#
# Mechanical properties :
#
#
# Convention : Reuss Voigt Hill
#
# Bulk Modulus (GPa) = 67.40499 68.62068 68.01283
# Shear Modulus (GPa) = 27.37075 28.51900 27.94487
#
# Velocity S-wave (km/s) = 3.89170 3.97249 3.93230
# Velocity P-wave (km/s) = 7.58232 7.68189 7.63227
#
# Compressibility (1/GPa) = 0.01483570
#
# Stress axis : x y z
#
# Youngs Moduli (GPa) = 85.09096 91.89541 73.30521
#
# Poissons Ratio (x) = 0.33043 0.32286
# Poissons Ratio (y) = 0.30597 0.19938
# Poissons Ratio (z) = 0.37477 0.24994
#
# Static dielectric constant tensor:
#      x y z
#    x 2.785750 0.000000 -0.149600 
#    y 0.000000 3.581680 0.000000 
#    z -0.149600 0.000000 3.531590 
# 
# 
# High freq. dielectric constant tensor:
#      x y z
#    x 1.659160 0.000000 -0.014160 
#    y 0.000000 1.712860 0.000000 
#    z -0.014160 0.000000 1.720790 
# 
# From -- ./inp_files/32665.got.cif
#   From: 2010.06.25/outbox.cif.g09.slc.cpg/sg11_17_cif.got.tgz:32665.got - 2010.06.27 23:14:04.
