data_PCOD8069291
_publ_section_title
;
Structure prediction by ZEFSAII (Michael W. Deem and Ramdas Pophale) SiO2 
 PCOD8069291
Probable space group: P 21/M
;
_chemical_formula_sum "Si O2"
_cell_formula_units_Z 32
_cell_length_a 10.495814
_cell_length_b 19.112623
_cell_length_c 22.915724
_cell_angle_alpha 90.000000
_cell_angle_beta 23.646712
_cell_angle_gamma 90.000000
_cell_volume 1843.819154
_symmetry_space_group_name_H-M "P 21/M"
_symmetry_group_IT_number 11
_symmetry_cell_setting 'monoclinic'
loop_
_space_group_symop_operation_xyz
x,y,z
-x,1/2+y,-z
-x,-y,-z
x,1/2-y,z
loop_
_atom_site_type_symbol
_atom_site_label
_atom_site_fract_x
_atom_site_fract_y
_atom_site_fract_z
Si Si1 0.410913 0.327967 0.667995
Si Si2 0.028426 0.531343 0.671299
Si Si3 0.917106 0.672033 0.667995
Si Si4 0.463046 0.452664 0.328780
Si Si5 0.654760 0.670358 0.168338
Si Si6 0.671889 0.329642 0.168338
Si Si7 0.221835 0.547336 0.328780
Si Si8 0.286376 0.468657 0.671299
O O1 0.299825 0.250000 0.695424
O O2 0.342384 0.341686 0.763890
O O3 0.221253 0.385934 0.709837
O O4 0.788544 0.337607 0.500000
O O5 0.013966 0.500000 0.743017
O O6 0.377013 0.520508 0.500000
O O7 0.939398 0.614067 0.709837
O O8 0.786519 0.490287 0.730598
O O9 0.918482 0.750000 0.695423
O O10 0.602056 0.658314 0.763889
O O11 0.615415 0.378475 0.247867
O O12 0.426821 0.500000 0.286590
O O13 0.708911 0.490287 0.269402
O O14 0.126189 0.438833 0.500000
O O15 0.564267 0.750000 0.191000
O O16 0.393117 0.621525 0.247867
O O17 0.999516 0.650214 1.000000
O O18 0.671733 0.250000 0.191000
#
# Coordination Sequence:
#
# PCOD8069291 Si02
#       8
#     4   4   4   4   4   4   4   4
#     4   9  16  29  50  72  95 127 166 204 245 293
#     4   9  17  30  48  73 103 129 158 203 249 290
#     4   9  16  29  50  72  95 127 166 204 245 293
#     4  10  18  31  51  75 100 127 161 200 246 293
#     4  10  20  32  48  73 102 130 164 207 250 289
#     4  10  20  32  48  73 102 130 164 207 250 289
#     4  10  18  31  51  75 100 127 161 200 246 293
#     4   9  17  30  48  73 103 129 158 203 249 290
#
# _framework density 17.355281000000002
#
# number of rings (size 3 to 8) (size 9 to 14) (size 15 to 20)
#    0.000    2.500    2.500    0.750    0.000    2.000 
#    0.000    1.250    0.000    7.500    0.000    3.500 
#    0.000    0.000    0.000    0.000    0.000    0.000 
#
# Total GULP energy -396713.825118 kJ/mol
# GULP energy per Si atom -12397.307035 kJ/mol
# Density = 1.731578 g / cm^3
# Si number density = 17.355281 Si / 1000 Ang^3
#
#
#
# Elastic Constant Matrix: (Units=GPa)
#
#
# Indices 1 2 3 4 5 6 
#
# 1 122.6600 79.2985 26.2519 0.0000 -5.9634 0.0000
# 2 79.2985 152.0690 43.1168 0.0000 -2.5258 0.0000
# 3 26.2519 43.1168 44.6560 0.0000 0.5180 0.0000
# 4 0.0000 0.0000 0.0000 22.0620 0.0000 -0.3993
# 5 -5.9634 -2.5258 0.5180 0.0000 5.9460 0.0000
# 6 0.0000 0.0000 0.0000 -0.3993 0.0000 27.7816
#
#
#
# Elastic Compliance Matrix: (Units=1/GPa)
#
#
# Indices 1 2 3 4 5 6 
#
# 1 0.012995 -0.006057 -0.001914 0.000000 0.010627 0.000000
# 2 -0.006057 0.012006 -0.008029 0.000000 -0.000275 0.000000
# 3 -0.001914 -0.008029 0.031364 0.000000 -0.008063 0.000000
# 4 0.000000 0.000000 0.000000 0.045339 0.000000 0.000652
# 5 0.010627 -0.000275 -0.008063 0.000000 0.179425 0.000000
# 6 0.000000 0.000000 0.000000 0.000652 0.000000 0.036004
#
#
# Mechanical properties :
#
#
# Convention : Reuss Voigt Hill
#
# Bulk Modulus (GPa) = 41.04157 68.52438 54.78298
# Shear Modulus (GPa) = 13.99562 22.53909 18.26735
#
# Velocity S-wave (km/s) = 2.84283 3.60764 3.24783
# Velocity P-wave (km/s) = 5.87153 7.54470 6.76008
#
# Compressibility (1/GPa) = 0.02436554
#
# Stress axis : x y z
#
# Youngs Moduli (GPa) = 76.95406 83.28969 31.88361
#
# Poissons Ratio (x) = 0.50449 0.06103
# Poissons Ratio (y) = 0.46611 0.25598
# Poissons Ratio (z) = 0.14731 0.66869
#
# Static dielectric constant tensor:
#      x y z
#    x 3.209140 0.000000 -0.014390 
#    y 0.000000 3.543250 0.000000 
#    z -0.014390 0.000000 3.003050 
# 
# 
# High freq. dielectric constant tensor:
#      x y z
#    x 1.640210 0.000000 0.000140 
#    y 0.000000 1.688230 0.000000 
#    z 0.000140 0.000000 1.642160 
# 
# From -- ./inp_files/32234.got.cif
#   From: 2010.06.25/outbox.cif.g09.slc.cpg/sg11_17_cif.got.tgz:32234.got - 2010.06.27 23:14:04.
