data_PCOD8069898
_publ_section_title
;
Structure prediction by ZEFSAII (Michael W. Deem and Ramdas Pophale) SiO2 
 PCOD8069898
Probable space group: P 21/M
;
_chemical_formula_sum "Si O2"
_cell_formula_units_Z 24
_cell_length_a 18.544178
_cell_length_b 14.259806
_cell_length_c 9.762247
_cell_angle_alpha 90.000000
_cell_angle_beta 152.708747
_cell_angle_gamma 90.000000
_cell_volume 1183.650517
_symmetry_space_group_name_H-M "P 21/M"
_symmetry_group_IT_number 11
_symmetry_cell_setting 'monoclinic'
loop_
_space_group_symop_operation_xyz
x,y,z
-x,1/2+y,-z
-x,-y,-z
x,1/2-y,z
loop_
_atom_site_type_symbol
_atom_site_label
_atom_site_fract_x
_atom_site_fract_y
_atom_site_fract_z
Si Si1 0.593519 0.407792 0.623315
Si Si2 0.378968 0.853886 0.028552
Si Si3 0.273064 0.358675 0.484187
Si Si4 0.797501 0.972905 0.377515
Si Si5 0.728365 0.853960 0.999827
Si Si6 0.146244 0.471196 0.037017
O O1 0.500000 0.500000 0.500000
O O2 0.659785 0.362985 0.875373
O O3 0.463383 0.344318 0.326672
O O4 0.739709 0.436746 0.773001
O O5 0.327471 0.750000 0.893488
O O6 0.564218 0.867923 0.322071
O O7 0.287959 0.927140 0.779715
O O8 0.221015 0.250000 0.411419
O O9 0.289256 0.405851 0.660315
O O10 0.146785 0.419159 0.184723
O O11 0.791220 0.922083 0.222136
O O12 0.974968 0.989930 0.719623
O O13 0.796375 0.750000 0.138249
O O14 0.798679 0.893411 0.978284
#
# Coordination Sequence:
#
# PCOD8069898 Si02
#       6
#     4   4   4   4   4   4
#     4  10  18  37  63  90 116 156 208 249 297 357
#     4  11  22  39  64  91 121 163 211 252 297 362
#     4  11  23  42  64  86 121 168 211 246 298 369
#     4  12  24  40  59  97 129 158 196 258 315 351
#     4  11  21  38  64  90 121 160 208 252 298 361
#     4  11  22  40  63  88 125 164 199 246 313 368
#
# _framework density 20.276254000000002
#
# number of rings (size 3 to 8) (size 9 to 14) (size 15 to 20)
#    0.000    1.000    6.667    3.000    0.000    1.333 
#    0.000    2.500    0.000    1.000    0.000    0.000 
#    0.000    0.000    0.000    0.000    0.000    0.000 
#
# Total GULP energy -297582.831597 kJ/mol
# GULP energy per Si atom -12399.284650 kJ/mol
# Density = 2.023010 g / cm^3
# Si number density = 20.276254 Si / 1000 Ang^3
#
#
#
# Elastic Constant Matrix: (Units=GPa)
#
#
# Indices 1 2 3 4 5 6 
#
# 1 41.1051 32.5898 21.7712 0.0000 -9.8351 0.0000
# 2 32.5898 111.3886 23.4339 0.0000 -0.6975 0.0000
# 3 21.7712 23.4339 69.8734 0.0000 -3.6741 0.0000
# 4 0.0000 0.0000 0.0000 10.9710 0.0000 -1.8563
# 5 -9.8351 -0.6975 -3.6741 0.0000 27.0941 0.0000
# 6 0.0000 0.0000 0.0000 -1.8563 0.0000 22.6777
#
#
#
# Elastic Compliance Matrix: (Units=1/GPa)
#
#
# Indices 1 2 3 4 5 6 
#
# 1 0.039601 -0.009740 -0.008389 0.000000 0.012987 0.000000
# 2 -0.009740 0.012056 -0.001186 0.000000 -0.003386 0.000000
# 3 -0.008389 -0.001186 0.017285 0.000000 -0.000732 0.000000
# 4 0.000000 0.000000 0.000000 0.092430 0.000000 0.007566
# 5 0.012987 -0.003386 -0.000732 0.000000 0.041436 0.000000
# 6 0.000000 0.000000 0.000000 0.007566 0.000000 0.044715
#
#
# Mechanical properties :
#
#
# Convention : Reuss Voigt Hill
#
# Bulk Modulus (GPa) = 32.99263 41.99521 37.49392
# Shear Modulus (GPa) = 16.87719 21.78671 19.33195
#
# Velocity S-wave (km/s) = 2.88820 3.28150 3.09111
# Velocity P-wave (km/s) = 5.23728 5.92572 5.59211
#
# Compressibility (1/GPa) = 0.03030980
#
# Stress axis : x y z
#
# Youngs Moduli (GPa) = 25.25190 82.94823 57.85363
#
# Poissons Ratio (x) = 0.80792 0.48536
# Poissons Ratio (y) = 0.24596 0.06864
# Poissons Ratio (z) = 0.21185 0.09841
#
# Static dielectric constant tensor:
#      x y z
#    x 3.715850 0.000000 -0.100220 
#    y 0.000000 3.946620 0.000000 
#    z -0.100220 0.000000 4.963650 
# 
# 
# High freq. dielectric constant tensor:
#      x y z
#    x 1.775350 0.000000 -0.007090 
#    y 0.000000 1.801040 0.000000 
#    z -0.007090 0.000000 1.787830 
# 
# From -- ./inp_files/22014.got.cif
#   From: 2010.06.25/outbox.cif.g09.slc.cpg/sg11_12_cif.got.tgz:22014.got - 2010.06.27 23:14:04.
