data_PCOD8069088
_publ_section_title
;
Structure prediction by ZEFSAII (Michael W. Deem and Ramdas Pophale) SiO2 
 PCOD8069088
Probable space group: P 21/M
;
_chemical_formula_sum "Si O2"
_cell_formula_units_Z 32
_cell_length_a 25.533708
_cell_length_b 8.938672
_cell_length_c 20.919215
_cell_angle_alpha 90.000000
_cell_angle_beta 157.931004
_cell_angle_gamma 90.000000
_cell_volume 1793.906785
_symmetry_space_group_name_H-M "P 21/M"
_symmetry_group_IT_number 11
_symmetry_cell_setting 'monoclinic'
loop_
_space_group_symop_operation_xyz
x,y,z
-x,1/2+y,-z
-x,-y,-z
x,1/2-y,z
loop_
_atom_site_type_symbol
_atom_site_label
_atom_site_fract_x
_atom_site_fract_y
_atom_site_fract_z
Si Si1 0.938827 0.427465 0.619556
Si Si2 0.661669 0.424765 0.746278
Si Si3 0.912084 0.425968 0.844377
Si Si4 0.926786 0.923691 0.357671
Si Si5 0.654076 0.575577 0.602206
Si Si6 0.659285 0.426086 0.246952
Si Si7 0.080030 0.426380 0.907537
Si Si8 0.352366 0.077100 0.898204
O O1 0.950045 0.250000 0.634511
O O2 0.777002 0.479996 0.430479
O O3 0.022748 0.490494 0.652940
O O4 0.003798 0.490889 0.758260
O O5 0.685663 0.250000 0.760078
O O6 0.685139 0.513860 0.707630
O O7 0.506653 0.453900 0.598755
O O8 0.772835 0.487590 0.922451
O O9 0.905861 0.250000 0.848852
O O10 0.754890 0.491684 0.666257
O O11 0.981819 0.466752 0.855995
O O12 0.000000 0.500000 0.000000
O O13 0.965122 0.750000 0.404952
O O14 0.759919 0.950670 0.173000
O O15 0.000000 0.000000 0.500000
O O16 0.690916 0.750000 0.644186
O O17 0.668109 0.250000 0.250096
O O18 0.696318 0.489760 0.219503
O O19 0.505033 0.478381 0.094961
O O20 0.109497 0.250000 0.936950
O O21 0.360361 0.250000 0.887761
#
# Coordination Sequence:
#
# PCOD8069088 Si02
#       8
#     4   4   4   4   4   4   4   4
#     4   9  18  33  51  71 100 137 170 203 252 308
#     4  10  20  34  54  79 106 137 173 213 263 316
#     4  11  21  33  53  80 107 137 178 223 264 308
#     4  10  18  30  49  74 101 128 166 211 253 297
#     4  10  20  34  54  80 107 135 171 218 264 312
#     4   9  16  29  48  69  97 131 162 199 249 298
#     4  10  21  36  53  75 106 140 175 214 258 314
#     4   9  17  27  45  74 100 122 160 209 249 292
#
# _framework density 17.838162000000001
#
# number of rings (size 3 to 8) (size 9 to 14) (size 15 to 20)
#    0.000    2.250    2.500    1.125    0.000    2.000 
#    0.000    2.500    0.000    4.500    0.000    3.500 
#    0.000    0.000    0.000    0.000    0.000    0.000 
#
# Total GULP energy -396714.531602 kJ/mol
# GULP energy per Si atom -12397.329113 kJ/mol
# Density = 1.779756 g / cm^3
# Si number density = 17.838162 Si / 1000 Ang^3
#
#
#
# Elastic Constant Matrix: (Units=GPa)
#
#
# Indices 1 2 3 4 5 6 
#
# 1 110.2336 35.0202 75.6231 0.0000 0.6650 0.0000
# 2 35.0202 51.4454 40.8380 0.0000 3.6105 0.0000
# 3 75.6231 40.8380 157.6347 0.0000 -0.6575 0.0000
# 4 0.0000 0.0000 0.0000 26.7397 0.0000 3.3258
# 5 0.6650 3.6105 -0.6575 0.0000 30.0316 0.0000
# 6 0.0000 0.0000 0.0000 3.3258 0.0000 21.0009
#
#
#
# Elastic Compliance Matrix: (Units=1/GPa)
#
#
# Indices 1 2 3 4 5 6 
#
# 1 0.014679 -0.005563 -0.005600 0.000000 0.000221 0.000000
# 2 -0.005563 0.026867 -0.004305 0.000000 -0.003201 0.000000
# 3 -0.005600 -0.004305 0.010149 0.000000 0.000864 0.000000
# 4 0.000000 0.000000 0.000000 0.038149 0.000000 -0.006041
# 5 0.000221 -0.003201 0.000864 0.000000 0.033697 0.000000
# 6 0.000000 0.000000 0.000000 -0.006041 0.000000 0.048574
#
#
# Mechanical properties :
#
#
# Convention : Reuss Voigt Hill
#
# Bulk Modulus (GPa) = 48.17034 69.14183 58.65608
# Shear Modulus (GPa) = 23.81279 26.74326 25.27802
#
# Velocity S-wave (km/s) = 3.65764 3.87617 3.76849
# Velocity P-wave (km/s) = 6.70078 7.67318 7.20341
#
# Compressibility (1/GPa) = 0.02075966
#
# Stress axis : x y z
#
# Youngs Moduli (GPa) = 68.12258 37.22065 98.52881
#
# Poissons Ratio (x) = 0.20705 0.55178
# Poissons Ratio (y) = 0.37894 0.42417
# Poissons Ratio (z) = 0.38150 0.16024
#
# Static dielectric constant tensor:
#      x y z
#    x 3.366170 0.000000 0.272870 
#    y 0.000000 3.270050 0.000000 
#    z 0.272870 0.000000 3.708220 
# 
# 
# High freq. dielectric constant tensor:
#      x y z
#    x 1.670940 0.000000 0.024730 
#    y 0.000000 1.679770 0.000000 
#    z 0.024730 0.000000 1.697950 
# 
# From -- ./inp_files/67273.got.cif
#   From: 2010.06.25/outbox.cif.g09.slc.cpg/sg11_34_cif.got.tgz:67273.got - 2010.06.27 23:14:04.
