data_PCOD8069591
_publ_section_title
;
Structure prediction by ZEFSAII (Michael W. Deem and Ramdas Pophale) SiO2 
 PCOD8069591
Probable space group: P 21/M
;
_chemical_formula_sum "Si O2"
_cell_formula_units_Z 32
_cell_length_a 23.707088
_cell_length_b 14.005420
_cell_length_c 9.515229
_cell_angle_alpha 90.000000
_cell_angle_beta 30.953228
_cell_angle_gamma 90.000000
_cell_volume 1624.958800
_symmetry_space_group_name_H-M "P 21/M"
_symmetry_group_IT_number 11
_symmetry_cell_setting 'monoclinic'
loop_
_space_group_symop_operation_xyz
x,y,z
-x,1/2+y,-z
-x,-y,-z
x,1/2-y,z
loop_
_atom_site_type_symbol
_atom_site_label
_atom_site_fract_x
_atom_site_fract_y
_atom_site_fract_z
Si Si1 0.477453 0.861043 0.175397
Si Si2 0.847719 0.639563 0.293686
Si Si3 0.570068 0.572820 0.258263
Si Si4 0.046850 0.858809 0.668112
Si Si5 0.112333 0.142544 0.240871
Si Si6 0.354548 0.463946 0.375792
Si Si7 0.811602 0.964028 0.654564
Si Si8 0.650538 0.851563 0.359300
O O1 0.460262 0.750000 0.175473
O O2 0.493757 0.874258 0.307617
O O3 0.373789 0.921454 0.334771
O O4 0.584424 0.906782 0.877064
O O5 0.807916 0.750000 0.363973
O O6 0.771160 0.565200 0.372062
O O7 0.845540 0.610715 0.461466
O O8 0.967872 0.627495 0.971250
O O9 0.500000 0.500000 0.500000
O O10 0.610561 0.649968 0.284481
O O11 0.679967 0.527670 0.954345
O O12 0.090422 0.750000 0.571383
O O13 0.988292 0.884121 0.645515
O O14 0.149280 0.929469 0.468456
O O15 0.098719 0.250000 0.329756
O O16 0.123578 0.069448 0.345275
O O17 0.218771 0.136270 0.914952
O O18 0.402274 0.431437 0.426628
O O19 0.618095 0.750000 0.495522
#
# Coordination Sequence:
#
# PCOD8069591 Si02
#       8
#     4   4   4   4   4   4   4   4
#     4  11  23  39  59  86 121 156 195 247 301 349
#     4  11  21  37  63  90 115 149 194 244 294 349
#     4  11  22  38  57  82 117 158 200 242 297 349
#     4  10  21  38  59  85 118 153 190 238 298 355
#     4   9  18  33  57  86 111 145 192 240 287 340
#     4  11  21  36  61  87 115 152 201 241 294 351
#     4  11  22  36  59  85 116 151 195 248 289 346
#     4  10  18  32  57  85 111 144 196 247 285 336
#
# _framework density 19.692807999999999
#
# number of rings (size 3 to 8) (size 9 to 14) (size 15 to 20)
#    0.000    1.500    3.750    2.625    0.000    1.000 
#    0.000    1.875    0.000    1.500    0.000    0.000 
#    0.000    0.000    0.000    0.000    0.000    0.000 
#
# Total GULP energy -396602.384539 kJ/mol
# GULP energy per Si atom -12393.824517 kJ/mol
# Density = 1.964799 g / cm^3
# Si number density = 19.692808 Si / 1000 Ang^3
#
#
#
# Elastic Constant Matrix: (Units=GPa)
#
#
# Indices 1 2 3 4 5 6 
#
# 1 59.2118 30.5901 22.9908 0.0000 10.9195 0.0000
# 2 30.5901 130.2055 42.2388 0.0000 -1.1042 0.0000
# 3 22.9908 42.2388 71.1661 0.0000 8.3004 0.0000
# 4 0.0000 0.0000 0.0000 27.7170 0.0000 3.9786
# 5 10.9195 -1.1042 8.3004 0.0000 25.5339 0.0000
# 6 0.0000 0.0000 0.0000 3.9786 0.0000 25.5111
#
#
#
# Elastic Compliance Matrix: (Units=1/GPa)
#
#
# Indices 1 2 3 4 5 6 
#
# 1 0.021953 -0.004017 -0.003734 0.000000 -0.008348 0.000000
# 2 -0.004017 0.010382 -0.005319 0.000000 0.003896 0.000000
# 3 -0.003734 -0.005319 0.018975 0.000000 -0.004801 0.000000
# 4 0.000000 0.000000 0.000000 0.036905 0.000000 -0.005756
# 5 -0.008348 0.003896 -0.004801 0.000000 0.044463 0.000000
# 6 0.000000 0.000000 0.000000 -0.005756 0.000000 0.040096
#
#
# Mechanical properties :
#
#
# Convention : Reuss Voigt Hill
#
# Bulk Modulus (GPa) = 39.72959 50.24698 44.98828
# Shear Modulus (GPa) = 24.11903 26.73665 25.42784
#
# Velocity S-wave (km/s) = 3.50346 3.68868 3.59726
# Velocity P-wave (km/s) = 6.04848 6.61155 6.33627
#
# Compressibility (1/GPa) = 0.02517015
#
# Stress axis : x y z
#
# Youngs Moduli (GPa) = 45.55139 96.31691 52.70120
#
# Poissons Ratio (x) = 0.38690 0.19680
# Poissons Ratio (y) = 0.18298 0.28031
# Poissons Ratio (z) = 0.17010 0.51230
#
# Static dielectric constant tensor:
#      x y z
#    x 3.628760 0.000000 0.209640 
#    y 0.000000 3.550960 0.000000 
#    z 0.209640 0.000000 3.452410 
# 
# 
# High freq. dielectric constant tensor:
#      x y z
#    x 1.770130 0.000000 0.023130 
#    y 0.000000 1.762890 0.000000 
#    z 0.023130 0.000000 1.752970 
# 
# From -- ./inp_files/27792.got.cif
#   From: 2010.06.25/outbox.cif.g09.slc.cpg/sg11_14_cif.got.tgz:27792.got - 2010.06.27 23:14:04.
