data_PCOD8069219
_publ_section_title
;
Structure prediction by ZEFSAII (Michael W. Deem and Ramdas Pophale) SiO2 
 PCOD8069219
Probable space group: P 21/M
;
_chemical_formula_sum "Si O2"
_cell_formula_units_Z 32
_cell_length_a 14.632275
_cell_length_b 9.004692
_cell_length_c 28.706719
_cell_angle_alpha 90.000000
_cell_angle_beta 151.467136
_cell_angle_gamma 90.000000
_cell_volume 1806.698390
_symmetry_space_group_name_H-M "P 21/M"
_symmetry_group_IT_number 11
_symmetry_cell_setting 'monoclinic'
loop_
_space_group_symop_operation_xyz
x,y,z
-x,1/2+y,-z
-x,-y,-z
x,1/2-y,z
loop_
_atom_site_type_symbol
_atom_site_label
_atom_site_fract_x
_atom_site_fract_y
_atom_site_fract_z
Si Si1 0.105467 0.074297 0.615471
Si Si2 0.395538 0.574632 0.319168
Si Si3 0.698195 0.917842 0.204794
Si Si4 0.065093 0.584905 0.312973
Si Si5 0.399902 0.424153 0.498080
Si Si6 0.003082 0.922619 0.179386
Si Si7 0.600118 0.427645 0.999960
Si Si8 0.260336 0.424265 0.585751
O O1 0.075792 0.250000 0.607582
O O2 0.218955 0.005043 0.711037
O O3 0.230752 0.032212 0.626268
O O4 0.895111 0.003700 0.516863
O O5 0.387690 0.750000 0.320091
O O6 0.510123 0.510295 0.414611
O O7 0.521920 0.527017 0.330645
O O8 0.172352 0.522141 0.219564
O O9 0.657381 0.750000 0.201604
O O10 0.505145 0.983258 0.095046
O O11 0.844422 0.928990 0.227365
O O12 0.141994 0.750000 0.358772
O O13 0.177222 0.467902 0.395286
O O14 0.090522 0.552778 0.269796
O O15 0.500000 0.500000 0.500000
O O16 0.425612 0.250000 0.506392
O O17 0.947314 0.750000 0.146742
O O18 0.818307 0.024133 0.090473
O O19 0.586306 0.250000 0.999263
O O20 0.500000 0.500000 0.000000
O O21 0.231756 0.250000 0.564611
#
# Coordination Sequence:
#
# PCOD8069219 Si02
#       8
#     4   4   4   4   4   4   4   4
#     4   9  17  31  52  76  99 127 160 196 242 291
#     4   9  18  32  48  66  96 132 161 194 241 288
#     4   9  18  32  50  70  97 127 156 196 248 294
#     4  10  18  31  47  65  93 129 158 191 238 285
#     4  11  20  30  43  64  94 128 161 193 230 278
#     4  10  19  34  50  66  94 132 164 198 242 287
#     4  11  21  35  52  72  97 128 167 208 247 289
#     4   9  17  31  52  76 100 127 161 198 236 287
#
# _framework density 17.711863999999998
#
# number of rings (size 3 to 8) (size 9 to 14) (size 15 to 20)
#    0.000    2.250    2.500    1.500    0.000    0.500 
#    0.000    2.500    0.000    0.750    0.000    0.000 
#    0.000    0.000    0.000    0.000    0.000    0.125 
#
# Total GULP energy -396507.366023 kJ/mol
# GULP energy per Si atom -12390.855188 kJ/mol
# Density = 1.767155 g / cm^3
# Si number density = 17.711864 Si / 1000 Ang^3
#
#
#
# Elastic Constant Matrix: (Units=GPa)
#
#
# Indices 1 2 3 4 5 6 
#
# 1 100.7706 20.0045 53.4553 0.0000 13.8939 0.0000
# 2 20.0045 40.0532 30.6849 0.0000 2.6976 0.0000
# 3 53.4553 30.6849 112.2519 0.0000 11.3522 0.0000
# 4 0.0000 0.0000 0.0000 27.7040 0.0000 4.5900
# 5 13.8939 2.6976 11.3522 0.0000 28.5992 0.0000
# 6 0.0000 0.0000 0.0000 4.5900 0.0000 17.5338
#
#
#
# Elastic Compliance Matrix: (Units=1/GPa)
#
#
# Indices 1 2 3 4 5 6 
#
# 1 0.013941 -0.002430 -0.005535 0.000000 -0.004347 0.000000
# 2 -0.002430 0.032010 -0.007717 0.000000 0.001224 0.000000
# 3 -0.005535 -0.007717 0.013865 0.000000 -0.002087 0.000000
# 4 0.000000 0.000000 0.000000 0.037732 0.000000 -0.009878
# 5 -0.004347 0.001224 -0.002087 0.000000 0.037790 0.000000
# 6 0.000000 0.000000 0.000000 -0.009878 0.000000 0.059618
#
#
# Mechanical properties :
#
#
# Convention : Reuss Voigt Hill
#
# Bulk Modulus (GPa) = 35.14632 51.26281 43.20457
# Shear Modulus (GPa) = 21.20395 24.69613 22.95004
#
# Velocity S-wave (km/s) = 3.46375 3.73812 3.60355
# Velocity P-wave (km/s) = 5.99026 6.90195 6.46220
#
# Compressibility (1/GPa) = 0.02845248
#
# Stress axis : x y z
#
# Youngs Moduli (GPa) = 71.72866 31.24046 72.12425
#
# Poissons Ratio (x) = 0.07590 0.39923
# Poissons Ratio (y) = 0.17428 0.55657
# Poissons Ratio (z) = 0.39704 0.24108
#
# Static dielectric constant tensor:
#      x y z
#    x 3.454610 0.000000 0.093330 
#    y 0.000000 3.298010 0.000000 
#    z 0.093330 0.000000 3.619690 
# 
# 
# High freq. dielectric constant tensor:
#      x y z
#    x 1.679680 0.000000 0.012130 
#    y 0.000000 1.658000 0.000000 
#    z 0.012130 0.000000 1.678850 
# 
# From -- ./inp_files/73322.got.cif
#   From: 2010.06.25/outbox.cif.g09.slc.cpg/sg11_37_cif.got.tgz:73322.got - 2010.06.27 23:14:04.
