data_PCOD8069128
_publ_section_title
;
Structure prediction by ZEFSAII (Michael W. Deem and Ramdas Pophale) SiO2 
 PCOD8069128
Probable space group: P 21/M
;
_chemical_formula_sum "Si O2"
_cell_formula_units_Z 32
_cell_length_a 14.695898
_cell_length_b 8.580770
_cell_length_c 25.987956
_cell_angle_alpha 90.000000
_cell_angle_beta 147.879758
_cell_angle_gamma 90.000000
_cell_volume 1742.446279
_symmetry_space_group_name_H-M "P 21/M"
_symmetry_group_IT_number 11
_symmetry_cell_setting 'monoclinic'
loop_
_space_group_symop_operation_xyz
x,y,z
-x,1/2+y,-z
-x,-y,-z
x,1/2-y,z
loop_
_atom_site_type_symbol
_atom_site_label
_atom_site_fract_x
_atom_site_fract_y
_atom_site_fract_z
Si Si1 0.949808 0.567525 0.062235
Si Si2 0.245106 0.566325 0.395117
Si Si3 0.313929 0.067312 0.223255
Si Si4 0.424517 0.565796 0.844673
Si Si5 0.425199 0.434170 0.387443
Si Si6 0.137511 0.435080 0.772333
Si Si7 0.255384 0.066473 0.938305
Si Si8 0.372202 0.567660 0.146583
O O1 0.993170 0.750000 0.078349
O O2 0.894076 0.520061 0.093363
O O3 0.112321 0.466451 0.124550
O O4 0.795685 0.528333 0.949987
O O5 0.252104 0.750000 0.392174
O O6 0.277269 0.496598 0.354083
O O7 0.388932 0.506309 0.504085
O O8 0.059987 0.513339 0.326921
O O9 0.346198 0.250000 0.232197
O O10 0.392347 0.002929 0.314300
O O11 0.411522 0.975981 0.224526
O O12 0.436106 0.750000 0.842475
O O13 0.236649 0.514777 0.772703
O O14 0.465731 0.483937 0.810150
O O15 0.562097 0.505432 0.953115
O O16 0.415664 0.250000 0.383397
O O17 0.158223 0.250000 0.778957
O O18 0.213411 0.503837 0.862268
O O19 0.262744 0.250000 0.937048
O O20 0.338446 0.750000 0.124052
#
# Coordination Sequence:
#
# PCOD8069128 Si02
#       8
#     4   4   4   4   4   4   4   4
#     4  10  19  33  51  74 104 135 168 204 245 293
#     4   9  18  33  53  77 105 134 164 203 249 297
#     4  11  21  33  50  73 101 133 169 207 249 297
#     4  10  20  34  49  69 100 134 168 206 247 290
#     4   9  19  34  52  76 105 134 164 202 250 299
#     4  10  18  30  50  74  99 130 168 204 243 292
#     4   8  16  29  46  70 100 132 163 197 236 284
#     4  11  22  36  52  71  97 131 170 209 250 294
#
# _framework density 18.364985000000001
#
# number of rings (size 3 to 8) (size 9 to 14) (size 15 to 20)
#    0.000    2.250    0.000    4.500    0.000    2.500 
#    0.000    3.125    0.000    0.750    0.000    0.000 
#    0.000    0.000    0.000    0.000    0.000    0.000 
#
# Total GULP energy -396830.276782 kJ/mol
# GULP energy per Si atom -12400.946149 kJ/mol
# Density = 1.832319 g / cm^3
# Si number density = 18.364985 Si / 1000 Ang^3
#
#
#
# Elastic Constant Matrix: (Units=GPa)
#
#
# Indices 1 2 3 4 5 6 
#
# 1 146.1076 26.9797 63.2658 0.0000 -0.5233 0.0000
# 2 26.9797 41.1263 15.9204 0.0000 0.1484 0.0000
# 3 63.2658 15.9204 71.9004 0.0000 0.2102 0.0000
# 4 0.0000 0.0000 0.0000 17.7259 0.0000 0.8772
# 5 -0.5233 0.1484 0.2102 0.0000 29.0357 0.0000
# 6 0.0000 0.0000 0.0000 0.8772 0.0000 30.4310
#
#
#
# Elastic Compliance Matrix: (Units=1/GPa)
#
#
# Indices 1 2 3 4 5 6 
#
# 1 0.011635 -0.004015 -0.009350 0.000000 0.000298 0.000000
# 2 -0.004015 0.027980 -0.002662 0.000000 -0.000196 0.000000
# 3 -0.009350 -0.002662 0.022726 0.000000 -0.000319 0.000000
# 4 0.000000 0.000000 0.000000 0.056495 0.000000 -0.001629
# 5 0.000298 -0.000196 -0.000319 0.000000 0.034449 0.000000
# 6 0.000000 0.000000 0.000000 -0.001629 0.000000 0.032908
#
#
# Mechanical properties :
#
#
# Convention : Reuss Voigt Hill
#
# Bulk Modulus (GPa) = 33.01702 52.38512 42.70107
# Shear Modulus (GPa) = 21.89684 25.63640 23.76662
#
# Velocity S-wave (km/s) = 3.45674 3.74028 3.60130
# Velocity P-wave (km/s) = 5.82660 6.87309 6.37137
#
# Compressibility (1/GPa) = 0.03028741
#
# Stress axis : x y z
#
# Youngs Moduli (GPa) = 85.94567 35.73929 44.00314
#
# Poissons Ratio (x) = 0.14348 0.41143
# Poissons Ratio (y) = 0.34504 0.11715
# Poissons Ratio (z) = 0.80358 0.09515
#
# Static dielectric constant tensor:
#      x y z
#    x 3.549550 0.000000 -0.114440 
#    y 0.000000 3.191230 0.000000 
#    z -0.114440 0.000000 3.480000 
# 
# 
# High freq. dielectric constant tensor:
#      x y z
#    x 1.716770 0.000000 -0.001120 
#    y 0.000000 1.703060 0.000000 
#    z -0.001120 0.000000 1.687340 
# 
# From -- ./inp_files/71650.got.cif
#   From: 2010.06.25/outbox.cif.g09.slc.cpg/sg11_36_cif.got.tgz:71650.got - 2010.06.27 23:14:04.
