data_PCOD8069527
_publ_section_title
;
Structure prediction by ZEFSAII (Michael W. Deem and Ramdas Pophale) SiO2 
 PCOD8069527
Probable space group: P 21/M
;
_chemical_formula_sum "Si O2"
_cell_formula_units_Z 32
_cell_length_a 15.581548
_cell_length_b 16.576048
_cell_length_c 22.603713
_cell_angle_alpha 90.000000
_cell_angle_beta 17.594254
_cell_angle_gamma 90.000000
_cell_volume 1764.706973
_symmetry_space_group_name_H-M "P 21/M"
_symmetry_group_IT_number 11
_symmetry_cell_setting 'monoclinic'
loop_
_space_group_symop_operation_xyz
x,y,z
-x,1/2+y,-z
-x,-y,-z
x,1/2-y,z
loop_
_atom_site_type_symbol
_atom_site_label
_atom_site_fract_x
_atom_site_fract_y
_atom_site_fract_z
Si Si1 0.830230 0.013058 0.853140
Si Si2 0.162905 0.036225 0.516481
Si Si3 0.244627 0.040944 0.874860
Si Si4 0.228062 0.096049 0.262809
Si Si5 0.952277 0.060443 0.899241
Si Si6 0.384558 0.342251 0.283826
Si Si7 0.374867 0.341432 0.699083
Si Si8 0.952767 0.660495 0.739199
O O1 0.004520 0.043987 0.795816
O O2 0.988521 0.047313 0.691525
O O3 0.518237 0.049695 0.057510
O O4 0.807942 0.914931 0.868352
O O5 0.186528 0.118873 0.464540
O O6 0.470988 0.004640 0.330893
O O7 0.014134 0.971457 0.571188
O O8 0.274944 0.133118 0.831668
O O9 0.155019 0.025932 0.002162
O O10 0.000000 0.000000 0.000000
O O11 0.241677 0.146422 0.313808
O O12 0.141437 0.156833 0.267375
O O13 0.235666 0.098602 0.741806
O O14 0.700716 0.123223 0.076027
O O15 0.404897 0.250000 0.287174
O O16 0.275871 0.250000 0.752857
O O17 0.711477 0.350245 0.473763
O O18 0.862125 0.750000 0.822675
#
# Coordination Sequence:
#
# PCOD8069527 Si02
#       8
#     4   4   4   4   4   4   4   4
#     4  10  20  36  55  80 106 148 184 214 263 324
#     4  10  18  34  54  77 107 136 180 220 260 321
#     4   9  17  33  52  77 100 137 174 215 262 317
#     4  10  19  35  56  75 106 145 182 216 266 327
#     4   9  20  34  55  78 106 141 183 217 265 323
#     4  10  20  34  53  79 106 137 178 229 270 307
#     4  10  18  32  54  79 104 137 177 223 270 314
#     4  10  19  32  53  79 107 138 176 224 271 315
#
# _framework density 18.133322
#
# number of rings (size 3 to 8) (size 9 to 14) (size 15 to 20)
#    0.000    2.250    2.500    2.625    0.000    0.500 
#    0.000    6.250    0.000    0.000    0.000    0.000 
#    0.000    0.000    0.000    0.000    0.000    0.000 
#
# Total GULP energy -396504.582779 kJ/mol
# GULP energy per Si atom -12390.768212 kJ/mol
# Density = 1.809205 g / cm^3
# Si number density = 18.133322 Si / 1000 Ang^3
#
#
#
# Elastic Constant Matrix: (Units=GPa)
#
#
# Indices 1 2 3 4 5 6 
#
# 1 87.7187 37.2382 28.4185 0.0000 -8.3523 0.0000
# 2 37.2382 93.3598 25.5252 0.0000 7.6997 0.0000
# 3 28.4185 25.5252 61.1014 0.0000 -7.1464 0.0000
# 4 0.0000 0.0000 0.0000 20.6380 0.0000 0.1620
# 5 -8.3523 7.6997 -7.1464 0.0000 30.5215 0.0000
# 6 0.0000 0.0000 0.0000 0.1620 0.0000 23.7564
#
#
#
# Elastic Compliance Matrix: (Units=1/GPa)
#
#
# Indices 1 2 3 4 5 6 
#
# 1 0.015556 -0.005362 -0.004462 0.000000 0.004565 0.000000
# 2 -0.005362 0.014530 -0.004294 0.000000 -0.006138 0.000000
# 3 -0.004462 -0.004294 0.020788 0.000000 0.004730 0.000000
# 4 0.000000 0.000000 0.000000 0.048457 0.000000 -0.000330
# 5 0.004565 -0.006138 0.004730 0.000000 0.036669 0.000000
# 6 0.000000 0.000000 0.000000 -0.000330 0.000000 0.042096
#
#
# Mechanical properties :
#
#
# Convention : Reuss Voigt Hill
#
# Bulk Modulus (GPa) = 44.16934 47.17153 45.67044
# Shear Modulus (GPa) = 23.37778 25.04971 24.21375
#
# Velocity S-wave (km/s) = 3.59446 3.72078 3.65816
# Velocity P-wave (km/s) = 6.45274 6.67301 6.56380
#
# Compressibility (1/GPa) = 0.02264014
#
# Stress axis : x y z
#
# Youngs Moduli (GPa) = 64.28283 68.82259 48.10360
#
# Poissons Ratio (x) = 0.36900 0.21462
# Poissons Ratio (y) = 0.34466 0.20657
# Poissons Ratio (z) = 0.28680 0.29554
#
# Static dielectric constant tensor:
#      x y z
#    x 3.697240 0.000000 0.008420 
#    y 0.000000 3.509350 0.000000 
#    z 0.008420 0.000000 3.346300 
# 
# 
# High freq. dielectric constant tensor:
#      x y z
#    x 1.711810 0.000000 -0.020280 
#    y 0.000000 1.692710 0.000000 
#    z -0.020280 0.000000 1.693060 
# 
# From -- ./inp_files/65844.got.cif
#   From: 2010.06.25/outbox.cif.g09.slc.cpg/sg11_33_cif.got.tgz:65844.got - 2010.06.27 23:14:04.
