data_PCOD8069486
_publ_section_title
;
Structure prediction by ZEFSAII (Michael W. Deem and Ramdas Pophale) SiO2 
 PCOD8069486
Probable space group: P 21/M
;
_chemical_formula_sum "Si O2"
_cell_formula_units_Z 32
_cell_length_a 20.115360
_cell_length_b 9.040375
_cell_length_c 25.177013
_cell_angle_alpha 90.000000
_cell_angle_beta 156.989097
_cell_angle_gamma 90.000000
_cell_volume 1789.744823
_symmetry_space_group_name_H-M "P 21/M"
_symmetry_group_IT_number 11
_symmetry_cell_setting 'monoclinic'
loop_
_space_group_symop_operation_xyz
x,y,z
-x,1/2+y,-z
-x,-y,-z
x,1/2-y,z
loop_
_atom_site_type_symbol
_atom_site_label
_atom_site_fract_x
_atom_site_fract_y
_atom_site_fract_z
Si Si1 0.151168 0.574556 0.143316
Si Si2 0.654665 0.921849 0.142209
Si Si3 0.972242 0.424657 0.834464
Si Si4 0.353561 0.075857 0.119763
Si Si5 0.839616 0.076727 0.624615
Si Si6 0.443885 0.580647 0.084132
Si Si7 0.543243 0.577653 0.687853
Si Si8 0.867329 0.075329 0.220142
O O1 0.137440 0.750000 0.126219
O O2 0.134146 0.525539 0.192287
O O3 0.332191 0.518019 0.256721
O O4 0.000000 0.500000 0.000000
O O5 0.659560 0.750000 0.130081
O O6 0.618463 0.940751 0.178655
O O7 0.825996 0.001608 0.247381
O O8 0.500000 0.000000 0.000000
O O9 0.986802 0.250000 0.844211
O O10 0.878378 0.481583 0.712554
O O11 0.162764 0.490856 0.977408
O O12 0.351649 0.250000 0.111767
O O13 0.439176 0.028782 0.238043
O O14 0.463830 0.011567 0.152577
O O15 0.880585 0.250000 0.648599
O O16 0.645179 0.041031 0.469659
O O17 0.952396 0.986408 0.666004
O O18 0.418227 0.750000 0.081103
O O19 0.278533 0.527648 0.929109
O O20 0.589596 0.750000 0.715070
O O21 0.876240 0.250000 0.234217
#
# Coordination Sequence:
#
# PCOD8069486 Si02
#       8
#     4   4   4   4   4   4   4   4
#     4  11  21  36  57  79 106 136 173 217 262 309
#     4   9  17  29  46  73 108 140 173 214 262 308
#     4   9  18  33  54  78 101 133 175 214 256 309
#     4  10  18  32  53  75 103 135 172 215 256 307
#     4  10  20  36  56  75 103 142 176 211 260 314
#     4   9  18  30  47  77 108 133 170 219 257 300
#     4  10  22  38  54  78 107 136 174 215 260 315
#     4  10  19  31  49  76 109 138 173 217 260 308
#
# _framework density 17.879643000000002
#
# number of rings (size 3 to 8) (size 9 to 14) (size 15 to 20)
#    0.000    2.250    2.500    1.875    0.000    4.000 
#    0.000    1.250    0.000    0.750    0.000    0.000 
#    0.000    0.000    0.000    0.000    0.000    0.000 
#
# Total GULP energy -396751.042550 kJ/mol
# GULP energy per Si atom -12398.470080 kJ/mol
# Density = 1.783895 g / cm^3
# Si number density = 17.879643 Si / 1000 Ang^3
#
#
#
# Elastic Constant Matrix: (Units=GPa)
#
#
# Indices 1 2 3 4 5 6 
#
# 1 158.2092 59.9118 63.7288 0.0000 13.0817 0.0000
# 2 59.9118 68.4889 38.2383 0.0000 10.9666 0.0000
# 3 63.7288 38.2383 97.7583 0.0000 -1.1661 0.0000
# 4 0.0000 0.0000 0.0000 18.5668 0.0000 7.5627
# 5 13.0817 10.9666 -1.1661 0.0000 26.6372 0.0000
# 6 0.0000 0.0000 0.0000 7.5627 0.0000 33.5515
#
#
#
# Elastic Compliance Matrix: (Units=1/GPa)
#
#
# Indices 1 2 3 4 5 6 
#
# 1 0.010855 -0.006483 -0.004575 0.000000 -0.002862 0.000000
# 2 -0.006483 0.024435 -0.005416 0.000000 -0.007113 0.000000
# 3 -0.004575 -0.005416 0.015392 0.000000 0.005150 0.000000
# 4 0.000000 0.000000 0.000000 0.059304 0.000000 -0.013368
# 5 -0.002862 -0.007113 0.005150 0.000000 0.042101 0.000000
# 6 0.000000 0.000000 0.000000 -0.013368 0.000000 0.032818
#
#
# Mechanical properties :
#
#
# Convention : Reuss Voigt Hill
#
# Bulk Modulus (GPa) = 56.39050 72.02378 64.20714
# Shear Modulus (GPa) = 22.34478 26.58961 24.46720
#
# Velocity S-wave (km/s) = 3.53899 3.86053 3.70325
# Velocity P-wave (km/s) = 6.95030 7.76155 7.36710
#
# Compressibility (1/GPa) = 0.01773348
#
# Stress axis : x y z
#
# Youngs Moduli (GPa) = 92.12003 40.92433 64.97062
#
# Poissons Ratio (x) = 0.26533 0.29723
# Poissons Ratio (y) = 0.59726 0.35189
# Poissons Ratio (z) = 0.42143 0.22165
#
# Static dielectric constant tensor:
#      x y z
#    x 3.680420 0.000000 0.105480 
#    y 0.000000 3.249810 0.000000 
#    z 0.105480 0.000000 3.127090 
# 
# 
# High freq. dielectric constant tensor:
#      x y z
#    x 1.707870 0.000000 0.011390 
#    y 0.000000 1.683900 0.000000 
#    z 0.011390 0.000000 1.659410 
# 
# From -- ./inp_files/72129.got.cif
#   From: 2010.06.25/outbox.cif.g09.slc.cpg/sg11_37_cif.got.tgz:72129.got - 2010.06.27 23:14:04.
