data_PCOD8069258
_publ_section_title
;
Structure prediction by ZEFSAII (Michael W. Deem and Ramdas Pophale) SiO2 
 PCOD8069258
Probable space group: P 21/M
;
_chemical_formula_sum "Si O2"
_cell_formula_units_Z 32
_cell_length_a 15.515952
_cell_length_b 8.688915
_cell_length_c 21.141801
_cell_angle_alpha 90.000000
_cell_angle_beta 137.866283
_cell_angle_gamma 90.000000
_cell_volume 1912.140871
_symmetry_space_group_name_H-M "P 21/M"
_symmetry_group_IT_number 11
_symmetry_cell_setting 'monoclinic'
loop_
_space_group_symop_operation_xyz
x,y,z
-x,1/2+y,-z
-x,-y,-z
x,1/2-y,z
loop_
_atom_site_type_symbol
_atom_site_label
_atom_site_fract_x
_atom_site_fract_y
_atom_site_fract_z
Si Si1 0.604720 0.429767 0.602440
Si Si2 0.452275 0.568990 0.287437
Si Si3 0.720822 0.068274 0.398306
Si Si4 0.007645 0.927715 0.911095
Si Si5 0.065627 0.430518 0.395734
Si Si6 0.204963 0.428661 0.103562
Si Si7 0.107570 0.432719 0.604334
Si Si8 0.868931 0.927499 0.710285
O O1 0.500000 0.500000 0.500000
O O2 0.585799 0.250000 0.590646
O O3 0.583183 0.490509 0.661756
O O4 0.745320 0.469531 0.654520
O O5 0.481096 0.750000 0.300743
O O6 0.575061 0.475650 0.331417
O O7 0.334522 0.527975 0.177261
O O8 0.738561 0.250000 0.406616
O O9 0.809807 0.000783 0.502315
O O10 0.758292 0.998612 0.349592
O O11 0.041927 0.750000 0.941231
O O12 0.883251 0.973812 0.884599
O O13 0.977354 0.963928 0.821556
O O14 0.129816 0.028837 0.998248
O O15 0.064595 0.250000 0.409163
O O16 0.071289 0.468262 0.324781
O O17 0.931649 0.505523 0.347516
O O18 0.241145 0.250000 0.122999
O O19 0.110074 0.250000 0.605266
O O20 0.000000 0.500000 0.500000
O O21 0.825629 0.750000 0.690753
#
# Coordination Sequence:
#
# PCOD8069258 Si02
#       8
#     4   4   4   4   4   4   4   4
#     4  11  23  34  47  66  96 134 170 203 239 285
#     4  11  22  35  49  70  98 131 167 204 247 294
#     4  11  21  33  50  72  99 131 167 206 247 292
#     4   9  18  33  51  71  97 127 162 205 251 292
#     4  10  19  32  50  73 101 132 167 204 244 290
#     4  10  19  32  52  73  95 125 164 208 250 292
#     4  10  18  31  50  71  97 128 163 204 248 290
#     4  10  20  34  51  71  98 132 167 203 243 289
#
# _framework density 16.73517
#
# number of rings (size 3 to 8) (size 9 to 14) (size 15 to 20)
#    0.000    1.750    1.250    6.000    0.000    6.500 
#    0.000    0.000    0.000    0.000    0.000    0.875 
#    0.000    0.000    0.000    0.000    0.000    0.000 
#
# Total GULP energy -396844.440388 kJ/mol
# GULP energy per Si atom -12401.388762 kJ/mol
# Density = 1.669708 g / cm^3
# Si number density = 16.735170 Si / 1000 Ang^3
#
#
#
# Elastic Constant Matrix: (Units=GPa)
#
#
# Indices 1 2 3 4 5 6 
#
# 1 119.3566 49.7459 51.8662 0.0000 -7.0806 0.0000
# 2 49.7459 91.6884 31.2550 0.0000 3.3892 0.0000
# 3 51.8662 31.2550 88.9310 0.0000 -2.2591 0.0000
# 4 0.0000 0.0000 0.0000 26.6405 0.0000 3.5296
# 5 -7.0806 3.3892 -2.2591 0.0000 7.5475 0.0000
# 6 0.0000 0.0000 0.0000 3.5296 0.0000 28.2369
#
#
#
# Elastic Compliance Matrix: (Units=1/GPa)
#
#
# Indices 1 2 3 4 5 6 
#
# 1 0.014435 -0.006398 -0.005797 0.000000 0.014680 0.000000
# 2 -0.006398 0.015596 -0.002096 0.000000 -0.013633 0.000000
# 3 -0.005797 -0.002096 0.015365 0.000000 0.000102 0.000000
# 4 0.000000 0.000000 0.000000 0.038169 0.000000 -0.004771
# 5 0.014680 -0.013633 0.000102 0.000000 0.152419 0.000000
# 6 0.000000 0.000000 0.000000 -0.004771 0.000000 0.036011
#
#
# Mechanical properties :
#
#
# Convention : Reuss Voigt Hill
#
# Bulk Modulus (GPa) = 59.47691 62.85669 61.16680
# Shear Modulus (GPa) = 16.33010 23.62556 19.97783
#
# Velocity S-wave (km/s) = 3.12716 3.76138 3.45884
# Velocity P-wave (km/s) = 6.97539 7.51699 7.25125
#
# Compressibility (1/GPa) = 0.01681325
#
# Stress axis : x y z
#
# Youngs Moduli (GPa) = 69.27641 64.11748 65.08313
#
# Poissons Ratio (x) = 0.41024 0.37730
# Poissons Ratio (y) = 0.44325 0.13642
# Poissons Ratio (z) = 0.40161 0.13440
#
# Static dielectric constant tensor:
#      x y z
#    x 3.458390 0.000000 -0.119680 
#    y 0.000000 3.563990 0.000000 
#    z -0.119680 0.000000 3.025540 
# 
# 
# High freq. dielectric constant tensor:
#      x y z
#    x 1.638050 0.000000 -0.001170 
#    y 0.000000 1.659800 0.000000 
#    z -0.001170 0.000000 1.621390 
# 
# From -- ./inp_files/65228.got.cif
#   From: 2010.06.25/outbox.cif.g09.slc.cpg/sg11_33_cif.got.tgz:65228.got - 2010.06.27 23:14:04.
