data_PCOD8069551
_publ_section_title
;
Structure prediction by ZEFSAII (Michael W. Deem and Ramdas Pophale) SiO2 
 PCOD8069551
Probable space group: P 21/M
;
_chemical_formula_sum "Si O2"
_cell_formula_units_Z 28
_cell_length_a 9.870556
_cell_length_b 15.009797
_cell_length_c 11.754173
_cell_angle_alpha 90.000000
_cell_angle_beta 55.350545
_cell_angle_gamma 90.000000
_cell_volume 1432.588516
_symmetry_space_group_name_H-M "P 21/M"
_symmetry_group_IT_number 11
_symmetry_cell_setting 'monoclinic'
loop_
_space_group_symop_operation_xyz
x,y,z
-x,1/2+y,-z
-x,-y,-z
x,1/2-y,z
loop_
_atom_site_type_symbol
_atom_site_label
_atom_site_fract_x
_atom_site_fract_y
_atom_site_fract_z
Si Si1 0.604469 0.153016 0.882362
Si Si2 0.787624 0.352595 0.451808
Si Si3 0.760295 0.619353 0.938705
Si Si4 0.320282 0.938688 0.930559
Si Si5 0.109155 0.651394 0.847681
Si Si6 0.649057 0.013429 0.680133
Si Si7 0.853652 0.650938 0.639149
O O1 0.684032 0.250000 0.817841
O O2 0.694676 0.075428 0.767479
O O3 0.413203 0.158173 0.935376
O O4 0.615648 0.136361 0.012843
O O5 0.723326 0.250000 0.485810
O O6 0.825922 0.383636 0.305037
O O7 0.655314 0.422252 0.566371
O O8 0.950356 0.361889 0.451541
O O9 0.782516 0.648859 0.799438
O O10 0.910372 0.654637 0.944093
O O11 0.754330 0.513169 0.951392
O O12 0.173489 0.908223 0.919429
O O13 0.467290 0.973036 0.780152
O O14 0.178311 0.750000 0.835131
O O15 0.774192 0.929995 0.605238
O O16 0.812168 0.750000 0.608069
#
# Coordination Sequence:
#
# PCOD8069551 Si02
#       7
#     4   4   4   4   4   4   4
#     4  11  20  33  55  82 114 143 172 224 275 320
#     4   9  20  36  54  77 104 142 187 219 261 321
#     4  10  18  35  53  78 106 142 182 218 262 326
#     4  11  21  33  52  82 114 137 176 226 275 317
#     4  10  21  36  55  77 104 145 187 221 260 321
#     4  11  20  34  53  81 111 138 180 223 275 319
#     4  10  18  32  55  79 106 140 179 225 263 316
#
# _framework density 19.545038999999999
#
# number of rings (size 3 to 8) (size 9 to 14) (size 15 to 20)
#    0.000    1.714    2.857    4.714    0.000    1.143 
#    0.000    0.000    0.000    0.000    0.000    2.000 
#    0.000    0.000    0.000    0.000    0.000    0.000 
#
# Total GULP energy -347045.880227 kJ/mol
# GULP energy per Si atom -12394.495722 kJ/mol
# Density = 1.950055 g / cm^3
# Si number density = 19.545039 Si / 1000 Ang^3
#
#
#
# Elastic Constant Matrix: (Units=GPa)
#
#
# Indices 1 2 3 4 5 6 
#
# 1 70.1867 30.5057 13.7047 0.0000 10.0349 0.0000
# 2 30.5057 114.9526 20.9238 0.0000 6.0536 0.0000
# 3 13.7047 20.9238 47.7138 0.0000 0.4348 0.0000
# 4 0.0000 0.0000 0.0000 26.8191 0.0000 -0.0121
# 5 10.0349 6.0536 0.4348 0.0000 14.6784 0.0000
# 6 0.0000 0.0000 0.0000 -0.0121 0.0000 14.4009
#
#
#
# Elastic Compliance Matrix: (Units=1/GPa)
#
#
# Indices 1 2 3 4 5 6 
#
# 1 0.018024 -0.003579 -0.003510 0.000000 -0.010742 0.000000
# 2 -0.003579 0.010378 -0.003508 0.000000 -0.001730 0.000000
# 3 -0.003510 -0.003508 0.023476 0.000000 0.003151 0.000000
# 4 0.000000 0.000000 0.000000 0.037287 0.000000 0.000031
# 5 -0.010742 -0.001730 0.003151 0.000000 0.076091 0.000000
# 6 0.000000 0.000000 0.000000 0.000031 0.000000 0.069440
#
#
# Mechanical properties :
#
#
# Convention : Reuss Voigt Hill
#
# Bulk Modulus (GPa) = 32.58761 40.34682 36.46722
# Shear Modulus (GPa) = 18.78864 22.36094 20.57479
#
# Velocity S-wave (km/s) = 3.10385 3.38608 3.24803
# Velocity P-wave (km/s) = 5.43640 5.99794 5.72406
#
# Compressibility (1/GPa) = 0.03068651
#
# Stress axis : x y z
#
# Youngs Moduli (GPa) = 55.48052 96.35324 42.59689
#
# Poissons Ratio (x) = 0.34481 0.14951
# Poissons Ratio (y) = 0.19855 0.14941
# Poissons Ratio (z) = 0.19473 0.33797
#
# Static dielectric constant tensor:
#      x y z
#    x 3.311150 0.000000 -0.116690 
#    y 0.000000 3.818780 0.000000 
#    z -0.116690 0.000000 3.323300 
# 
# 
# High freq. dielectric constant tensor:
#      x y z
#    x 1.729630 0.000000 -0.010570 
#    y 0.000000 1.778670 0.000000 
#    z -0.010570 0.000000 1.739020 
# 
# From -- ./inp_files/31804.got.cif
#   From: 2010.06.25/outbox.cif.g09.slc.cpg/sg11_16_cif.got.tgz:31804.got - 2010.06.27 23:14:04.
