data_PCOD8069296
_publ_section_title
;
Structure prediction by ZEFSAII (Michael W. Deem and Ramdas Pophale) SiO2 
 PCOD8069296
Probable space group: P 21/M
;
_chemical_formula_sum "Si O2"
_cell_formula_units_Z 28
_cell_length_a 10.220546
_cell_length_b 8.896011
_cell_length_c 29.948936
_cell_angle_alpha 90.000000
_cell_angle_beta 33.947004
_cell_angle_gamma 90.000000
_cell_volume 1520.604649
_symmetry_space_group_name_H-M "P 21/M"
_symmetry_group_IT_number 11
_symmetry_cell_setting 'monoclinic'
loop_
_space_group_symop_operation_xyz
x,y,z
-x,1/2+y,-z
-x,-y,-z
x,1/2-y,z
loop_
_atom_site_type_symbol
_atom_site_label
_atom_site_fract_x
_atom_site_fract_y
_atom_site_fract_z
Si Si1 0.055721 0.071764 0.846270
Si Si2 0.020570 0.925238 0.400417
Si Si3 0.457293 0.424362 0.416242
Si Si4 0.884067 0.571899 0.340807
Si Si5 0.522171 0.927442 0.691526
Si Si6 0.637562 0.926848 0.001555
Si Si7 0.189234 0.574061 0.174450
O O1 0.058959 0.250000 0.849490
O O2 0.948989 0.010828 0.829655
O O3 0.316405 0.007894 0.777543
O O4 0.892710 0.005136 0.932569
O O5 0.090904 0.750000 0.380148
O O6 0.807667 0.956555 0.494186
O O7 0.951326 0.983561 0.370895
O O8 0.234631 0.024695 0.355965
O O9 0.519007 0.250000 0.403159
O O10 0.628292 0.513255 0.400591
O O11 0.487555 0.481695 0.357075
O O12 0.874489 0.750000 0.342267
O O13 0.077992 0.505952 0.251101
O O14 0.493659 0.750000 0.703365
O O15 0.668094 0.750000 0.985024
O O16 0.469953 0.959189 0.092152
O O17 0.500000 0.000000 0.000000
O O18 0.144203 0.750000 0.187016
#
# Coordination Sequence:
#
# PCOD8069296 Si02
#       7
#     4   4   4   4   4   4   4
#     4  10  18  31  51  75 104 135 171 214 263 311
#     4  10  22  37  53  75 106 140 176 215 260 312
#     4  10  21  36  53  78 105 134 175 222 264 306
#     4  10  19  34  56  79 104 139 175 211 258 312
#     4  11  22  35  53  76 105 139 177 218 263 310
#     4   9  16  27  45  73 107 136 168 210 257 307
#     4   8  15  28  48  75 103 132 166 206 254 304
#
# _framework density 18.413727000000002
#
# number of rings (size 3 to 8) (size 9 to 14) (size 15 to 20)
#    0.000    2.286    1.429    3.000    0.000    1.714 
#    0.000    0.714    0.000    0.857    0.000    0.000 
#    0.000    0.000    0.000    0.000    0.000    0.000 
#
# Total GULP energy -347114.215241 kJ/mol
# GULP energy per Si atom -12396.936259 kJ/mol
# Density = 1.837182 g / cm^3
# Si number density = 18.413727 Si / 1000 Ang^3
#
#
#
# Elastic Constant Matrix: (Units=GPa)
#
#
# Indices 1 2 3 4 5 6 
#
# 1 75.7340 29.6669 29.3334 0.0000 -12.5403 0.0000
# 2 29.6669 63.5598 37.7244 0.0000 -11.9512 0.0000
# 3 29.3334 37.7244 110.2042 0.0000 -26.6211 0.0000
# 4 0.0000 0.0000 0.0000 28.4320 0.0000 -8.6018
# 5 -12.5403 -11.9512 -26.6211 0.0000 15.0401 0.0000
# 6 0.0000 0.0000 0.0000 -8.6018 0.0000 22.0402
#
#
#
# Elastic Compliance Matrix: (Units=1/GPa)
#
#
# Indices 1 2 3 4 5 6 
#
# 1 0.017218 -0.006175 -0.000326 0.000000 0.008873 0.000000
# 2 -0.006175 0.022331 -0.005167 0.000000 0.003450 0.000000
# 3 -0.000326 -0.005167 0.017246 0.000000 0.026147 0.000000
# 4 0.000000 0.000000 0.000000 0.039881 0.000000 0.015565
# 5 0.008873 0.003450 0.026147 0.000000 0.122910 0.000000
# 6 0.000000 0.000000 0.000000 0.015565 0.000000 0.051446
#
#
# Mechanical properties :
#
#
# Convention : Reuss Voigt Hill
#
# Bulk Modulus (GPa) = 29.88727 49.21637 39.55182
# Shear Modulus (GPa) = 16.36549 23.28734 19.82642
#
# Velocity S-wave (km/s) = 2.98445 3.56008 3.28490
# Velocity P-wave (km/s) = 5.30492 6.60946 5.99279
#
# Compressibility (1/GPa) = 0.03345907
#
# Stress axis : x y z
#
# Youngs Moduli (GPa) = 58.07730 44.78082 57.98491
#
# Poissons Ratio (x) = 0.27652 0.01890
# Poissons Ratio (y) = 0.35862 0.29962
# Poissons Ratio (z) = 0.01893 0.23139
#
# Static dielectric constant tensor:
#      x y z
#    x 3.143200 0.000000 0.104960 
#    y 0.000000 3.289850 0.000000 
#    z 0.104960 0.000000 4.005060 
# 
# 
# High freq. dielectric constant tensor:
#      x y z
#    x 1.674440 0.000000 -0.009320 
#    y 0.000000 1.704200 0.000000 
#    z -0.009320 0.000000 1.737380 
# 
# From -- ./inp_files/28268.got.cif
#   From: 2010.06.25/outbox.cif.g09.slc.cpg/sg11_15_cif.got.tgz:28268.got - 2010.06.27 23:14:04.
