data_PCOD8069529
_publ_section_title
;
Structure prediction by ZEFSAII (Michael W. Deem and Ramdas Pophale) SiO2 
 PCOD8069529
Probable space group: P 21/M
;
_chemical_formula_sum "Si O2"
_cell_formula_units_Z 32
_cell_length_a 19.762582
_cell_length_b 8.816863
_cell_length_c 14.257619
_cell_angle_alpha 90.000000
_cell_angle_beta 46.380447
_cell_angle_gamma 90.000000
_cell_volume 1798.478467
_symmetry_space_group_name_H-M "P 21/M"
_symmetry_group_IT_number 11
_symmetry_cell_setting 'monoclinic'
loop_
_space_group_symop_operation_xyz
x,y,z
-x,1/2+y,-z
-x,-y,-z
x,1/2-y,z
loop_
_atom_site_type_symbol
_atom_site_label
_atom_site_fract_x
_atom_site_fract_y
_atom_site_fract_z
Si Si1 0.628659 0.075175 0.149209
Si Si2 0.976475 0.430236 0.622254
Si Si3 0.685000 0.574178 0.480967
Si Si4 0.687653 0.571143 0.760648
Si Si5 0.230669 0.924331 0.141504
Si Si6 0.449409 0.571006 0.244757
Si Si7 0.838934 0.928209 0.467429
Si Si8 0.403943 0.426230 0.624882
O O1 0.599804 0.250000 0.188522
O O2 0.553333 0.992198 0.156366
O O3 0.636943 0.001911 0.243386
O O4 0.728647 0.057039 0.002197
O O5 0.979239 0.250000 0.610227
O O6 0.875788 0.486052 0.755673
O O7 0.000000 0.500000 0.500000
O O8 0.055573 0.491134 0.620471
O O9 0.667128 0.750000 0.525066
O O10 0.607851 0.475753 0.607974
O O11 0.789210 0.524200 0.416484
O O12 0.674827 0.548645 0.379784
O O13 0.674813 0.750000 0.769238
O O14 0.704646 0.519506 0.850205
O O15 0.593825 0.496363 0.809202
O O16 0.774572 0.513298 0.614544
O O17 0.233715 0.750000 0.171085
O O18 0.452735 0.750000 0.233379
O O19 0.845391 0.750000 0.467681
O O20 0.500000 0.500000 0.500000
O O21 0.422728 0.250000 0.626123
#
# Coordination Sequence:
#
# PCOD8069529 Si02
#       8
#     4   4   4   4   4   4   4   4
#     4  11  23  38  52  72 107 146 181 221 264 316
#     4  10  18  32  54  80 106 135 175 219 266 316
#     4   9  18  33  53  78 107 135 169 215 267 319
#     4  10  19  33  53  76 106 143 177 214 262 317
#     4  10  22  36  52  76 107 142 181 223 266 311
#     4  11  21  33  52  77 105 139 179 219 260 314
#     4   8  15  29  51  78 104 133 167 207 261 317
#     4  11  21  34  56  81 105 137 176 222 269 317
#
# _framework density 17.792816999999999
#
# number of rings (size 3 to 8) (size 9 to 14) (size 15 to 20)
#    0.000    2.000    2.500    3.000    0.000    2.000 
#    0.000    0.000    0.000    0.750    0.000    0.000 
#    0.000    0.000    0.000    0.000    0.000    0.250 
#
# Total GULP energy -396714.478014 kJ/mol
# GULP energy per Si atom -12397.327438 kJ/mol
# Density = 1.775232 g / cm^3
# Si number density = 17.792817 Si / 1000 Ang^3
#
#
#
# Elastic Constant Matrix: (Units=GPa)
#
#
# Indices 1 2 3 4 5 6 
#
# 1 132.1526 39.0806 63.0328 0.0000 -1.5475 0.0000
# 2 39.0806 85.8687 37.5631 0.0000 3.2936 0.0000
# 3 63.0328 37.5631 97.6777 0.0000 -1.1167 0.0000
# 4 0.0000 0.0000 0.0000 20.4814 0.0000 5.9991
# 5 -1.5475 3.2936 -1.1167 0.0000 25.1178 0.0000
# 6 0.0000 0.0000 0.0000 5.9991 0.0000 24.4177
#
#
#
# Elastic Compliance Matrix: (Units=1/GPa)
#
#
# Indices 1 2 3 4 5 6 
#
# 1 0.011326 -0.002391 -0.006381 0.000000 0.000728 0.000000
# 2 -0.002391 0.014615 -0.004103 0.000000 -0.002246 0.000000
# 3 -0.006381 -0.004103 0.015943 0.000000 0.000854 0.000000
# 4 0.000000 0.000000 0.000000 0.052611 0.000000 -0.012926
# 5 0.000728 -0.002246 0.000854 0.000000 0.040190 0.000000
# 6 0.000000 0.000000 0.000000 -0.012926 0.000000 0.044130
#
#
# Mechanical properties :
#
#
# Convention : Reuss Voigt Hill
#
# Bulk Modulus (GPa) = 61.98168 66.11689 64.04929
# Shear Modulus (GPa) = 23.81598 25.73822 24.77710
#
# Velocity S-wave (km/s) = 3.66254 3.80748 3.73572
# Velocity P-wave (km/s) = 7.26612 7.52125 7.39479
#
# Compressibility (1/GPa) = 0.01613380
#
# Stress axis : x y z
#
# Youngs Moduli (GPa) = 88.29017 68.42298 62.72293
#
# Poissons Ratio (x) = 0.16362 0.40024
# Poissons Ratio (y) = 0.21113 0.25734
# Poissons Ratio (z) = 0.56339 0.28073
#
# Static dielectric constant tensor:
#      x y z
#    x 3.687770 0.000000 -0.197710 
#    y 0.000000 3.251710 0.000000 
#    z -0.197710 0.000000 3.150780 
# 
# 
# High freq. dielectric constant tensor:
#      x y z
#    x 1.697680 0.000000 -0.003300 
#    y 0.000000 1.684500 0.000000 
#    z -0.003300 0.000000 1.658740 
# 
# From -- ./inp_files/54292.got.cif
#   From: 2010.06.25/outbox.cif.g09.slc.cpg/sg11_28_cif.got.tgz:54292.got - 2010.06.27 23:14:04.
