data_PCOD8069975
_publ_section_title
;
Structure prediction by ZEFSAII (Michael W. Deem and Ramdas Pophale) SiO2 
 PCOD8069975
Probable space group: P 21/M
;
_chemical_formula_sum "Si O2"
_cell_formula_units_Z 32
_cell_length_a 33.687147
_cell_length_b 8.809588
_cell_length_c 12.238401
_cell_angle_alpha 90.000000
_cell_angle_beta 153.000234
_cell_angle_gamma 90.000000
_cell_volume 1648.875225
_symmetry_space_group_name_H-M "P 21/M"
_symmetry_group_IT_number 11
_symmetry_cell_setting 'monoclinic'
loop_
_space_group_symop_operation_xyz
x,y,z
-x,1/2+y,-z
-x,-y,-z
x,1/2-y,z
loop_
_atom_site_type_symbol
_atom_site_label
_atom_site_fract_x
_atom_site_fract_y
_atom_site_fract_z
Si Si1 0.253005 0.924392 0.265857
Si Si2 0.409139 0.571752 0.810142
Si Si3 0.764819 0.584042 0.007889
Si Si4 0.967828 0.426350 0.742960
Si Si5 0.705314 0.570685 0.294835
Si Si6 0.967798 0.582262 0.525910
Si Si7 0.767834 0.429415 0.238496
Si Si8 0.141375 0.572918 0.195991
O O1 0.252410 0.750000 0.230165
O O2 0.339308 0.967144 0.545189
O O3 0.168088 0.960244 0.134330
O O4 0.256625 0.016374 0.162832
O O5 0.419287 0.750000 0.852119
O O6 0.377890 0.499506 0.847452
O O7 0.500000 0.500000 0.000000
O O8 0.719221 0.750000 0.905069
O O9 0.866456 0.608098 0.267342
O O10 0.736560 0.478836 0.040640
O O11 0.980819 0.250000 0.800693
O O12 0.992213 0.463110 0.678601
O O13 0.867687 0.478596 0.516163
O O14 0.042765 0.523299 0.989705
O O15 0.697157 0.750000 0.275565
O O16 0.703690 0.510248 0.166641
O O17 0.795205 0.520470 0.570883
O O18 0.011796 0.750000 0.652648
O O19 0.000000 0.500000 0.500000
O O20 0.759122 0.250000 0.224539
O O21 0.153776 0.750000 0.253482
#
# Coordination Sequence:
#
# PCOD8069975 Si02
#       8
#     4   4   4   4   4   4   4   4
#     4   9  19  34  53  79 110 142 175 216 267 320
#     4  10  21  39  63  91 118 142 172 211 262 321
#     4  10  20  32  49  74 103 138 181 224 265 315
#     4  10  20  32  47  69  98 137 185 232 276 320
#     4  11  22  37  58  82 109 141 179 222 269 323
#     4  10  19  29  42  63  94 133 178 228 275 318
#     4  10  21  37  54  73 104 146 189 229 270 318
#     4  10  20  34  52  75 106 143 184 231 280 325
#
# _framework density 19.407169
#
# number of rings (size 3 to 8) (size 9 to 14) (size 15 to 20)
#    0.000    2.000    0.000    4.875    0.000    8.500 
#    0.000    0.000    0.000    0.750    0.000    0.000 
#    0.000    0.000    0.000    0.000    0.000    0.000 
#
# Total GULP energy -396616.762421 kJ/mol
# GULP energy per Si atom -12394.273826 kJ/mol
# Density = 1.936300 g / cm^3
# Si number density = 19.407169 Si / 1000 Ang^3
#
#
#
# Elastic Constant Matrix: (Units=GPa)
#
#
# Indices 1 2 3 4 5 6 
#
# 1 111.7764 51.5873 21.0510 0.0000 3.0312 0.0000
# 2 51.5873 113.8163 29.0664 0.0000 3.2840 0.0000
# 3 21.0510 29.0664 42.3182 0.0000 10.8204 0.0000
# 4 0.0000 0.0000 0.0000 27.9010 0.0000 -0.2318
# 5 3.0312 3.2840 10.8204 0.0000 21.1256 0.0000
# 6 0.0000 0.0000 0.0000 -0.2318 0.0000 31.7739
#
#
#
# Elastic Compliance Matrix: (Units=1/GPa)
#
#
# Indices 1 2 3 4 5 6 
#
# 1 0.011549 -0.004549 -0.002736 0.000000 0.000451 0.000000
# 2 -0.004549 0.012554 -0.006936 0.000000 0.002254 0.000000
# 3 -0.002736 -0.006936 0.033807 0.000000 -0.015845 0.000000
# 4 0.000000 0.000000 0.000000 0.035843 0.000000 0.000261
# 5 0.000451 0.002254 -0.015845 0.000000 0.055037 0.000000
# 6 0.000000 0.000000 0.000000 0.000261 0.000000 0.031474
#
#
# Mechanical properties :
#
#
# Convention : Reuss Voigt Hill
#
# Bulk Modulus (GPa) = 33.93527 52.36892 43.15210
# Shear Modulus (GPa) = 22.88022 27.24051 25.06037
#
# Velocity S-wave (km/s) = 3.43732 3.75057 3.59736
# Velocity P-wave (km/s) = 5.76866 6.76747 6.28793
#
# Compressibility (1/GPa) = 0.02946787
#
# Stress axis : x y z
#
# Youngs Moduli (GPa) = 86.58882 79.65439 29.57947
#
# Poissons Ratio (x) = 0.36233 0.08093
# Poissons Ratio (y) = 0.39388 0.20518
# Poissons Ratio (z) = 0.23690 0.55252
#
# Static dielectric constant tensor:
#      x y z
#    x 3.627950 0.000000 0.031010 
#    y 0.000000 3.672780 0.000000 
#    z 0.031010 0.000000 3.404240 
# 
# 
# High freq. dielectric constant tensor:
#      x y z
#    x 1.759320 0.000000 -0.009400 
#    y 0.000000 1.768250 0.000000 
#    z -0.009400 0.000000 1.720390 
# 
# From -- ./inp_files/45342.got.cif
#   From: 2010.06.25/outbox.cif.g09.slc.cpg/sg11_23_cif.got.tgz:45342.got - 2010.06.27 23:14:04.
