data_PCOD8069612
_publ_section_title
;
Structure prediction by ZEFSAII (Michael W. Deem and Ramdas Pophale) SiO2 
 PCOD8069612
Probable space group: P 21/M
;
_chemical_formula_sum "Si O2"
_cell_formula_units_Z 32
_cell_length_a 9.375242
_cell_length_b 19.048505
_cell_length_c 10.737983
_cell_angle_alpha 90.000000
_cell_angle_beta 120.402167
_cell_angle_gamma 90.000000
_cell_volume 1653.950259
_symmetry_space_group_name_H-M "P 21/M"
_symmetry_group_IT_number 11
_symmetry_cell_setting 'monoclinic'
loop_
_space_group_symop_operation_xyz
x,y,z
-x,1/2+y,-z
-x,-y,-z
x,1/2-y,z
loop_
_atom_site_type_symbol
_atom_site_label
_atom_site_fract_x
_atom_site_fract_y
_atom_site_fract_z
Si Si1 0.014510 0.563571 0.685948
Si Si2 0.440814 0.425794 0.922931
Si Si3 0.383885 0.562129 0.490855
Si Si4 0.548350 0.670259 0.720664
Si Si5 0.306455 0.831180 0.846075
Si Si6 0.770828 0.531665 0.381262
Si Si7 0.799093 0.919295 0.965502
Si Si8 0.860855 0.033468 0.817439
O O1 0.127865 0.631736 0.756820
O O2 0.115062 0.496624 0.679404
O O3 0.870645 0.582384 0.520821
O O4 0.935815 0.535154 0.779089
O O5 0.381988 0.427880 0.752378
O O6 0.500000 0.500000 0.000000
O O7 0.586861 0.368478 0.997923
O O8 0.284508 0.405711 0.938740
O O9 0.500000 0.500000 0.500000
O O10 0.487754 0.631307 0.568740
O O11 0.289152 0.537453 0.572501
O O12 0.258271 0.579175 0.322912
O O13 0.577637 0.750000 0.696781
O O14 0.408270 0.660868 0.763596
O O15 0.725280 0.639276 0.840325
O O16 0.277802 0.750000 0.868140
O O17 0.763108 0.997583 0.890959
O O18 0.997423 0.913617 0.070766
#
# Coordination Sequence:
#
# PCOD8069612 Si02
#       8
#     4   4   4   4   4   4   4   4
#     4  10  18  33  51  77 109 137 174 220 263 313
#     4  11  18  31  55  80 105 138 175 226 265 307
#     4  11  20  34  56  84 104 138 185 230 266 317
#     4  10  20  35  54  77 108 143 177 220 272 325
#     4  10  20  34  54  79 109 142 180 218 269 329
#     4  10  19  31  54  81 105 133 177 224 268 306
#     4  10  19  33  49  81 107 135 175 215 267 318
#     4  10  20  31  54  81 107 134 177 225 265 306
#
# _framework density 19.347619999999999
#
# number of rings (size 3 to 8) (size 9 to 14) (size 15 to 20)
#    0.000    1.750    5.000    0.750    0.000    0.000 
#    0.000    1.875    0.000    3.750    0.000    0.000 
#    0.000    0.000    0.000    0.000    0.000    0.000 
#
# Total GULP energy -396653.497612 kJ/mol
# GULP energy per Si atom -12395.421800 kJ/mol
# Density = 1.930358 g / cm^3
# Si number density = 19.347620 Si / 1000 Ang^3
#
#
#
# Elastic Constant Matrix: (Units=GPa)
#
#
# Indices 1 2 3 4 5 6 
#
# 1 26.8478 11.1979 13.6069 0.0000 16.7594 0.0000
# 2 11.1979 100.7730 61.6224 0.0000 32.0186 0.0000
# 3 13.6069 61.6224 171.7920 0.0000 37.6283 0.0000
# 4 0.0000 0.0000 0.0000 26.4640 0.0000 6.5273
# 5 16.7594 32.0186 37.6283 0.0000 26.6487 0.0000
# 6 0.0000 0.0000 0.0000 6.5273 0.0000 23.1350
#
#
#
# Elastic Compliance Matrix: (Units=1/GPa)
#
#
# Indices 1 2 3 4 5 6 
#
# 1 0.068936 0.008667 0.004644 0.000000 -0.060325 0.000000
# 2 0.008667 0.017747 -0.001720 0.000000 -0.024346 0.000000
# 3 0.004644 -0.001720 0.009059 0.000000 -0.013646 0.000000
# 4 0.000000 0.000000 0.000000 0.040613 0.000000 -0.011459
# 5 -0.060325 -0.024346 -0.013646 0.000000 0.123983 0.000000
# 6 0.000000 0.000000 0.000000 -0.011459 0.000000 0.046458
#
#
# Mechanical properties :
#
#
# Convention : Reuss Voigt Hill
#
# Bulk Modulus (GPa) = 8.40871 52.47416 30.44143
# Shear Modulus (GPa) = 15.46767 29.44856 22.45812
#
# Velocity S-wave (km/s) = 2.83054 3.90561 3.41070
# Velocity P-wave (km/s) = 3.87791 6.89341 5.59273
#
# Compressibility (1/GPa) = 0.11892432
#
# Stress axis : x y z
#
# Youngs Moduli (GPa) = 14.50629 56.34661 110.38800
#
# Poissons Ratio (x) = -0.48835 -0.51267
# Poissons Ratio (y) = -0.12573 0.18987
# Poissons Ratio (z) = -0.06737 0.09692
#
# Static dielectric constant tensor:
#      x y z
#    x 0.284440 0.000000 -0.557020 
#    y 0.000000 3.052920 0.000000 
#    z -0.557020 0.000000 3.889110 
# 
# 
# High freq. dielectric constant tensor:
#      x y z
#    x 1.751660 0.000000 0.008480 
#    y 0.000000 1.695560 0.000000 
#    z 0.008480 0.000000 1.771820 
# 
# From -- ./inp_files/36075.got.cif
#   From: 2010.06.25/outbox.cif.g09.slc.cpg/sg11_19_cif.got.tgz:36075.got - 2010.06.27 23:14:04.
