data_PCOD8069468
_publ_section_title
;
Structure prediction by ZEFSAII (Michael W. Deem and Ramdas Pophale) SiO2 
 PCOD8069468
Probable space group: P 21/M
;
_chemical_formula_sum "Si O2"
_cell_formula_units_Z 32
_cell_length_a 21.643676
_cell_length_b 8.726807
_cell_length_c 17.856786
_cell_angle_alpha 90.000000
_cell_angle_beta 35.016891
_cell_angle_gamma 90.000000
_cell_volume 1935.369004
_symmetry_space_group_name_H-M "P 21/M"
_symmetry_group_IT_number 11
_symmetry_cell_setting 'monoclinic'
loop_
_space_group_symop_operation_xyz
x,y,z
-x,1/2+y,-z
-x,-y,-z
x,1/2-y,z
loop_
_atom_site_type_symbol
_atom_site_label
_atom_site_fract_x
_atom_site_fract_y
_atom_site_fract_z
Si Si1 0.996293 0.932325 0.920845
Si Si2 0.630921 0.424847 0.565420
Si Si3 0.616763 0.929771 0.890287
Si Si4 0.628126 0.422440 0.026727
Si Si5 0.377754 0.426823 0.815315
Si Si6 0.787688 0.930153 0.296667
Si Si7 0.371777 0.420835 0.283279
Si Si8 0.220328 0.930757 0.858489
O O1 0.997092 0.750000 0.919432
O O2 0.103682 0.997195 0.774130
O O3 0.000000 0.000000 0.000000
O O4 0.885042 0.995442 0.996044
O O5 0.661143 0.250000 0.518046
O O6 0.504619 0.456130 0.682877
O O7 0.689047 0.535166 0.449270
O O8 0.669194 0.463307 0.612213
O O9 0.606303 0.750000 0.915296
O O10 0.676963 0.962579 0.750742
O O11 0.500000 0.000000 0.000000
O O12 0.677752 0.005873 0.900759
O O13 0.671436 0.250000 0.992558
O O14 0.666839 0.520307 0.059649
O O15 0.499988 0.427403 0.148907
O O16 0.348150 0.250000 0.832938
O O17 0.324095 0.528033 0.804159
O O18 0.802699 0.750000 0.271690
O O19 0.762193 0.003045 0.241624
O O20 0.335607 0.250000 0.342569
O O21 0.205649 0.750000 0.867350
#
# Coordination Sequence:
#
# PCOD8069468 Si02
#       8
#     4   4   4   4   4   4   4   4
#     4  10  18  32  52  72  92 112 143 186 232 274
#     4  10  20  32  46  65  91 123 157 191 228 271
#     4   9  15  23  37  57  81 111 148 186 223 265
#     4   9  16  26  40  59  84 115 150 186 225 267
#     4  10  20  33  47  65  92 125 158 190 228 272
#     4  11  21  34  51  69  91 119 152 189 231 274
#     4   8  15  26  39  57  83 115 149 184 223 266
#     4  11  21  34  51  70  92 118 152 190 230 273
#
# _framework density 16.534316
#
# number of rings (size 3 to 8) (size 9 to 14) (size 15 to 20)
#    0.000    2.250    0.000    7.125    0.000    5.500 
#    0.000    0.000    0.000    0.000    0.000    0.000 
#    0.000    1.000    0.000    3.750    0.000    6.750 
#
# Total GULP energy -396630.268895 kJ/mol
# GULP energy per Si atom -12394.695903 kJ/mol
# Density = 1.649668 g / cm^3
# Si number density = 16.534316 Si / 1000 Ang^3
#
#
#
# Elastic Constant Matrix: (Units=GPa)
#
#
# Indices 1 2 3 4 5 6 
#
# 1 50.4949 37.3003 51.7002 0.0000 14.5860 0.0000
# 2 37.3003 130.1849 40.7275 0.0000 5.6459 0.0000
# 3 51.7002 40.7275 56.8613 0.0000 13.2593 0.0000
# 4 0.0000 0.0000 0.0000 26.4713 0.0000 4.3517
# 5 14.5860 5.6459 13.2593 0.0000 18.1920 0.0000
# 6 0.0000 0.0000 0.0000 4.3517 0.0000 26.5600
#
#
#
# Elastic Compliance Matrix: (Units=1/GPa)
#
#
# Indices 1 2 3 4 5 6 
#
# 1 0.327335 -0.002993 -0.282512 0.000000 -0.055613 0.000000
# 2 -0.002993 0.010024 -0.005171 0.000000 0.003058 0.000000
# 3 -0.282512 -0.005171 0.271030 0.000000 0.030577 0.000000
# 4 0.000000 0.000000 0.000000 0.038822 0.000000 -0.006361
# 5 -0.055613 0.003058 0.030577 0.000000 0.076323 0.000000
# 6 0.000000 0.000000 0.000000 -0.006361 0.000000 0.038693
#
#
# Mechanical properties :
#
#
# Convention : Reuss Voigt Hill
#
# Bulk Modulus (GPa) = 36.98790 55.22189 46.10490
# Shear Modulus (GPa) = 3.69660 21.43220 12.56440
#
# Velocity S-wave (km/s) = 1.49685 3.60422 2.75962
# Velocity P-wave (km/s) = 5.04047 7.12681 6.17243
#
# Compressibility (1/GPa) = 0.02703587
#
# Stress axis : x y z
#
# Youngs Moduli (GPa) = 3.05497 99.75806 3.68963
#
# Poissons Ratio (x) = 0.29862 1.04236
# Poissons Ratio (y) = 0.00914 0.01908
# Poissons Ratio (z) = 0.86307 0.51588
#
# Static dielectric constant tensor:
#      x y z
#    x 3.205340 0.000000 0.154170 
#    y 0.000000 3.274300 0.000000 
#    z 0.154170 0.000000 3.162890 
# 
# 
# High freq. dielectric constant tensor:
#      x y z
#    x 1.609680 0.000000 0.025400 
#    y 0.000000 1.657750 0.000000 
#    z 0.025400 0.000000 1.606440 
# 
# From -- ./inp_files/54273.got.cif
#   From: 2010.06.25/outbox.cif.g09.slc.cpg/sg11_28_cif.got.tgz:54273.got - 2010.06.27 23:14:04.
