data_PCOD8069738
_publ_section_title
;
Structure prediction by ZEFSAII (Michael W. Deem and Ramdas Pophale) SiO2 
 PCOD8069738
Probable space group: P 21/M
;
_chemical_formula_sum "Si O2"
_cell_formula_units_Z 24
_cell_length_a 13.766552
_cell_length_b 10.094777
_cell_length_c 14.130022
_cell_angle_alpha 90.000000
_cell_angle_beta 134.471400
_cell_angle_gamma 90.000000
_cell_volume 1401.263236
_symmetry_space_group_name_H-M "P 21/M"
_symmetry_group_IT_number 11
_symmetry_cell_setting 'monoclinic'
loop_
_space_group_symop_operation_xyz
x,y,z
-x,1/2+y,-z
-x,-y,-z
x,1/2-y,z
loop_
_atom_site_type_symbol
_atom_site_label
_atom_site_fract_x
_atom_site_fract_y
_atom_site_fract_z
Si Si1 0.702463 0.499068 0.406193
Si Si2 0.113648 0.903926 0.617901
Si Si3 0.035274 0.095856 0.303751
Si Si4 0.294208 0.250000 0.313892
Si Si5 0.715235 0.250000 0.714011
Si Si6 0.421312 0.750000 0.580205
Si Si7 0.898622 0.996460 0.844084
Si Si8 0.431582 0.250000 0.614254
O O1 0.743300 0.459121 0.325736
O O2 0.617480 0.379621 0.389761
O O3 0.604975 0.625511 0.344630
O O4 0.838601 0.526329 0.558320
O O5 0.090423 0.750000 0.570421
O O6 0.100704 0.912886 0.723603
O O7 0.000000 0.000000 0.500000
O O8 0.071442 0.250000 0.306940
O O9 0.010624 0.015388 0.189842
O O10 0.418385 0.250000 0.326138
O O11 0.206545 0.377006 0.229151
O O12 0.347341 0.250000 0.458472
O O13 0.656538 0.250000 0.570431
O O14 0.809819 0.374411 0.792377
O O15 0.592737 0.250000 0.705989
O O16 0.000000 0.000000 0.000000
#
# Coordination Sequence:
#
# PCOD8069738 Si02
#       8
#     4   4   4   2   2   2   4   2
#     4  11  17  32  49  80 104 137 168 209 270 308
#     4   9  19  29  48  73 106 136 170 208 259 318
#     4  10  18  34  50  73 106 142 171 206 257 316
#     4  11  21  38  49  75 103 146 176 205 267 313
#     4  11  23  34  49  83 105 136 182 213 257 305
#     4  11  20  30  56  74 109 134 169 224 255 310
#     4  12  22  36  54  74 105 141 177 214 252 305
#     4  11  20  34  56  72 111 146 165 212 265 324
#
# _framework density 17.127403000000001
#
# number of rings (size 3 to 8) (size 9 to 14) (size 15 to 20)
#    0.000    1.333    5.833    1.500    1.167    2.667 
#    0.000    0.000    0.000    0.000    0.000    7.000 
#    0.000    0.000    0.000    0.000    0.000    0.000 
#
# Total GULP energy -297424.678533 kJ/mol
# GULP energy per Si atom -12392.694939 kJ/mol
# Density = 1.708842 g / cm^3
# Si number density = 17.127403 Si / 1000 Ang^3
#
#
#
# Elastic Constant Matrix: (Units=GPa)
#
#
# Indices 1 2 3 4 5 6 
#
# 1 173.2298 78.8048 44.4636 0.0000 -3.7155 0.0000
# 2 78.8048 154.2255 34.8490 0.0000 5.3925 0.0000
# 3 44.4636 34.8490 62.8515 0.0000 -3.7718 0.0000
# 4 0.0000 0.0000 0.0000-1482.8197 0.0000 -628.5751
# 5 -3.7155 5.3925 -3.7718 0.0000 15.4473 0.0000
# 6 0.0000 0.0000 0.0000 -628.5751 0.0000 -226.9812
#
#
#
# Elastic Compliance Matrix: (Units=1/GPa)
#
#
# Indices 1 2 3 4 5 6 
#
# 1 0.008408 -0.003503 -0.003868 0.000000 0.002301 0.000000
# 2 -0.003503 0.009080 -0.002839 0.000000 -0.004705 0.000000
# 3 -0.003868 -0.002839 0.020525 0.000000 0.005072 0.000000
# 4 0.000000 0.000000 0.000000 0.003878 0.000000 -0.010739
# 5 0.002301 -0.004705 0.005072 0.000000 0.068171 0.000000
# 6 0.000000 0.000000 0.000000 -0.010739 0.000000 0.025332
#
#
# Mechanical properties :
#
#
# Convention : Reuss Voigt Hill
#
# Bulk Modulus (GPa) = 56.83732 78.50463 67.67097
# Shear Modulus (GPa) = 30.92558 -323.39141 -146.23292
#
# Velocity S-wave (km/s) = 4.25387 -13.75591 -9.25013
# Velocity P-wave (km/s) = 7.57524 14.36541 8.63078
#
# Compressibility (1/GPa) = 0.01759407
#
# Stress axis : x y z
#
# Youngs Moduli (GPa) = 118.92914 110.13417 48.72016
#
# Poissons Ratio (x) = 0.38578 0.18846
# Poissons Ratio (y) = 0.41659 0.13831
# Poissons Ratio (z) = 0.46003 0.31265
#
# Static dielectric constant tensor:
#      x y z
#    x 4.309090 0.000000 -0.018170 
#    y 0.000000 3.317960 0.000000 
#    z -0.018170 0.000000 2.756840 
# 
# 
# High freq. dielectric constant tensor:
#      x y z
#    x 1.688880 0.000000 -0.000860 
#    y 0.000000 1.683470 0.000000 
#    z -0.000860 0.000000 1.593380 
# 
# From -- ./inp_files/42288.got.cif
#   From: 2010.06.25/outbox.cif.g09.slc.cpg/sg11_22_cif.got.tgz:42288.got - 2010.06.27 23:14:04.
