data_PCOD8069618
_publ_section_title
;
Structure prediction by ZEFSAII (Michael W. Deem and Ramdas Pophale) SiO2 
 PCOD8069618
Probable space group: P 21/M
;
_chemical_formula_sum "Si O2"
_cell_formula_units_Z 28
_cell_length_a 6.955794
_cell_length_b 20.119061
_cell_length_c 10.968573
_cell_angle_alpha 90.000000
_cell_angle_beta 88.693632
_cell_angle_gamma 90.000000
_cell_volume 1534.587489
_symmetry_space_group_name_H-M "P 21/M"
_symmetry_group_IT_number 11
_symmetry_cell_setting 'monoclinic'
loop_
_space_group_symop_operation_xyz
x,y,z
-x,1/2+y,-z
-x,-y,-z
x,1/2-y,z
loop_
_atom_site_type_symbol
_atom_site_label
_atom_site_fract_x
_atom_site_fract_y
_atom_site_fract_z
Si Si1 0.764458 0.932282 0.418897
Si Si2 0.351477 0.073745 0.095373
Si Si3 0.508443 0.172269 0.469453
Si Si4 0.620774 0.176235 0.190772
Si Si5 0.953667 0.088702 0.227671
Si Si6 0.834998 0.426979 0.499087
Si Si7 0.667762 0.524028 0.162603
O O1 0.683331 0.867236 0.488909
O O2 0.667706 0.932925 0.286267
O O3 0.997371 0.926045 0.401070
O O4 0.721757 0.001971 0.492438
O O5 0.502617 0.133491 0.096158
O O6 0.170512 0.090582 0.180905
O O7 0.456061 0.008128 0.147556
O O8 0.285577 0.068041 0.956334
O O9 0.503658 0.250000 0.511312
O O10 0.524664 0.166906 0.324403
O O11 0.688440 0.133187 0.527665
O O12 0.608562 0.250000 0.142028
O O13 0.845089 0.156533 0.192226
O O14 0.953147 0.081946 0.372521
O O15 0.836493 0.029503 0.167047
#
# Coordination Sequence:
#
# PCOD8069618 Si02
#       7
#     4   4   4   4   4   4   4
#     4  10  19  33  52  75 103 135 165 203 254 299
#     4  10  18  33  53  73  98 130 162 202 251 289
#     4  10  20  34  52  74 103 135 165 204 253 303
#     4   9  19  33  49  73  98 123 165 208 241 290
#     4   9  17  31  50  72  99 128 159 201 253 294
#     4   9  19  32  51  78 102 128 167 212 250 299
#     4   9  20  32  49  76 101 126 164 205 239 294
#
# _framework density 18.245947000000001
#
# number of rings (size 3 to 8) (size 9 to 14) (size 15 to 20)
#    0.000    2.571    0.000    2.571    0.000    4.571 
#    0.000    3.571    0.000    0.000    0.000    0.000 
#    0.000    0.000    0.000    0.000    0.000    0.000 
#
# Total GULP energy -347086.159742 kJ/mol
# GULP energy per Si atom -12395.934277 kJ/mol
# Density = 1.820442 g / cm^3
# Si number density = 18.245947 Si / 1000 Ang^3
#
#
#
# Elastic Constant Matrix: (Units=GPa)
#
#
# Indices 1 2 3 4 5 6 
#
# 1 81.4075 25.5870 22.9177 0.0000 -0.4275 0.0000
# 2 25.5870 103.0275 20.9575 0.0000 -1.3361 0.0000
# 3 22.9177 20.9575 56.2036 0.0000 13.5908 0.0000
# 4 0.0000 0.0000 0.0000 18.8151 0.0000 -3.5944
# 5 -0.4275 -1.3361 13.5908 0.0000 26.8606 0.0000
# 6 0.0000 0.0000 0.0000 -3.5944 0.0000 20.0735
#
#
#
# Elastic Compliance Matrix: (Units=1/GPa)
#
#
# Indices 1 2 3 4 5 6 
#
# 1 0.014704 -0.002426 -0.005832 0.000000 0.003064 0.000000
# 2 -0.002426 0.011098 -0.003730 0.000000 0.002401 0.000000
# 3 -0.005832 -0.003730 0.024644 0.000000 -0.012748 0.000000
# 4 0.000000 0.000000 0.000000 0.055031 0.000000 0.009854
# 5 0.003064 0.002401 -0.012748 0.000000 0.043847 0.000000
# 6 0.000000 0.000000 0.000000 0.009854 0.000000 0.051581
#
#
# Mechanical properties :
#
#
# Convention : Reuss Voigt Hill
#
# Bulk Modulus (GPa) = 37.77726 42.17363 39.97545
# Shear Modulus (GPa) = 21.39437 24.56159 22.97798
#
# Velocity S-wave (km/s) = 3.42797 3.67296 3.55258
# Velocity P-wave (km/s) = 6.03468 6.41495 6.22772
#
# Compressibility (1/GPa) = 0.02647095
#
# Stress axis : x y z
#
# Youngs Moduli (GPa) = 68.00730 90.10294 40.57778
#
# Poissons Ratio (x) = 0.21856 0.23666
# Poissons Ratio (y) = 0.16496 0.15135
# Poissons Ratio (z) = 0.39664 0.33607
#
# Static dielectric constant tensor:
#      x y z
#    x 3.317530 0.000000 0.184360 
#    y 0.000000 3.384640 0.000000 
#    z 0.184360 0.000000 3.179410 
# 
# 
# High freq. dielectric constant tensor:
#      x y z
#    x 1.713260 0.000000 0.015230 
#    y 0.000000 1.691620 0.000000 
#    z 0.015230 0.000000 1.682960 
# 
# From -- ./inp_files/4884.got.cif
#   From: 2010.06.25/outbox.cif.g09.slc.cpg/sg11_3_cif.got.tgz:4884.got - 2010.06.27 23:14:04.
