data_PCOD8069822
_publ_section_title
;
Structure prediction by ZEFSAII (Michael W. Deem and Ramdas Pophale) SiO2 
 PCOD8069822
Probable space group: P 21/M
;
_chemical_formula_sum "Si O2"
_cell_formula_units_Z 18
_cell_length_a 20.051071
_cell_length_b 9.552795
_cell_length_c 13.116241
_cell_angle_alpha 90.000000
_cell_angle_beta 24.712342
_cell_angle_gamma 90.000000
_cell_volume 1050.313406
_symmetry_space_group_name_H-M "P 21/M"
_symmetry_group_IT_number 11
_symmetry_cell_setting 'monoclinic'
loop_
_space_group_symop_operation_xyz
x,y,z
-x,1/2+y,-z
-x,-y,-z
x,1/2-y,z
loop_
_atom_site_type_symbol
_atom_site_label
_atom_site_fract_x
_atom_site_fract_y
_atom_site_fract_z
Si Si1 0.602842 0.750000 0.913228
Si Si2 0.427794 0.092122 0.689391
Si Si3 0.168407 0.493287 0.393784
Si Si4 0.248112 0.750000 0.404055
Si Si5 0.186565 0.908039 0.144193
Si Si6 0.578154 0.250000 0.641650
O O1 0.699847 0.887065 0.745548
O O2 0.427030 0.750000 0.105563
O O3 0.580808 0.750000 0.066591
O O4 0.377942 0.250000 0.721326
O O5 0.563291 0.111556 0.590164
O O6 0.500000 0.000000 0.500000
O O7 0.273635 0.014051 0.947284
O O8 0.151873 0.614905 0.500713
O O9 0.225101 0.555869 0.207466
O O10 0.001654 0.414961 0.614188
O O11 0.263347 0.750000 0.507518
O O12 0.244655 0.750000 0.041393
#
# Coordination Sequence:
#
# PCOD8069822 Si02
#       6
#     2   4   4   2   4   2
#     4  10  18  35  47  78 119 139 177 213 258 322
#     4  10  20  37  59  81 104 137 180 231 275 309
#     4  11  20  32  52  83 113 150 174 216 269 323
#     4  10  20  32  55  73 115 154 177 203 270 332
#     4  11  21  32  52  83 115 140 182 225 265 318
#     4   8  20  33  54  79 110 139 172 230 252 324
#
# _framework density 17.137741999999999
#
# number of rings (size 3 to 8) (size 9 to 14) (size 15 to 20)
#    1.333    0.444    4.444    1.333    1.556    0.000 
#    0.000    0.000    2.444    1.333    0.000    0.000 
#    0.000    0.000    0.000    0.000    0.000    0.000 
#
# Total GULP energy -223041.658463 kJ/mol
# GULP energy per Si atom -12391.203248 kJ/mol
# Density = 1.709874 g / cm^3
# Si number density = 17.137742 Si / 1000 Ang^3
#
#
#
# Elastic Constant Matrix: (Units=GPa)
#
#
# Indices 1 2 3 4 5 6 
#
# 1 54.1191 22.5522 14.4666 0.0000 7.9725 0.0000
# 2 22.5522 124.2181 22.9755 0.0000 11.1361 0.0000
# 3 14.4666 22.9755 43.2046 0.0000 13.9825 0.0000
# 4 0.0000 0.0000 0.0000 29.9540 0.0000 1.2274
# 5 7.9725 11.1361 13.9825 0.0000 26.2109 0.0000
# 6 0.0000 0.0000 0.0000 1.2274 0.0000 28.5450
#
#
#
# Elastic Compliance Matrix: (Units=1/GPa)
#
#
# Indices 1 2 3 4 5 6 
#
# 1 0.021304 -0.002735 -0.004784 0.000000 -0.002766 0.000000
# 2 -0.002735 0.009330 -0.003665 0.000000 -0.001177 0.000000
# 3 -0.004784 -0.003665 0.031089 0.000000 -0.013573 0.000000
# 4 0.000000 0.000000 0.000000 0.033443 0.000000 -0.001438
# 5 -0.002766 -0.001177 -0.013573 0.000000 0.046734 0.000000
# 6 0.000000 0.000000 0.000000 -0.001438 0.000000 0.035094
#
#
# Mechanical properties :
#
#
# Convention : Reuss Voigt Hill
#
# Bulk Modulus (GPa) = 25.40931 37.94783 31.67857
# Shear Modulus (GPa) = 23.53156 27.71180 25.62168
#
# Velocity S-wave (km/s) = 3.70953 4.02556 3.87077
# Velocity P-wave (km/s) = 5.76249 6.61799 6.20500
#
# Compressibility (1/GPa) = 0.03935565
#
# Stress axis : x y z
#
# Youngs Moduli (GPa) = 46.94025 107.17761 32.16571
#
# Poissons Ratio (x) = 0.29313 0.15387
# Poissons Ratio (y) = 0.12838 0.11789
# Poissons Ratio (z) = 0.22455 0.39280
#
# Static dielectric constant tensor:
#      x y z
#    x 3.025090 0.000000 0.013130 
#    y 0.000000 3.213520 0.000000 
#    z 0.013130 0.000000 2.851600 
# 
# 
# High freq. dielectric constant tensor:
#      x y z
#    x 1.645650 0.000000 -0.005670 
#    y 0.000000 1.674960 0.000000 
#    z -0.005670 0.000000 1.626060 
# 
# From -- ./inp_files/55270.got.cif
#   From: 2010.06.25/outbox.cif.g09.slc.cpg/sg11_28_cif.got.tgz:55270.got - 2010.06.27 23:14:04.
