data_PCOD8069757
_publ_section_title
;
Structure prediction by ZEFSAII (Michael W. Deem and Ramdas Pophale) SiO2 
 PCOD8069757
Probable space group: P 21/M
;
_chemical_formula_sum "Si O2"
_cell_formula_units_Z 28
_cell_length_a 31.570304
_cell_length_b 8.445520
_cell_length_c 9.633270
_cell_angle_alpha 90.000000
_cell_angle_beta 34.506367
_cell_angle_gamma 90.000000
_cell_volume 1455.047363
_symmetry_space_group_name_H-M "P 21/M"
_symmetry_group_IT_number 11
_symmetry_cell_setting 'monoclinic'
loop_
_space_group_symop_operation_xyz
x,y,z
-x,1/2+y,-z
-x,-y,-z
x,1/2-y,z
loop_
_atom_site_type_symbol
_atom_site_label
_atom_site_fract_x
_atom_site_fract_y
_atom_site_fract_z
Si Si1 0.194119 0.563749 0.207953
Si Si2 0.548566 0.936409 0.555472
Si Si3 0.693237 0.934930 0.313947
Si Si4 0.195615 0.933777 0.782919
Si Si5 0.764278 0.561814 0.616279
Si Si6 0.599136 0.563702 0.120702
Si Si7 0.918154 0.935223 0.696833
O O1 0.209544 0.750000 0.163765
O O2 0.189672 0.498287 0.375592
O O3 0.115913 0.525690 0.344003
O O4 0.260760 0.473245 0.949396
O O5 0.539517 0.750000 0.568184
O O6 0.606540 0.981398 0.521443
O O7 0.580739 0.005232 0.323182
O O8 0.467067 0.011315 0.805983
O O9 0.701544 0.750000 0.324389
O O10 0.723997 0.031809 0.362470
O O11 0.176328 0.750000 0.849144
O O12 0.196276 0.984543 0.622186
O O13 0.131902 0.033480 0.032296
O O14 0.768071 0.750000 0.595349
O O15 0.678919 0.497519 0.854497
O O16 0.604570 0.750000 0.111023
O O17 0.920219 0.750000 0.659567
O O18 0.000000 0.000000 0.500000
#
# Coordination Sequence:
#
# PCOD8069757 Si02
#       7
#     4   4   4   4   4   4   4
#     4  11  21  34  57  88 115 147 188 232 274 326
#     4   9  17  30  49  76 106 140 187 238 284 331
#     4  10  18  34  55  78 108 148 192 235 282 336
#     4  11  23  38  57  86 116 147 187 231 280 334
#     4  11  21  38  57  80 114 153 191 231 284 339
#     4   9  18  31  49  75 107 143 185 235 285 333
#     4  11  22  41  66  91 118 150 183 223 270 325
#
# _framework density 19.243359000000002
#
# number of rings (size 3 to 8) (size 9 to 14) (size 15 to 20)
#    0.000    1.714    1.429    6.429    0.000    2.286 
#    0.000    1.429    0.000    0.000    0.000    0.000 
#    0.000    0.000    0.000    0.000    0.000    0.000 
#
# Total GULP energy -347237.930324 kJ/mol
# GULP energy per Si atom -12401.354654 kJ/mol
# Density = 1.919956 g / cm^3
# Si number density = 19.243359 Si / 1000 Ang^3
#
#
#
# Elastic Constant Matrix: (Units=GPa)
#
#
# Indices 1 2 3 4 5 6 
#
# 1 104.7281 8.5891 46.9096 0.0000 -0.6819 0.0000
# 2 8.5891 54.0268 4.5303 0.0000 -1.7331 0.0000
# 3 46.9096 4.5303 62.8049 0.0000 -2.2838 0.0000
# 4 0.0000 0.0000 0.0000 26.9230 0.0000 -2.0075
# 5 -0.6819 -1.7331 -2.2838 0.0000 38.4308 0.0000
# 6 0.0000 0.0000 0.0000 -2.0075 0.0000 34.3246
#
#
#
# Elastic Compliance Matrix: (Units=1/GPa)
#
#
# Indices 1 2 3 4 5 6 
#
# 1 0.014461 -0.001415 -0.010715 0.000000 -0.000444 0.000000
# 2 -0.001415 0.018783 -0.000269 0.000000 0.000806 0.000000
# 3 -0.010715 -0.000269 0.023990 0.000000 0.001223 0.000000
# 4 0.000000 0.000000 0.000000 0.037306 0.000000 0.002182
# 5 -0.000444 0.000806 0.001223 0.000000 0.026122 0.000000
# 6 0.000000 0.000000 0.000000 0.002182 0.000000 0.029261
#
#
# Mechanical properties :
#
#
# Convention : Reuss Voigt Hill
#
# Bulk Modulus (GPa) = 30.83032 37.95753 34.39392
# Shear Modulus (GPa) = 26.94950 30.70440 28.82695
#
# Velocity S-wave (km/s) = 3.74633 3.99881 3.87463
# Velocity P-wave (km/s) = 5.89655 6.41003 6.15865
#
# Compressibility (1/GPa) = 0.03243561
#
# Stress axis : x y z
#
# Youngs Moduli (GPa) = 69.15016 53.24060 41.68470
#
# Poissons Ratio (x) = 0.07532 0.44667
# Poissons Ratio (y) = 0.09783 0.01121
# Poissons Ratio (z) = 0.74097 0.01431
#
# Static dielectric constant tensor:
#      x y z
#    x 3.729010 0.000000 -0.130550 
#    y 0.000000 3.542400 0.000000 
#    z -0.130550 0.000000 3.290170 
# 
# 
# High freq. dielectric constant tensor:
#      x y z
#    x 1.753520 0.000000 -0.009700 
#    y 0.000000 1.755070 0.000000 
#    z -0.009700 0.000000 1.719400 
# 
# From -- ./inp_files/28998.got.cif
#   From: 2010.06.25/outbox.cif.g09.slc.cpg/sg11_15_cif.got.tgz:28998.got - 2010.06.27 23:14:04.
