data_PCOD8069343
_publ_section_title
;
Structure prediction by ZEFSAII (Michael W. Deem and Ramdas Pophale) SiO2 
 PCOD8069343
Probable space group: P 21/M
;
_chemical_formula_sum "Si O2"
_cell_formula_units_Z 28
_cell_length_a 12.526589
_cell_length_b 16.027837
_cell_length_c 23.130817
_cell_angle_alpha 90.000000
_cell_angle_beta 18.965872
_cell_angle_gamma 90.000000
_cell_volume 1509.345381
_symmetry_space_group_name_H-M "P 21/M"
_symmetry_group_IT_number 11
_symmetry_cell_setting 'monoclinic'
loop_
_space_group_symop_operation_xyz
x,y,z
-x,1/2+y,-z
-x,-y,-z
x,1/2-y,z
loop_
_atom_site_type_symbol
_atom_site_label
_atom_site_fract_x
_atom_site_fract_y
_atom_site_fract_z
Si Si1 0.480981 0.077382 0.164729
Si Si2 0.251246 0.843896 0.208604
Si Si3 0.132214 0.091440 0.052666
Si Si4 0.162500 0.012304 0.518892
Si Si5 0.746699 0.072541 0.144329
Si Si6 0.815216 0.153344 0.889635
Si Si7 0.343633 0.481076 0.640093
O O1 0.640482 0.122565 0.140168
O O2 0.525612 0.131680 0.083647
O O3 0.097572 0.056513 0.369952
O O4 0.660749 0.989519 0.069104
O O5 0.108705 0.750000 0.285757
O O6 0.288635 0.872086 0.122351
O O7 0.007211 0.905112 0.367259
O O8 0.616778 0.841787 0.049252
O O9 0.934028 0.127617 0.097735
O O10 0.864210 0.063472 0.237058
O O11 0.402237 0.036082 0.343965
O O12 0.370658 0.964663 0.460606
O O13 0.000000 0.000000 0.000000
O O14 0.901758 0.250000 0.849089
O O15 0.134118 0.103005 0.745697
O O16 0.500000 0.500000 0.500000
#
# Coordination Sequence:
#
# PCOD8069343 Si02
#       7
#     4   4   4   4   4   4   4
#     4   9  18  32  56  76 103 138 177 215 257 319
#     4  10  20  35  52  78 111 138 175 225 273 317
#     4   8  18  31  52  76 101 138 174 213 261 312
#     4  10  19  32  57  83 103 138 182 227 267 316
#     4   9  17  34  54  81 105 132 177 224 265 309
#     4  10  21  36  52  76 112 146 173 219 277 324
#     4  10  18  31  52  78 107 138 180 218 263 322
#
# _framework density 18.551088
#
# number of rings (size 3 to 8) (size 9 to 14) (size 15 to 20)
#    0.000    2.571    1.429    1.286    2.000    1.714 
#    0.000    5.714    0.000    0.000    0.000    0.000 
#    0.000    0.000    0.000    0.000    0.000    0.000 
#
# Total GULP energy -346921.445022 kJ/mol
# GULP energy per Si atom -12390.051608 kJ/mol
# Density = 1.850887 g / cm^3
# Si number density = 18.551088 Si / 1000 Ang^3
#
#
#
# Elastic Constant Matrix: (Units=GPa)
#
#
# Indices 1 2 3 4 5 6 
#
# 1 126.5074 26.0569 50.2796 0.0000 -3.6390 0.0000
# 2 26.0569 52.4901 18.4859 0.0000 -1.7149 0.0000
# 3 50.2796 18.4859 111.5779 0.0000 3.6291 0.0000
# 4 0.0000 0.0000 0.0000 17.4930 0.0000 -1.4879
# 5 -3.6390 -1.7149 3.6291 0.0000 34.0965 0.0000
# 6 0.0000 0.0000 0.0000 -1.4879 0.0000 15.6244
#
#
#
# Elastic Compliance Matrix: (Units=1/GPa)
#
#
# Indices 1 2 3 4 5 6 
#
# 1 0.010319 -0.003637 -0.004091 0.000000 0.001354 0.000000
# 2 -0.003637 0.021579 -0.001965 0.000000 0.000906 0.000000
# 3 -0.004091 -0.001965 0.011188 0.000000 -0.001726 0.000000
# 4 0.000000 0.000000 0.000000 0.057633 0.000000 0.005488
# 5 0.001354 0.000906 -0.001726 0.000000 0.029702 0.000000
# 6 0.000000 0.000000 0.000000 0.005488 0.000000 0.064525
#
#
# Mechanical properties :
#
#
# Convention : Reuss Voigt Hill
#
# Bulk Modulus (GPa) = 42.19946 53.35777 47.77862
# Shear Modulus (GPa) = 22.49895 26.49298 24.49596
#
# Velocity S-wave (km/s) = 3.48632 3.78313 3.63776
# Velocity P-wave (km/s) = 6.24524 6.92155 6.59207
#
# Compressibility (1/GPa) = 0.02369699
#
# Stress axis : x y z
#
# Youngs Moduli (GPa) = 96.90975 46.34212 89.38322
#
# Poissons Ratio (x) = 0.16856 0.36570
# Poissons Ratio (y) = 0.35249 0.17568
# Poissons Ratio (z) = 0.39649 0.09108
#
# Static dielectric constant tensor:
#      x y z
#    x 3.971050 0.000000 -0.027700 
#    y 0.000000 2.970770 0.000000 
#    z -0.027700 0.000000 3.617880 
# 
# 
# High freq. dielectric constant tensor:
#      x y z
#    x 1.744550 0.000000 0.000240 
#    y 0.000000 1.665630 0.000000 
#    z 0.000240 0.000000 1.727870 
# 
# From -- ./inp_files/44335.got.cif
#   From: 2010.06.25/outbox.cif.g09.slc.cpg/sg11_23_cif.got.tgz:44335.got - 2010.06.27 23:14:04.
