data_PCOD8069352
_publ_section_title
;
Structure prediction by ZEFSAII (Michael W. Deem and Ramdas Pophale) SiO2 
 PCOD8069352
Probable space group: P 21/M
;
_chemical_formula_sum "Si O2"
_cell_formula_units_Z 32
_cell_length_a 20.952307
_cell_length_b 8.815923
_cell_length_c 12.181944
_cell_angle_alpha 90.000000
_cell_angle_beta 51.733392
_cell_angle_gamma 90.000000
_cell_volume 1766.696408
_symmetry_space_group_name_H-M "P 21/M"
_symmetry_group_IT_number 11
_symmetry_cell_setting 'monoclinic'
loop_
_space_group_symop_operation_xyz
x,y,z
-x,1/2+y,-z
-x,-y,-z
x,1/2-y,z
loop_
_atom_site_type_symbol
_atom_site_label
_atom_site_fract_x
_atom_site_fract_y
_atom_site_fract_z
Si Si1 0.941617 0.073437 0.717357
Si Si2 0.099611 0.574380 0.485952
Si Si3 0.633732 0.570915 0.545776
Si Si4 0.676911 0.426057 0.946906
Si Si5 0.201785 0.428186 0.019341
Si Si6 0.547600 0.072732 0.256210
Si Si7 0.685206 0.430166 0.271870
Si Si8 0.716188 0.074553 0.661233
O O1 0.934573 0.250000 0.750706
O O2 0.905770 0.031316 0.636258
O O3 0.035583 0.023014 0.624483
O O4 0.890478 0.982537 0.862945
O O5 0.078348 0.750000 0.524881
O O6 0.188876 0.534434 0.433705
O O7 0.633678 0.750000 0.528424
O O8 0.542215 0.500639 0.643338
O O9 0.684792 0.493086 0.395046
O O10 0.675530 0.533121 0.615870
O O11 0.701015 0.250000 0.940915
O O12 0.672674 0.463047 0.822998
O O13 0.745662 0.526383 0.930545
O O14 0.589455 0.463722 0.094198
O O15 0.204429 0.250000 0.998839
O O16 0.235200 0.507988 0.874112
O O17 0.537859 0.250000 0.282393
O O18 0.604771 0.009573 0.293158
O O19 0.689143 0.250000 0.268630
O O20 0.703347 0.250000 0.643221
#
# Coordination Sequence:
#
# PCOD8069352 Si02
#       8
#     4   4   4   4   4   4   4   4
#     4  10  18  31  52  79 108 140 173 210 258 311
#     4   9  18  32  50  76 107 140 176 216 253 300
#     4  11  22  35  51  77 107 137 178 224 267 310
#     4   9  17  34  54  74 103 142 180 214 260 314
#     4  11  20  31  52  82 111 135 167 218 269 311
#     4   8  17  33  55  78 103 133 171 224 272 311
#     4  10  20  37  58  76  99 137 180 220 267 316
#     4  10  20  35  53  73 106 148 182 211 254 315
#
# _framework density 18.112901999999998
#
# number of rings (size 3 to 8) (size 9 to 14) (size 15 to 20)
#    0.000    2.250    1.250    3.375    0.000    2.000 
#    0.000    5.625    0.000    0.750    0.000    0.000 
#    0.000    0.000    0.000    0.000    0.000    0.000 
#
# Total GULP energy -396837.119306 kJ/mol
# GULP energy per Si atom -12401.159978 kJ/mol
# Density = 1.807168 g / cm^3
# Si number density = 18.112902 Si / 1000 Ang^3
#
#
#
# Elastic Constant Matrix: (Units=GPa)
#
#
# Indices 1 2 3 4 5 6 
#
# 1 38.9448 18.6344 35.2918 0.0000 4.8256 0.0000
# 2 18.6344 73.8927 45.5265 0.0000 0.7617 0.0000
# 3 35.2918 45.5265 130.2960 0.0000 1.7464 0.0000
# 4 0.0000 0.0000 0.0000 27.2081 0.0000 0.4574
# 5 4.8256 0.7617 1.7464 0.0000 25.3029 0.0000
# 6 0.0000 0.0000 0.0000 0.4574 0.0000 25.5771
#
#
#
# Elastic Compliance Matrix: (Units=1/GPa)
#
#
# Indices 1 2 3 4 5 6 
#
# 1 0.035769 -0.003872 -0.008253 0.000000 -0.006136 0.000000
# 2 -0.003872 0.017665 -0.005131 0.000000 0.000561 0.000000
# 3 -0.008253 -0.005131 0.011691 0.000000 0.000922 0.000000
# 4 0.000000 0.000000 0.000000 0.036765 0.000000 -0.000658
# 5 -0.006136 0.000561 0.000922 0.000000 0.040611 0.000000
# 6 0.000000 0.000000 0.000000 -0.000658 0.000000 0.039109
#
#
# Mechanical properties :
#
#
# Convention : Reuss Voigt Hill
#
# Bulk Modulus (GPa) = 32.66648 49.11544 40.89096
# Shear Modulus (GPa) = 22.09189 25.19635 23.64412
#
# Velocity S-wave (km/s) = 3.49618 3.73375 3.61692
# Velocity P-wave (km/s) = 5.86274 6.76484 6.32988
#
# Compressibility (1/GPa) = 0.03061242
#
# Stress axis : x y z
#
# Youngs Moduli (GPa) = 27.95680 56.60857 85.53734
#
# Poissons Ratio (x) = 0.21920 0.70596
# Poissons Ratio (y) = 0.10825 0.43890
# Poissons Ratio (z) = 0.23074 0.29046
#
# Static dielectric constant tensor:
#      x y z
#    x 3.127910 0.000000 -0.188610 
#    y 0.000000 3.197300 0.000000 
#    z -0.188610 0.000000 3.552820 
# 
# 
# High freq. dielectric constant tensor:
#      x y z
#    x 1.668920 0.000000 -0.013360 
#    y 0.000000 1.694220 0.000000 
#    z -0.013360 0.000000 1.713930 
# 
# From -- ./inp_files/40614.got.cif
#   From: 2010.06.25/outbox.cif.g09.slc.cpg/sg11_21_cif.got.tgz:40614.got - 2010.06.27 23:14:04.
