data_PCOD8069145
_publ_section_title
;
Structure prediction by ZEFSAII (Michael W. Deem and Ramdas Pophale) SiO2 
 PCOD8069145
Probable space group: P 21/M
;
_chemical_formula_sum "Si O2"
_cell_formula_units_Z 32
_cell_length_a 22.732968
_cell_length_b 8.767664
_cell_length_c 12.516139
_cell_angle_alpha 90.000000
_cell_angle_beta 43.085799
_cell_angle_gamma 90.000000
_cell_volume 1704.080515
_symmetry_space_group_name_H-M "P 21/M"
_symmetry_group_IT_number 11
_symmetry_cell_setting 'monoclinic'
loop_
_space_group_symop_operation_xyz
x,y,z
-x,1/2+y,-z
-x,-y,-z
x,1/2-y,z
loop_
_atom_site_type_symbol
_atom_site_label
_atom_site_fract_x
_atom_site_fract_y
_atom_site_fract_z
Si Si1 0.370803 0.074429 0.612101
Si Si2 0.931035 0.930461 0.866010
Si Si3 0.805808 0.429773 0.202907
Si Si4 0.221020 0.922892 0.335684
Si Si5 0.163255 0.923022 0.189569
Si Si6 0.553207 0.073767 0.281904
Si Si7 0.671292 0.570787 0.970880
Si Si8 0.880273 0.431457 0.328438
O O1 0.341564 0.250000 0.655162
O O2 0.450765 0.050452 0.425598
O O3 0.294174 0.971652 0.668465
O O4 0.397846 0.024352 0.694105
O O5 0.930488 0.750000 0.863254
O O6 0.022745 0.993483 0.785560
O O7 0.914411 0.994405 0.768969
O O8 0.855508 0.988677 0.041871
O O9 0.817979 0.250000 0.176228
O O10 0.844497 0.490398 0.263377
O O11 0.251873 0.750000 0.315780
O O12 0.147613 0.925419 0.339021
O O13 0.180561 0.996636 0.496000
O O14 0.304025 0.018696 0.183298
O O15 0.173019 0.750000 0.134405
O O16 0.252897 0.013937 0.048734
O O17 0.578229 0.250000 0.263226
O O18 0.583507 0.010952 0.126170
O O19 0.659534 0.750000 0.991076
O O20 0.879930 0.250000 0.336653
#
# Coordination Sequence:
#
# PCOD8069145 Si02
#       8
#     4   4   4   4   4   4   4   4
#     4  10  21  35  53  79 109 138 172 215 262 310
#     4  11  21  34  54  78 107 137 177 226 270 312
#     4  11  22  37  56  76 106 143 181 216 262 319
#     4   8  17  35  55  75 103 139 179 219 266 314
#     4   9  18  32  52  76 105 139 173 213 264 318
#     4  10  19  33  54  80 109 140 171 208 259 316
#     4  10  18  30  50  78 108 136 168 208 259 312
#     4   9  20  38  57  76 100 140 185 226 263 308
#
# _framework density 18.778455999999998
#
# number of rings (size 3 to 8) (size 9 to 14) (size 15 to 20)
#    0.750    1.500    0.000    3.750    0.000    2.000 
#    0.000    4.375    0.000    0.750    0.000    0.000 
#    0.000    0.000    0.000    0.000    0.000    0.000 
#
# Total GULP energy -396660.866627 kJ/mol
# GULP energy per Si atom -12395.652082 kJ/mol
# Density = 1.873572 g / cm^3
# Si number density = 18.778456 Si / 1000 Ang^3
#
#
#
# Elastic Constant Matrix: (Units=GPa)
#
#
# Indices 1 2 3 4 5 6 
#
# 1 30.8372 2.1746 8.1049 0.0000 0.5849 0.0000
# 2 2.1746 62.3349 19.8149 0.0000 0.2311 0.0000
# 3 8.1049 19.8149 70.6617 0.0000 -3.5848 0.0000
# 4 0.0000 0.0000 0.0000 19.4967 0.0000 -2.3822
# 5 0.5849 0.2311 -3.5848 0.0000 23.6237 0.0000
# 6 0.0000 0.0000 0.0000 -2.3822 0.0000 21.0296
#
#
#
# Elastic Compliance Matrix: (Units=1/GPa)
#
#
# Indices 1 2 3 4 5 6 
#
# 1 0.033484 0.000089 -0.003938 0.000000 -0.001428 0.000000
# 2 0.000089 0.017633 -0.005002 0.000000 -0.000934 0.000000
# 3 -0.003938 -0.005002 0.016138 0.000000 0.002595 0.000000
# 4 0.000000 0.000000 0.000000 0.052010 0.000000 0.005892
# 5 -0.001428 -0.000934 0.002595 0.000000 0.042769 0.000000
# 6 0.000000 0.000000 0.000000 0.005892 0.000000 0.048219
#
#
# Mechanical properties :
#
#
# Convention : Reuss Voigt Hill
#
# Bulk Modulus (GPa) = 20.18058 24.89142 22.53600
# Shear Modulus (GPa) = 20.45212 21.74598 21.09905
#
# Velocity S-wave (km/s) = 3.30377 3.40667 3.35562
# Velocity P-wave (km/s) = 5.03222 5.36265 5.20006
#
# Compressibility (1/GPa) = 0.04955259
#
# Stress axis : x y z
#
# Youngs Moduli (GPa) = 29.86483 56.71245 61.96560
#
# Poissons Ratio (x) = -0.00505 0.24402
# Poissons Ratio (y) = -0.00266 0.30996
# Poissons Ratio (z) = 0.11761 0.28368
#
# Static dielectric constant tensor:
#      x y z
#    x 3.258400 0.000000 -0.009650 
#    y 0.000000 3.325900 0.000000 
#    z -0.009650 0.000000 3.499490 
# 
# 
# High freq. dielectric constant tensor:
#      x y z
#    x 1.696470 0.000000 0.000450 
#    y 0.000000 1.727830 0.000000 
#    z 0.000450 0.000000 1.733080 
# 
# From -- ./inp_files/42763.got.cif
#   From: 2010.06.25/outbox.cif.g09.slc.cpg/sg11_22_cif.got.tgz:42763.got - 2010.06.27 23:14:04.
