data_PCOD8069044
_publ_section_title
;
Structure prediction by ZEFSAII (Michael W. Deem and Ramdas Pophale) SiO2 
 PCOD8069044
Probable space group: P 21/M
;
_chemical_formula_sum "Si O2"
_cell_formula_units_Z 28
_cell_length_a 22.486101
_cell_length_b 8.680256
_cell_length_c 10.283428
_cell_angle_alpha 90.000000
_cell_angle_beta 127.696103
_cell_angle_gamma 90.000000
_cell_volume 1588.205248
_symmetry_space_group_name_H-M "P 21/M"
_symmetry_group_IT_number 11
_symmetry_cell_setting 'monoclinic'
loop_
_space_group_symop_operation_xyz
x,y,z
-x,1/2+y,-z
-x,-y,-z
x,1/2-y,z
loop_
_atom_site_type_symbol
_atom_site_label
_atom_site_fract_x
_atom_site_fract_y
_atom_site_fract_z
Si Si1 0.685438 0.431468 0.980378
Si Si2 0.547676 0.069494 0.179982
Si Si3 0.459666 0.431771 0.321950
Si Si4 0.838797 0.922344 0.152362
Si Si5 0.989226 0.065675 0.343604
Si Si6 0.852828 0.578985 0.480185
Si Si7 0.691691 0.934235 0.271122
O O1 0.683101 0.250000 0.998327
O O2 0.620790 0.486008 0.796096
O O3 0.764732 0.478792 0.021410
O O4 0.670465 0.513679 0.097729
O O5 0.553003 0.250000 0.165447
O O6 0.510255 0.025390 0.265644
O O7 0.631489 0.998720 0.292303
O O8 0.500000 0.000000 0.000000
O O9 0.500000 0.500000 0.500000
O O10 0.448107 0.250000 0.320296
O O11 0.828512 0.750000 0.083684
O O12 0.851074 0.919459 0.322157
O O13 0.912105 0.998346 0.180130
O O14 0.985288 0.250000 0.342916
O O15 0.065560 0.009575 0.367280
O O16 0.000000 0.000000 0.500000
O O17 0.850001 0.750000 0.533087
O O18 0.774978 0.497878 0.422691
O O19 0.691843 0.750000 0.271559
#
# Coordination Sequence:
#
# PCOD8069044 Si02
#       7
#     4   4   4   4   4   4   4
#     4  11  20  31  49  71  96 128 168 208 253 305
#     4  11  22  35  54  77 102 133 170 211 256 307
#     4  11  24  40  56  75 102 134 170 214 261 307
#     4   9  16  26  39  58  87 122 161 203 246 293
#     4   9  14  22  35  54  83 121 161 197 241 294
#     4   7  13  23  36  56  86 122 156 196 242 287
#     4  10  18  30  48  71  99 130 167 209 251 296
#
# _framework density 17.629963
#
# number of rings (size 3 to 8) (size 9 to 14) (size 15 to 20)
#    0.000    2.286    1.429    5.143    0.000    1.714 
#    0.000    2.143    0.000    0.000    0.000    0.000 
#    0.000    1.143    0.000    3.429    0.000    7.143 
#
# Total GULP energy -346891.191707 kJ/mol
# GULP energy per Si atom -12388.971132 kJ/mol
# Density = 1.758984 g / cm^3
# Si number density = 17.629963 Si / 1000 Ang^3
#
#
#
# Elastic Constant Matrix: (Units=GPa)
#
#
# Indices 1 2 3 4 5 6 
#
# 1 116.9063 45.7991 65.2792 0.0000 43.9146 0.0000
# 2 45.7991 92.0315 35.3685 0.0000 12.0452 0.0000
# 3 65.2792 35.3685 73.9438 0.0000 25.4956 0.0000
# 4 0.0000 0.0000 0.0000 22.8510 0.0000 8.6466
# 5 43.9146 12.0452 25.4956 0.0000 36.8983 0.0000
# 6 0.0000 0.0000 0.0000 8.6466 0.0000 27.4404
#
#
#
# Elastic Compliance Matrix: (Units=1/GPa)
#
#
# Indices 1 2 3 4 5 6 
#
# 1 0.024937 -0.004877 -0.013125 0.000000 -0.019018 0.000000
# 2 -0.004877 0.014267 -0.003826 0.000000 0.003790 0.000000
# 3 -0.013125 -0.003826 0.027731 0.000000 -0.002291 0.000000
# 4 0.000000 0.000000 0.000000 0.049686 0.000000 -0.015656
# 5 -0.019018 0.003790 -0.002291 0.000000 0.050082 0.000000
# 6 0.000000 0.000000 0.000000 -0.015656 0.000000 0.041376
#
#
# Mechanical properties :
#
#
# Convention : Reuss Voigt Hill
#
# Bulk Modulus (GPa) = 42.95529 63.97502 53.46516
# Shear Modulus (GPa) = 19.26830 26.53359 22.90095
#
# Velocity S-wave (km/s) = 3.30953 3.88368 3.60804
# Velocity P-wave (km/s) = 6.24675 7.51512 6.91010
#
# Compressibility (1/GPa) = 0.02328002
#
# Stress axis : x y z
#
# Youngs Moduli (GPa) = 40.10079 70.09237 36.06088
#
# Poissons Ratio (x) = 0.34182 0.47330
# Poissons Ratio (y) = 0.19556 0.13796
# Poissons Ratio (z) = 0.52633 0.26815
#
# Static dielectric constant tensor:
#      x y z
#    x 2.180070 0.000000 0.495560 
#    y 0.000000 3.051730 0.000000 
#    z 0.495560 0.000000 3.075070 
# 
# 
# High freq. dielectric constant tensor:
#      x y z
#    x 1.676530 0.000000 0.059800 
#    y 0.000000 1.685320 0.000000 
#    z 0.059800 0.000000 1.637670 
# 
# From -- ./inp_files/43679.got.cif
#   From: 2010.06.25/outbox.cif.g09.slc.cpg/sg11_22_cif.got.tgz:43679.got - 2010.06.27 23:14:04.
