data_PCOD8069638
_publ_section_title
;
Structure prediction by ZEFSAII (Michael W. Deem and Ramdas Pophale) SiO2 
 PCOD8069638
Probable space group: P 21/M
;
_chemical_formula_sum "Si O2"
_cell_formula_units_Z 32
_cell_length_a 11.365103
_cell_length_b 12.954316
_cell_length_c 12.141276
_cell_angle_alpha 90.000000
_cell_angle_beta 86.011895
_cell_angle_gamma 90.000000
_cell_volume 1783.196815
_symmetry_space_group_name_H-M "P 21/M"
_symmetry_group_IT_number 11
_symmetry_cell_setting 'monoclinic'
loop_
_space_group_symop_operation_xyz
x,y,z
-x,1/2+y,-z
-x,-y,-z
x,1/2-y,z
loop_
_atom_site_type_symbol
_atom_site_label
_atom_site_fract_x
_atom_site_fract_y
_atom_site_fract_z
Si Si1 0.879930 0.021976 0.947112
Si Si2 0.824920 0.366787 0.151157
Si Si3 0.414515 0.132814 0.228490
Si Si4 0.997850 0.995510 0.729030
Si Si5 0.674682 0.631593 0.003484
Si Si6 0.786644 0.870008 0.369570
Si Si7 0.184147 0.368265 0.381912
Si Si8 0.622456 0.514698 0.223933
O O1 0.798400 0.921359 0.966114
O O2 0.903861 0.051473 0.817864
O O3 0.823030 0.117413 0.018380
O O4 0.000000 0.000000 0.000000
O O5 0.807428 0.250000 0.182818
O O6 0.944402 0.405845 0.200792
O O7 0.716049 0.424360 0.210991
O O8 0.454190 0.250000 0.259155
O O9 0.410600 0.124580 0.096372
O O10 0.287320 0.108954 0.288383
O O11 0.501453 0.042689 0.265527
O O12 0.093690 0.075823 0.679511
O O13 0.926714 0.943077 0.633833
O O14 0.702238 0.750000 0.032244
O O15 0.609727 0.577750 0.110829
O O16 0.802590 0.750000 0.342678
O O17 0.768234 0.892299 0.499445
O O18 0.668092 0.909032 0.316867
O O19 0.141160 0.250000 0.375472
#
# Coordination Sequence:
#
# PCOD8069638 Si02
#       8
#     4   4   4   4   4   4   4   4
#     4   9  18  28  45  76 106 134 166 206 257 314
#     4   9  18  30  47  74 106 137 170 212 261 313
#     4  10  20  34  56  80 103 135 176 223 264 308
#     4  10  18  33  54  77 104 136 176 219 262 313
#     4  10  19  33  53  77 106 138 173 214 260 315
#     4  10  22  37  54  77 105 141 181 221 266 313
#     4  10  20  35  56  81 106 137 179 221 264 313
#     4  10  20  34  52  76 107 139 177 215 262 314
#
# _framework density 17.945298000000001
#
# number of rings (size 3 to 8) (size 9 to 14) (size 15 to 20)
#    0.000    2.250    1.250    2.625    0.000    3.000 
#    0.000    0.000    0.000    3.000    0.000    0.000 
#    0.000    0.000    0.000    0.000    0.000    0.000 
#
# Total GULP energy -396648.199278 kJ/mol
# GULP energy per Si atom -12395.256227 kJ/mol
# Density = 1.790445 g / cm^3
# Si number density = 17.945298 Si / 1000 Ang^3
#
#
#
# Elastic Constant Matrix: (Units=GPa)
#
#
# Indices 1 2 3 4 5 6 
#
# 1 62.2922 40.0088 15.9082 0.0000 9.8595 0.0000
# 2 40.0088 101.4257 41.9080 0.0000 9.1509 0.0000
# 3 15.9082 41.9080 87.9980 0.0000 9.6881 0.0000
# 4 0.0000 0.0000 0.0000 22.8953 0.0000 3.6907
# 5 9.8595 9.1509 9.6881 0.0000 20.1554 0.0000
# 6 0.0000 0.0000 0.0000 3.6907 0.0000 27.8953
#
#
#
# Elastic Compliance Matrix: (Units=1/GPa)
#
#
# Indices 1 2 3 4 5 6 
#
# 1 0.022524 -0.008547 0.000828 0.000000 -0.007536 0.000000
# 2 -0.008547 0.015683 -0.005913 0.000000 -0.000097 0.000000
# 3 0.000828 -0.005913 0.014549 0.000000 -0.004714 0.000000
# 4 0.000000 0.000000 0.000000 0.044629 0.000000 -0.005905
# 5 -0.007536 -0.000097 -0.004714 0.000000 0.055611 0.000000
# 6 0.000000 0.000000 0.000000 -0.005905 0.000000 0.036630
#
#
# Mechanical properties :
#
#
# Convention : Reuss Voigt Hill
#
# Bulk Modulus (GPa) = 39.22741 49.70734 44.46737
# Shear Modulus (GPa) = 22.18402 24.44858 23.31630
#
# Velocity S-wave (km/s) = 3.51978 3.69507 3.60849
# Velocity P-wave (km/s) = 6.19882 6.77969 6.49575
#
# Compressibility (1/GPa) = 0.02549238
#
# Stress axis : x y z
#
# Youngs Moduli (GPa) = 44.39626 63.76331 68.73274
#
# Poissons Ratio (x) = 0.54501 -0.05693
# Poissons Ratio (y) = 0.37947 0.40641
# Poissons Ratio (z) = -0.03677 0.37703
#
# Static dielectric constant tensor:
#      x y z
#    x 3.207470 0.000000 0.016100 
#    y 0.000000 3.332680 0.000000 
#    z 0.016100 0.000000 3.522560 
# 
# 
# High freq. dielectric constant tensor:
#      x y z
#    x 1.683540 0.000000 0.000490 
#    y 0.000000 1.687530 0.000000 
#    z 0.000490 0.000000 1.695130 
# 
# From -- ./inp_files/34789.got.cif
#   From: 2010.06.25/outbox.cif.g09.slc.cpg/sg11_18_cif.got.tgz:34789.got - 2010.06.27 23:14:04.
