data_PCOD8069532
_publ_section_title
;
Structure prediction by ZEFSAII (Michael W. Deem and Ramdas Pophale) SiO2 
 PCOD8069532
Probable space group: P 21/M
;
_chemical_formula_sum "Si O2"
_cell_formula_units_Z 32
_cell_length_a 20.683583
_cell_length_b 8.937638
_cell_length_c 12.208817
_cell_angle_alpha 90.000000
_cell_angle_beta 128.219959
_cell_angle_gamma 90.000000
_cell_volume 1773.154144
_symmetry_space_group_name_H-M "P 21/M"
_symmetry_group_IT_number 11
_symmetry_cell_setting 'monoclinic'
loop_
_space_group_symop_operation_xyz
x,y,z
-x,1/2+y,-z
-x,-y,-z
x,1/2-y,z
loop_
_atom_site_type_symbol
_atom_site_label
_atom_site_fract_x
_atom_site_fract_y
_atom_site_fract_z
Si Si1 0.468851 0.426294 0.077448
Si Si2 0.200201 0.073834 0.059950
Si Si3 0.714329 0.573942 0.074705
Si Si4 0.114559 0.920167 0.345519
Si Si5 0.972836 0.073498 0.084411
Si Si6 0.737764 0.077622 0.667436
Si Si7 0.763276 0.074781 0.339048
Si Si8 0.628156 0.073948 0.361938
O O1 0.467981 0.250000 0.057629
O O2 0.532900 0.468204 0.242342
O O3 0.500000 0.500000 0.000000
O O4 0.379344 0.487762 0.016967
O O5 0.182674 0.250000 0.046424
O O6 0.257413 0.026625 0.221438
O O7 0.248074 0.025156 0.001157
O O8 0.115576 0.984487 0.972193
O O9 0.714882 0.750000 0.088931
O O10 0.769935 0.505872 0.229437
O O11 0.082128 0.750000 0.312418
O O12 0.179589 0.940665 0.316231
O O13 0.155283 0.960761 0.504798
O O14 0.038072 0.030571 0.246926
O O15 0.969248 0.250000 0.064762
O O16 0.000000 0.000000 0.000000
O O17 0.725998 0.250000 0.690988
O O18 0.660457 0.016700 0.513942
O O19 0.754206 0.250000 0.308212
O O20 0.683804 0.009564 0.320840
O O21 0.645019 0.250000 0.379870
#
# Coordination Sequence:
#
# PCOD8069532 Si02
#       8
#     4   4   4   4   4   4   4   4
#     4  10  18  32  54  80 108 140 179 222 267 313
#     4  11  23  38  53  75 111 149 181 218 268 318
#     4  10  22  36  52  78 113 148 180 221 269 317
#     4   9  18  33  55  83 111 136 172 222 271 315
#     4  12  23  36  57  84 108 136 178 223 268 318
#     4   9  17  32  54  78 104 139 180 218 265 320
#     4   9  17  32  55  81 108 142 178 216 266 322
#     4   8  15  29  52  80 107 136 173 221 270 313
#
# _framework density 18.046935999999999
#
# number of rings (size 3 to 8) (size 9 to 14) (size 15 to 20)
#    0.000    2.250    2.500    3.000    0.000    1.500 
#    0.000    3.750    0.000    0.000    0.000    0.000 
#    0.000    0.000    0.000    0.000    0.000    0.000 
#
# Total GULP energy -396762.358791 kJ/mol
# GULP energy per Si atom -12398.823712 kJ/mol
# Density = 1.800586 g / cm^3
# Si number density = 18.046936 Si / 1000 Ang^3
#
#
#
# Elastic Constant Matrix: (Units=GPa)
#
#
# Indices 1 2 3 4 5 6 
#
# 1 107.3277 46.9654 73.0161 0.0000 -2.7157 0.0000
# 2 46.9654 62.8839 48.4839 0.0000 -1.6535 0.0000
# 3 73.0161 48.4839 153.9092 0.0000 -5.6823 0.0000
# 4 0.0000 0.0000 0.0000 31.5878 0.0000 -2.8581
# 5 -2.7157 -1.6535 -5.6823 0.0000 27.7520 0.0000
# 6 0.0000 0.0000 0.0000 -2.8581 0.0000 21.1385
#
#
#
# Elastic Compliance Matrix: (Units=1/GPa)
#
#
# Indices 1 2 3 4 5 6 
#
# 1 0.016495 -0.008302 -0.005208 0.000000 0.000053 0.000000
# 2 -0.008302 0.025183 -0.003999 0.000000 -0.000131 0.000000
# 3 -0.005208 -0.003999 0.010278 0.000000 0.001357 0.000000
# 4 0.000000 0.000000 0.000000 0.032050 0.000000 0.004333
# 5 0.000053 -0.000131 0.001357 0.000000 0.036309 0.000000
# 6 0.000000 0.000000 0.000000 0.004333 0.000000 0.047893
#
#
# Mechanical properties :
#
#
# Convention : Reuss Voigt Hill
#
# Bulk Modulus (GPa) = 59.04360 73.45015 66.24688
# Shear Modulus (GPa) = 23.93821 26.47272 25.20546
#
# Velocity S-wave (km/s) = 3.64599 3.83414 3.74125
# Velocity P-wave (km/s) = 7.10718 7.77102 7.44650
#
# Compressibility (1/GPa) = 0.01693664
#
# Stress axis : x y z
#
# Youngs Moduli (GPa) = 60.62586 39.70932 97.29653
#
# Poissons Ratio (x) = 0.32969 0.50670
# Poissons Ratio (y) = 0.50334 0.38910
# Poissons Ratio (z) = 0.31573 0.15880
#
# Static dielectric constant tensor:
#      x y z
#    x 3.231120 0.000000 0.162220 
#    y 0.000000 2.774520 0.000000 
#    z 0.162220 0.000000 3.761920 
# 
# 
# High freq. dielectric constant tensor:
#      x y z
#    x 1.670280 0.000000 0.006610 
#    y 0.000000 1.683190 0.000000 
#    z 0.006610 0.000000 1.717870 
# 
# From -- ./inp_files/42894.got.cif
#   From: 2010.06.25/outbox.cif.g09.slc.cpg/sg11_22_cif.got.tgz:42894.got - 2010.06.27 23:14:04.
