data_PCOD8069562
_publ_section_title
;
Structure prediction by ZEFSAII (Michael W. Deem and Ramdas Pophale) SiO2 
 PCOD8069562
Probable space group: P 21/M
;
_chemical_formula_sum "Si O2"
_cell_formula_units_Z 24
_cell_length_a 8.950214
_cell_length_b 8.343823
_cell_length_c 15.574991
_cell_angle_alpha 90.000000
_cell_angle_beta 91.531639
_cell_angle_gamma 90.000000
_cell_volume 1162.709211
_symmetry_space_group_name_H-M "P 21/M"
_symmetry_group_IT_number 11
_symmetry_cell_setting 'monoclinic'
loop_
_space_group_symop_operation_xyz
x,y,z
-x,1/2+y,-z
-x,-y,-z
x,1/2-y,z
loop_
_atom_site_type_symbol
_atom_site_label
_atom_site_fract_x
_atom_site_fract_y
_atom_site_fract_z
Si Si1 0.332878 0.939227 0.993170
Si Si2 0.668169 0.060225 0.508687
Si Si3 0.340831 0.435403 0.312895
Si Si4 0.835769 0.436014 0.178102
Si Si5 0.668685 0.935476 0.333459
Si Si6 0.842169 0.063918 0.843389
O O1 0.334194 0.750000 0.995154
O O2 0.240325 0.003425 0.073232
O O3 0.254782 0.002380 0.905388
O O4 0.500000 0.000000 0.000000
O O5 0.678885 0.250000 0.512963
O O6 0.500000 0.000000 0.500000
O O7 0.734778 0.985811 0.597298
O O8 0.747995 0.994200 0.423585
O O9 0.308223 0.250000 0.294453
O O10 0.518366 0.464417 0.314123
O O11 0.267203 0.542427 0.238495
O O12 0.801380 0.250000 0.193798
O O13 0.786136 0.537310 0.259654
O O14 0.010572 0.459096 0.166081
O O15 0.625464 0.750000 0.340020
O O16 0.884918 0.250000 0.853420
#
# Coordination Sequence:
#
# PCOD8069562 Si02
#       6
#     4   4   4   4   4   4
#     4  10  23  40  62  88 116 148 191 238 285 338
#     4  10  18  32  55  84 115 150 191 240 288 338
#     4  11  21  36  58  86 117 153 194 241 288 340
#     4  11  23  40  59  85 117 154 193 236 288 345
#     4  11  21  36  58  86 117 153 194 241 288 340
#     4  11  23  40  59  85 117 154 193 236 288 345
#
# _framework density 20.641448
#
# number of rings (size 3 to 8) (size 9 to 14) (size 15 to 20)
#    0.000    1.333    0.000    9.000    0.000    5.333 
#    0.000    0.833    0.000    0.000    0.000    0.000 
#    0.000    0.000    0.000    0.000    0.000    0.000 
#
# Total GULP energy -297681.445512 kJ/mol
# GULP energy per Si atom -12403.393563 kJ/mol
# Density = 2.059447 g / cm^3
# Si number density = 20.641448 Si / 1000 Ang^3
#
#
#
# Elastic Constant Matrix: (Units=GPa)
#
#
# Indices 1 2 3 4 5 6 
#
# 1 84.9541 7.5882 44.4369 0.0000 -20.2441 0.0000
# 2 7.5882 79.6402 23.1258 0.0000 -3.4500 0.0000
# 3 44.4369 23.1258 153.5160 0.0000 -33.5709 0.0000
# 4 0.0000 0.0000 0.0000 28.9190 0.0000 -1.8723
# 5 -20.2441 -3.4500 -33.5709 0.0000 19.3850 0.0000
# 6 0.0000 0.0000 0.0000 -1.8723 0.0000 31.1402
#
#
#
# Elastic Compliance Matrix: (Units=1/GPa)
#
#
# Indices 1 2 3 4 5 6 
#
# 1 0.015918 -0.000482 -0.001479 0.000000 0.013977 0.000000
# 2 -0.000482 0.013183 -0.002323 0.000000 -0.002180 0.000000
# 3 -0.001479 -0.002323 0.011048 0.000000 0.017175 0.000000
# 4 0.000000 0.000000 0.000000 0.034715 0.000000 0.002087
# 5 0.013977 -0.002180 0.017175 0.000000 0.095538 0.000000
# 6 0.000000 0.000000 0.000000 0.002087 0.000000 0.032238
#
#
# Mechanical properties :
#
#
# Convention : Reuss Voigt Hill
#
# Bulk Modulus (GPa) = 31.66424 52.04578 41.85501
# Shear Modulus (GPa) = 22.54958 32.08614 27.31786
#
# Velocity S-wave (km/s) = 3.30880 3.94693 3.64187
# Velocity P-wave (km/s) = 5.47457 6.78528 6.16486
#
# Compressibility (1/GPa) = 0.03158137
#
# Stress axis : x y z
#
# Youngs Moduli (GPa) = 62.82103 75.85803 90.51654
#
# Poissons Ratio (x) = 0.03655 0.13383
# Poissons Ratio (y) = 0.03027 0.21028
# Poissons Ratio (z) = 0.09288 0.17623
#
# Static dielectric constant tensor:
#      x y z
#    x 3.331660 0.000000 -0.162370 
#    y 0.000000 3.767370 0.000000 
#    z -0.162370 0.000000 4.582690 
# 
# 
# High freq. dielectric constant tensor:
#      x y z
#    x 1.778880 0.000000 -0.009220 
#    y 0.000000 1.814640 0.000000 
#    z -0.009220 0.000000 1.833450 
# 
# From -- ./inp_files/46590.got.cif
#   From: 2010.06.25/outbox.cif.g09.slc.cpg/sg11_24_cif.got.tgz:46590.got - 2010.06.27 23:14:04.
