data_PCOD8069864
_publ_section_title
;
Structure prediction by ZEFSAII (Michael W. Deem and Ramdas Pophale) SiO2 
 PCOD8069864
Probable space group: P 21/M
;
_chemical_formula_sum "Si O2"
_cell_formula_units_Z 32
_cell_length_a 8.297136
_cell_length_b 14.777788
_cell_length_c 21.242796
_cell_angle_alpha 90.000000
_cell_angle_beta 40.958023
_cell_angle_gamma 90.000000
_cell_volume 1707.363295
_symmetry_space_group_name_H-M "P 21/M"
_symmetry_group_IT_number 11
_symmetry_cell_setting 'monoclinic'
loop_
_space_group_symop_operation_xyz
x,y,z
-x,1/2+y,-z
-x,-y,-z
x,1/2-y,z
loop_
_atom_site_type_symbol
_atom_site_label
_atom_site_fract_x
_atom_site_fract_y
_atom_site_fract_z
Si Si1 0.453101 0.976775 0.671642
Si Si2 0.068501 0.647894 0.317810
Si Si3 0.498090 0.575753 0.860642
Si Si4 0.587325 0.908568 0.197126
Si Si5 0.926271 0.474325 0.801013
Si Si6 0.245774 0.352304 0.331499
Si Si7 0.113496 0.649277 0.069570
Si Si8 0.883309 0.999299 0.465941
O O1 0.487890 0.057997 0.711124
O O2 0.589576 0.003857 0.565477
O O3 0.164925 0.962748 0.742874
O O4 0.574663 0.886395 0.665389
O O5 0.964602 0.750000 0.348740
O O6 0.363544 0.652069 0.238181
O O7 0.001592 0.600557 0.271858
O O8 0.944350 0.592242 0.410792
O O9 0.370872 0.493300 0.861394
O O10 0.707962 0.539896 0.845527
O O11 0.614270 0.644632 0.776188
O O12 0.293619 0.628878 0.959100
O O13 0.835757 0.851410 0.125312
O O14 0.843652 0.423559 0.888620
O O15 0.166687 0.250000 0.370100
O O16 0.999146 0.413913 0.396193
O O17 0.168873 0.750000 0.078874
O O18 0.000000 0.000000 0.500000
#
# Coordination Sequence:
#
# PCOD8069864 Si02
#       8
#     4   4   4   4   4   4   4   4
#     4   9  19  36  58  79 111 148 184 229 278 333
#     4  11  20  35  58  83 113 148 186 229 281 333
#     4  10  19  37  57  79 107 154 182 228 281 337
#     4   9  18  36  55  80 109 141 184 232 283 321
#     4  10  21  38  56  76 116 153 183 223 284 332
#     4  10  19  36  58  82 109 145 191 236 278 327
#     4  11  21  33  54  84 109 141 190 234 273 333
#     4  10  18  36  57  82 109 144 184 231 283 322
#
# _framework density 18.742349999999998
#
# number of rings (size 3 to 8) (size 9 to 14) (size 15 to 20)
#    0.000    2.000    5.000    1.875    0.000    2.500 
#    0.000    2.500    0.000    0.000    0.000    0.000 
#    0.000    0.000    0.000    0.000    0.000    0.000 
#
# Total GULP energy -396734.147614 kJ/mol
# GULP energy per Si atom -12397.942113 kJ/mol
# Density = 1.869969 g / cm^3
# Si number density = 18.742350 Si / 1000 Ang^3
#
#
#
# Elastic Constant Matrix: (Units=GPa)
#
#
# Indices 1 2 3 4 5 6 
#
# 1 61.0434 14.3179 24.8736 0.0000 -0.7794 0.0000
# 2 14.3179 101.0184 33.9452 0.0000 -9.0374 0.0000
# 3 24.8736 33.9452 125.1760 0.0000 -0.9398 0.0000
# 4 0.0000 0.0000 0.0000 13.2078 0.0000 4.0676
# 5 -0.7794 -9.0374 -0.9398 0.0000 19.4737 0.0000
# 6 0.0000 0.0000 0.0000 4.0676 0.0000 15.1126
#
#
#
# Elastic Compliance Matrix: (Units=1/GPa)
#
#
# Indices 1 2 3 4 5 6 
#
# 1 0.018026 -0.001499 -0.003176 0.000000 -0.000127 0.000000
# 2 -0.001499 0.011508 -0.002784 0.000000 0.005146 0.000000
# 3 -0.003176 -0.002784 0.009368 0.000000 -0.000967 0.000000
# 4 0.000000 0.000000 0.000000 0.082556 0.000000 -0.022220
# 5 -0.000127 0.005146 -0.000967 0.000000 0.053688 0.000000
# 6 0.000000 0.000000 0.000000 -0.022220 0.000000 0.072151
#
#
# Mechanical properties :
#
#
# Convention : Reuss Voigt Hill
#
# Bulk Modulus (GPa) = 41.69743 48.16792 44.93268
# Shear Modulus (GPa) = 18.50418 23.83221 21.16820
#
# Velocity S-wave (km/s) = 3.14553 3.56978 3.36435
# Velocity P-wave (km/s) = 5.95722 6.53811 6.25441
#
# Compressibility (1/GPa) = 0.02398229
#
# Stress axis : x y z
#
# Youngs Moduli (GPa) = 55.47522 86.89930 106.75015
#
# Poissons Ratio (x) = 0.13026 0.33908
# Poissons Ratio (y) = 0.08316 0.29721
# Poissons Ratio (z) = 0.17621 0.24194
#
# Static dielectric constant tensor:
#      x y z
#    x 3.473480 0.000000 -0.090770 
#    y 0.000000 3.207010 0.000000 
#    z -0.090770 0.000000 3.800800 
# 
# 
# High freq. dielectric constant tensor:
#      x y z
#    x 1.717400 0.000000 0.003740 
#    y 0.000000 1.708850 0.000000 
#    z 0.003740 0.000000 1.739200 
# 
# From -- ./inp_files/21865.got.cif
#   From: 2010.06.25/outbox.cif.g09.slc.cpg/sg11_11_cif.got.tgz:21865.got - 2010.06.27 23:14:04.
