data_PCOD8069355
_publ_section_title
;
Structure prediction by ZEFSAII (Michael W. Deem and Ramdas Pophale) SiO2 
 PCOD8069355
Probable space group: P 21/M
;
_chemical_formula_sum "Si O2"
_cell_formula_units_Z 32
_cell_length_a 25.090039
_cell_length_b 8.983962
_cell_length_c 11.811309
_cell_angle_alpha 90.000000
_cell_angle_beta 133.952227
_cell_angle_gamma 90.000000
_cell_volume 1916.685075
_symmetry_space_group_name_H-M "P 21/M"
_symmetry_group_IT_number 11
_symmetry_cell_setting 'monoclinic'
loop_
_space_group_symop_operation_xyz
x,y,z
-x,1/2+y,-z
-x,-y,-z
x,1/2-y,z
loop_
_atom_site_type_symbol
_atom_site_label
_atom_site_fract_x
_atom_site_fract_y
_atom_site_fract_z
Si Si1 0.210713 0.418735 0.367523
Si Si2 0.569981 0.076801 0.549860
Si Si3 0.346627 0.421968 0.712356
Si Si4 0.635356 0.922608 0.003341
Si Si5 0.821062 0.581258 0.923363
Si Si6 0.922471 0.073120 0.913529
Si Si7 0.706636 0.073977 0.901209
Si Si8 0.467178 0.923458 0.754246
O O1 0.192631 0.250000 0.381224
O O2 0.276760 0.488524 0.540058
O O3 0.233448 0.418491 0.267459
O O4 0.136813 0.520842 0.270589
O O5 0.558550 0.250000 0.552697
O O6 0.643409 0.020700 0.720764
O O7 0.575153 0.038956 0.424724
O O8 0.500000 0.000000 0.500000
O O9 0.355752 0.250000 0.694972
O O10 0.423113 0.499711 0.790784
O O11 0.332592 0.446882 0.824106
O O12 0.638376 0.750000 0.971263
O O13 0.551249 0.983265 0.872360
O O14 0.687083 0.018165 0.997458
O O15 0.842395 0.750000 0.989130
O O16 0.895039 0.489818 0.995688
O O17 0.782778 0.501247 0.973079
O O18 0.928970 0.250000 0.925996
O O19 0.000000 0.000000 0.000000
O O20 0.717104 0.250000 0.917370
O O21 0.469180 0.750000 0.784630
#
# Coordination Sequence:
#
# PCOD8069355 Si02
#       8
#     4   4   4   4   4   4   4   4
#     4   8  17  32  49  74 102 130 163 198 243 291
#     4  10  20  32  47  67  91 122 161 207 257 306
#     4  10  20  34  51  70  93 127 172 214 252 296
#     4  10  21  35  49  65  92 132 173 214 257 298
#     4   9  18  32  51  74 101 131 159 192 240 290
#     4  10  18  31  52  80 111 136 159 189 232 288
#     4  11  21  32  47  70  96 125 165 209 253 300
#     4  10  20  33  48  68  93 124 165 214 266 308
#
# _framework density 16.695491000000001
#
# number of rings (size 3 to 8) (size 9 to 14) (size 15 to 20)
#    0.750    1.500    1.250    2.625    0.000    2.500 
#    0.000    0.000    0.000    0.000    0.000    0.875 
#    0.000    0.000    0.000    0.000    0.000    0.000 
#
# Total GULP energy -396665.025356 kJ/mol
# GULP energy per Si atom -12395.782042 kJ/mol
# Density = 1.665749 g / cm^3
# Si number density = 16.695491 Si / 1000 Ang^3
#
#
#
# Elastic Constant Matrix: (Units=GPa)
#
#
# Indices 1 2 3 4 5 6 
#
# 1 127.2040 58.6064 36.2474 0.0000 9.2431 0.0000
# 2 58.6064 85.5805 22.4781 0.0000 4.3511 0.0000
# 3 36.2474 22.4781 42.9566 0.0000 -0.6752 0.0000
# 4 0.0000 0.0000 0.0000 19.2262 0.0000 0.7853
# 5 9.2431 4.3511 -0.6752 0.0000 20.6413 0.0000
# 6 0.0000 0.0000 0.0000 0.7853 0.0000 33.6317
#
#
#
# Elastic Compliance Matrix: (Units=1/GPa)
#
#
# Indices 1 2 3 4 5 6 
#
# 1 0.013751 -0.007070 -0.007981 0.000000 -0.004928 0.000000
# 2 -0.007070 0.017382 -0.003139 0.000000 -0.000601 0.000000
# 3 -0.007981 -0.003139 0.031740 0.000000 0.005274 0.000000
# 4 0.000000 0.000000 0.000000 0.052062 0.000000 -0.001216
# 5 -0.004928 -0.000601 0.005274 0.000000 0.050953 0.000000
# 6 0.000000 0.000000 0.000000 -0.001216 0.000000 0.029762
#
#
# Mechanical properties :
#
#
# Convention : Reuss Voigt Hill
#
# Bulk Modulus (GPa) = 37.74784 54.48944 46.11864
# Shear Modulus (GPa) = 20.75892 23.92713 22.34302
#
# Velocity S-wave (km/s) = 3.52999 3.78980 3.66220
# Velocity P-wave (km/s) = 6.26683 7.20126 6.75024
#
# Compressibility (1/GPa) = 0.02649158
#
# Stress axis : x y z
#
# Youngs Moduli (GPa) = 72.72081 57.53225 31.50644
#
# Poissons Ratio (x) = 0.40676 0.25146
# Poissons Ratio (y) = 0.51414 0.09890
# Poissons Ratio (z) = 0.58041 0.18059
#
# Static dielectric constant tensor:
#      x y z
#    x 2.915430 0.000000 -0.069980 
#    y 0.000000 3.096590 0.000000 
#    z -0.069980 0.000000 2.921090 
# 
# 
# High freq. dielectric constant tensor:
#      x y z
#    x 1.632210 0.000000 -0.004470 
#    y 0.000000 1.646450 0.000000 
#    z -0.004470 0.000000 1.614160 
# 
# From -- ./inp_files/44397.got.cif
#   From: 2010.06.25/outbox.cif.g09.slc.cpg/sg11_23_cif.got.tgz:44397.got - 2010.06.27 23:14:04.
