data_PCOD8069770
_publ_section_title
;
Structure prediction by ZEFSAII (Michael W. Deem and Ramdas Pophale) SiO2 
 PCOD8069770
Probable space group: P 21/M
;
_chemical_formula_sum "Si O2"
_cell_formula_units_Z 24
_cell_length_a 16.322995
_cell_length_b 13.789318
_cell_length_c 10.279246
_cell_angle_alpha 90.000000
_cell_angle_beta 35.564590
_cell_angle_gamma 90.000000
_cell_volume 1345.685226
_symmetry_space_group_name_H-M "P 21/M"
_symmetry_group_IT_number 11
_symmetry_cell_setting 'monoclinic'
loop_
_space_group_symop_operation_xyz
x,y,z
-x,1/2+y,-z
-x,-y,-z
x,1/2-y,z
loop_
_atom_site_type_symbol
_atom_site_label
_atom_site_fract_x
_atom_site_fract_y
_atom_site_fract_z
Si Si1 0.172468 0.461083 0.143361
Si Si2 0.141825 0.957469 0.463593
Si Si3 0.558529 0.447383 0.300786
Si Si4 0.395403 0.750000 0.352226
Si Si5 0.511879 0.750000 0.492083
Si Si6 0.116564 0.750000 0.574866
Si Si7 0.423188 0.961661 0.226618
Si Si8 0.802583 0.750000 0.985352
O O1 0.189300 0.489403 0.271668
O O2 0.213426 0.347178 0.080860
O O3 0.016650 0.487992 0.291555
O O4 0.277535 0.525755 0.923066
O O5 0.139693 0.840859 0.448414
O O6 0.255335 0.981756 0.428834
O O7 0.500000 0.500000 0.500000
O O8 0.539164 0.335167 0.349779
O O9 0.472757 0.477343 0.284737
O O10 0.433484 0.750000 0.454754
O O11 0.225849 0.750000 0.554117
O O12 0.457333 0.847101 0.204106
O O13 0.681437 0.750000 0.252105
O O14 0.960380 0.750000 0.842202
O O15 0.500000 0.000000 0.000000
#
# Coordination Sequence:
#
# PCOD8069770 Si02
#       8
#     4   4   4   2   2   2   4   2
#     4  10  19  36  58  85 119 153 195 239 295 350
#     4   9  19  35  59  88 116 151 191 246 298 344
#     4  12  23  39  59  88 118 155 197 238 290 354
#     4  10  20  37  58  82 118 159 198 233 301 354
#     4  12  24  38  60  84 122 161 197 232 294 360
#     4   8  18  33  56  83 115 148 199 237 292 349
#     4  11  21  38  61  89 119 152 199 251 292 344
#     4  10  18  34  56  81 111 164 194 232 285 361
#
# _framework density 17.834779000000001
#
# number of rings (size 3 to 8) (size 9 to 14) (size 15 to 20)
#    0.000    1.667    5.000    0.000    0.000    1.333 
#    0.000    4.167    0.000    0.000    0.000    0.000 
#    0.000    0.000    0.000    0.000    0.000    0.000 
#
# Total GULP energy -297449.856387 kJ/mol
# GULP energy per Si atom -12393.744016 kJ/mol
# Density = 1.779419 g / cm^3
# Si number density = 17.834779 Si / 1000 Ang^3
#
#
#
# Elastic Constant Matrix: (Units=GPa)
#
#
# Indices 1 2 3 4 5 6 
#
# 1 120.5708 59.0756 59.6440 0.0000 -2.7385 0.0000
# 2 59.0756 145.5034 72.4528 0.0000 2.9642 0.0000
# 3 59.6440 72.4528 129.0621 0.0000 -5.3612 0.0000
# 4 0.0000 0.0000 0.0000 34.7778 0.0000 5.4988
# 5 -2.7385 2.9642 -5.3612 0.0000 27.9284 0.0000
# 6 0.0000 0.0000 0.0000 5.4988 0.0000 24.7517
#
#
#
# Elastic Compliance Matrix: (Units=1/GPa)
#
#
# Indices 1 2 3 4 5 6 
#
# 1 0.011541 -0.002859 -0.003698 0.000000 0.000725 0.000000
# 2 -0.002859 0.010366 -0.004592 0.000000 -0.002262 0.000000
# 3 -0.003698 -0.004592 0.012137 0.000000 0.002455 0.000000
# 4 0.000000 0.000000 0.000000 0.029801 0.000000 -0.006620
# 5 0.000725 -0.002262 0.002455 0.000000 0.036588 0.000000
# 6 0.000000 0.000000 0.000000 -0.006620 0.000000 0.041872
#
#
# Mechanical properties :
#
#
# Convention : Reuss Voigt Hill
#
# Bulk Modulus (GPa) = 85.13957 86.38679 85.76318
# Shear Modulus (GPa) = 29.67034 31.08917 30.37975
#
# Velocity S-wave (km/s) = 4.08318 4.17967 4.13170
# Velocity P-wave (km/s) = 8.37086 8.47557 8.42338
#
# Compressibility (1/GPa) = 0.01174542
#
# Stress axis : x y z
#
# Youngs Moduli (GPa) = 86.65118 96.46836 82.39129
#
# Poissons Ratio (x) = 0.27578 0.30471
# Poissons Ratio (y) = 0.24772 0.37835
# Poissons Ratio (z) = 0.32046 0.44300
#
# Static dielectric constant tensor:
#      x y z
#    x 3.418100 0.000000 -0.424310 
#    y 0.000000 5.471600 0.000000 
#    z -0.424310 0.000000 3.000080 
# 
# 
# High freq. dielectric constant tensor:
#      x y z
#    x 1.690380 0.000000 -0.026660 
#    y 0.000000 1.699980 0.000000 
#    z -0.026660 0.000000 1.682540 
# 
# From -- ./inp_files/22079.got.cif
#   From: 2010.06.25/outbox.cif.g09.slc.cpg/sg11_12_cif.got.tgz:22079.got - 2010.06.27 23:14:04.
