data_PCOD8069954
_publ_section_title
;
Structure prediction by ZEFSAII (Michael W. Deem and Ramdas Pophale) SiO2 
 PCOD8069954
Probable space group: P 21/M
;
_chemical_formula_sum "Si O2"
_cell_formula_units_Z 32
_cell_length_a 35.185489
_cell_length_b 9.190144
_cell_length_c 22.522386
_cell_angle_alpha 90.000000
_cell_angle_beta 16.632185
_cell_angle_gamma 90.000000
_cell_volume 2084.540631
_symmetry_space_group_name_H-M "P 21/M"
_symmetry_group_IT_number 11
_symmetry_cell_setting 'monoclinic'
loop_
_space_group_symop_operation_xyz
x,y,z
-x,1/2+y,-z
-x,-y,-z
x,1/2-y,z
loop_
_atom_site_type_symbol
_atom_site_label
_atom_site_fract_x
_atom_site_fract_y
_atom_site_fract_z
Si Si1 0.202786 0.085603 0.197871
Si Si2 0.021822 0.583750 0.060856
Si Si3 0.375961 0.915587 0.329357
Si Si4 0.638609 0.080108 0.946209
Si Si5 0.881965 0.080235 0.497841
Si Si6 0.953553 0.085807 0.657821
Si Si7 0.176421 0.915455 0.722375
Si Si8 0.121966 0.919671 0.631019
O O1 0.247593 0.250000 0.116025
O O2 0.074503 0.086024 0.431214
O O3 0.322115 0.003130 0.052318
O O4 0.169466 0.001748 0.186682
O O5 0.998969 0.750000 0.112673
O O6 0.911778 0.535244 0.178237
O O7 0.005712 0.492502 0.145542
O O8 0.163329 0.561857 0.813812
O O9 0.421558 0.750000 0.248680
O O10 0.325770 0.932746 0.473091
O O11 0.257654 0.960883 0.461750
O O12 0.497152 0.022983 0.135433
O O13 0.630864 0.250000 0.972226
O O14 0.743057 0.046608 0.737868
O O15 0.916816 0.250000 0.450041
O O16 0.868461 0.024880 0.450694
O O17 0.002249 0.992616 0.347832
O O18 0.907792 0.250000 0.740540
O O19 0.127519 0.750000 0.779742
O O20 0.095989 0.750000 0.671860
#
# Coordination Sequence:
#
# PCOD8069954 Si02
#       8
#     4   4   4   4   4   4   4   4
#     4   9  16  27  43  60  79 105 133 163 207 256
#     4   9  15  24  41  62  79  98 130 171 210 246
#     4   9  17  29  42  56  79 112 144 171 204 246
#     4  10  19  29  41  59  82 108 142 180 208 234
#     4   9  18  31  43  56  80 114 145 171 204 245
#     4   9  16  26  42  63  82 100 129 171 211 244
#     4   8  15  27  41  57  79 105 130 162 209 257
#     4   9  18  31  43  56  80 114 145 172 205 245
#
# _framework density 15.351103999999999
#
# number of rings (size 3 to 8) (size 9 to 14) (size 15 to 20)
#    0.000    3.000    0.000    2.250    0.000    7.000 
#    0.000    0.000    0.000    0.000    0.000    0.000 
#    0.000    1.000    0.000    3.000    0.000    4.875 
#
# Total GULP energy -396565.263492 kJ/mol
# GULP energy per Si atom -12392.664484 kJ/mol
# Density = 1.531616 g / cm^3
# Si number density = 15.351104 Si / 1000 Ang^3
#
#
#
# Elastic Constant Matrix: (Units=GPa)
#
#
# Indices 1 2 3 4 5 6 
#
# 1 108.4743 52.7193 48.7464 0.0000 4.0801 0.0000
# 2 52.7193 76.4338 25.0007 0.0000 2.1208 0.0000
# 3 48.7464 25.0007 28.2514 0.0000 7.9115 0.0000
# 4 0.0000 0.0000 0.0000 21.7487 0.0000 -1.3811
# 5 4.0801 2.1208 7.9115 0.0000 14.2452 0.0000
# 6 0.0000 0.0000 0.0000 -1.3811 0.0000 24.1588
#
#
#
# Elastic Compliance Matrix: (Units=1/GPa)
#
#
# Indices 1 2 3 4 5 6 
#
# 1 0.061999 -0.006752 -0.114047 0.000000 0.046587 0.000000
# 2 -0.006752 0.019845 -0.006662 0.000000 0.002679 0.000000
# 3 -0.114047 -0.006662 0.270759 0.000000 -0.116718 0.000000
# 4 0.000000 0.000000 0.000000 0.046147 0.000000 0.002638
# 5 0.046587 0.002679 -0.116718 0.000000 0.121280 0.000000
# 6 0.000000 0.000000 0.000000 0.002638 0.000000 0.041544
#
#
# Mechanical properties :
#
#
# Convention : Reuss Voigt Hill
#
# Bulk Modulus (GPa) = 10.23728 51.78807 31.01268
# Shear Modulus (GPa) = 5.88890 17.81010 11.84950
#
# Velocity S-wave (km/s) = 1.96073 3.40984 2.78132
# Velocity P-wave (km/s) = 3.43645 7.02223 5.52815
#
# Compressibility (1/GPa) = 0.09768216
#
# Stress axis : x y z
#
# Youngs Moduli (GPa) = 16.12942 50.39079 3.69332
#
# Poissons Ratio (x) = 0.34023 0.42121
# Poissons Ratio (y) = 0.10890 0.02460
# Poissons Ratio (z) = 1.83951 0.33569
#
# Static dielectric constant tensor:
#      x y z
#    x 3.005810 0.000000 0.171110 
#    y 0.000000 3.048640 0.000000 
#    z 0.171110 0.000000 2.745250 
# 
# 
# High freq. dielectric constant tensor:
#      x y z
#    x 1.570110 0.000000 0.010180 
#    y 0.000000 1.601190 0.000000 
#    z 0.010180 0.000000 1.546500 
# 
# From -- ./inp_files/51273.got.cif
#   From: 2010.06.25/outbox.cif.g09.slc.cpg/sg11_26_cif.got.tgz:51273.got - 2010.06.27 23:14:04.
