data_PCOD8069739
_publ_section_title
;
Structure prediction by ZEFSAII (Michael W. Deem and Ramdas Pophale) SiO2 
 PCOD8069739
Probable space group: P 21/M
;
_chemical_formula_sum "Si O2"
_cell_formula_units_Z 28
_cell_length_a 6.336183
_cell_length_b 20.730155
_cell_length_c 12.515434
_cell_angle_alpha 90.000000
_cell_angle_beta 95.735885
_cell_angle_gamma 90.000000
_cell_volume 1635.672210
_symmetry_space_group_name_H-M "P 21/M"
_symmetry_group_IT_number 11
_symmetry_cell_setting 'monoclinic'
loop_
_space_group_symop_operation_xyz
x,y,z
-x,1/2+y,-z
-x,-y,-z
x,1/2-y,z
loop_
_atom_site_type_symbol
_atom_site_label
_atom_site_fract_x
_atom_site_fract_y
_atom_site_fract_z
Si Si1 0.083942 0.822394 0.252521
Si Si2 0.335416 0.997371 0.742743
Si Si3 0.451084 0.893592 0.383302
Si Si4 0.127777 0.563159 0.540813
Si Si5 0.947033 0.929209 0.101453
Si Si6 0.328051 0.482637 0.077752
Si Si7 0.152173 0.177591 0.538623
O O1 0.134928 0.750000 0.218464
O O2 0.303109 0.857903 0.290419
O O3 0.965326 0.857464 0.148595
O O4 0.927949 0.824263 0.344428
O O5 0.219936 0.943907 0.664786
O O6 0.543488 0.964209 0.807841
O O7 0.401385 0.055826 0.669691
O O8 0.170629 0.023088 0.822077
O O9 0.316512 0.929918 0.466010
O O10 0.600335 0.841272 0.449408
O O11 0.000000 0.500000 0.500000
O O12 0.981651 0.626859 0.538093
O O13 0.819954 0.926417 0.981493
O O14 0.183129 0.955464 0.094565
O O15 0.500000 0.500000 0.000000
O O16 0.126259 0.250000 0.489897
#
# Coordination Sequence:
#
# PCOD8069739 Si02
#       7
#     4   4   4   4   4   4   4
#     4  10  19  31  50  76 105 137 171 210 258 316
#     4  11  19  31  52  78 103 135 170 218 258 304
#     4  11  19  32  50  76 110 137 174 206 263 317
#     4  11  22  32  51  81 108 137 177 222 257 306
#     4  10  18  34  51  75 105 132 169 211 265 313
#     4   9  20  32  51  73 102 131 162 208 263 311
#     4  10  21  35  49  73 111 146 174 211 263 323
#
# _framework density 17.118345000000001
#
# number of rings (size 3 to 8) (size 9 to 14) (size 15 to 20)
#    0.000    1.714    4.286    1.714    0.000    0.571 
#    0.000    0.000    0.000    0.857    0.000   12.000 
#    0.000    0.000    0.000    0.000    0.000    0.000 
#
# Total GULP energy -347120.699204 kJ/mol
# GULP energy per Si atom -12397.167829 kJ/mol
# Density = 1.707938 g / cm^3
# Si number density = 17.118345 Si / 1000 Ang^3
#
#
#
# Elastic Constant Matrix: (Units=GPa)
#
#
# Indices 1 2 3 4 5 6 
#
# 1 95.5371 40.9991 32.7467 0.0000 9.9560 0.0000
# 2 40.9991 113.3999 46.4525 0.0000 17.4022 0.0000
# 3 32.7467 46.4525 77.5885 0.0000 27.9013 0.0000
# 4 0.0000 0.0000 0.0000 26.3776 0.0000 3.0954
# 5 9.9560 17.4022 27.9013 0.0000 39.8004 0.0000
# 6 0.0000 0.0000 0.0000 3.0954 0.0000 20.0602
#
#
#
# Elastic Compliance Matrix: (Units=1/GPa)
#
#
# Indices 1 2 3 4 5 6 
#
# 1 0.013117 -0.003286 -0.003885 0.000000 0.000879 0.000000
# 2 -0.003286 0.012509 -0.005925 0.000000 -0.000494 0.000000
# 3 -0.003885 -0.005925 0.022455 0.000000 -0.012179 0.000000
# 4 0.000000 0.000000 0.000000 0.038610 0.000000 -0.005958
# 5 0.000879 -0.000494 -0.012179 0.000000 0.033660 0.000000
# 6 0.000000 0.000000 0.000000 -0.005958 0.000000 0.050769
#
#
# Mechanical properties :
#
#
# Convention : Reuss Voigt Hill
#
# Bulk Modulus (GPa) = 45.68254 58.54690 52.11472
# Shear Modulus (GPa) = 24.43688 28.33614 26.38651
#
# Velocity S-wave (km/s) = 3.78236 4.07296 3.93035
# Velocity P-wave (km/s) = 6.76899 7.50961 7.14890
#
# Compressibility (1/GPa) = 0.02189020
#
# Stress axis : x y z
#
# Youngs Moduli (GPa) = 76.23507 79.94144 44.53315
#
# Poissons Ratio (x) = 0.26268 0.17301
# Poissons Ratio (y) = 0.25050 0.26385
# Poissons Ratio (z) = 0.29618 0.47363
#
# Static dielectric constant tensor:
#      x y z
#    x 3.524010 0.000000 0.247090 
#    y 0.000000 3.189510 0.000000 
#    z 0.247090 0.000000 3.342100 
# 
# 
# High freq. dielectric constant tensor:
#      x y z
#    x 1.684860 0.000000 0.007360 
#    y 0.000000 1.632850 0.000000 
#    z 0.007360 0.000000 1.644040 
# 
# From -- ./inp_files/4891.got.cif
#   From: 2010.06.25/outbox.cif.g09.slc.cpg/sg11_3_cif.got.tgz:4891.got - 2010.06.27 23:14:04.
