data_PCOD8069961
_publ_section_title
;
Structure prediction by ZEFSAII (Michael W. Deem and Ramdas Pophale) SiO2 
 PCOD8069961
Probable space group: P 21/M
;
_chemical_formula_sum "Si O2"
_cell_formula_units_Z 32
_cell_length_a 13.446770
_cell_length_b 9.297508
_cell_length_c 26.714349
_cell_angle_alpha 90.000000
_cell_angle_beta 139.370375
_cell_angle_gamma 90.000000
_cell_volume 2174.810020
_symmetry_space_group_name_H-M "P 21/M"
_symmetry_group_IT_number 11
_symmetry_cell_setting 'monoclinic'
loop_
_space_group_symop_operation_xyz
x,y,z
-x,1/2+y,-z
-x,-y,-z
x,1/2-y,z
loop_
_atom_site_type_symbol
_atom_site_label
_atom_site_fract_x
_atom_site_fract_y
_atom_site_fract_z
Si Si1 0.276037 0.409589 0.431165
Si Si2 0.754285 0.921320 0.740169
Si Si3 0.145349 0.083077 0.113870
Si Si4 0.967044 0.920067 0.734892
Si Si5 0.622732 0.582838 0.979232
Si Si6 0.491426 0.590538 0.571887
Si Si7 0.293209 0.584295 0.891801
Si Si8 0.204831 0.917005 0.038533
O O1 0.245445 0.250000 0.440111
O O2 0.339465 0.499034 0.502536
O O3 0.399201 0.406211 0.434118
O O4 0.119784 0.478890 0.348190
O O5 0.761048 0.750000 0.742215
O O6 0.781339 0.976392 0.806753
O O7 0.588750 0.973058 0.656006
O O8 0.888367 0.982248 0.755323
O O9 0.184920 0.250000 0.118775
O O10 0.216983 0.986181 0.097921
O O11 0.963663 0.061880 0.048287
O O12 0.941248 0.750000 0.724432
O O13 0.145670 0.960856 0.802662
O O14 0.667983 0.750000 0.992658
O O15 0.440477 0.561901 0.913401
O O16 0.675071 0.498972 0.950244
O O17 0.703433 0.516389 0.058566
O O18 0.434149 0.750000 0.563007
O O19 0.280489 0.750000 0.905225
O O20 0.249674 0.750000 0.058939
#
# Coordination Sequence:
#
# PCOD8069961 Si02
#       8
#     4   4   4   4   4   4   4   4
#     4   8  13  21  34  51  72 100 130 156 182 217
#     4   8  13  22  38  57  76 102 132 160 190 225
#     4   9  17  29  44  60  77 100 134 169 196 228
#     4   8  13  23  39  57  77 103 134 161 187 224
#     4  10  19  29  42  60  81 104 131 164 199 234
#     4   8  13  21  33  50  73 100 128 154 183 222
#     4   9  17  29  44  60  78 103 135 167 196 228
#     4  10  19  30  44  59  78 105 132 161 199 237
#
# _framework density 14.713927999999999
#
# number of rings (size 3 to 8) (size 9 to 14) (size 15 to 20)
#    0.000    3.250    0.000    3.000    0.000    3.000 
#    0.000    1.250    0.000    4.500    0.000    0.000 
#    0.000    1.000    0.000    2.000    0.000    2.750 
#
# Total GULP energy -396580.287164 kJ/mol
# GULP energy per Si atom -12393.133974 kJ/mol
# Density = 1.468044 g / cm^3
# Si number density = 14.713928 Si / 1000 Ang^3
#
#
#
# Elastic Constant Matrix: (Units=GPa)
#
#
# Indices 1 2 3 4 5 6 
#
# 1 63.3361 36.4560 46.1740 0.0000 -1.4792 0.0000
# 2 36.4560 64.0137 44.3268 0.0000 -0.8921 0.0000
# 3 46.1740 44.3268 140.5461 0.0000 2.5328 0.0000
# 4 0.0000 0.0000 0.0000 21.8264 0.0000 -1.4066
# 5 -1.4792 -0.8921 2.5328 0.0000 18.5450 0.0000
# 6 0.0000 0.0000 0.0000 -1.4066 0.0000 18.0245
#
#
#
# Elastic Compliance Matrix: (Units=1/GPa)
#
#
# Indices 1 2 3 4 5 6 
#
# 1 0.026006 -0.011305 -0.005018 0.000000 0.002216 0.000000
# 2 -0.011305 0.024963 -0.004175 0.000000 0.000869 0.000000
# 3 -0.005018 -0.004175 0.010116 0.000000 -0.001983 0.000000
# 4 0.000000 0.000000 0.000000 0.046048 0.000000 0.003594
# 5 0.002216 0.000869 -0.001983 0.000000 0.054412 0.000000
# 6 0.000000 0.000000 0.000000 0.003594 0.000000 0.055761
#
#
# Mechanical properties :
#
#
# Convention : Reuss Voigt Hill
#
# Bulk Modulus (GPa) = 49.77748 57.97885 53.87816
# Shear Modulus (GPa) = 18.86813 21.07511 19.97162
#
# Velocity S-wave (km/s) = 3.58485 3.78871 3.68819
# Velocity P-wave (km/s) = 7.14412 7.65694 7.40497
#
# Compressibility (1/GPa) = 0.02008941
#
# Stress axis : x y z
#
# Youngs Moduli (GPa) = 38.45270 40.05997 98.85149
#
# Poissons Ratio (x) = 0.45286 0.49608
# Poissons Ratio (y) = 0.43469 0.41267
# Poissons Ratio (z) = 0.19297 0.16724
#
# Static dielectric constant tensor:
#      x y z
#    x 2.549810 0.000000 0.038560 
#    y 0.000000 2.808740 0.000000 
#    z 0.038560 0.000000 3.142390 
# 
# 
# High freq. dielectric constant tensor:
#      x y z
#    x 1.517440 0.000000 0.003880 
#    y 0.000000 1.547940 0.000000 
#    z 0.003880 0.000000 1.567440 
# 
# From -- ./inp_files/68324.got.cif
#   From: 2010.06.25/outbox.cif.g09.slc.cpg/sg11_35_cif.got.tgz:68324.got - 2010.06.27 23:14:04.
