data_PCOD8069440
_publ_section_title
;
Structure prediction by ZEFSAII (Michael W. Deem and Ramdas Pophale) SiO2 
 PCOD8069440
Probable space group: P 21/M
;
_chemical_formula_sum "Si O2"
_cell_formula_units_Z 32
_cell_length_a 15.601373
_cell_length_b 8.797672
_cell_length_c 20.920892
_cell_angle_alpha 90.000000
_cell_angle_beta 137.221403
_cell_angle_gamma 90.000000
_cell_volume 1950.237345
_symmetry_space_group_name_H-M "P 21/M"
_symmetry_group_IT_number 11
_symmetry_cell_setting 'monoclinic'
loop_
_space_group_symop_operation_xyz
x,y,z
-x,1/2+y,-z
-x,-y,-z
x,1/2-y,z
loop_
_atom_site_type_symbol
_atom_site_label
_atom_site_fract_x
_atom_site_fract_y
_atom_site_fract_z
Si Si1 0.698207 0.072105 0.598950
Si Si2 0.950713 0.929825 0.779473
Si Si3 0.905281 0.929031 0.898251
Si Si4 0.396322 0.572203 0.898374
Si Si5 0.497388 0.071854 0.596328
Si Si6 0.625920 0.930747 0.782782
Si Si7 0.408596 0.072669 0.093994
Si Si8 0.209524 0.069780 0.880795
O O1 0.725317 0.250000 0.608167
O O2 0.616594 0.031890 0.616912
O O3 0.828716 0.982202 0.673707
O O4 0.625590 0.015400 0.496328
O O5 0.962854 0.750000 0.782236
O O6 0.940641 0.986885 0.847012
O O7 0.070510 0.006111 0.812600
O O8 0.916170 0.750000 0.909480
O O9 0.764709 0.983241 0.837677
O O10 0.000000 0.000000 0.000000
O O11 0.383529 0.750000 0.905170
O O12 0.449475 0.542283 0.855602
O O13 0.263602 0.490914 0.842027
O O14 0.500000 0.500000 0.000000
O O15 0.468998 0.250000 0.581352
O O16 0.524452 0.011544 0.681977
O O17 0.608455 0.750000 0.768395
O O18 0.602106 0.996289 0.841009
O O19 0.381265 0.250000 0.083910
O O20 0.299518 0.006677 0.987357
O O21 0.206193 0.250000 0.877055
#
# Coordination Sequence:
#
# PCOD8069440 Si02
#       8
#     4   4   4   4   4   4   4   4
#     4  10  20  34  52  70  92 125 161 201 247 292
#     4  11  21  33  48  71  98 128 164 204 244 286
#     4  10  21  32  45  65  96 134 168 197 233 279
#     4   9  16  29  47  70  97 127 164 205 248 288
#     4  10  20  33  50  72  95 121 158 205 248 285
#     4  10  18  32  49  68  95 130 165 197 237 288
#     4   8  16  29  48  70  96 130 165 200 239 284
#     4  10  19  32  49  70  97 132 169 205 246 290
#
# _framework density 16.408258
#
# number of rings (size 3 to 8) (size 9 to 14) (size 15 to 20)
#    0.000    2.250    1.250    3.375    0.000    3.500 
#    0.000    3.750    0.000    0.000    0.000    0.875 
#    0.000    0.000    0.000    0.000    0.000    0.000 
#
# Total GULP energy -396751.471353 kJ/mol
# GULP energy per Si atom -12398.483480 kJ/mol
# Density = 1.637091 g / cm^3
# Si number density = 16.408258 Si / 1000 Ang^3
#
#
#
# Elastic Constant Matrix: (Units=GPa)
#
#
# Indices 1 2 3 4 5 6 
#
# 1 106.9965 33.4009 40.2147 0.0000 17.3581 0.0000
# 2 33.4009 55.1343 24.0008 0.0000 5.7855 0.0000
# 3 40.2147 24.0008 84.6394 0.0000 6.1911 0.0000
# 4 0.0000 0.0000 0.0000 29.0717 0.0000 2.5254
# 5 17.3581 5.7855 6.1911 0.0000 15.8803 0.0000
# 6 0.0000 0.0000 0.0000 2.5254 0.0000 21.5353
#
#
#
# Elastic Compliance Matrix: (Units=1/GPa)
#
#
# Indices 1 2 3 4 5 6 
#
# 1 0.014840 -0.005723 -0.004523 0.000000 -0.012372 0.000000
# 2 -0.005723 0.023359 -0.003850 0.000000 -0.000754 0.000000
# 3 -0.004523 -0.003850 0.015020 0.000000 0.000491 0.000000
# 4 0.000000 0.000000 0.000000 0.034752 0.000000 -0.004075
# 5 -0.012372 -0.000754 0.000491 0.000000 0.076578 0.000000
# 6 0.000000 0.000000 0.000000 -0.004075 0.000000 0.046913
#
#
# Mechanical properties :
#
#
# Convention : Reuss Voigt Hill
#
# Bulk Modulus (GPa) = 39.95569 49.11144 44.53357
# Shear Modulus (GPa) = 20.16162 23.24103 21.70133
#
# Velocity S-wave (km/s) = 3.50915 3.76762 3.64068
# Velocity P-wave (km/s) = 6.38927 6.99447 6.69870
#
# Compressibility (1/GPa) = 0.02502772
#
# Stress axis : x y z
#
# Youngs Moduli (GPa) = 67.38658 42.80929 66.57976
#
# Poissons Ratio (x) = 0.24499 0.30114
# Poissons Ratio (y) = 0.38564 0.25631
# Poissons Ratio (z) = 0.30479 0.16480
#
# Static dielectric constant tensor:
#      x y z
#    x 3.420110 0.000000 -0.039430 
#    y 0.000000 3.118150 0.000000 
#    z -0.039430 0.000000 2.956350 
# 
# 
# High freq. dielectric constant tensor:
#      x y z
#    x 1.625120 0.000000 0.004230 
#    y 0.000000 1.633050 0.000000 
#    z 0.004230 0.000000 1.610370 
# 
# From -- ./inp_files/45328.got.cif
#   From: 2010.06.25/outbox.cif.g09.slc.cpg/sg11_23_cif.got.tgz:45328.got - 2010.06.27 23:14:04.
