data_PCOD8069974
_publ_section_title
;
Structure prediction by ZEFSAII (Michael W. Deem and Ramdas Pophale) SiO2 
 PCOD8069974
Probable space group: P 21/M
;
_chemical_formula_sum "Si O2"
_cell_formula_units_Z 32
_cell_length_a 17.157722
_cell_length_b 8.862560
_cell_length_c 24.963925
_cell_angle_alpha 90.000000
_cell_angle_beta 26.846503
_cell_angle_gamma 90.000000
_cell_volume 1714.302226
_symmetry_space_group_name_H-M "P 21/M"
_symmetry_group_IT_number 11
_symmetry_cell_setting 'monoclinic'
loop_
_space_group_symop_operation_xyz
x,y,z
-x,1/2+y,-z
-x,-y,-z
x,1/2-y,z
loop_
_atom_site_type_symbol
_atom_site_label
_atom_site_fract_x
_atom_site_fract_y
_atom_site_fract_z
Si Si1 0.769405 0.071337 0.490819
Si Si2 0.534809 0.574127 0.185479
Si Si3 0.168364 0.929258 0.052085
Si Si4 0.332743 0.416562 0.618984
Si Si5 0.151723 0.576514 0.438849
Si Si6 0.417958 0.571306 0.729711
Si Si7 0.880443 0.424892 0.164832
Si Si8 0.041124 0.415023 0.717233
O O1 0.745921 0.250000 0.503305
O O2 0.833408 0.014235 0.509754
O O3 0.578989 0.999670 0.597325
O O4 0.920270 0.023595 0.356732
O O5 0.577850 0.750000 0.164989
O O6 0.332701 0.548408 0.297196
O O7 0.588246 0.492041 0.207030
O O8 0.642250 0.501375 0.070622
O O9 0.175172 0.750000 0.047090
O O10 0.092426 0.983622 0.156437
O O11 0.054492 0.980319 0.070071
O O12 0.500000 0.500000 0.500000
O O13 0.363278 0.250000 0.626991
O O14 0.245712 0.539092 0.709641
O O15 0.223169 0.390519 0.633362
O O16 0.104383 0.750000 0.470445
O O17 0.000000 0.500000 0.500000
O O18 0.444520 0.750000 0.713409
O O19 0.229599 0.528808 0.820402
O O20 0.931535 0.250000 0.132636
O O21 0.974490 0.250000 0.738044
#
# Coordination Sequence:
#
# PCOD8069974 Si02
#       8
#     4   4   4   4   4   4   4   4
#     4  10  20  33  52  80 109 135 169 213 261 309
#     4  10  21  37  56  79 106 134 170 213 258 310
#     4  10  21  36  53  74 102 140 184 220 256 305
#     4  10  19  29  42  63  93 130 175 223 266 309
#     4   9  20  37  58  86 111 131 159 199 251 310
#     4  10  20  33  50  73 102 138 179 221 267 312
#     4  10  20  32  46  67  97 135 180 225 264 303
#     4   9  19  33  48  70 100 135 175 214 253 304
#
# _framework density 18.666487
#
# number of rings (size 3 to 8) (size 9 to 14) (size 15 to 20)
#    0.000    2.250    0.000    4.500    0.000   11.500 
#    0.000    0.000    0.000    0.750    0.000    0.000 
#    0.000    0.000    0.000    0.000    0.000    0.000 
#
# Total GULP energy -396519.104480 kJ/mol
# GULP energy per Si atom -12391.222015 kJ/mol
# Density = 1.862400 g / cm^3
# Si number density = 18.666487 Si / 1000 Ang^3
#
#
#
# Elastic Constant Matrix: (Units=GPa)
#
#
# Indices 1 2 3 4 5 6 
#
# 1 49.4440 30.7443 38.0212 0.0000 -5.3736 0.0000
# 2 30.7443 75.2303 38.3401 0.0000 -0.8632 0.0000
# 3 38.0212 38.3401 117.9051 0.0000 4.1261 0.0000
# 4 0.0000 0.0000 0.0000 33.1943 0.0000 0.7085
# 5 -5.3736 -0.8632 4.1261 0.0000 20.1422 0.0000
# 6 0.0000 0.0000 0.0000 0.7085 0.0000 28.1184
#
#
#
# Elastic Compliance Matrix: (Units=1/GPa)
#
#
# Indices 1 2 3 4 5 6 
#
# 1 0.033380 -0.009419 -0.008057 0.000000 0.010152 0.000000
# 2 -0.009419 0.018653 -0.002990 0.000000 -0.001101 0.000000
# 3 -0.008057 -0.002990 0.012219 0.000000 -0.004781 0.000000
# 4 0.000000 0.000000 0.000000 0.030142 0.000000 -0.000759
# 5 0.010152 -0.001101 -0.004781 0.000000 0.053287 0.000000
# 6 0.000000 0.000000 0.000000 -0.000759 0.000000 0.035583
#
#
# Mechanical properties :
#
#
# Convention : Reuss Voigt Hill
#
# Bulk Modulus (GPa) = 42.87898 50.75451 46.81674
# Shear Modulus (GPa) = 21.55464 25.32258 23.43861
#
# Velocity S-wave (km/s) = 3.40181 3.68717 3.54736
# Velocity P-wave (km/s) = 6.20086 6.73619 6.47406
#
# Compressibility (1/GPa) = 0.02332145
#
# Stress axis : x y z
#
# Youngs Moduli (GPa) = 29.95776 53.61143 81.84065
#
# Poissons Ratio (x) = 0.50497 0.65936
# Poissons Ratio (y) = 0.28217 0.24466
# Poissons Ratio (z) = 0.24136 0.16027
#
# Static dielectric constant tensor:
#      x y z
#    x 3.266920 0.000000 0.092700 
#    y 0.000000 -0.960120 0.000000 
#    z 0.092700 0.000000 3.384370 
# 
# 
# High freq. dielectric constant tensor:
#      x y z
#    x 1.687050 0.000000 0.005050 
#    y 0.000000 1.734450 0.000000 
#    z 0.005050 0.000000 1.726970 
# 
# From -- ./inp_files/69447.got.cif
#   From: 2010.06.25/outbox.cif.g09.slc.cpg/sg11_35_cif.got.tgz:69447.got - 2010.06.27 23:14:04.
