data_PCOD8069199
_publ_section_title
;
Structure prediction by ZEFSAII (Michael W. Deem and Ramdas Pophale) SiO2 
 PCOD8069199
Probable space group: P 21/M
;
_chemical_formula_sum "Si O2"
_cell_formula_units_Z 28
_cell_length_a 11.140179
_cell_length_b 16.078288
_cell_length_c 8.666952
_cell_angle_alpha 90.000000
_cell_angle_beta 63.054463
_cell_angle_gamma 90.000000
_cell_volume 1383.851040
_symmetry_space_group_name_H-M "P 21/M"
_symmetry_group_IT_number 11
_symmetry_cell_setting 'monoclinic'
loop_
_space_group_symop_operation_xyz
x,y,z
-x,1/2+y,-z
-x,-y,-z
x,1/2-y,z
loop_
_atom_site_type_symbol
_atom_site_label
_atom_site_fract_x
_atom_site_fract_y
_atom_site_fract_z
Si Si1 0.835586 0.937650 0.862551
Si Si2 0.453317 0.343344 0.425839
Si Si3 0.967313 0.341013 0.440386
Si Si4 0.327889 0.656883 0.470813
Si Si5 0.687855 0.988006 0.659156
Si Si6 0.051900 0.064534 0.676038
Si Si7 0.225251 0.156487 0.803436
O O1 0.720703 0.977787 0.820845
O O2 0.901214 0.858958 0.738045
O O3 0.768331 0.908559 0.060079
O O4 0.958141 0.001143 0.824644
O O5 0.433216 0.250000 0.366265
O O6 0.606163 0.355339 0.397968
O O7 0.417670 0.414541 0.323202
O O8 0.363891 0.352930 0.631460
O O9 0.986574 0.250000 0.498849
O O10 0.833118 0.347567 0.415505
O O11 0.958319 0.401456 0.592617
O O12 0.368232 0.750000 0.382530
O O13 0.374553 0.580522 0.331867
O O14 0.819861 0.981295 0.474057
O O15 0.100360 0.136130 0.763339
O O16 0.204964 0.250000 0.876912
#
# Coordination Sequence:
#
# PCOD8069199 Si02
#       7
#     4   4   4   4   4   4   4
#     4  11  19  32  50  76 104 124 161 209 253 296
#     4   9  20  35  53  74  99 135 175 204 242 296
#     4  10  18  30  53  78  99 127 163 207 254 293
#     4  10  18  32  53  77 102 130 169 211 245 297
#     4  10  18  33  55  77 101 131 165 213 252 290
#     4  10  18  33  50  72 103 128 164 200 248 305
#     4  10  21  34  49  70  98 135 166 202 247 298
#
# _framework density 20.233391999999998
#
# number of rings (size 3 to 8) (size 9 to 14) (size 15 to 20)
#    0.000    2.000    2.857    2.571    0.000    4.000 
#    0.000    0.714    0.000    0.000    0.000    9.000 
#    0.000    0.000    0.000    0.000    0.000    0.000 
#
# Total GULP energy -347038.860021 kJ/mol
# GULP energy per Si atom -12394.245001 kJ/mol
# Density = 2.018734 g / cm^3
# Si number density = 20.233392 Si / 1000 Ang^3
#
#
#
# Elastic Constant Matrix: (Units=GPa)
#
#
# Indices 1 2 3 4 5 6 
#
# 1 100.1633 38.6223 3.2095 0.0000 18.2162 0.0000
# 2 38.6223 121.6826 4.3378 0.0000 5.6260 0.0000
# 3 3.2095 4.3378 33.2964 0.0000 11.9711 0.0000
# 4 0.0000 0.0000 0.0000 19.8062 0.0000 4.7294
# 5 18.2162 5.6260 11.9711 0.0000 13.6174 0.0000
# 6 0.0000 0.0000 0.0000 4.7294 0.0000 33.5718
#
#
#
# Elastic Compliance Matrix: (Units=1/GPa)
#
#
# Indices 1 2 3 4 5 6 
#
# 1 0.016482 -0.004248 0.009154 0.000000 -0.028341 0.000000
# 2 -0.004248 0.009474 -0.002135 0.000000 0.003645 0.000000
# 3 0.009154 -0.002135 0.049002 0.000000 -0.054441 0.000000
# 4 0.000000 0.000000 0.000000 0.052247 0.000000 -0.007360
# 5 -0.028341 0.003645 -0.054441 0.000000 0.157701 0.000000
# 6 0.000000 0.000000 0.000000 -0.007360 0.000000 0.030824
#
#
# Mechanical properties :
#
#
# Convention : Reuss Voigt Hill
#
# Bulk Modulus (GPa) = 12.42214 38.60906 25.51560
# Shear Modulus (GPa) = 14.83584 27.33060 21.08322
#
# Velocity S-wave (km/s) = 2.71077 3.67927 3.23151
# Velocity P-wave (km/s) = 3.99380 6.09693 5.15379
#
# Compressibility (1/GPa) = 0.08050144
#
# Stress axis : x y z
#
# Youngs Moduli (GPa) = 60.67048 105.55354 20.40716
#
# Poissons Ratio (x) = 0.44834 -0.18681
# Poissons Ratio (y) = 0.25770 0.04357
# Poissons Ratio (z) = -0.55539 0.22538
#
# Static dielectric constant tensor:
#      x y z
#    x 3.754350 0.000000 0.109380 
#    y 0.000000 4.045160 0.000000 
#    z 0.109380 0.000000 3.043460 
# 
# 
# High freq. dielectric constant tensor:
#      x y z
#    x 1.800970 0.000000 0.010700 
#    y 0.000000 1.812950 0.000000 
#    z 0.010700 0.000000 1.721290 
# 
# From -- ./inp_files/17936.got.cif
#   From: 2010.06.25/outbox.cif.g09.slc.cpg/sg11_9_cif.got.tgz:17936.got - 2010.06.27 23:14:04.
