data_PCOD8069561
_publ_section_title
;
Structure prediction by ZEFSAII (Michael W. Deem and Ramdas Pophale) SiO2 
 PCOD8069561
Probable space group: P 21/M
;
_chemical_formula_sum "Si O2"
_cell_formula_units_Z 28
_cell_length_a 9.217157
_cell_length_b 8.402374
_cell_length_c 26.226171
_cell_angle_alpha 90.000000
_cell_angle_beta 136.874392
_cell_angle_gamma 90.000000
_cell_volume 1388.468291
_symmetry_space_group_name_H-M "P 21/M"
_symmetry_group_IT_number 11
_symmetry_cell_setting 'monoclinic'
loop_
_space_group_symop_operation_xyz
x,y,z
-x,1/2+y,-z
-x,-y,-z
x,1/2-y,z
loop_
_atom_site_type_symbol
_atom_site_label
_atom_site_fract_x
_atom_site_fract_y
_atom_site_fract_z
Si Si1 0.109709 0.935188 0.141426
Si Si2 0.183447 0.561216 0.010460
Si Si3 0.801108 0.564973 0.728025
Si Si4 0.332768 0.563313 0.590331
Si Si5 0.932204 0.566291 0.292533
Si Si6 0.995429 0.063011 0.575483
Si Si7 0.524519 0.564552 0.835265
O O1 0.138076 0.750000 0.136740
O O2 0.111482 0.966782 0.201814
O O3 0.298680 0.029801 0.162104
O O4 0.879352 0.995467 0.061609
O O5 0.199008 0.750000 0.013838
O O6 0.400804 0.488160 0.088672
O O7 0.000000 0.500000 0.000000
O O8 0.788127 0.750000 0.739522
O O9 0.570788 0.493888 0.653428
O O10 0.960867 0.543755 0.722270
O O11 0.349980 0.750000 0.589611
O O12 0.205663 0.495971 0.508323
O O13 0.210564 0.518597 0.610706
O O14 0.973246 0.750000 0.289845
O O15 0.682574 0.535099 0.231804
O O16 0.037088 0.520720 0.373758
O O17 0.023766 0.250000 0.574335
O O18 0.470370 0.750000 0.821409
#
# Coordination Sequence:
#
# PCOD8069561 Si02
#       7
#     4   4   4   4   4   4   4
#     4  11  21  36  58  84 113 146 185 229 277 327
#     4  10  18  32  55  84 113 142 181 228 276 324
#     4  11  23  38  55  79 112 149 188 229 277 331
#     4   9  19  36  58  83 110 141 181 228 276 327
#     4  11  23  38  55  79 112 149 188 229 277 331
#     4   9  19  36  58  83 110 141 181 228 276 327
#     4  11  21  36  58  84 113 146 185 229 277 327
#
# _framework density 20.166108000000001
#
# number of rings (size 3 to 8) (size 9 to 14) (size 15 to 20)
#    0.000    1.714    0.000    7.286    0.000    5.143 
#    0.000    0.714    0.000    0.000    0.000    0.000 
#    0.000    0.000    0.000    0.000    0.000    0.000 
#
# Total GULP energy -347233.900763 kJ/mol
# GULP energy per Si atom -12401.210742 kJ/mol
# Density = 2.012021 g / cm^3
# Si number density = 20.166108 Si / 1000 Ang^3
#
#
#
# Elastic Constant Matrix: (Units=GPa)
#
#
# Indices 1 2 3 4 5 6 
#
# 1 67.9940 9.8046 36.7642 0.0000 -19.1485 0.0000
# 2 9.8046 63.6753 23.9676 0.0000 -4.1848 0.0000
# 3 36.7642 23.9676 110.4059 0.0000 -25.7475 0.0000
# 4 0.0000 0.0000 0.0000 26.9449 0.0000 -2.1627
# 5 -19.1485 -4.1848 -25.7475 0.0000 20.1426 0.0000
# 6 0.0000 0.0000 0.0000 -2.1627 0.0000 28.9316
#
#
#
# Elastic Compliance Matrix: (Units=1/GPa)
#
#
# Indices 1 2 3 4 5 6 
#
# 1 0.020964 -0.001033 -0.003076 0.000000 0.015783 0.000000
# 2 -0.001033 0.017194 -0.003967 0.000000 -0.002481 0.000000
# 3 -0.003076 -0.003967 0.014345 0.000000 0.014588 0.000000
# 4 0.000000 0.000000 0.000000 0.037337 0.000000 0.002791
# 5 0.015783 -0.002481 0.014588 0.000000 0.082782 0.000000
# 6 0.000000 0.000000 0.000000 0.002791 0.000000 0.034773
#
#
# Mechanical properties :
#
#
# Convention : Reuss Voigt Hill
#
# Bulk Modulus (GPa) = 27.50947 42.57201 35.04074
# Shear Modulus (GPa) = 21.21664 26.63976 23.92820
#
# Velocity S-wave (km/s) = 3.24712 3.63852 3.44838
# Velocity P-wave (km/s) = 5.26587 6.22963 5.76792
#
# Compressibility (1/GPa) = 0.03635112
#
# Stress axis : x y z
#
# Youngs Moduli (GPa) = 47.70067 58.16005 69.71035
#
# Poissons Ratio (x) = 0.06008 0.21442
# Poissons Ratio (y) = 0.04927 0.27655
# Poissons Ratio (z) = 0.14672 0.23073
#
# Static dielectric constant tensor:
#      x y z
#    x 3.273610 0.000000 -0.137520 
#    y 0.000000 3.578210 0.000000 
#    z -0.137520 0.000000 4.557680 
# 
# 
# High freq. dielectric constant tensor:
#      x y z
#    x 1.753110 0.000000 -0.010330 
#    y 0.000000 1.791020 0.000000 
#    z -0.010330 0.000000 1.809400 
# 
# From -- ./inp_files/70919.got.cif
#   From: 2010.06.25/outbox.cif.g09.slc.cpg/sg11_36_cif.got.tgz:70919.got - 2010.06.27 23:14:04.
