data_PCOD8069786
_publ_section_title
;
Structure prediction by ZEFSAII (Michael W. Deem and Ramdas Pophale) SiO2 
 PCOD8069786
Probable space group: P 21/M
;
_chemical_formula_sum "Si O2"
_cell_formula_units_Z 28
_cell_length_a 20.179510
_cell_length_b 9.060614
_cell_length_c 23.069991
_cell_angle_alpha 90.000000
_cell_angle_beta 19.659066
_cell_angle_gamma 90.000000
_cell_volume 1419.060054
_symmetry_space_group_name_H-M "P 21/M"
_symmetry_group_IT_number 11
_symmetry_cell_setting 'monoclinic'
loop_
_space_group_symop_operation_xyz
x,y,z
-x,1/2+y,-z
-x,-y,-z
x,1/2-y,z
loop_
_atom_site_type_symbol
_atom_site_label
_atom_site_fract_x
_atom_site_fract_y
_atom_site_fract_z
Si Si1 0.553589 0.422439 0.110637
Si Si2 0.849978 0.910225 0.085890
Si Si3 0.447407 0.585638 0.485655
Si Si4 0.920085 0.421672 0.738381
Si Si5 0.264181 0.424966 0.535788
Si Si6 0.607241 0.925950 0.183146
Si Si7 0.900156 0.575473 0.528102
O O1 0.569354 0.250000 0.114402
O O2 0.641650 0.520735 0.089726
O O3 0.330130 0.468150 0.281541
O O4 0.691506 0.458299 0.941036
O O5 0.947657 0.750000 0.001052
O O6 0.640692 0.903032 0.288508
O O7 0.802989 0.969633 0.059694
O O8 0.000000 0.000000 0.000000
O O9 0.500000 0.500000 0.500000
O O10 0.368783 0.750000 0.565370
O O11 0.283296 0.498477 0.583623
O O12 0.954221 0.250000 0.701426
O O13 0.052652 0.471126 0.683931
O O14 0.994432 0.491951 0.616432
O O15 0.292182 0.250000 0.519278
O O16 0.420929 0.486413 0.361022
O O17 0.570099 0.750000 0.217231
O O18 0.926953 0.750000 0.511408
O O19 0.000000 0.500000 0.500000
#
# Coordination Sequence:
#
# PCOD8069786 Si02
#       7
#     4   4   4   4   4   4   4
#     4  10  20  37  61  85 112 151 194 233 281 341
#     4   9  20  35  51  74 106 143 185 232 282 336
#     4  10  21  36  52  77 110 147 190 238 288 341
#     4   9  19  36  59  87 115 146 193 239 277 341
#     4  10  18  34  58  81 107 147 191 235 290 345
#     4  10  20  35  54  80 113 146 187 239 287 340
#     4  10  21  39  60  86 118 154 190 232 287 343
#
# _framework density 19.731370999999999
#
# number of rings (size 3 to 8) (size 9 to 14) (size 15 to 20)
#    0.000    2.286    1.429    2.143    0.000    5.714 
#    0.000    6.429    0.000    0.000    0.000    0.000 
#    0.000    0.000    0.000    0.000    0.000    0.000 
#
# Total GULP energy -347040.357253 kJ/mol
# GULP energy per Si atom -12394.298473 kJ/mol
# Density = 1.968646 g / cm^3
# Si number density = 19.731371 Si / 1000 Ang^3
#
#
#
# Elastic Constant Matrix: (Units=GPa)
#
#
# Indices 1 2 3 4 5 6 
#
# 1 174.7271 56.2687 69.8818 0.0000 -6.1784 0.0000
# 2 56.2687 82.1871 33.7865 0.0000 -5.8744 0.0000
# 3 69.8818 33.7865 103.9457 0.0000 -5.6020 0.0000
# 4 0.0000 0.0000 0.0000 17.4610 0.0000 -1.2533
# 5 -6.1784 -5.8744 -5.6020 0.0000 26.8720 0.0000
# 6 0.0000 0.0000 0.0000 -1.2533 0.0000 39.3140
#
#
#
# Elastic Compliance Matrix: (Units=1/GPa)
#
#
# Indices 1 2 3 4 5 6 
#
# 1 0.008935 -0.004201 -0.004632 0.000000 0.000170 0.000000
# 2 -0.004201 0.016142 -0.002311 0.000000 0.002081 0.000000
# 3 -0.004632 -0.002311 0.013553 0.000000 0.001255 0.000000
# 4 0.000000 0.000000 0.000000 0.057402 0.000000 0.001830
# 5 0.000170 0.002081 0.001255 0.000000 0.037969 0.000000
# 6 0.000000 0.000000 0.000000 0.001830 0.000000 0.025495
#
#
# Mechanical properties :
#
#
# Convention : Reuss Voigt Hill
#
# Bulk Modulus (GPa) = 61.18775 75.63710 68.41242
# Shear Modulus (GPa) = 26.70517 30.12424 28.41470
#
# Velocity S-wave (km/s) = 3.68290 3.91156 3.79895
# Velocity P-wave (km/s) = 7.01161 7.66923 7.34778
#
# Compressibility (1/GPa) = 0.01634314
#
# Stress axis : x y z
#
# Youngs Moduli (GPa) = 111.92463 61.95067 73.78316
#
# Poissons Ratio (x) = 0.26023 0.34177
# Poissons Ratio (y) = 0.47015 0.17048
# Poissons Ratio (z) = 0.51845 0.14314
#
# Static dielectric constant tensor:
#      x y z
#    x 3.393990 0.000000 0.074270 
#    y 0.000000 2.826630 0.000000 
#    z 0.074270 0.000000 3.570970 
# 
# 
# High freq. dielectric constant tensor:
#      x y z
#    x 1.776580 0.000000 -0.000500 
#    y 0.000000 1.755670 0.000000 
#    z -0.000500 0.000000 1.761420 
# 
# From -- ./inp_files/66658.got.cif
#   From: 2010.06.25/outbox.cif.g09.slc.cpg/sg11_34_cif.got.tgz:66658.got - 2010.06.27 23:14:04.
