data_PCOD8069703
_publ_section_title
;
Structure prediction by ZEFSAII (Michael W. Deem and Ramdas Pophale) SiO2 
 PCOD8069703
Probable space group: P 21/M
;
_chemical_formula_sum "Si O2"
_cell_formula_units_Z 32
_cell_length_a 8.143151
_cell_length_b 8.987203
_cell_length_c 27.759143
_cell_angle_alpha 90.000000
_cell_angle_beta 126.702424
_cell_angle_gamma 90.000000
_cell_volume 1628.779360
_symmetry_space_group_name_H-M "P 21/M"
_symmetry_group_IT_number 11
_symmetry_cell_setting 'monoclinic'
loop_
_space_group_symop_operation_xyz
x,y,z
-x,1/2+y,-z
-x,-y,-z
x,1/2-y,z
loop_
_atom_site_type_symbol
_atom_site_label
_atom_site_fract_x
_atom_site_fract_y
_atom_site_fract_z
Si Si1 0.051527 0.927412 0.363675
Si Si2 0.281619 0.580412 0.234820
Si Si3 0.669382 0.580638 0.241604
Si Si4 0.922396 0.424576 0.124863
Si Si5 0.577199 0.573614 0.122124
Si Si6 0.173713 0.925649 0.999975
Si Si7 0.410100 0.573916 0.360424
Si Si8 0.123092 0.072240 0.564569
O O1 0.039953 0.750000 0.361648
O O2 0.882372 0.992937 0.296589
O O3 0.991284 0.983743 0.406591
O O4 0.277411 0.980260 0.384151
O O5 0.200020 0.750000 0.215652
O O6 0.515240 0.569581 0.258923
O O7 0.282965 0.525627 0.290449
O O8 0.153189 0.471949 0.177762
O O9 0.717275 0.750000 0.236264
O O10 0.572225 0.509910 0.176032
O O11 0.893684 0.250000 0.126831
O O12 0.787186 0.515231 0.138079
O O13 0.856551 0.475287 0.060188
O O14 0.568978 0.750000 0.118211
O O15 0.387905 0.510279 0.057845
O O16 0.157528 0.750000 0.003158
O O17 0.000000 0.000000 0.000000
O O18 0.427568 0.750000 0.363624
O O19 0.642359 0.511042 0.399286
O O20 0.117753 0.250000 0.560161
O O21 0.000000 0.000000 0.500000
#
# Coordination Sequence:
#
# PCOD8069703 Si02
#       8
#     4   4   4   4   4   4   4   4
#     4   9  16  29  51  80 110 136 172 226 274 314
#     4  10  18  33  58  83 105 136 181 227 270 321
#     4   9  16  29  54  84 105 126 173 235 275 306
#     4  11  23  36  50  76 113 145 174 218 278 334
#     4  10  20  35  55  78 102 137 186 229 264 318
#     4  10  22  38  55  77 105 139 181 227 277 331
#     4   9  17  31  55  83 108 139 181 228 272 313
#     4  10  20  35  54  79 110 143 180 220 267 321
#
# _framework density 19.646615000000001
#
# number of rings (size 3 to 8) (size 9 to 14) (size 15 to 20)
#    0.000    2.250    1.250    2.250    0.000    5.000 
#    0.000    1.250    0.000    3.000    0.000    0.000 
#    0.000    0.000    0.000    0.000    0.000    0.000 
#
# Total GULP energy -396606.212652 kJ/mol
# GULP energy per Si atom -12393.944145 kJ/mol
# Density = 1.960190 g / cm^3
# Si number density = 19.646615 Si / 1000 Ang^3
#
#
#
# Elastic Constant Matrix: (Units=GPa)
#
#
# Indices 1 2 3 4 5 6 
#
# 1 132.2157 13.7896 64.7610 0.0000 -10.3977 0.0000
# 2 13.7896 5.3183 19.6049 0.0000 -2.6921 0.0000
# 3 64.7610 19.6049 148.0288 0.0000 -7.1734 0.0000
# 4 0.0000 0.0000 0.0000 26.9519 0.0000 0.5787
# 5 -10.3977 -2.6921 -7.1734 0.0000 31.7452 0.0000
# 6 0.0000 0.0000 0.0000 0.5787 0.0000 19.5135
#
#
#
# Elastic Compliance Matrix: (Units=1/GPa)
#
#
# Indices 1 2 3 4 5 6 
#
# 1 0.010708 -0.019618 -0.002019 0.000000 0.001387 0.000000
# 2 -0.019618 0.416865 -0.045726 0.000000 0.018594 0.000000
# 3 -0.002019 -0.045726 0.013624 0.000000 -0.001460 0.000000
# 4 0.000000 0.000000 0.000000 0.037127 0.000000 -0.001101
# 5 0.001387 0.018594 -0.001460 0.000000 0.033202 0.000000
# 6 0.000000 0.000000 0.000000 -0.001101 0.000000 0.051279
#
#
# Mechanical properties :
#
#
# Convention : Reuss Voigt Hill
#
# Bulk Modulus (GPa) = 3.26295 53.54155 28.40225
# Shear Modulus (GPa) = 6.25244 28.13595 17.19420
#
# Velocity S-wave (km/s) = 1.78588 3.78842 2.96154
# Velocity P-wave (km/s) = 2.43247 6.81525 5.11686
#
# Compressibility (1/GPa) = 0.30647092
#
# Stress axis : x y z
#
# Youngs Moduli (GPa) = 93.39247 2.39886 73.40057
#
# Poissons Ratio (x) = 0.04706 0.14819
# Poissons Ratio (y) = 1.83218 3.35630
# Poissons Ratio (z) = 0.18856 0.10969
#
# Static dielectric constant tensor:
#      x y z
#    x 3.767180 0.000000 -0.022150 
#    y 0.000000 3.028340 0.000000 
#    z -0.022150 0.000000 4.167460 
# 
# 
# High freq. dielectric constant tensor:
#      x y z
#    x 1.780260 0.000000 -0.001950 
#    y 0.000000 1.706320 0.000000 
#    z -0.001950 0.000000 1.777370 
# 
# From -- ./inp_files/70699.got.cif
#   From: 2010.06.25/outbox.cif.g09.slc.cpg/sg11_36_cif.got.tgz:70699.got - 2010.06.27 23:14:04.
