data_PCOD8069289
_publ_section_title
;
Structure prediction by ZEFSAII (Michael W. Deem and Ramdas Pophale) SiO2 
 PCOD8069289
Probable space group: P 21/M
;
_chemical_formula_sum "Si O2"
_cell_formula_units_Z 20
_cell_length_a 16.874420
_cell_length_b 8.883792
_cell_length_c 10.144791
_cell_angle_alpha 90.000000
_cell_angle_beta 124.526930
_cell_angle_gamma 90.000000
_cell_volume 1252.921013
_symmetry_space_group_name_H-M "P 21/M"
_symmetry_group_IT_number 11
_symmetry_cell_setting 'monoclinic'
loop_
_space_group_symop_operation_xyz
x,y,z
-x,1/2+y,-z
-x,-y,-z
x,1/2-y,z
loop_
_atom_site_type_symbol
_atom_site_label
_atom_site_fract_x
_atom_site_fract_y
_atom_site_fract_z
Si Si1 0.619739 0.427861 0.727291
Si Si2 0.755174 0.420060 0.086793
Si Si3 0.896479 0.927858 0.390253
Si Si4 0.598746 0.927114 0.439864
Si Si5 0.273933 0.580004 0.654254
O O1 0.626679 0.250000 0.715394
O O2 0.512647 0.475915 0.669179
O O3 0.648655 0.506883 0.617995
O O4 0.693088 0.486626 0.908146
O O5 0.789347 0.250000 0.086695
O O6 0.849309 0.523229 0.204411
O O7 0.689808 0.418840 0.158814
O O8 0.903945 0.750000 0.407968
O O9 0.829332 0.993360 0.445491
O O10 0.000000 0.000000 0.500000
O O11 0.612221 0.750000 0.452237
O O12 0.647993 0.994251 0.357788
O O13 0.260086 0.750000 0.588142
#
# Coordination Sequence:
#
# PCOD8069289 Si02
#       5
#     4   4   4   4   4
#     4   9  18  33  49  67  98 135 166 197 236 281
#     4   8  17  32  49  71  95 126 163 199 237 281
#     4  10  18  31  51  74  97 122 154 196 243 290
#     4  10  19  30  47  72  99 131 167 199 235 282
#     4   9  18  32  49  71  96 127 161 199 240 282
#
# _framework density 15.962699000000001
#
# number of rings (size 3 to 8) (size 9 to 14) (size 15 to 20)
#    1.200    1.600    0.000    2.400    0.000    2.400 
#    0.000    0.000    0.000    1.200    0.000    0.000 
#    0.000    0.000    0.000    0.000    0.000    0.000 
#
# Total GULP energy -247814.989638 kJ/mol
# GULP energy per Si atom -12390.749482 kJ/mol
# Density = 1.592637 g / cm^3
# Si number density = 15.962699 Si / 1000 Ang^3
#
#
#
# Elastic Constant Matrix: (Units=GPa)
#
#
# Indices 1 2 3 4 5 6 
#
# 1 25.2194 20.4629 26.3645 0.0000 11.9381 0.0000
# 2 20.4629 72.8033 34.2387 0.0000 9.4250 0.0000
# 3 26.3645 34.2387 103.9099 0.0000 14.3991 0.0000
# 4 0.0000 0.0000 0.0000 25.7668 0.0000 -1.5135
# 5 11.9381 9.4250 14.3991 0.0000 17.7694 0.0000
# 6 0.0000 0.0000 0.0000 -1.5135 0.0000 30.6323
#
#
#
# Elastic Compliance Matrix: (Units=1/GPa)
#
#
# Indices 1 2 3 4 5 6 
#
# 1 0.078523 -0.012167 -0.010700 0.000000 -0.037631 0.000000
# 2 -0.012167 0.018515 -0.003138 0.000000 0.000896 0.000000
# 3 -0.010700 -0.003138 0.013682 0.000000 -0.002234 0.000000
# 4 0.000000 0.000000 0.000000 0.038923 0.000000 0.001923
# 5 -0.037631 0.000896 -0.002234 0.000000 0.082893 0.000000
# 6 0.000000 0.000000 0.000000 0.001923 0.000000 0.032740
#
#
# Mechanical properties :
#
#
# Convention : Reuss Voigt Hill
#
# Bulk Modulus (GPa) = 17.03248 40.45162 28.74205
# Shear Modulus (GPa) = 14.84313 22.89147 18.86730
#
# Velocity S-wave (km/s) = 3.05267 3.79101 3.44170
# Velocity P-wave (km/s) = 4.80816 6.67523 5.81709
#
# Compressibility (1/GPa) = 0.05871135
#
# Stress axis : x y z
#
# Youngs Moduli (GPa) = 12.73509 54.00994 73.08849
#
# Poissons Ratio (x) = 0.65714 0.78202
# Poissons Ratio (y) = 0.15495 0.22935
# Poissons Ratio (z) = 0.13626 0.16948
#
# Static dielectric constant tensor:
#      x y z
#    x 2.815800 0.000000 0.007760 
#    y 0.000000 3.080880 0.000000 
#    z 0.007760 0.000000 2.966710 
# 
# 
# High freq. dielectric constant tensor:
#      x y z
#    x 1.589550 0.000000 0.000190 
#    y 0.000000 1.623940 0.000000 
#    z 0.000190 0.000000 1.599380 
# 
# From -- ./inp_files/23825.got.cif
#   From: 2010.06.25/outbox.cif.g09.slc.cpg/sg11_12_cif.got.tgz:23825.got - 2010.06.27 23:14:04.
