data_PCOD8069840
_publ_section_title
;
Structure prediction by ZEFSAII (Michael W. Deem and Ramdas Pophale) SiO2 
 PCOD8069840
Probable space group: P 21/M
;
_chemical_formula_sum "Si O2"
_cell_formula_units_Z 26
_cell_length_a 19.395022
_cell_length_b 17.924566
_cell_length_c 9.012745
_cell_angle_alpha 90.000000
_cell_angle_beta 27.145891
_cell_angle_gamma 90.000000
_cell_volume 1429.572840
_symmetry_space_group_name_H-M "P 21/M"
_symmetry_group_IT_number 11
_symmetry_cell_setting 'monoclinic'
loop_
_space_group_symop_operation_xyz
x,y,z
-x,1/2+y,-z
-x,-y,-z
x,1/2-y,z
loop_
_atom_site_type_symbol
_atom_site_label
_atom_site_fract_x
_atom_site_fract_y
_atom_site_fract_z
Si Si1 0.239076 0.403322 0.368851
Si Si2 0.723649 0.750000 0.198368
Si Si3 0.765979 0.595986 0.277300
Si Si4 0.327142 0.909082 0.809344
Si Si5 0.960825 0.480511 0.742407
Si Si6 0.575339 0.250000 0.367801
Si Si7 0.532710 0.499474 0.219029
Si Si8 0.304492 0.250000 0.078891
O O1 0.204219 0.392772 0.607205
O O2 0.096739 0.440656 0.563603
O O3 0.385166 0.458002 0.073756
O O4 0.264442 0.322786 0.249072
O O5 0.775345 0.676236 0.183263
O O6 0.541376 0.750000 0.546154
O O7 0.784094 0.750000 0.911004
O O8 0.605696 0.554161 0.560792
O O9 0.907627 0.552383 0.936714
O O10 0.319375 0.821312 0.849229
O O11 0.478125 0.934400 0.432906
O O12 0.335494 0.951711 0.951463
O O13 0.181161 0.925339 0.991111
O O14 0.000000 0.500000 0.500000
O O15 0.484418 0.250000 0.698862
#
# Coordination Sequence:
#
# PCOD8069840 Si02
#       8
#     4   2   4   4   4   2   4   2
#     4  12  22  38  58  90 123 154 194 244 303 356
#     4  10  19  37  59  85 111 150 199 241 288 347
#     4  11  23  37  59  89 121 156 193 249 302 348
#     4  10  19  34  60  85 112 146 202 246 281 339
#     4  11  23  38  60  84 118 160 200 241 286 356
#     4  10  18  35  60  86 111 141 192 256 289 336
#     4  10  18  35  58  86 112 150 199 244 288 342
#     4  10  21  36  63  87 110 155 197 243 289 359
#
# _framework density 18.187251
#
# number of rings (size 3 to 8) (size 9 to 14) (size 15 to 20)
#    0.462    0.923    4.615    2.308    2.154    0.615 
#    0.000    0.769    0.000    0.000    0.000    0.000 
#    0.000    0.000    0.000    0.000    0.000    0.000 
#
# Total GULP energy -322287.820501 kJ/mol
# GULP energy per Si atom -12395.685404 kJ/mol
# Density = 1.814586 g / cm^3
# Si number density = 18.187251 Si / 1000 Ang^3
#
#
#
# Elastic Constant Matrix: (Units=GPa)
#
#
# Indices 1 2 3 4 5 6 
#
# 1 97.3001 37.6314 24.7729 0.0000 20.9161 0.0000
# 2 37.6314 145.6830 38.9776 0.0000 9.6391 0.0000
# 3 24.7729 38.9776 63.0585 0.0000 11.9847 0.0000
# 4 0.0000 0.0000 0.0000 24.5167 0.0000 5.1044
# 5 20.9161 9.6391 11.9847 0.0000 36.8128 0.0000
# 6 0.0000 0.0000 0.0000 5.1044 0.0000 26.2322
#
#
#
# Elastic Compliance Matrix: (Units=1/GPa)
#
#
# Indices 1 2 3 4 5 6 
#
# 1 0.013117 -0.002298 -0.002591 0.000000 -0.006008 0.000000
# 2 -0.002298 0.008637 -0.004535 0.000000 0.000520 0.000000
# 3 -0.002591 -0.004535 0.020438 0.000000 -0.003994 0.000000
# 4 0.000000 0.000000 0.000000 0.042511 0.000000 -0.008272
# 5 -0.006008 0.000520 -0.003994 0.000000 0.031742 0.000000
# 6 0.000000 0.000000 0.000000 -0.008272 0.000000 0.039731
#
#
# Mechanical properties :
#
#
# Convention : Reuss Voigt Hill
#
# Bulk Modulus (GPa) = 42.83526 56.53394 49.68460
# Shear Modulus (GPa) = 27.35166 31.15631 29.25399
#
# Velocity S-wave (km/s) = 3.88221 4.14343 4.01495
# Velocity P-wave (km/s) = 6.61052 7.35137 6.99076
#
# Compressibility (1/GPa) = 0.02334525
#
# Stress axis : x y z
#
# Youngs Moduli (GPa) = 76.23549 115.78724 48.92750
#
# Poissons Ratio (x) = 0.26602 0.12678
# Poissons Ratio (y) = 0.17515 0.22187
# Poissons Ratio (z) = 0.19754 0.52506
#
# Static dielectric constant tensor:
#      x y z
#    x 3.371100 0.000000 0.031970 
#    y 0.000000 3.329620 0.000000 
#    z 0.031970 0.000000 3.349390 
# 
# 
# High freq. dielectric constant tensor:
#      x y z
#    x 1.697850 0.000000 0.001910 
#    y 0.000000 1.714980 0.000000 
#    z 0.001910 0.000000 1.693730 
# 
# From -- ./inp_files/25196.got.cif
#   From: 2010.06.25/outbox.cif.g09.slc.cpg/sg11_13_cif.got.tgz:25196.got - 2010.06.27 23:14:04.
