data_PCOD8069668
_publ_section_title
;
Structure prediction by ZEFSAII (Michael W. Deem and Ramdas Pophale) SiO2 
 PCOD8069668
Probable space group: P 21/M
;
_chemical_formula_sum "Si O2"
_cell_formula_units_Z 22
_cell_length_a 12.994936
_cell_length_b 9.805025
_cell_length_c 21.717169
_cell_angle_alpha 90.000000
_cell_angle_beta 24.689133
_cell_angle_gamma 90.000000
_cell_volume 1155.806366
_symmetry_space_group_name_H-M "P 21/M"
_symmetry_group_IT_number 11
_symmetry_cell_setting 'monoclinic'
loop_
_space_group_symop_operation_xyz
x,y,z
-x,1/2+y,-z
-x,-y,-z
x,1/2-y,z
loop_
_atom_site_type_symbol
_atom_site_label
_atom_site_fract_x
_atom_site_fract_y
_atom_site_fract_z
Si Si1 0.471186 0.250000 0.660162
Si Si2 0.976911 0.250000 0.981343
Si Si3 0.680994 0.911333 0.720842
Si Si4 0.673141 0.750000 0.509363
Si Si5 0.791916 0.005150 0.525495
Si Si6 0.108746 0.250000 0.743830
Si Si7 0.894740 0.250000 0.165340
Si Si8 0.836072 0.030997 0.960859
O O1 0.635659 0.382331 0.575603
O O2 0.335023 0.250000 0.668641
O O3 0.273724 0.250000 0.823410
O O4 0.894953 0.111963 0.991751
O O5 0.856088 0.250000 0.113390
O O6 0.639940 0.750000 0.736607
O O7 0.684619 0.977396 0.651347
O O8 0.460542 0.979261 0.880361
O O9 0.928316 0.944416 0.622975
O O10 0.775481 0.875983 0.491365
O O11 0.794080 0.750000 0.377185
O O12 0.379526 0.750000 0.658165
O O13 0.941851 0.115469 0.845446
O O14 0.043578 0.382246 0.106184
#
# Coordination Sequence:
#
# PCOD8069668 Si02
#       8
#     2   2   4   2   4   2   2   4
#     4  10  20  37  57  92 122 157 202 237 294 363
#     4  10  18  33  55  86 122 155 190 241 304 365
#     4  11  20  40  64  91 128 156 194 244 301 365
#     4  12  24  42  59  89 123 155 208 251 303 353
#     4  11  23  35  64  94 122 159 194 243 303 362
#     4  10  24  43  61  78 122 167 204 257 294 345
#     4  12  22  33  60  91 119 152 200 254 305 360
#     4  10  21  38  60  84 118 164 197 243 305 350
#
# _framework density 19.034330000000001
#
# number of rings (size 3 to 8) (size 9 to 14) (size 15 to 20)
#    0.000    1.455    3.636    4.909    0.000    3.636 
#    0.000    0.909    0.000    0.000    0.000    0.000 
#    0.000    0.000    0.000    0.000    0.000    0.000 
#
# Total GULP energy -272828.293871 kJ/mol
# GULP energy per Si atom -12401.286085 kJ/mol
# Density = 1.899101 g / cm^3
# Si number density = 19.034330 Si / 1000 Ang^3
#
#
#
# Elastic Constant Matrix: (Units=GPa)
#
#
# Indices 1 2 3 4 5 6 
#
# 1 55.1143 9.6517 44.7429 0.0000 0.7457 0.0000
# 2 9.6517 94.0214 21.9550 0.0000 6.3009 0.0000
# 3 44.7429 21.9550 131.3957 0.0000 4.5385 0.0000
# 4 0.0000 0.0000 0.0000 39.5899 0.0000 -5.8116
# 5 0.7457 6.3009 4.5385 0.0000 26.1105 0.0000
# 6 0.0000 0.0000 0.0000 -5.8116 0.0000 26.6635
#
#
#
# Elastic Compliance Matrix: (Units=1/GPa)
#
#
# Indices 1 2 3 4 5 6 
#
# 1 0.025131 -0.000661 -0.008479 0.000000 0.000916 0.000000
# 2 -0.000661 0.011232 -0.001568 0.000000 -0.002419 0.000000
# 3 -0.008479 -0.001568 0.010803 0.000000 -0.001257 0.000000
# 4 0.000000 0.000000 0.000000 0.026094 0.000000 0.005687
# 5 0.000916 -0.002419 -0.001257 0.000000 0.039075 0.000000
# 6 0.000000 0.000000 0.000000 0.005687 0.000000 0.038744
#
#
# Mechanical properties :
#
#
# Convention : Reuss Voigt Hill
#
# Bulk Modulus (GPa) = 38.83502 48.13675 43.48588
# Shear Modulus (GPa) = 27.61244 32.08491 29.84868
#
# Velocity S-wave (km/s) = 3.81289 4.11010 3.96428
# Velocity P-wave (km/s) = 6.31119 6.91869 6.62191
#
# Compressibility (1/GPa) = 0.02574996
#
# Stress axis : x y z
#
# Youngs Moduli (GPa) = 39.79205 89.03110 92.56540
#
# Poissons Ratio (x) = 0.05888 0.78483
# Poissons Ratio (y) = 0.02631 0.14515
# Poissons Ratio (z) = 0.33738 0.13960
#
# Static dielectric constant tensor:
#      x y z
#    x 3.217720 0.000000 -0.202400 
#    y 0.000000 3.561420 0.000000 
#    z -0.202400 0.000000 3.755200 
# 
# 
# High freq. dielectric constant tensor:
#      x y z
#    x 1.709900 0.000000 -0.017540 
#    y 0.000000 1.754560 0.000000 
#    z -0.017540 0.000000 1.753770 
# 
# From -- ./inp_files/68856.got.cif
#   From: 2010.06.25/outbox.cif.g09.slc.cpg/sg11_35_cif.got.tgz:68856.got - 2010.06.27 23:14:04.
