data_PCOD8069727
_publ_section_title
;
Structure prediction by ZEFSAII (Michael W. Deem and Ramdas Pophale) SiO2 
 PCOD8069727
Probable space group: P 21/M
;
_chemical_formula_sum "Si O2"
_cell_formula_units_Z 32
_cell_length_a 19.788366
_cell_length_b 18.924739
_cell_length_c 12.148067
_cell_angle_alpha 90.000000
_cell_angle_beta 157.089268
_cell_angle_gamma 90.000000
_cell_volume 1771.036447
_symmetry_space_group_name_H-M "P 21/M"
_symmetry_group_IT_number 11
_symmetry_cell_setting 'monoclinic'
loop_
_space_group_symop_operation_xyz
x,y,z
-x,1/2+y,-z
-x,-y,-z
x,1/2-y,z
loop_
_atom_site_type_symbol
_atom_site_label
_atom_site_fract_x
_atom_site_fract_y
_atom_site_fract_z
Si Si1 0.189119 0.030008 0.285450
Si Si2 0.984572 0.530079 0.353938
Si Si3 0.735255 0.328390 0.485914
Si Si4 0.684525 0.468646 0.748365
Si Si5 0.795946 0.670055 0.034060
Si Si6 0.405900 0.830140 0.486543
Si Si7 0.859852 0.672427 0.885668
Si Si8 0.316503 0.532089 0.699346
O O1 0.193805 0.115288 0.285328
O O2 0.288199 0.998033 0.331853
O O3 0.269430 0.009566 0.519999
O O4 0.000000 0.000000 0.000000
O O5 0.170936 0.520224 0.574741
O O6 0.000000 0.500000 0.500000
O O7 0.934428 0.613093 0.286888
O O8 0.834735 0.489548 0.060113
O O9 0.669283 0.250000 0.354556
O O10 0.685971 0.346941 0.536317
O O11 0.655335 0.384623 0.281381
O O12 0.940346 0.334852 0.782058
O O13 0.500000 0.500000 0.500000
O O14 0.672537 0.383147 0.722866
O O15 0.866476 0.750000 0.162090
O O16 0.610985 0.658117 0.814625
O O17 0.759052 0.658832 0.848687
O O18 0.367814 0.750000 0.389771
O O19 0.818067 0.750000 0.774183
O O20 0.500000 0.500000 0.000000
#
# Coordination Sequence:
#
# PCOD8069727 Si02
#       8
#     4   4   4   4   4   4   4   4
#     4  12  19  38  62  86 117 150 202 251 303 350
#     4  12  26  41  58  91 125 161 205 247 302 367
#     4  10  19  35  61  88 113 149 200 251 304 360
#     4  12  21  36  64  90 118 155 200 249 302 355
#     4  10  19  37  61  86 116 154 200 247 296 354
#     4  10  20  33  58  94 121 147 196 255 303 356
#     4  10  18  33  60  90 111 145 202 257 301 347
#     4  12  26  40  60  89 125 162 202 252 304 361
#
# _framework density 18.068515999999999
#
# number of rings (size 3 to 8) (size 9 to 14) (size 15 to 20)
#    0.000    1.000    7.500    0.000    3.500    0.000 
#    0.000    1.250    0.000    1.500    0.000    0.000 
#    0.000    0.000    0.000    0.000    0.000    0.000 
#
# Total GULP energy -396677.053410 kJ/mol
# GULP energy per Si atom -12396.157919 kJ/mol
# Density = 1.802739 g / cm^3
# Si number density = 18.068516 Si / 1000 Ang^3
#
#
#
# Elastic Constant Matrix: (Units=GPa)
#
#
# Indices 1 2 3 4 5 6 
#
# 1 93.0737 58.1377 41.6629 0.0000 -0.5099 0.0000
# 2 58.1377 158.7168 55.6353 0.0000 -11.1835 0.0000
# 3 41.6629 55.6353 96.0558 0.0000 -1.6066 0.0000
# 4 0.0000 0.0000 0.0000 28.2277 0.0000 -2.3724
# 5 -0.5099 -11.1835 -1.6066 0.0000 30.0668 0.0000
# 6 0.0000 0.0000 0.0000 -2.3724 0.0000 28.9594
#
#
#
# Elastic Compliance Matrix: (Units=1/GPa)
#
#
# Indices 1 2 3 4 5 6 
#
# 1 0.015252 -0.004225 -0.004194 0.000000 -0.001537 0.000000
# 2 -0.004225 0.009301 -0.003501 0.000000 0.003201 0.000000
# 3 -0.004194 -0.003501 0.014247 0.000000 -0.000612 0.000000
# 4 0.000000 0.000000 0.000000 0.035672 0.000000 0.002922
# 5 -0.001537 0.003201 -0.000612 0.000000 0.034391 0.000000
# 6 0.000000 0.000000 0.000000 0.002922 0.000000 0.034770
#
#
# Mechanical properties :
#
#
# Convention : Reuss Voigt Hill
#
# Bulk Modulus (GPa) = 66.84350 73.19090 70.01720
# Shear Modulus (GPa) = 28.99213 30.27816 29.63514
#
# Velocity S-wave (km/s) = 4.01005 4.09802 4.05427
# Velocity P-wave (km/s) = 7.64954 7.93644 7.79431
#
# Compressibility (1/GPa) = 0.01496032
#
# Stress axis : x y z
#
# Youngs Moduli (GPa) = 65.56393 107.51662 70.18906
#
# Poissons Ratio (x) = 0.45426 0.29438
# Poissons Ratio (y) = 0.27701 0.24573
# Poissons Ratio (z) = 0.27498 0.37641
#
# Static dielectric constant tensor:
#      x y z
#    x 3.478350 0.000000 0.272360 
#    y 0.000000 3.918500 0.000000 
#    z 0.272360 0.000000 2.998010 
# 
# 
# High freq. dielectric constant tensor:
#      x y z
#    x 1.715460 0.000000 0.030610 
#    y 0.000000 1.722580 0.000000 
#    z 0.030610 0.000000 1.659290 
# 
# From -- ./inp_files/43566.got.cif
#   From: 2010.06.25/outbox.cif.g09.slc.cpg/sg11_22_cif.got.tgz:43566.got - 2010.06.27 23:14:04.
