data_PCOD8069685
_publ_section_title
;
Structure prediction by ZEFSAII (Michael W. Deem and Ramdas Pophale) SiO2 
 PCOD8069685
Probable space group: P 21/M
;
_chemical_formula_sum "Si O2"
_cell_formula_units_Z 20
_cell_length_a 9.304862
_cell_length_b 13.838650
_cell_length_c 7.657238
_cell_angle_alpha 90.000000
_cell_angle_beta 73.386877
_cell_angle_gamma 90.000000
_cell_volume 944.839107
_symmetry_space_group_name_H-M "P 21/M"
_symmetry_group_IT_number 11
_symmetry_cell_setting 'monoclinic'
loop_
_space_group_symop_operation_xyz
x,y,z
-x,1/2+y,-z
-x,-y,-z
x,1/2-y,z
loop_
_atom_site_type_symbol
_atom_site_label
_atom_site_fract_x
_atom_site_fract_y
_atom_site_fract_z
Si Si1 0.987086 0.359138 0.441502
Si Si2 0.133148 0.140223 0.749022
Si Si3 0.873788 0.972615 0.909825
Si Si4 0.605998 0.859041 0.114274
Si Si5 0.728859 0.139611 0.778015
O O1 0.022238 0.250000 0.368825
O O2 0.096148 0.388990 0.565218
O O3 0.014506 0.432142 0.275656
O O4 0.813963 0.369025 0.562273
O O5 0.072197 0.250000 0.808608
O O6 0.312491 0.137872 0.722363
O O7 0.062777 0.058364 0.913187
O O8 0.829067 0.084430 0.888186
O O9 0.713476 0.917198 0.944273
O O10 0.595604 0.750000 0.048086
O O11 0.439056 0.903276 0.185061
O O12 0.724041 0.250000 0.842328
#
# Coordination Sequence:
#
# PCOD8069685 Si02
#       5
#     4   4   4   4   4
#     4  10  19  33  54  78 101 131 169 209 251 298
#     4   8  17  32  54  77 100 129 168 208 247 298
#     4  10  18  33  57  75  97 137 176 198 245 308
#     4   8  16  33  54  74 100 134 164 205 255 296
#     4  10  20  32  51  76 106 135 164 211 259 287
#
# _framework density 21.167625999999998
#
# number of rings (size 3 to 8) (size 9 to 14) (size 15 to 20)
#    1.200    1.600    0.000    2.400    0.000    0.800 
#    0.000    1.000    4.400    1.200    0.000    0.000 
#    0.000    0.000    0.000    0.000    0.000    0.000 
#
# Total GULP energy -247791.109759 kJ/mol
# GULP energy per Si atom -12389.555488 kJ/mol
# Density = 2.111945 g / cm^3
# Si number density = 21.167626 Si / 1000 Ang^3
#
#
#
# Elastic Constant Matrix: (Units=GPa)
#
#
# Indices 1 2 3 4 5 6 
#
# 1 121.2494 42.8459 62.6721 0.0000 -12.1025 0.0000
# 2 42.8459 101.1903 52.7581 0.0000 1.8855 0.0000
# 3 62.6721 52.7581 98.2030 0.0000 1.5603 0.0000
# 4 0.0000 0.0000 0.0000 32.1915 0.0000 -2.3739
# 5 -12.1025 1.8855 1.5603 0.0000 34.1887 0.0000
# 6 0.0000 0.0000 0.0000 -2.3739 0.0000 25.9411
#
#
#
# Elastic Compliance Matrix: (Units=1/GPa)
#
#
# Indices 1 2 3 4 5 6 
#
# 1 0.013338 -0.001754 -0.007652 0.000000 0.005168 0.000000
# 2 -0.001754 0.013964 -0.006365 0.000000 -0.001101 0.000000
# 3 -0.007652 -0.006365 0.018537 0.000000 -0.003204 0.000000
# 4 0.000000 0.000000 0.000000 0.031275 0.000000 0.002862
# 5 0.005168 -0.001101 -0.003204 0.000000 0.031286 0.000000
# 6 0.000000 0.000000 0.000000 0.002862 0.000000 0.038811
#
#
# Mechanical properties :
#
#
# Convention : Reuss Voigt Hill
#
# Bulk Modulus (GPa) = 69.94621 70.79946 70.37284
# Shear Modulus (GPa) = 27.24507 29.28870 28.26689
#
# Velocity S-wave (km/s) = 3.59152 3.72379 3.65825
# Velocity P-wave (km/s) = 7.09327 7.21169 7.15272
#
# Compressibility (1/GPa) = 0.01429670
#
# Stress axis : x y z
#
# Youngs Moduli (GPa) = 74.97113 71.61136 53.94682
#
# Poissons Ratio (x) = 0.12564 0.41280
# Poissons Ratio (y) = 0.13154 0.34337
# Poissons Ratio (z) = 0.57368 0.45580
#
# Static dielectric constant tensor:
#      x y z
#    x 4.092660 0.000000 -0.232510 
#    y 0.000000 4.145010 0.000000 
#    z -0.232510 0.000000 3.391270 
# 
# 
# High freq. dielectric constant tensor:
#      x y z
#    x 1.848270 0.000000 -0.013570 
#    y 0.000000 1.855160 0.000000 
#    z -0.013570 0.000000 1.787210 
# 
# From -- ./inp_files/12151.got.cif
#   From: 2010.06.25/outbox.cif.g09.slc.cpg/sg11_7_cif.got.tgz:12151.got - 2010.06.27 23:14:04.
