data_PCOD8069149
_publ_section_title
;
Structure prediction by ZEFSAII (Michael W. Deem and Ramdas Pophale) SiO2 
 PCOD8069149
Probable space group: P 21/M
;
_chemical_formula_sum "Si O2"
_cell_formula_units_Z 26
_cell_length_a 10.440469
_cell_length_b 16.319885
_cell_length_c 9.451165
_cell_angle_alpha 90.000000
_cell_angle_beta 69.762795
_cell_angle_gamma 90.000000
_cell_volume 1510.948398
_symmetry_space_group_name_H-M "P 21/M"
_symmetry_group_IT_number 11
_symmetry_cell_setting 'monoclinic'
loop_
_space_group_symop_operation_xyz
x,y,z
-x,1/2+y,-z
-x,-y,-z
x,1/2-y,z
loop_
_atom_site_type_symbol
_atom_site_label
_atom_site_fract_x
_atom_site_fract_y
_atom_site_fract_z
Si Si1 0.400806 0.250000 0.137570
Si Si2 0.568869 0.611684 0.407890
Si Si3 0.695931 0.750000 0.525181
Si Si4 0.668629 0.157462 0.703380
Si Si5 0.105326 0.250000 0.315219
Si Si6 0.564612 0.087491 0.010015
Si Si7 0.847200 0.341138 0.384178
Si Si8 0.654894 0.057160 0.285423
O O1 0.416393 0.250000 0.303376
O O2 0.237612 0.250000 0.162564
O O3 0.462561 0.166206 0.049264
O O4 0.679931 0.672591 0.429651
O O5 0.476651 0.651073 0.320873
O O6 0.474739 0.586005 0.575247
O O7 0.659628 0.540274 0.303361
O O8 0.846538 0.750000 0.538561
O O9 0.694907 0.250000 0.740573
O O10 0.790418 0.125114 0.555837
O O11 0.672122 0.102329 0.842722
O O12 0.012153 0.331488 0.323313
O O13 0.641630 0.082821 0.128423
O O14 0.500000 0.000000 0.000000
O O15 0.780589 0.250000 0.385986
O O16 0.797199 0.402267 0.281292
#
# Coordination Sequence:
#
# PCOD8069149 Si02
#       8
#     2   4   2   4   2   4   4   4
#     4  10  22  33  56  81 110 144 179 223 273 330
#     4  10  18  30  50  80 109 134 173 226 276 319
#     4  10  18  32  57  76 101 137 183 229 268 319
#     4  10  18  30  52  80 111 135 172 222 276 328
#     4   8  18  37  57  79  99 139 196 228 261 307
#     4  12  22  33  52  87 120 146 171 219 290 341
#     4   8  18  33  57  76  99 136 182 229 260 307
#     4  10  19  30  50  80 110 137 174 221 272 322
#
# _framework density 17.207735
#
# number of rings (size 3 to 8) (size 9 to 14) (size 15 to 20)
#    0.923    1.231    4.615    0.000    2.154    0.000 
#    0.000    0.769    0.000    4.615    0.000    0.000 
#    0.000    0.000    0.000    0.000    0.000    0.000 
#
# Total GULP energy -322126.634193 kJ/mol
# GULP energy per Si atom -12389.485931 kJ/mol
# Density = 1.716857 g / cm^3
# Si number density = 17.207735 Si / 1000 Ang^3
#
#
#
# Elastic Constant Matrix: (Units=GPa)
#
#
# Indices 1 2 3 4 5 6 
#
# 1 84.7139 33.6584 23.3027 0.0000 5.9142 0.0000
# 2 33.6584 91.7823 25.9997 0.0000 0.4321 0.0000
# 3 23.3027 25.9997 90.7596 0.0000 12.0426 0.0000
# 4 0.0000 0.0000 0.0000 28.8968 0.0000 6.7798
# 5 5.9142 0.4321 12.0426 0.0000 19.2812 0.0000
# 6 0.0000 0.0000 0.0000 6.7798 0.0000 15.9089
#
#
#
# Elastic Compliance Matrix: (Units=1/GPa)
#
#
# Indices 1 2 3 4 5 6 
#
# 1 0.014434 -0.004729 -0.001938 0.000000 -0.003111 0.000000
# 2 -0.004729 0.013480 -0.003053 0.000000 0.003055 0.000000
# 3 -0.001938 -0.003053 0.013414 0.000000 -0.007715 0.000000
# 4 0.000000 0.000000 0.000000 0.038450 0.000000 -0.016386
# 5 -0.003111 0.003055 -0.007715 0.000000 0.057568 0.000000
# 6 0.000000 0.000000 0.000000 -0.016386 0.000000 0.069841
#
#
# Mechanical properties :
#
#
# Convention : Reuss Voigt Hill
#
# Bulk Modulus (GPa) = 45.68927 48.13082 46.91004
# Shear Modulus (GPa) = 21.37441 25.10373 23.23907
#
# Velocity S-wave (km/s) = 3.52822 3.82365 3.67890
# Velocity P-wave (km/s) = 6.57321 6.89383 6.73543
#
# Compressibility (1/GPa) = 0.02188698
#
# Stress axis : x y z
#
# Youngs Moduli (GPa) = 69.28125 74.18332 74.54904
#
# Poissons Ratio (x) = 0.35085 0.14450
# Poissons Ratio (y) = 0.32766 0.22758
# Poissons Ratio (z) = 0.13429 0.22646
#
# Static dielectric constant tensor:
#      x y z
#    x 2.817620 0.000000 0.115330 
#    y 0.000000 3.326240 0.000000 
#    z 0.115330 0.000000 3.224990 
# 
# 
# High freq. dielectric constant tensor:
#      x y z
#    x 1.622240 0.000000 0.016350 
#    y 0.000000 1.666890 0.000000 
#    z 0.016350 0.000000 1.660480 
# 
# From -- ./inp_files/17438.got.cif
#   From: 2010.06.25/outbox.cif.g09.slc.cpg/sg11_9_cif.got.tgz:17438.got - 2010.06.27 23:14:04.
