data_PCOD8069903
_publ_section_title
;
Structure prediction by ZEFSAII (Michael W. Deem and Ramdas Pophale) SiO2 
 PCOD8069903
Probable space group: P 21/M
;
_chemical_formula_sum "Si O2"
_cell_formula_units_Z 28
_cell_length_a 8.316459
_cell_length_b 14.829560
_cell_length_c 13.580321
_cell_angle_alpha 90.000000
_cell_angle_beta 64.128548
_cell_angle_gamma 90.000000
_cell_volume 1506.991567
_symmetry_space_group_name_H-M "P 21/M"
_symmetry_group_IT_number 11
_symmetry_cell_setting 'monoclinic'
loop_
_space_group_symop_operation_xyz
x,y,z
-x,1/2+y,-z
-x,-y,-z
x,1/2-y,z
loop_
_atom_site_type_symbol
_atom_site_label
_atom_site_fract_x
_atom_site_fract_y
_atom_site_fract_z
Si Si1 0.768365 0.482707 0.464492
Si Si2 0.371724 0.153032 0.033872
Si Si3 0.498892 0.357919 0.421371
Si Si4 0.749473 0.150168 0.860210
Si Si5 0.189249 0.511226 0.995708
Si Si6 0.162108 0.537067 0.333955
Si Si7 0.488449 0.412570 0.202501
O O1 0.669393 0.406883 0.425592
O O2 0.670121 0.581226 0.496909
O O3 0.791565 0.439832 0.566129
O O4 0.965615 0.496006 0.368782
O O5 0.280429 0.250000 0.039107
O O6 0.229779 0.075939 0.051434
O O7 0.453496 0.155884 0.122400
O O8 0.535588 0.137402 0.915086
O O9 0.481987 0.250000 0.454693
O O10 0.520322 0.362301 0.297534
O O11 0.808507 0.250000 0.870488
O O12 0.826361 0.128069 0.731951
O O13 0.836303 0.092140 0.922546
O O14 0.338036 0.527466 0.871452
O O15 0.000000 0.500000 0.000000
O O16 0.308820 0.469953 0.252446
#
# Coordination Sequence:
#
# PCOD8069903 Si02
#       7
#     4   4   4   4   4   4   4
#     4   9  22  37  60  86 116 150 192 243 284 337
#     4  10  19  36  58  86 113 148 194 232 276 342
#     4  10  21  39  59  87 120 149 186 237 293 341
#     4  10  20  35  59  84 112 149 194 234 281 342
#     4  11  22  36  56  84 121 153 184 238 289 342
#     4  10  18  38  61  81 111 154 199 232 285 337
#     4  10  19  36  60  83 112 155 190 233 284 337
#
# _framework density 18.580062999999999
#
# number of rings (size 3 to 8) (size 9 to 14) (size 15 to 20)
#    0.000    2.000    2.857    1.286    2.000    2.286 
#    0.000    7.857    0.000    0.000    0.000    0.000 
#    0.000    0.000    0.000    0.000    0.000    0.000 
#
# Total GULP energy -346982.975205 kJ/mol
# GULP energy per Si atom -12392.249114 kJ/mol
# Density = 1.853777 g / cm^3
# Si number density = 18.580063 Si / 1000 Ang^3
#
#
#
# Elastic Constant Matrix: (Units=GPa)
#
#
# Indices 1 2 3 4 5 6 
#
# 1 131.1755 71.6464 50.6219 0.0000 -5.6503 0.0000
# 2 71.6464 144.9519 51.7407 0.0000 6.6158 0.0000
# 3 50.6219 51.7407 100.9089 0.0000 -4.7409 0.0000
# 4 0.0000 0.0000 0.0000 22.4129 0.0000 2.0145
# 5 -5.6503 6.6158 -4.7409 0.0000 27.2074 0.0000
# 6 0.0000 0.0000 0.0000 2.0145 0.0000 1.8147
#
#
#
# Elastic Compliance Matrix: (Units=1/GPa)
#
#
# Indices 1 2 3 4 5 6 
#
# 1 0.011572 -0.004692 -0.003260 0.000000 0.002976 0.000000
# 2 -0.004692 0.010569 -0.003258 0.000000 -0.004112 0.000000
# 3 -0.003260 -0.003258 0.013330 0.000000 0.002438 0.000000
# 4 0.000000 0.000000 0.000000 0.049563 0.000000 -0.055019
# 5 0.002976 -0.004112 0.002438 0.000000 0.038798 0.000000
# 6 0.000000 0.000000 0.000000 -0.055019 0.000000 0.612122
#
#
# Mechanical properties :
#
#
# Convention : Reuss Voigt Hill
#
# Bulk Modulus (GPa) = 76.62211 80.56160 78.59186
# Shear Modulus (GPa) = 6.55544 23.82215 15.18880
#
# Velocity S-wave (km/s) = 1.88039 3.58458 2.86226
# Velocity P-wave (km/s) = 6.78549 7.78367 7.30166
#
# Compressibility (1/GPa) = 0.01305106
#
# Stress axis : x y z
#
# Youngs Moduli (GPa) = 86.41286 94.61711 75.01622
#
# Poissons Ratio (x) = 0.44397 0.24452
# Poissons Ratio (y) = 0.40547 0.24444
# Poissons Ratio (z) = 0.28167 0.30831
#
# Static dielectric constant tensor:
#      x y z
#    x 3.362120 0.000000 -0.006240 
#    y 0.000000 3.082810 0.000000 
#    z -0.006240 0.000000 3.632350 
# 
# 
# High freq. dielectric constant tensor:
#      x y z
#    x 1.714610 0.000000 0.003590 
#    y 0.000000 1.715370 0.000000 
#    z 0.003590 0.000000 1.726780 
# 
# From -- ./inp_files/47404.got.cif
#   From: 2010.06.25/outbox.cif.g09.slc.cpg/sg11_24_cif.got.tgz:47404.got - 2010.06.27 23:14:04.
