data_PCOD8069198
_publ_section_title
;
Structure prediction by ZEFSAII (Michael W. Deem and Ramdas Pophale) SiO2 
 PCOD8069198
Probable space group: P 21/M
;
_chemical_formula_sum "Si O2"
_cell_formula_units_Z 24
_cell_length_a 11.071201
_cell_length_b 15.135146
_cell_length_c 9.837617
_cell_angle_alpha 90.000000
_cell_angle_beta 54.753801
_cell_angle_gamma 90.000000
_cell_volume 1346.241879
_symmetry_space_group_name_H-M "P 21/M"
_symmetry_group_IT_number 11
_symmetry_cell_setting 'monoclinic'
loop_
_space_group_symop_operation_xyz
x,y,z
-x,1/2+y,-z
-x,-y,-z
x,1/2-y,z
loop_
_atom_site_type_symbol
_atom_site_label
_atom_site_fract_x
_atom_site_fract_y
_atom_site_fract_z
Si Si1 0.465018 0.508772 0.865518
Si Si2 0.974326 0.077280 0.122324
Si Si3 0.224823 0.439831 0.330761
Si Si4 0.785045 0.149603 0.030106
Si Si5 0.013811 0.558870 0.310638
Si Si6 0.726487 0.650259 0.980754
O O1 0.622648 0.530004 0.692740
O O2 0.500000 0.500000 0.000000
O O3 0.353794 0.588360 0.909622
O O4 0.390042 0.416066 0.869864
O O5 0.117412 0.139299 0.044969
O O6 0.942363 0.028854 0.286462
O O7 0.839279 0.135857 0.151350
O O8 0.000000 0.000000 0.000000
O O9 0.115726 0.396838 0.514587
O O10 0.257515 0.369505 0.190535
O O11 0.149265 0.527632 0.317660
O O12 0.734797 0.250000 0.041598
O O13 0.921740 0.128177 0.839776
O O14 0.669404 0.750000 0.036537
#
# Coordination Sequence:
#
# PCOD8069198 Si02
#       6
#     4   4   4   4   4   4
#     4  10  18  34  48  78 106 135 172 208 262 308
#     4   9  16  33  53  74  99 133 177 214 251 302
#     4   9  18  33  52  75 107 133 167 213 258 311
#     4  11  20  32  55  79 103 134 176 220 254 302
#     4   9  17  34  55  74 100 138 171 209 259 305
#     4  10  18  30  53  77 103 137 176 217 257 304
#
# _framework density 17.827407000000001
#
# number of rings (size 3 to 8) (size 9 to 14) (size 15 to 20)
#    0.000    2.333    6.667    0.500    0.000    3.333 
#    0.000    0.833    0.000    2.000    0.000    0.000 
#    0.000    0.000    0.000    0.000    0.000    0.000 
#
# Total GULP energy -297377.803512 kJ/mol
# GULP energy per Si atom -12390.741813 kJ/mol
# Density = 1.778683 g / cm^3
# Si number density = 17.827407 Si / 1000 Ang^3
#
#
#
# Elastic Constant Matrix: (Units=GPa)
#
#
# Indices 1 2 3 4 5 6 
#
# 1 118.0025 47.4202 34.9617 0.0000 -18.7900 0.0000
# 2 47.4202 131.3915 27.4853 0.0000 -15.8371 0.0000
# 3 34.9617 27.4853 65.1078 0.0000 -15.7541 0.0000
# 4 0.0000 0.0000 0.0000 9.9891 0.0000 3.8338
# 5 -18.7900 -15.8371 -15.7541 0.0000 21.9445 0.0000
# 6 0.0000 0.0000 0.0000 3.8338 0.0000 16.5893
#
#
#
# Elastic Compliance Matrix: (Units=1/GPa)
#
#
# Indices 1 2 3 4 5 6 
#
# 1 0.011519 -0.002744 -0.003776 0.000000 0.005173 0.000000
# 2 -0.002744 0.009339 -0.001702 0.000000 0.003168 0.000000
# 3 -0.003776 -0.001702 0.020605 0.000000 0.010331 0.000000
# 4 0.000000 0.000000 0.000000 0.109852 0.000000 -0.025387
# 5 0.005173 0.003168 0.010331 0.000000 0.059702 0.000000
# 6 0.000000 0.000000 0.000000 -0.025387 0.000000 0.066146
#
#
# Mechanical properties :
#
#
# Convention : Reuss Voigt Hill
#
# Bulk Modulus (GPa) = 39.96923 59.35958 49.66440
# Shear Modulus (GPa) = 16.55912 23.34690 19.95301
#
# Velocity S-wave (km/s) = 3.05102 3.62278 3.34912
# Velocity P-wave (km/s) = 5.90597 7.13221 6.54786
#
# Compressibility (1/GPa) = 0.02501925
#
# Stress axis : x y z
#
# Youngs Moduli (GPa) = 86.80961 107.07532 48.53168
#
# Poissons Ratio (x) = 0.29383 0.18324
# Poissons Ratio (y) = 0.23822 0.08262
# Poissons Ratio (z) = 0.32777 0.18229
#
# Static dielectric constant tensor:
#      x y z
#    x 3.940160 0.000000 -0.125490 
#    y 0.000000 3.185560 0.000000 
#    z -0.125490 0.000000 3.387700 
# 
# 
# High freq. dielectric constant tensor:
#      x y z
#    x 1.702240 0.000000 -0.006400 
#    y 0.000000 1.670320 0.000000 
#    z -0.006400 0.000000 1.652860 
# 
# From -- ./inp_files/17367.got.cif
#   From: 2010.06.25/outbox.cif.g09.slc.cpg/sg11_9_cif.got.tgz:17367.got - 2010.06.27 23:14:04.
