data_PCOD8069197
_publ_section_title
;
Structure prediction by ZEFSAII (Michael W. Deem and Ramdas Pophale) SiO2 
 PCOD8069197
Probable space group: P 21/M
;
_chemical_formula_sum "Si O2"
_cell_formula_units_Z 28
_cell_length_a 15.999143
_cell_length_b 8.847806
_cell_length_c 20.581879
_cell_angle_alpha 90.000000
_cell_angle_beta 151.825855
_cell_angle_gamma 90.000000
_cell_volume 1375.625153
_symmetry_space_group_name_H-M "P 21/M"
_symmetry_group_IT_number 11
_symmetry_cell_setting 'monoclinic'
loop_
_space_group_symop_operation_xyz
x,y,z
-x,1/2+y,-z
-x,-y,-z
x,1/2-y,z
loop_
_atom_site_type_symbol
_atom_site_label
_atom_site_fract_x
_atom_site_fract_y
_atom_site_fract_z
Si Si1 0.780333 0.574794 0.033039
Si Si2 0.913764 0.577200 0.829433
Si Si3 0.517577 0.572391 0.241985
Si Si4 0.102620 0.576774 0.512306
Si Si5 0.674075 0.923056 0.544825
Si Si6 0.627031 0.575019 0.730019
Si Si7 0.978260 0.077765 0.684508
O O1 0.736512 0.750000 0.994568
O O2 0.852730 0.535797 0.154833
O O3 0.922474 0.531553 0.074278
O O4 0.599997 0.481178 0.899938
O O5 0.980160 0.750000 0.868403
O O6 0.755108 0.545312 0.670536
O O7 0.827944 0.546609 0.841674
O O8 0.543835 0.750000 0.257502
O O9 0.707717 0.496428 0.369742
O O10 0.410325 0.526754 0.233090
O O11 0.133821 0.750000 0.551870
O O12 0.000000 0.500000 0.500000
O O13 0.980640 0.561051 0.363939
O O14 0.617460 0.750000 0.495873
O O15 0.505328 0.029879 0.418946
O O16 0.819024 0.964155 0.589749
O O17 0.598556 0.750000 0.728537
O O18 0.919902 0.250000 0.660896
#
# Coordination Sequence:
#
# PCOD8069197 Si02
#       7
#     4   4   4   4   4   4   4
#     4  10  21  39  62  87 118 160 203 245 296 351
#     4   9  20  35  52  80 117 159 204 250 294 345
#     4  12  25  41  61  88 120 158 200 246 299 355
#     4  11  23  42  68  97 125 151 188 239 294 358
#     4  10  18  30  52  82 116 153 199 248 295 348
#     4  11  21  34  53  79 117 160 203 250 299 347
#     4   9  19  37  62  88 118 156 196 239 292 352
#
# _framework density 20.354382999999999
#
# number of rings (size 3 to 8) (size 9 to 14) (size 15 to 20)
#    0.000    1.714    1.429    3.429    0.000    3.429 
#    0.000    0.714    0.000    0.000    0.000    0.000 
#    0.000    0.000    0.000    0.000    0.000    0.000 
#
# Total GULP energy -347190.687002 kJ/mol
# GULP energy per Si atom -12399.667393 kJ/mol
# Density = 2.030806 g / cm^3
# Si number density = 20.354383 Si / 1000 Ang^3
#
#
#
# Elastic Constant Matrix: (Units=GPa)
#
#
# Indices 1 2 3 4 5 6 
#
# 1 108.8636 43.6889 34.9805 0.0000 -3.7765 0.0000
# 2 43.6889 104.6044 38.7666 0.0000 -1.8228 0.0000
# 3 34.9805 38.7666 90.3046 0.0000 -4.8108 0.0000
# 4 0.0000 0.0000 0.0000 34.6148 0.0000 1.8881
# 5 -3.7765 -1.8228 -4.8108 0.0000 5.4744 0.0000
# 6 0.0000 0.0000 0.0000 1.8881 0.0000 30.9031
#
#
#
# Elastic Compliance Matrix: (Units=1/GPa)
#
#
# Indices 1 2 3 4 5 6 
#
# 1 0.011736 -0.003838 -0.002660 0.000000 0.004481 0.000000
# 2 -0.003838 0.012625 -0.004039 0.000000 -0.001993 0.000000
# 3 -0.002660 -0.004039 0.014340 0.000000 0.009422 0.000000
# 4 0.000000 0.000000 0.000000 0.028986 0.000000 -0.001771
# 5 0.004481 -0.001993 0.009422 0.000000 0.193374 0.000000
# 6 0.000000 0.000000 0.000000 -0.001771 0.000000 0.032467
#
#
# Mechanical properties :
#
#
# Convention : Reuss Voigt Hill
#
# Bulk Modulus (GPa) = 56.73132 59.84941 58.29036
# Shear Modulus (GPa) = 15.60168 26.62091 21.11130
#
# Velocity S-wave (km/s) = 2.77158 3.62037 3.22403
# Velocity P-wave (km/s) = 6.17855 6.85154 6.52373
#
# Compressibility (1/GPa) = 0.01762695
#
# Stress axis : x y z
#
# Youngs Moduli (GPa) = 85.20693 79.20806 69.73549
#
# Poissons Ratio (x) = 0.30399 0.18549
# Poissons Ratio (y) = 0.32701 0.28168
# Poissons Ratio (z) = 0.22664 0.31995
#
# Static dielectric constant tensor:
#      x y z
#    x 2.804860 0.000000 -0.527100 
#    y 0.000000 3.764230 0.000000 
#    z -0.527100 0.000000 3.644260 
# 
# 
# High freq. dielectric constant tensor:
#      x y z
#    x 1.775240 0.000000 -0.016300 
#    y 0.000000 1.802290 0.000000 
#    z -0.016300 0.000000 1.794380 
# 
# From -- ./inp_files/65453.got.cif
#   From: 2010.06.25/outbox.cif.g09.slc.cpg/sg11_33_cif.got.tgz:65453.got - 2010.06.27 23:14:04.
