data_PCOD8069828
_publ_section_title
;
Structure prediction by ZEFSAII (Michael W. Deem and Ramdas Pophale) SiO2 
 PCOD8069828
Probable space group: P 21/M
;
_chemical_formula_sum "Si O2"
_cell_formula_units_Z 32
_cell_length_a 11.891336
_cell_length_b 19.440153
_cell_length_c 9.916139
_cell_angle_alpha 90.000000
_cell_angle_beta 51.062003
_cell_angle_gamma 90.000000
_cell_volume 1783.017833
_symmetry_space_group_name_H-M "P 21/M"
_symmetry_group_IT_number 11
_symmetry_cell_setting 'monoclinic'
loop_
_space_group_symop_operation_xyz
x,y,z
-x,1/2+y,-z
-x,-y,-z
x,1/2-y,z
loop_
_atom_site_type_symbol
_atom_site_label
_atom_site_fract_x
_atom_site_fract_y
_atom_site_fract_z
Si Si1 0.946713 0.937406 0.133390
Si Si2 0.953035 0.936619 0.445432
Si Si3 0.631481 0.563769 0.755515
Si Si4 0.798248 0.171268 0.746222
Si Si5 0.532944 0.090884 0.854084
Si Si6 0.812179 0.328218 0.046127
Si Si7 0.633401 0.933587 0.272464
Si Si8 0.566331 0.086214 0.330941
O O1 0.948792 0.958424 0.290194
O O2 0.788288 0.910100 0.210538
O O3 0.045630 0.871853 0.031873
O O4 0.000000 0.000000 0.000000
O O5 0.797357 0.914278 0.617936
O O6 0.060257 0.873417 0.392828
O O7 0.000000 0.000000 0.500000
O O8 0.612961 0.481511 0.768749
O O9 0.557033 0.599848 0.684902
O O10 0.561114 0.594809 0.941081
O O11 0.833565 0.250000 0.682831
O O12 0.660011 0.147254 0.763382
O O13 0.758814 0.162360 0.932980
O O14 0.415321 0.105836 0.826143
O O15 0.850080 0.250000 0.052226
O O16 0.683290 0.353062 0.240247
O O17 0.503210 0.916646 0.470699
O O18 0.647719 0.015080 0.234331
#
# Coordination Sequence:
#
# PCOD8069828 Si02
#       8
#     4   4   4   4   4   4   4   4
#     4  11  22  36  57  87 119 152 188 241 294 342
#     4  11  22  35  59  88 115 150 195 245 286 339
#     4  10  19  33  56  85 110 138 194 236 277 321
#     4  10  21  39  58  83 116 153 191 235 292 348
#     4  10  20  33  57  83 110 145 182 237 282 341
#     4  10  21  38  60  83 113 155 195 230 284 352
#     4  10  21  33  56  86 114 142 182 239 291 329
#     4  10  18  35  55  83 114 143 186 235 277 334
#
# _framework density 17.947099000000001
#
# number of rings (size 3 to 8) (size 9 to 14) (size 15 to 20)
#    0.000    1.750    5.000    0.000    1.750    0.000 
#    0.000    3.125    0.000    0.000    0.000    0.000 
#    0.000    0.000    0.000    0.000    0.000    0.000 
#
# Total GULP energy -396795.514093 kJ/mol
# GULP energy per Si atom -12399.859815 kJ/mol
# Density = 1.790625 g / cm^3
# Si number density = 17.947099 Si / 1000 Ang^3
#
#
#
# Elastic Constant Matrix: (Units=GPa)
#
#
# Indices 1 2 3 4 5 6 
#
# 1 125.5507 51.7522 31.9905 0.0000 -9.1105 0.0000
# 2 51.7522 101.6635 39.6153 0.0000 -9.8247 0.0000
# 3 31.9905 39.6153 65.5903 0.0000 -11.4217 0.0000
# 4 0.0000 0.0000 0.0000 21.5522 0.0000 -4.9422
# 5 -9.1105 -9.8247 -11.4217 0.0000 35.3791 0.0000
# 6 0.0000 0.0000 0.0000 -4.9422 0.0000 23.8299
#
#
#
# Elastic Compliance Matrix: (Units=1/GPa)
#
#
# Indices 1 2 3 4 5 6 
#
# 1 0.010389 -0.004307 -0.002340 0.000000 0.000724 0.000000
# 2 -0.004307 0.014692 -0.006628 0.000000 0.000831 0.000000
# 3 -0.002340 -0.006628 0.021155 0.000000 0.004386 0.000000
# 4 0.000000 0.000000 0.000000 0.048716 0.000000 0.010103
# 5 0.000724 0.000831 0.004386 0.000000 0.030099 0.000000
# 6 0.000000 0.000000 0.000000 0.010103 0.000000 0.044060
#
#
# Mechanical properties :
#
#
# Convention : Reuss Voigt Hill
#
# Bulk Modulus (GPa) = 50.79858 59.94672 55.37265
# Shear Modulus (GPa) = 24.72543 27.44867 26.08705
#
# Velocity S-wave (km/s) = 3.71574 3.91502 3.81668
# Velocity P-wave (km/s) = 6.83923 7.34241 7.09528
#
# Compressibility (1/GPa) = 0.01968559
#
# Stress axis : x y z
#
# Youngs Moduli (GPa) = 96.25678 68.06436 47.27118
#
# Poissons Ratio (x) = 0.29314 0.11060
# Poissons Ratio (y) = 0.41456 0.31333
# Poissons Ratio (z) = 0.22521 0.45116
#
# Static dielectric constant tensor:
#      x y z
#    x 1.296960 0.000000 2.106140 
#    y 0.000000 3.062670 0.000000 
#    z 2.106140 0.000000 1.290190 
# 
# 
# High freq. dielectric constant tensor:
#      x y z
#    x 1.705960 0.000000 -0.006040 
#    y 0.000000 1.661740 0.000000 
#    z -0.006040 0.000000 1.699630 
# 
# From -- ./inp_files/19339.got.cif
#   From: 2010.06.25/outbox.cif.g09.slc.cpg/sg11_10_cif.got.tgz:19339.got - 2010.06.27 23:14:04.
