data_PCOD8069267
_publ_section_title
;
Structure prediction by ZEFSAII (Michael W. Deem and Ramdas Pophale) SiO2 
 PCOD8069267
Probable space group: P 21/M
;
_chemical_formula_sum "Si O2"
_cell_formula_units_Z 24
_cell_length_a 18.310756
_cell_length_b 8.531412
_cell_length_c 24.625700
_cell_angle_alpha 90.000000
_cell_angle_beta 19.354620
_cell_angle_gamma 90.000000
_cell_volume 1274.930710
_symmetry_space_group_name_H-M "P 21/M"
_symmetry_group_IT_number 11
_symmetry_cell_setting 'monoclinic'
loop_
_space_group_symop_operation_xyz
x,y,z
-x,1/2+y,-z
-x,-y,-z
x,1/2-y,z
loop_
_atom_site_type_symbol
_atom_site_label
_atom_site_fract_x
_atom_site_fract_y
_atom_site_fract_z
Si Si1 0.255304 0.433261 0.562274
Si Si2 0.842286 0.434344 0.656265
Si Si3 0.011383 0.435518 0.150606
Si Si4 0.854002 0.434318 0.475672
Si Si5 0.497023 0.565601 0.189589
Si Si6 0.632604 0.935298 0.355970
O O1 0.245599 0.250000 0.580666
O O2 0.100901 0.518913 0.714088
O O3 0.167945 0.471755 0.564308
O O4 0.509483 0.493847 0.389498
O O5 0.877000 0.250000 0.639995
O O6 0.596937 0.472636 0.805256
O O7 0.000000 0.500000 0.500000
O O8 0.904901 0.523264 0.668213
O O9 0.011760 0.250000 0.144995
O O10 0.883955 0.506781 0.187493
O O11 0.258908 0.506156 0.975914
O O12 0.839034 0.250000 0.475034
O O13 0.663905 0.497417 0.649921
O O14 0.507765 0.750000 0.189556
O O15 0.624638 0.750000 0.358666
O O16 0.500000 0.000000 0.500000
#
# Coordination Sequence:
#
# PCOD8069267 Si02
#       6
#     4   4   4   4   4   4
#     4  11  21  34  51  75 101 131 167 206 246 295
#     4   9  16  30  50  74 100 132 168 204 242 293
#     4  10  18  33  54  76 100 131 164 203 248 294
#     4  10  19  34  53  76 101 131 167 208 250 294
#     4   8  17  32  53  76 101 129 164 204 247 293
#     4  10  18  31  50  73  98 130 166 203 242 293
#
# _framework density 18.824553000000002
#
# number of rings (size 3 to 8) (size 9 to 14) (size 15 to 20)
#    0.000    2.333    0.000    7.500    0.000    0.000 
#    0.000   11.667    0.000    0.000    0.000    0.000 
#    0.000    0.000    0.000    0.000    0.000    0.000 
#
# Total GULP energy -297413.156861 kJ/mol
# GULP energy per Si atom -12392.214869 kJ/mol
# Density = 1.878171 g / cm^3
# Si number density = 18.824553 Si / 1000 Ang^3
#
#
#
# Elastic Constant Matrix: (Units=GPa)
#
#
# Indices 1 2 3 4 5 6 
#
# 1 45.6826 5.3558 -13.6040 0.0000 -1.2787 0.0000
# 2 5.3558 66.4089 1.4678 0.0000 -7.3087 0.0000
# 3 -13.6040 1.4678 41.1242 0.0000 -12.6641 0.0000
# 4 0.0000 0.0000 0.0000 18.0524 0.0000 -6.1035
# 5 -1.2787 -7.3087 -12.6641 0.0000 23.6406 0.0000
# 6 0.0000 0.0000 0.0000 -6.1035 0.0000 31.9977
#
#
#
# Elastic Compliance Matrix: (Units=1/GPa)
#
#
# Indices 1 2 3 4 5 6 
#
# 1 0.025365 -0.001563 0.010443 0.000000 0.006483 0.000000
# 2 -0.001563 0.015727 0.000471 0.000000 0.005030 0.000000
# 3 0.010443 0.000471 0.033499 0.000000 0.018656 0.000000
# 4 0.000000 0.000000 0.000000 0.059213 0.000000 0.011295
# 5 0.006483 0.005030 0.018656 0.000000 0.054199 0.000000
# 6 0.000000 0.000000 0.000000 0.011295 0.000000 0.033407
#
#
# Mechanical properties :
#
#
# Convention : Reuss Voigt Hill
#
# Bulk Modulus (GPa) = 10.71896 15.51720 13.11808
# Shear Modulus (GPa) = 21.38517 25.40457 23.39487
#
# Velocity S-wave (km/s) = 3.37415 3.67760 3.52914
# Velocity P-wave (km/s) = 4.57016 5.12776 4.85697
#
# Compressibility (1/GPa) = 0.09329263
#
# Stress axis : x y z
#
# Youngs Moduli (GPa) = 39.42485 63.58314 29.85133
#
# Poissons Ratio (x) = 0.09938 -0.31174
# Poissons Ratio (y) = 0.06162 -0.01405
# Poissons Ratio (z) = -0.41171 -0.02992
#
# Static dielectric constant tensor:
#      x y z
#    x 4.052310 0.000000 -0.711860 
#    y 0.000000 3.461760 0.000000 
#    z -0.711860 0.000000 3.655070 
# 
# 
# High freq. dielectric constant tensor:
#      x y z
#    x 1.739830 0.000000 -0.036540 
#    y 0.000000 1.732820 0.000000 
#    z -0.036540 0.000000 1.696830 
# 
# From -- ./inp_files/61896.got.cif
#   From: 2010.06.25/outbox.cif.g09.slc.cpg/sg11_31_cif.got.tgz:61896.got - 2010.06.27 23:14:04.
