data_PCOD8069314
_publ_section_title
;
Structure prediction by ZEFSAII (Michael W. Deem and Ramdas Pophale) SiO2 
 PCOD8069314
Probable space group: P 21/M
;
_chemical_formula_sum "Si O2"
_cell_formula_units_Z 28
_cell_length_a 9.761087
_cell_length_b 13.273237
_cell_length_c 16.030843
_cell_angle_alpha 90.000000
_cell_angle_beta 133.222177
_cell_angle_gamma 90.000000
_cell_volume 1513.499616
_symmetry_space_group_name_H-M "P 21/M"
_symmetry_group_IT_number 11
_symmetry_cell_setting 'monoclinic'
loop_
_space_group_symop_operation_xyz
x,y,z
-x,1/2+y,-z
-x,-y,-z
x,1/2-y,z
loop_
_atom_site_type_symbol
_atom_site_label
_atom_site_fract_x
_atom_site_fract_y
_atom_site_fract_z
Si Si1 0.234377 0.365653 0.009391
Si Si2 0.981044 0.631268 0.745826
Si Si3 0.855848 0.136586 0.771074
Si Si4 0.211628 0.440282 0.175751
Si Si5 0.647505 0.131225 0.184740
Si Si6 0.710405 0.476849 0.559910
Si Si7 0.621988 0.366154 0.361600
O O1 0.258261 0.250000 0.047470
O O2 0.151595 0.425226 0.055035
O O3 0.440495 0.408866 0.069698
O O4 0.083165 0.376648 0.872470
O O5 0.960162 0.750000 0.724016
O O6 0.950583 0.599702 0.829300
O O7 0.829451 0.578784 0.621699
O O8 0.188278 0.590237 0.806754
O O9 0.794645 0.250000 0.769184
O O10 0.797425 0.112187 0.652610
O O11 0.753991 0.059285 0.792170
O O12 0.397855 0.377602 0.274592
O O13 0.647130 0.250000 0.178211
O O14 0.688610 0.098968 0.297566
O O15 0.500000 0.500000 0.500000
O O16 0.723103 0.438725 0.470336
O O17 0.673761 0.250000 0.401357
#
# Coordination Sequence:
#
# PCOD8069314 Si02
#       7
#     4   4   4   4   4   4   4
#     4   9  17  32  54  77 103 134 165 205 251 304
#     4  10  19  32  51  78 102 127 167 214 252 292
#     4  10  20  32  49  76 105 133 167 210 257 299
#     4  10  18  31  51  78 100 129 170 209 248 299
#     4   8  17  32  52  76  99 129 168 205 250 298
#     4  11  21  33  48  75 103 132 173 207 255 298
#     4  10  18  33  53  72 100 135 169 207 248 301
#
# _framework density 18.500171000000002
#
# number of rings (size 3 to 8) (size 9 to 14) (size 15 to 20)
#    0.000    2.286    2.857    3.000    0.000    1.143 
#    0.000    2.857    0.000    0.000    0.000   16.000 
#    0.000    0.000    0.000    0.000    0.000    0.000 
#
# Total GULP energy -347049.702337 kJ/mol
# GULP energy per Si atom -12394.632226 kJ/mol
# Density = 1.845806 g / cm^3
# Si number density = 18.500171 Si / 1000 Ang^3
#
#
#
# Elastic Constant Matrix: (Units=GPa)
#
#
# Indices 1 2 3 4 5 6 
#
# 1 125.9324 21.3177 38.6854 0.0000 7.6078 0.0000
# 2 21.3177 81.3539 15.3563 0.0000 4.7143 0.0000
# 3 38.6854 15.3563 93.1007 0.0000 7.5072 0.0000
# 4 0.0000 0.0000 0.0000 26.4647 0.0000 1.0844
# 5 7.6078 4.7143 7.5072 0.0000 18.2312 0.0000
# 6 0.0000 0.0000 0.0000 1.0844 0.0000 18.6795
#
#
#
# Elastic Compliance Matrix: (Units=1/GPa)
#
#
# Indices 1 2 3 4 5 6 
#
# 1 0.009417 -0.001694 -0.003467 0.000000 -0.002064 0.000000
# 2 -0.001694 0.013103 -0.001284 0.000000 -0.002153 0.000000
# 3 -0.003467 -0.001284 0.012671 0.000000 -0.003439 0.000000
# 4 0.000000 0.000000 0.000000 0.037876 0.000000 -0.002199
# 5 -0.002064 -0.002153 -0.003439 0.000000 0.057685 0.000000
# 6 0.000000 0.000000 0.000000 -0.002199 0.000000 0.053662
#
#
# Mechanical properties :
#
#
# Convention : Reuss Voigt Hill
#
# Bulk Modulus (GPa) = 44.84028 50.12287 47.48157
# Shear Modulus (GPa) = 24.42147 27.67692 26.04919
#
# Velocity S-wave (km/s) = 3.63721 3.87206 3.75647
# Velocity P-wave (km/s) = 6.47530 6.86604 6.67353
#
# Compressibility (1/GPa) = 0.02230138
#
# Stress axis : x y z
#
# Youngs Moduli (GPa) = 106.18775 76.31923 78.92131
#
# Poissons Ratio (x) = 0.12925 0.27364
# Poissons Ratio (y) = 0.17984 0.10133
# Poissons Ratio (z) = 0.36819 0.09799
#
# Static dielectric constant tensor:
#      x y z
#    x 3.547270 0.000000 0.116740 
#    y 0.000000 3.423370 0.000000 
#    z 0.116740 0.000000 3.493610 
# 
# 
# High freq. dielectric constant tensor:
#      x y z
#    x 1.698160 0.000000 0.004760 
#    y 0.000000 1.710880 0.000000 
#    z 0.004760 0.000000 1.718220 
# 
# From -- ./inp_files/39452.got.cif
#   From: 2010.06.25/outbox.cif.g09.slc.cpg/sg11_20_cif.got.tgz:39452.got - 2010.06.27 23:14:04.
