data_PCOD8069609
_publ_section_title
;
Structure prediction by ZEFSAII (Michael W. Deem and Ramdas Pophale) SiO2 
 PCOD8069609
Probable space group: P 21/M
;
_chemical_formula_sum "Si O2"
_cell_formula_units_Z 32
_cell_length_a 14.254556
_cell_length_b 8.760036
_cell_length_c 15.427896
_cell_angle_alpha 90.000000
_cell_angle_beta 87.405923
_cell_angle_gamma 90.000000
_cell_volume 1924.513750
_symmetry_space_group_name_H-M "P 21/M"
_symmetry_group_IT_number 11
_symmetry_cell_setting 'monoclinic'
loop_
_space_group_symop_operation_xyz
x,y,z
-x,1/2+y,-z
-x,-y,-z
x,1/2-y,z
loop_
_atom_site_type_symbol
_atom_site_label
_atom_site_fract_x
_atom_site_fract_y
_atom_site_fract_z
Si Si1 0.094673 0.427160 0.402713
Si Si2 0.716758 0.568628 0.324781
Si Si3 0.092370 0.429623 0.599133
Si Si4 0.630464 0.068877 0.164514
Si Si5 0.417220 0.428761 0.193432
Si Si6 0.699036 0.929831 0.640156
Si Si7 0.398464 0.930755 0.518305
Si Si8 0.397902 0.070433 0.005761
O O1 0.071433 0.250000 0.405433
O O2 0.106482 0.489454 0.500379
O O3 0.190748 0.461301 0.346910
O O4 0.006689 0.508500 0.359371
O O5 0.706878 0.750000 0.332462
O O6 0.820601 0.511226 0.347217
O O7 0.700390 0.512065 0.228044
O O8 0.639502 0.491096 0.388878
O O9 0.089947 0.250000 0.602435
O O10 0.639345 0.250000 0.170698
O O11 0.524140 0.009110 0.187623
O O12 0.662107 0.013715 0.066622
O O13 0.423775 0.250000 0.207666
O O14 0.358795 0.498495 0.276037
O O15 0.361456 0.462872 0.105479
O O16 0.681109 0.750000 0.626092
O O17 0.670048 0.018005 0.555304
O O18 0.405860 0.750000 0.521786
O O19 0.500000 0.000000 0.500000
O O20 0.401466 0.250000 0.986539
O O21 0.500000 0.000000 0.000000
#
# Coordination Sequence:
#
# PCOD8069609 Si02
#       8
#     4   4   4   4   4   4   4   4
#     4   9  17  30  49  70  92 122 157 198 245 288
#     4  11  21  35  51  70  95 127 164 203 244 287
#     4   9  18  32  48  68  93 122 157 199 244 289
#     4  10  19  31  47  72  99 129 163 197 241 292
#     4   8  16  29  48  69  94 125 159 195 234 281
#     4  10  18  33  51  70  96 126 162 203 241 283
#     4  12  24  35  47  66  96 134 168 199 233 281
#     4   9  16  29  47  69  94 126 162 201 244 283
#
# _framework density 16.627578
#
# number of rings (size 3 to 8) (size 9 to 14) (size 15 to 20)
#    0.000    2.250    1.250    3.750    0.000    2.500 
#    0.000    3.125    0.000    0.000    0.000    0.875 
#    0.000    0.000    0.000    0.000    0.000    0.000 
#
# Total GULP energy -396666.842042 kJ/mol
# GULP energy per Si atom -12395.838814 kJ/mol
# Density = 1.658973 g / cm^3
# Si number density = 16.627578 Si / 1000 Ang^3
#
#
#
# Elastic Constant Matrix: (Units=GPa)
#
#
# Indices 1 2 3 4 5 6 
#
# 1 77.3928 24.0792 25.6828 0.0000 20.6438 0.0000
# 2 24.0792 62.2249 23.3203 0.0000 9.0445 0.0000
# 3 25.6828 23.3203 86.8575 0.0000 18.0551 0.0000
# 4 0.0000 0.0000 0.0000 24.1951 0.0000 3.6710
# 5 20.6438 9.0445 18.0551 0.0000 19.8360 0.0000
# 6 0.0000 0.0000 0.0000 3.6710 0.0000 23.6705
#
#
#
# Elastic Compliance Matrix: (Units=1/GPa)
#
#
# Indices 1 2 3 4 5 6 
#
# 1 0.019207 -0.004617 -0.000891 0.000000 -0.017074 0.000000
# 2 -0.004617 0.019335 -0.003691 0.000000 -0.000652 0.000000
# 3 -0.000891 -0.003691 0.015078 0.000000 -0.011114 0.000000
# 4 0.000000 0.000000 0.000000 0.042327 0.000000 -0.006564
# 5 -0.017074 -0.000652 -0.011114 0.000000 0.078596 0.000000
# 6 0.000000 0.000000 0.000000 -0.006564 0.000000 0.043265
#
#
# Mechanical properties :
#
#
# Convention : Reuss Voigt Hill
#
# Bulk Modulus (GPa) = 28.39006 41.40442 34.89724
# Shear Modulus (GPa) = 20.16568 23.76652 21.96610
#
# Velocity S-wave (km/s) = 3.48628 3.78477 3.63859
# Velocity P-wave (km/s) = 5.77206 6.63735 6.21977
#
# Compressibility (1/GPa) = 0.03522360
#
# Stress axis : x y z
#
# Youngs Moduli (GPa) = 52.06311 51.71885 66.32318
#
# Poissons Ratio (x) = 0.23880 0.05907
# Poissons Ratio (y) = 0.24039 0.24477
# Poissons Ratio (z) = 0.04637 0.19087
#
# Static dielectric constant tensor:
#      x y z
#    x 3.145660 0.000000 0.027600 
#    y 0.000000 3.107920 0.000000 
#    z 0.027600 0.000000 3.444720 
# 
# 
# High freq. dielectric constant tensor:
#      x y z
#    x 1.617910 0.000000 0.008110 
#    y 0.000000 1.637690 0.000000 
#    z 0.008110 0.000000 1.631530 
# 
# From -- ./inp_files/51387.got.cif
#   From: 2010.06.25/outbox.cif.g09.slc.cpg/sg11_26_cif.got.tgz:51387.got - 2010.06.27 23:14:04.
