data_PCOD8069336
_publ_section_title
;
Structure prediction by ZEFSAII (Michael W. Deem and Ramdas Pophale) SiO2 
 PCOD8069336
Probable space group: P 21/M
;
_chemical_formula_sum "Si O2"
_cell_formula_units_Z 28
_cell_length_a 11.639001
_cell_length_b 8.785872
_cell_length_c 18.766800
_cell_angle_alpha 90.000000
_cell_angle_beta 125.816903
_cell_angle_gamma 90.000000
_cell_volume 1556.156953
_symmetry_space_group_name_H-M "P 21/M"
_symmetry_group_IT_number 11
_symmetry_cell_setting 'monoclinic'
loop_
_space_group_symop_operation_xyz
x,y,z
-x,1/2+y,-z
-x,-y,-z
x,1/2-y,z
loop_
_atom_site_type_symbol
_atom_site_label
_atom_site_fract_x
_atom_site_fract_y
_atom_site_fract_z
Si Si1 0.101922 0.425632 0.980789
Si Si2 0.196428 0.071959 0.340563
Si Si3 0.098872 0.573649 0.830525
Si Si4 0.591629 0.428555 0.095694
Si Si5 0.415168 0.570206 0.311267
Si Si6 0.612112 0.431288 0.485898
Si Si7 0.598157 0.573396 0.845054
O O1 0.067997 0.250000 0.969516
O O2 0.064691 0.485529 0.889746
O O3 0.263687 0.461651 0.058144
O O4 0.000000 0.500000 0.000000
O O5 0.233851 0.250000 0.356307
O O6 0.029287 0.042971 0.270585
O O7 0.282684 0.999195 0.306147
O O8 0.236676 0.993661 0.431058
O O9 0.109849 0.750000 0.854346
O O10 0.245530 0.515468 0.848872
O O11 0.578237 0.250000 0.080185
O O12 0.533739 0.473595 0.152769
O O13 0.500000 0.500000 0.000000
O O14 0.417609 0.750000 0.324265
O O15 0.564986 0.496914 0.392026
O O16 0.399789 0.532973 0.222878
O O17 0.500000 0.500000 0.500000
O O18 0.611642 0.250000 0.484664
O O19 0.592040 0.750000 0.819242
#
# Coordination Sequence:
#
# PCOD8069336 Si02
#       7
#     4   4   4   4   4   4   4
#     4  11  22  34  50  74 105 140 172 212 261 311
#     4  10  19  33  52  78 110 140 170 210 259 314
#     4  10  21  35  54  77 104 137 174 217 262 308
#     4  10  20  37  57  76 100 135 180 223 263 308
#     4  11  21  33  52  79 107 138 174 214 258 311
#     4  10  18  31  52  77 106 139 171 209 255 311
#     4  10  21  36  52  73 103 138 174 216 263 308
#
# _framework density 17.993044000000001
#
# number of rings (size 3 to 8) (size 9 to 14) (size 15 to 20)
#    0.000    1.714    1.429    6.000    0.000    6.286 
#    0.000    0.000    0.000    0.857    0.000    0.000 
#    0.000    0.000    0.000    0.000    0.000    0.000 
#
# Total GULP energy -347188.466242 kJ/mol
# GULP energy per Si atom -12399.588080 kJ/mol
# Density = 1.795209 g / cm^3
# Si number density = 17.993044 Si / 1000 Ang^3
#
#
#
# Elastic Constant Matrix: (Units=GPa)
#
#
# Indices 1 2 3 4 5 6 
#
# 1 75.7207 25.5446 13.9583 0.0000 22.8296 0.0000
# 2 25.5446 102.2491 43.3510 0.0000 12.2508 0.0000
# 3 13.9583 43.3510 80.9983 0.0000 22.9432 0.0000
# 4 0.0000 0.0000 0.0000 34.8635 0.0000 -2.5412
# 5 22.8296 12.2508 22.9432 0.0000 22.1760 0.0000
# 6 0.0000 0.0000 0.0000 -2.5412 0.0000 19.3467
#
#
#
# Elastic Compliance Matrix: (Units=1/GPa)
#
#
# Indices 1 2 3 4 5 6 
#
# 1 0.021533 -0.004933 0.006276 0.000000 -0.025935 0.000000
# 2 -0.004933 0.013781 -0.008215 0.000000 0.005964 0.000000
# 3 0.006276 -0.008215 0.022924 0.000000 -0.025639 0.000000
# 4 0.000000 0.000000 0.000000 0.028961 0.000000 0.003804
# 5 -0.025935 0.005964 -0.025639 0.000000 0.095024 0.000000
# 6 0.000000 0.000000 0.000000 0.003804 0.000000 0.052188
#
#
# Mechanical properties :
#
#
# Convention : Reuss Voigt Hill
#
# Bulk Modulus (GPa) = 22.47541 47.18623 34.83082
# Shear Modulus (GPa) = 19.01244 27.01820 23.01532
#
# Velocity S-wave (km/s) = 3.25415 3.87924 3.58036
# Velocity P-wave (km/s) = 5.16116 6.80781 6.04086
#
# Compressibility (1/GPa) = 0.04449306
#
# Stress axis : x y z
#
# Youngs Moduli (GPa) = 46.44003 72.56516 43.62327
#
# Poissons Ratio (x) = 0.35796 -0.27377
# Poissons Ratio (y) = 0.22908 0.35836
# Poissons Ratio (z) = -0.29144 0.59612
#
# Static dielectric constant tensor:
#      x y z
#    x 3.284320 0.000000 0.214970 
#    y 0.000000 3.397080 0.000000 
#    z 0.214970 0.000000 3.808230 
# 
# 
# High freq. dielectric constant tensor:
#      x y z
#    x 1.669660 0.000000 0.007780 
#    y 0.000000 1.705930 0.000000 
#    z 0.007780 0.000000 1.706750 
# 
# From -- ./inp_files/54600.got.cif
#   From: 2010.06.25/outbox.cif.g09.slc.cpg/sg11_28_cif.got.tgz:54600.got - 2010.06.27 23:14:04.
