data_PCOD8069274
_publ_section_title
;
Structure prediction by ZEFSAII (Michael W. Deem and Ramdas Pophale) SiO2 
 PCOD8069274
Probable space group: P 21/M
;
_chemical_formula_sum "Si O2"
_cell_formula_units_Z 24
_cell_length_a 15.935484
_cell_length_b 8.419129
_cell_length_c 23.666375
_cell_angle_alpha 90.000000
_cell_angle_beta 23.786793
_cell_angle_gamma 90.000000
_cell_volume 1280.646920
_symmetry_space_group_name_H-M "P 21/M"
_symmetry_group_IT_number 11
_symmetry_cell_setting 'monoclinic'
loop_
_space_group_symop_operation_xyz
x,y,z
-x,1/2+y,-z
-x,-y,-z
x,1/2-y,z
loop_
_atom_site_type_symbol
_atom_site_label
_atom_site_fract_x
_atom_site_fract_y
_atom_site_fract_z
Si Si1 0.269359 0.932872 0.279562
Si Si2 0.664554 0.561900 0.353628
Si Si3 0.364926 0.064632 0.454126
Si Si4 0.953532 0.065101 0.259734
Si Si5 0.166550 0.566021 0.468888
Si Si6 0.401165 0.934221 0.004118
O O1 0.327213 0.750000 0.233205
O O2 0.270314 0.977383 0.345093
O O3 0.042842 0.965329 0.392457
O O4 0.439383 0.043428 0.145454
O O5 0.500000 0.500000 0.500000
O O6 0.673761 0.750000 0.346277
O O7 0.588633 0.495489 0.339929
O O8 0.886338 0.492541 0.237936
O O9 0.376691 0.250000 0.435369
O O10 0.176609 0.028693 0.612886
O O11 0.330443 0.975349 0.416390
O O12 0.905166 0.250000 0.297163
O O13 0.195295 0.033101 0.118037
O O14 0.104572 0.750000 0.508995
O O15 0.345500 0.750000 0.045340
O O16 0.500000 0.000000 0.000000
#
# Coordination Sequence:
#
# PCOD8069274 Si02
#       6
#     4   4   4   4   4   4
#     4  10  21  37  55  77 105 137 174 214 259 308
#     4  10  18  31  50  75 105 136 172 213 260 307
#     4  11  20  32  52  79 108 138 175 215 258 306
#     4  11  21  35  53  76 107 140 174 213 261 310
#     4  10  20  35  55  78 105 137 173 215 259 305
#     4  12  24  38  55  77 106 139 175 212 256 309
#
# _framework density 18.740528000000001
#
# number of rings (size 3 to 8) (size 9 to 14) (size 15 to 20)
#    0.000    1.333    0.000   10.000    0.000    2.000 
#    0.000    0.000    0.000    1.000    0.000    0.000 
#    0.000    0.000    0.000    0.000    0.000    0.000 
#
# Total GULP energy -297671.177521 kJ/mol
# GULP energy per Si atom -12402.965730 kJ/mol
# Density = 1.869787 g / cm^3
# Si number density = 18.740528 Si / 1000 Ang^3
#
#
#
# Elastic Constant Matrix: (Units=GPa)
#
#
# Indices 1 2 3 4 5 6 
#
# 1 145.2454 17.1464 41.8376 0.0000 -22.1141 0.0000
# 2 17.1464 75.0602 12.1853 0.0000 1.7395 0.0000
# 3 41.8376 12.1853 64.6243 0.0000 -9.3651 0.0000
# 4 0.0000 0.0000 0.0000 27.7838 0.0000 -4.2668
# 5 -22.1141 1.7395 -9.3651 0.0000 26.7104 0.0000
# 6 0.0000 0.0000 0.0000 -4.2668 0.0000 33.9214
#
#
#
# Elastic Compliance Matrix: (Units=1/GPa)
#
#
# Indices 1 2 3 4 5 6 
#
# 1 0.009418 -0.001496 -0.004921 0.000000 0.006170 0.000000
# 2 -0.001496 0.014073 -0.002105 0.000000 -0.002893 0.000000
# 3 -0.004921 -0.002105 0.019476 0.000000 0.002891 0.000000
# 4 0.000000 0.000000 0.000000 0.036701 0.000000 0.004616
# 5 0.006170 -0.002893 0.002891 0.000000 0.043749 0.000000
# 6 0.000000 0.000000 0.000000 0.004616 0.000000 0.030061
#
#
# Mechanical properties :
#
#
# Convention : Reuss Voigt Hill
#
# Bulk Modulus (GPa) = 38.57366 47.47427 43.02396
# Shear Modulus (GPa) = 27.90771 31.93381 29.92076
#
# Velocity S-wave (km/s) = 3.86315 4.13243 4.00006
# Velocity P-wave (km/s) = 6.36603 6.93950 6.65894
#
# Compressibility (1/GPa) = 0.02592443
#
# Stress axis : x y z
#
# Youngs Moduli (GPa) = 106.17548 71.05826 51.34548
#
# Poissons Ratio (x) = 0.10627 0.25269
# Poissons Ratio (y) = 0.15879 0.10806
# Poissons Ratio (z) = 0.52253 0.14954
#
# Static dielectric constant tensor:
#      x y z
#    x 4.158000 0.000000 -0.335870 
#    y 0.000000 3.575680 0.000000 
#    z -0.335870 0.000000 3.223280 
# 
# 
# High freq. dielectric constant tensor:
#      x y z
#    x 1.740890 0.000000 -0.018490 
#    y 0.000000 1.749210 0.000000 
#    z -0.018490 0.000000 1.688420 
# 
# From -- ./inp_files/71833.got.cif
#   From: 2010.06.25/outbox.cif.g09.slc.cpg/sg11_36_cif.got.tgz:71833.got - 2010.06.27 23:14:04.
