data_PCOD8069914
_publ_section_title
;
Structure prediction by ZEFSAII (Michael W. Deem and Ramdas Pophale) SiO2 
 PCOD8069914
Probable space group: P 21/M
;
_chemical_formula_sum "Si O2"
_cell_formula_units_Z 28
_cell_length_a 13.720082
_cell_length_b 8.946314
_cell_length_c 14.394820
_cell_angle_alpha 90.000000
_cell_angle_beta 101.751911
_cell_angle_gamma 90.000000
_cell_volume 1729.843974
_symmetry_space_group_name_H-M "P 21/M"
_symmetry_group_IT_number 11
_symmetry_cell_setting 'monoclinic'
loop_
_space_group_symop_operation_xyz
x,y,z
-x,1/2+y,-z
-x,-y,-z
x,1/2-y,z
loop_
_atom_site_type_symbol
_atom_site_label
_atom_site_fract_x
_atom_site_fract_y
_atom_site_fract_z
Si Si1 0.230905 0.422783 0.058598
Si Si2 0.392750 0.570942 0.971090
Si Si3 0.915853 0.417969 0.098055
Si Si4 0.080384 0.574863 0.391982
Si Si5 0.122839 0.422835 0.218592
Si Si6 0.125958 0.926885 0.604306
Si Si7 0.254704 0.915932 0.787322
O O1 0.251195 0.250000 0.038961
O O2 0.215261 0.446431 0.166081
O O3 0.325318 0.520326 0.044918
O O4 0.129315 0.473218 0.988469
O O5 0.397868 0.750000 0.972677
O O6 0.342324 0.506881 0.865419
O O7 0.500000 0.500000 0.000000
O O8 0.925611 0.250000 0.058877
O O9 0.845945 0.415304 0.173705
O O10 0.022425 0.482308 0.149743
O O11 0.066427 0.750000 0.378238
O O12 0.143600 0.512719 0.317493
O O13 0.140035 0.534830 0.498382
O O14 0.972047 0.502389 0.373561
O O15 0.109264 0.250000 0.242058
O O16 0.114431 0.750000 0.618394
O O17 0.222946 0.988003 0.681365
O O18 0.293898 0.750000 0.775309
#
# Coordination Sequence:
#
# PCOD8069914 Si02
#       7
#     4   4   4   4   4   4   4
#     4  10  20  31  46  68  91 120 156 193 230 275
#     4  10  20  35  53  72  93 118 148 188 236 284
#     4   9  16  28  44  62  89 128 160 187 224 268
#     4  10  19  26  41  67  92 123 163 200 226 255
#     4  10  19  31  44  60  92 133 161 185 228 275
#     4   9  16  30  45  61  91 127 159 191 230 274
#     4   8  14  27  48  66  87 122 155 181 224 280
#
# _framework density 16.186430000000001
#
# number of rings (size 3 to 8) (size 9 to 14) (size 15 to 20)
#    0.000    2.571    1.429    2.571    0.000    2.286 
#    0.000    0.714    0.000    0.000    0.000    1.000 
#    0.000    0.000    0.000    0.000    0.000    0.000 
#
# Total GULP energy -346966.974411 kJ/mol
# GULP energy per Si atom -12391.677658 kJ/mol
# Density = 1.614959 g / cm^3
# Si number density = 16.186430 Si / 1000 Ang^3
#
#
#
# Elastic Constant Matrix: (Units=GPa)
#
#
# Indices 1 2 3 4 5 6 
#
# 1 74.9952 26.5415 57.0688 0.0000 11.6334 0.0000
# 2 26.5415 56.0389 42.5616 0.0000 0.3256 0.0000
# 3 57.0688 42.5616 127.6197 0.0000 4.0617 0.0000
# 4 0.0000 0.0000 0.0000 24.9487 0.0000 -2.4409
# 5 11.6334 0.3256 4.0617 0.0000 18.7365 0.0000
# 6 0.0000 0.0000 0.0000 -2.4409 0.0000 20.9406
#
#
#
# Elastic Compliance Matrix: (Units=1/GPa)
#
#
# Indices 1 2 3 4 5 6 
#
# 1 0.023395 -0.004508 -0.008558 0.000000 -0.012592 0.000000
# 2 -0.004508 0.024799 -0.006374 0.000000 0.003750 0.000000
# 3 -0.008558 -0.006374 0.013710 0.000000 0.002452 0.000000
# 4 0.000000 0.000000 0.000000 0.040545 0.000000 0.004726
# 5 -0.012592 0.003750 0.002452 0.000000 0.060594 0.000000
# 6 0.000000 0.000000 0.000000 0.004726 0.000000 0.048305
#
#
# Mechanical properties :
#
#
# Convention : Reuss Voigt Hill
#
# Bulk Modulus (GPa) = 43.43048 56.77752 50.10400
# Shear Modulus (GPa) = 19.38724 21.75729 20.57226
#
# Velocity S-wave (km/s) = 3.46460 3.67027 3.56892
# Velocity P-wave (km/s) = 6.54937 7.28797 6.92852
#
# Compressibility (1/GPa) = 0.02302530
#
# Stress axis : x y z
#
# Youngs Moduli (GPa) = 42.74434 40.32398 72.93787
#
# Poissons Ratio (x) = 0.18177 0.62417
# Poissons Ratio (y) = 0.19268 0.46492
# Poissons Ratio (z) = 0.36579 0.25703
#
# Static dielectric constant tensor:
#      x y z
#    x 2.755420 0.000000 0.056960 
#    y 0.000000 3.011320 0.000000 
#    z 0.056960 0.000000 3.358640 
# 
# 
# High freq. dielectric constant tensor:
#      x y z
#    x 1.577610 0.000000 -0.001350 
#    y 0.000000 1.615870 0.000000 
#    z -0.001350 0.000000 1.627250 
# 
# From -- ./inp_files/50980.got.cif
#   From: 2010.06.25/outbox.cif.g09.slc.cpg/sg11_26_cif.got.tgz:50980.got - 2010.06.27 23:14:04.
