data_PCOD8069104
_publ_section_title
;
Structure prediction by ZEFSAII (Michael W. Deem and Ramdas Pophale) SiO2 
 PCOD8069104
Probable space group: P 21/M
;
_chemical_formula_sum "Si O2"
_cell_formula_units_Z 32
_cell_length_a 21.244136
_cell_length_b 8.616210
_cell_length_c 15.363568
_cell_angle_alpha 90.000000
_cell_angle_beta 144.742306
_cell_angle_gamma 90.000000
_cell_volume 1623.360687
_symmetry_space_group_name_H-M "P 21/M"
_symmetry_group_IT_number 11
_symmetry_cell_setting 'monoclinic'
loop_
_space_group_symop_operation_xyz
x,y,z
-x,1/2+y,-z
-x,-y,-z
x,1/2-y,z
loop_
_atom_site_type_symbol
_atom_site_label
_atom_site_fract_x
_atom_site_fract_y
_atom_site_fract_z
Si Si1 0.925729 0.065186 0.991197
Si Si2 0.883801 0.568120 0.123012
Si Si3 0.448540 0.927871 0.828886
Si Si4 0.333225 0.933059 0.868916
Si Si5 0.656035 0.427828 0.826014
Si Si6 0.902616 0.065480 0.331510
Si Si7 0.691433 0.428144 0.676638
Si Si8 0.558345 0.428885 0.368374
O O1 0.931023 0.250000 0.002731
O O2 0.952019 0.998151 0.117110
O O3 0.808381 0.999355 0.829604
O O4 0.000000 0.000000 0.000000
O O5 0.905133 0.750000 0.154018
O O6 0.924698 0.488628 0.257800
O O7 0.756263 0.534556 0.966563
O O8 0.475930 0.750000 0.881101
O O9 0.363717 0.992195 0.805339
O O10 0.388634 0.944577 0.667559
O O11 0.565246 0.014432 0.956925
O O12 0.323978 0.750000 0.862769
O O13 0.215825 0.999650 0.768298
O O14 0.690141 0.250000 0.883357
O O15 0.621166 0.449657 0.685259
O O16 0.553038 0.476468 0.765383
O O17 0.904962 0.250000 0.338595
O O18 0.000000 0.000000 0.500000
O O19 0.708805 0.250000 0.671436
O O20 0.635009 0.507095 0.528795
O O21 0.532501 0.250000 0.362937
#
# Coordination Sequence:
#
# PCOD8069104 Si02
#       8
#     4   4   4   4   4   4   4   4
#     4  10  20  38  60  84 113 148 190 235 284 338
#     4  11  22  38  60  85 109 145 194 236 284 341
#     4   9  18  32  53  79 105 139 182 227 273 332
#     4   9  19  36  55  76 106 144 183 225 280 339
#     4  10  19  32  51  76 110 146 180 224 278 332
#     4  11  23  40  60  85 118 151 189 242 297 350
#     4   8  17  32  49  73 106 143 179 222 273 327
#     4  10  18  30  49  76 107 139 180 222 268 329
#
# _framework density 19.712194
#
# number of rings (size 3 to 8) (size 9 to 14) (size 15 to 20)
#    0.000    2.250    0.000    4.125    0.000    3.500 
#    2.250    3.125    0.000    0.000    0.000    0.000 
#    0.000    0.000    0.000    0.000    0.000    0.000 
#
# Total GULP energy -396576.099425 kJ/mol
# GULP energy per Si atom -12393.003107 kJ/mol
# Density = 1.966733 g / cm^3
# Si number density = 19.712194 Si / 1000 Ang^3
#
#
#
# Elastic Constant Matrix: (Units=GPa)
#
#
# Indices 1 2 3 4 5 6 
#
# 1 133.3126 33.1859 60.3773 0.0000 -15.2700 0.0000
# 2 33.1859 62.8008 25.3789 0.0000 -5.2851 0.0000
# 3 60.3773 25.3789 101.1515 0.0000 -26.6561 0.0000
# 4 0.0000 0.0000 0.0000 25.1517 0.0000 -2.2864
# 5 -15.2700 -5.2851 -26.6561 0.0000 32.5967 0.0000
# 6 0.0000 0.0000 0.0000 -2.2864 0.0000 27.3244
#
#
#
# Elastic Compliance Matrix: (Units=1/GPa)
#
#
# Indices 1 2 3 4 5 6 
#
# 1 0.010928 -0.003491 -0.005669 0.000000 -0.000082 0.000000
# 2 -0.003491 0.018859 -0.002898 0.000000 -0.000947 0.000000
# 3 -0.005669 -0.002898 0.016792 0.000000 0.010606 0.000000
# 4 0.000000 0.000000 0.000000 0.040063 0.000000 0.003352
# 5 -0.000082 -0.000947 0.010606 0.000000 0.039159 0.000000
# 6 0.000000 0.000000 0.000000 0.003352 0.000000 0.036878
#
#
# Mechanical properties :
#
#
# Convention : Reuss Voigt Hill
#
# Bulk Modulus (GPa) = 44.51445 59.46101 51.98773
# Shear Modulus (GPa) = 25.73565 28.90274 27.31919
#
# Velocity S-wave (km/s) = 3.61719 3.83330 3.72681
# Velocity P-wave (km/s) = 6.33061 7.05849 6.70444
#
# Compressibility (1/GPa) = 0.02246461
#
# Stress axis : x y z
#
# Youngs Moduli (GPa) = 91.50683 53.02408 59.55216
#
# Poissons Ratio (x) = 0.18510 0.33759
# Poissons Ratio (y) = 0.31943 0.17257
# Poissons Ratio (z) = 0.51874 0.15365
#
# Static dielectric constant tensor:
#      x y z
#    x 3.844320 0.000000 -0.195610 
#    y 0.000000 3.415020 0.000000 
#    z -0.195610 0.000000 3.601990 
# 
# 
# High freq. dielectric constant tensor:
#      x y z
#    x 1.775130 0.000000 -0.022670 
#    y 0.000000 1.753840 0.000000 
#    z -0.022670 0.000000 1.756690 
# 
# From -- ./inp_files/54340.got.cif
#   From: 2010.06.25/outbox.cif.g09.slc.cpg/sg11_28_cif.got.tgz:54340.got - 2010.06.27 23:14:04.
