data_PCOD8069089
_publ_section_title
;
Structure prediction by ZEFSAII (Michael W. Deem and Ramdas Pophale) SiO2 
 PCOD8069089
Probable space group: P 21/M
;
_chemical_formula_sum "Si O2"
_cell_formula_units_Z 28
_cell_length_a 10.070500
_cell_length_b 8.705188
_cell_length_c 30.715934
_cell_angle_alpha 90.000000
_cell_angle_beta 145.049594
_cell_angle_gamma 90.000000
_cell_volume 1542.577019
_symmetry_space_group_name_H-M "P 21/M"
_symmetry_group_IT_number 11
_symmetry_cell_setting 'monoclinic'
loop_
_space_group_symop_operation_xyz
x,y,z
-x,1/2+y,-z
-x,-y,-z
x,1/2-y,z
loop_
_atom_site_type_symbol
_atom_site_label
_atom_site_fract_x
_atom_site_fract_y
_atom_site_fract_z
Si Si1 0.021286 0.568448 0.053013
Si Si2 0.823822 0.569615 0.774410
Si Si3 0.646881 0.566972 0.500001
Si Si4 0.260914 0.432481 0.346080
Si Si5 0.743781 0.068448 0.053013
Si Si6 0.969484 0.932482 0.346078
Si Si7 0.451773 0.930386 0.225589
O O1 0.997974 0.750000 0.044982
O O2 0.265935 0.515667 0.139548
O O3 0.811509 0.500002 0.024604
O O4 0.000000 0.500000 0.000000
O O5 0.796380 0.750000 0.769829
O O6 0.816519 0.514010 0.722629
O O7 0.610124 0.499994 0.744050
O O8 0.068193 0.515673 0.860451
O O9 0.500000 0.500000 0.500000
O O10 0.648282 0.750000 0.500001
O O11 0.520194 0.501729 0.422916
O O12 0.905616 0.501728 0.577086
O O13 0.268635 0.250000 0.353436
O O14 0.076259 0.500001 0.330503
O O15 0.726933 0.250000 0.044980
O O16 0.500000 0.000000 0.000000
O O17 0.998534 0.750000 0.353432
O O18 0.703377 0.985997 0.277370
O O19 0.447246 0.750000 0.230168
#
# Coordination Sequence:
#
# PCOD8069089 Si02
#       7
#     4   4   4   4   4   4   4
#     4  10  20  36  55  78 105 137 173 213 258 307
#     4   9  20  36  54  75 103 135 170 208 253 302
#     4  10  18  30  49  74 101 132 166 206 252 298
#     4  10  19  33  52  76 102 132 168 209 251 298
#     4  10  20  36  55  78 105 137 173 213 258 307
#     4  10  19  33  52  76 102 132 168 209 251 298
#     4   9  20  36  54  75 103 135 170 208 253 302
#
# _framework density 18.151444000000001
#
# number of rings (size 3 to 8) (size 9 to 14) (size 15 to 20)
#    0.000    2.286    0.000    4.714    0.000    4.571 
#    0.000    3.571    0.000    0.000    0.000    0.000 
#    0.000    0.000    0.000    0.000    0.000    0.000 
#
# Total GULP energy -347167.690060 kJ/mol
# GULP energy per Si atom -12398.846074 kJ/mol
# Density = 1.811013 g / cm^3
# Si number density = 18.151444 Si / 1000 Ang^3
#
#
#
# Elastic Constant Matrix: (Units=GPa)
#
#
# Indices 1 2 3 4 5 6 
#
# 1 133.2044 47.8095 93.9611 0.0000 -0.2910 0.0000
# 2 47.8095 83.7826 48.1609 0.0000 -0.0023 0.0000
# 3 93.9611 48.1609 126.0296 0.0000 0.3938 0.0000
# 4 0.0000 0.0000 0.0000 28.4173 0.0000 0.0494
# 5 -0.2910 -0.0023 0.3938 0.0000 30.3183 0.0000
# 6 0.0000 0.0000 0.0000 0.0494 0.0000 32.0435
#
#
#
# Elastic Compliance Matrix: (Units=1/GPa)
#
#
# Indices 1 2 3 4 5 6 
#
# 1 0.016400 -0.002985 -0.011087 0.000000 0.000301 0.000000
# 2 -0.002985 0.015839 -0.003827 0.000000 0.000022 0.000000
# 3 -0.011087 -0.003827 0.017664 0.000000 -0.000336 0.000000
# 4 0.000000 0.000000 0.000000 0.035190 0.000000 -0.000054
# 5 0.000301 0.000022 -0.000336 0.000000 0.032991 0.000000
# 6 0.000000 0.000000 0.000000 -0.000054 0.000000 0.031208
#
#
# Mechanical properties :
#
#
# Convention : Reuss Voigt Hill
#
# Bulk Modulus (GPa) = 70.90084 80.31996 75.61040
# Shear Modulus (GPa) = 26.34450 28.36150 27.35300
#
# Velocity S-wave (km/s) = 3.81382 3.95713 3.88613
# Velocity P-wave (km/s) = 7.65109 8.07616 7.86650
#
# Compressibility (1/GPa) = 0.01410421
#
# Stress axis : x y z
#
# Youngs Moduli (GPa) = 60.97454 63.13480 56.61119
#
# Poissons Ratio (x) = 0.18847 0.62767
# Poissons Ratio (y) = 0.18202 0.21666
# Poissons Ratio (z) = 0.67605 0.24163
#
# Static dielectric constant tensor:
#      x y z
#    x 3.298910 0.000000 -0.009650 
#    y 0.000000 3.379420 0.000000 
#    z -0.009650 0.000000 4.003450 
# 
# 
# High freq. dielectric constant tensor:
#      x y z
#    x 1.686440 0.000000 -0.000370 
#    y 0.000000 1.714530 0.000000 
#    z -0.000370 0.000000 1.713420 
# 
# From -- ./inp_files/72764.got.cif
#   From: 2010.06.25/outbox.cif.g09.slc.cpg/sg11_37_cif.got.tgz:72764.got - 2010.06.27 23:14:04.
