data_PCOD8069080
_publ_section_title
;
Structure prediction by ZEFSAII (Michael W. Deem and Ramdas Pophale) SiO2 
 PCOD8069080
Probable space group: P 21/M
;
_chemical_formula_sum "Si O2"
_cell_formula_units_Z 32
_cell_length_a 20.770115
_cell_length_b 8.997592
_cell_length_c 14.415333
_cell_angle_alpha 90.000000
_cell_angle_beta 43.719756
_cell_angle_gamma 90.000000
_cell_volume 1861.875601
_symmetry_space_group_name_H-M "P 21/M"
_symmetry_group_IT_number 11
_symmetry_cell_setting 'monoclinic'
loop_
_space_group_symop_operation_xyz
x,y,z
-x,1/2+y,-z
-x,-y,-z
x,1/2-y,z
loop_
_atom_site_type_symbol
_atom_site_label
_atom_site_fract_x
_atom_site_fract_y
_atom_site_fract_z
Si Si1 0.214745 0.923461 0.922818
Si Si2 0.839919 0.073749 0.354786
Si Si3 0.693350 0.425801 0.645781
Si Si4 0.596646 0.073463 0.926443
Si Si5 0.632688 0.423157 0.095214
Si Si6 0.304429 0.925391 0.643293
Si Si7 0.544438 0.074755 0.650404
Si Si8 0.975017 0.926443 0.928307
O O1 0.189148 0.750000 0.938119
O O2 0.265492 0.956411 0.967642
O O3 0.287021 0.974928 0.767042
O O4 0.121518 0.018490 0.013714
O O5 0.834642 0.250000 0.359707
O O6 0.792209 0.014064 0.500697
O O7 0.779726 0.009771 0.331527
O O8 0.946692 0.024163 0.228925
O O9 0.695947 0.250000 0.639897
O O10 0.675065 0.479555 0.770227
O O11 0.607605 0.479558 0.671039
O O12 0.583555 0.250000 0.937535
O O13 0.630480 0.017158 0.991937
O O14 0.500000 0.000000 0.000000
O O15 0.610844 0.250000 0.120681
O O16 0.555657 0.499663 0.239405
O O17 0.302432 0.750000 0.635885
O O18 0.404184 0.978876 0.498356
O O19 0.529304 0.250000 0.668386
O O20 0.972552 0.750000 0.945016
O O21 0.000000 0.000000 0.000000
#
# Coordination Sequence:
#
# PCOD8069080 Si02
#       8
#     4   4   4   4   4   4   4   4
#     4  10  20  35  49  65  97 136 162 192 236 285
#     4   8  14  26  47  72  92 115 154 196 231 275
#     4   8  14  26  47  71  92 119 156 194 231 276
#     4  10  18  30  49  72  94 122 160 197 235 281
#     4  10  21  32  45  69 101 130 157 194 246 287
#     4   8  14  27  47  67  90 126 164 190 223 276
#     4   9  16  28  48  69  90 125 167 196 223 275
#     4  11  20  32  53  77  97 122 158 201 241 281
#
# _framework density 17.186971
#
# number of rings (size 3 to 8) (size 9 to 14) (size 15 to 20)
#    0.000    2.750    2.500    1.875    0.000    1.000 
#    0.000    0.625    0.000    2.250    0.000    0.000 
#    0.000    0.000    0.000    0.000    0.000    0.125 
#
# Total GULP energy -396487.777359 kJ/mol
# GULP energy per Si atom -12390.243042 kJ/mol
# Density = 1.714785 g / cm^3
# Si number density = 17.186971 Si / 1000 Ang^3
#
#
#
# Elastic Constant Matrix: (Units=GPa)
#
#
# Indices 1 2 3 4 5 6 
#
# 1 99.2300 28.0283 65.0054 0.0000 1.2114 0.0000
# 2 28.0283 30.3328 30.8631 0.0000 -5.0440 0.0000
# 3 65.0054 30.8631 142.1747 0.0000 -0.6721 0.0000
# 4 0.0000 0.0000 0.0000 21.2130 0.0000 -5.2492
# 5 1.2114 -5.0440 -0.6721 0.0000 24.6233 0.0000
# 6 0.0000 0.0000 0.0000 -5.2492 0.0000 19.3229
#
#
#
# Elastic Compliance Matrix: (Units=1/GPa)
#
#
# Indices 1 2 3 4 5 6 
#
# 1 0.016531 -0.010374 -0.005321 0.000000 -0.003084 0.000000
# 2 -0.010374 0.050644 -0.006200 0.000000 0.010715 0.000000
# 3 -0.005321 -0.006200 0.010809 0.000000 -0.000713 0.000000
# 4 0.000000 0.000000 0.000000 0.050538 0.000000 0.013729
# 5 -0.003084 0.010715 -0.000713 0.000000 0.042939 0.000000
# 6 0.000000 0.000000 0.000000 0.013729 0.000000 0.055482
#
#
# Mechanical properties :
#
#
# Convention : Reuss Voigt Hill
#
# Bulk Modulus (GPa) = 29.24482 57.72569 43.48526
# Shear Modulus (GPa) = 17.72231 22.88789 20.30510
#
# Velocity S-wave (km/s) = 3.21463 3.65321 3.44091
# Velocity P-wave (km/s) = 5.55258 7.17317 6.41426
#
# Compressibility (1/GPa) = 0.03419409
#
# Stress axis : x y z
#
# Youngs Moduli (GPa) = 60.49134 19.74586 92.51569
#
# Poissons Ratio (x) = 0.20484 0.49228
# Poissons Ratio (y) = 0.62754 0.57357
# Poissons Ratio (z) = 0.32188 0.12242
#
# Static dielectric constant tensor:
#      x y z
#    x 3.111890 0.000000 0.184320 
#    y 0.000000 2.863870 0.000000 
#    z 0.184320 0.000000 3.899940 
# 
# 
# High freq. dielectric constant tensor:
#      x y z
#    x 1.637580 0.000000 0.004150 
#    y 0.000000 1.626300 0.000000 
#    z 0.004150 0.000000 1.676650 
# 
# From -- ./inp_files/54229.got.cif
#   From: 2010.06.25/outbox.cif.g09.slc.cpg/sg11_28_cif.got.tgz:54229.got - 2010.06.27 23:14:04.
