data_PCOD8069973
_publ_section_title
;
Structure prediction by ZEFSAII (Michael W. Deem and Ramdas Pophale) SiO2 
 PCOD8069973
Probable space group: P 21/M
;
_chemical_formula_sum "Si O2"
_cell_formula_units_Z 32
_cell_length_a 23.091350
_cell_length_b 8.980471
_cell_length_c 12.189452
_cell_angle_alpha 90.000000
_cell_angle_beta 136.480809
_cell_angle_gamma 90.000000
_cell_volume 1740.596320
_symmetry_space_group_name_H-M "P 21/M"
_symmetry_group_IT_number 11
_symmetry_cell_setting 'monoclinic'
loop_
_space_group_symop_operation_xyz
x,y,z
-x,1/2+y,-z
-x,-y,-z
x,1/2-y,z
loop_
_atom_site_type_symbol
_atom_site_label
_atom_site_fract_x
_atom_site_fract_y
_atom_site_fract_z
Si Si1 0.239749 0.924570 0.250475
Si Si2 0.196380 0.578199 0.950923
Si Si3 0.147028 0.426037 0.497228
Si Si4 0.076557 0.086746 0.058508
Si Si5 0.968852 0.914148 0.251336
Si Si6 0.410105 0.425453 0.881494
Si Si7 0.713253 0.578305 0.482802
Si Si8 0.273445 0.922896 0.829201
O O1 0.248842 0.750000 0.268820
O O2 0.154677 0.981458 0.189987
O O3 0.306423 0.993893 0.428516
O O4 0.241655 0.980222 0.126013
O O5 0.171456 0.750000 0.934706
O O6 0.109534 0.495765 0.797121
O O7 0.263475 0.557252 0.946353
O O8 0.145871 0.250000 0.516478
O O9 0.197911 0.463741 0.455069
O O10 0.193063 0.503642 0.661822
O O11 0.052348 0.486601 0.364733
O O12 0.088226 0.250000 0.131140
O O13 0.063624 0.111564 0.914033
O O14 0.000000 0.000000 0.000000
O O15 0.985737 0.750000 0.327876
O O16 0.418205 0.250000 0.911614
O O17 0.361910 0.463079 0.702834
O O18 0.359101 0.494839 0.913237
O O19 0.500000 0.500000 0.000000
O O20 0.712233 0.750000 0.511602
O O21 0.278513 0.750000 0.802953
#
# Coordination Sequence:
#
# PCOD8069973 Si02
#       8
#     4   4   4   4   4   4   4   4
#     4  10  19  31  49  72  99 133 172 211 251 300
#     4   9  20  36  51  71 101 139 179 217 258 300
#     4  10  20  33  49  71 102 137 175 222 270 311
#     4  10  19  29  42  62  90 127 172 219 263 304
#     4  10  20  31  45  67  95 133 181 224 261 305
#     4  10  21  38  61  88 113 134 160 199 250 306
#     4   9  19  34  52  77 107 136 166 206 257 305
#     4  10  20  36  57  78 103 135 171 211 256 308
#
# _framework density 18.384502999999999
#
# number of rings (size 3 to 8) (size 9 to 14) (size 15 to 20)
#    0.000    2.250    0.000    3.750    0.000    8.500 
#    0.000    0.000    0.000    0.750    0.000    0.000 
#    0.000    0.000    0.000    0.000    0.000    0.000 
#
# Total GULP energy -396566.717082 kJ/mol
# GULP energy per Si atom -12392.709909 kJ/mol
# Density = 1.834266 g / cm^3
# Si number density = 18.384503 Si / 1000 Ang^3
#
#
#
# Elastic Constant Matrix: (Units=GPa)
#
#
# Indices 1 2 3 4 5 6 
#
# 1 87.2881 52.9227 59.7726 0.0000 2.6104 0.0000
# 2 52.9227 97.8289 51.1495 0.0000 -0.7106 0.0000
# 3 59.7726 51.1495 87.2296 0.0000 -0.8569 0.0000
# 4 0.0000 0.0000 0.0000 31.8685 0.0000 1.5546
# 5 2.6104 -0.7106 -0.8569 0.0000 29.1425 0.0000
# 6 0.0000 0.0000 0.0000 1.5546 0.0000 25.5692
#
#
#
# Elastic Compliance Matrix: (Units=1/GPa)
#
#
# Indices 1 2 3 4 5 6 
#
# 1 0.024238 -0.006394 -0.012886 0.000000 -0.002706 0.000000
# 2 -0.006394 0.016429 -0.005244 0.000000 0.000819 0.000000
# 3 -0.012886 -0.005244 0.023385 0.000000 0.001714 0.000000
# 4 0.000000 0.000000 0.000000 0.031472 0.000000 -0.001913
# 5 -0.002706 0.000819 0.001714 0.000000 0.034627 0.000000
# 6 0.000000 0.000000 0.000000 -0.001913 0.000000 0.039226
#
#
# Mechanical properties :
#
#
# Convention : Reuss Voigt Hill
#
# Bulk Modulus (GPa) = 66.64734 66.67068 66.65901
# Shear Modulus (GPa) = 22.37877 24.54950 23.46413
#
# Velocity S-wave (km/s) = 3.49271 3.65819 3.57641
# Velocity P-wave (km/s) = 7.25231 7.36115 7.30693
#
# Compressibility (1/GPa) = 0.01500435
#
# Stress axis : x y z
#
# Youngs Moduli (GPa) = 41.25765 60.86882 42.76199
#
# Poissons Ratio (x) = 0.38923 0.55101
# Poissons Ratio (y) = 0.26382 0.22423
# Poissons Ratio (z) = 0.53163 0.31918
#
# Static dielectric constant tensor:
#      x y z
#    x 3.142880 0.000000 -0.119730 
#    y 0.000000 3.637750 0.000000 
#    z -0.119730 0.000000 3.367090 
# 
# 
# High freq. dielectric constant tensor:
#      x y z
#    x 1.688660 0.000000 -0.016680 
#    y 0.000000 1.727150 0.000000 
#    z -0.016680 0.000000 1.704150 
# 
# From -- ./inp_files/42927.got.cif
#   From: 2010.06.25/outbox.cif.g09.slc.cpg/sg11_22_cif.got.tgz:42927.got - 2010.06.27 23:14:04.
