data_PCOD8069799
_publ_section_title
;
Structure prediction by ZEFSAII (Michael W. Deem and Ramdas Pophale) SiO2 
 PCOD8069799
Probable space group: P 21/M
;
_chemical_formula_sum "Si O2"
_cell_formula_units_Z 32
_cell_length_a 11.956313
_cell_length_b 17.161480
_cell_length_c 14.776180
_cell_angle_alpha 90.000000
_cell_angle_beta 148.822721
_cell_angle_gamma 90.000000
_cell_volume 1569.575067
_symmetry_space_group_name_H-M "P 21/M"
_symmetry_group_IT_number 11
_symmetry_cell_setting 'monoclinic'
loop_
_space_group_symop_operation_xyz
x,y,z
-x,1/2+y,-z
-x,-y,-z
x,1/2-y,z
loop_
_atom_site_type_symbol
_atom_site_label
_atom_site_fract_x
_atom_site_fract_y
_atom_site_fract_z
Si Si1 0.504146 0.337082 0.262625
Si Si2 0.049397 0.081506 0.491960
Si Si3 0.994408 0.056036 0.789222
Si Si4 0.804524 0.659429 0.229080
Si Si5 0.011101 0.161501 0.962909
Si Si6 0.819486 0.040459 0.934620
Si Si7 0.368799 0.663633 0.849801
Si Si8 0.651515 0.003450 0.429307
O O1 0.588775 0.250000 0.349981
O O2 0.489416 0.341711 0.144117
O O3 0.666779 0.406197 0.403971
O O4 0.269714 0.352376 0.144152
O O5 0.109443 0.144671 0.609933
O O6 0.836676 0.107112 0.288964
O O7 0.247702 0.064758 0.562830
O O8 0.000000 0.000000 0.500000
O O9 0.091665 0.098231 0.768708
O O10 0.916991 0.118965 0.809000
O O11 0.784003 0.005698 0.614699
O O12 0.166654 0.994325 0.953685
O O13 0.854280 0.750000 0.237724
O O14 0.544703 0.644354 0.049370
O O15 0.948628 0.250000 0.909657
O O16 0.889178 0.131102 0.970091
O O17 0.593336 0.023001 0.729863
O O18 0.000000 0.000000 0.000000
O O19 0.274111 0.750000 0.796939
#
# Coordination Sequence:
#
# PCOD8069799 Si02
#       8
#     4   4   4   4   4   4   4   4
#     4  10  18  34  59  86 119 151 192 253 310 350
#     4  12  24  36  55  93 130 165 200 245 308 374
#     4  11  21  35  65  93 121 154 201 255 310 366
#     4  11  22  39  64  92 123 164 210 258 309 361
#     4  10  20  39  64  90 120 155 200 257 313 362
#     4  10  22  41  62  88 125 161 199 258 311 368
#     4  10  20  37  58  83 121 160 201 254 300 354
#     4  12  23  39  58  91 124 162 201 248 307 368
#
# _framework density 20.387685000000001
#
# number of rings (size 3 to 8) (size 9 to 14) (size 15 to 20)
#    0.000    1.250    6.250    0.750    0.000    5.500 
#    0.000    1.250    0.000    1.500    0.000    0.000 
#    0.000    0.000    0.000    0.000    0.000    0.000 
#
# Total GULP energy -396492.075759 kJ/mol
# GULP energy per Si atom -12390.377367 kJ/mol
# Density = 2.034128 g / cm^3
# Si number density = 20.387685 Si / 1000 Ang^3
#
#
#
# Elastic Constant Matrix: (Units=GPa)
#
#
# Indices 1 2 3 4 5 6 
#
# 1 58.2027 44.1532 31.4768 0.0000 5.1087 0.0000
# 2 44.1532 92.8373 43.7659 0.0000 4.7964 0.0000
# 3 31.4768 43.7659 131.9160 0.0000 7.4585 0.0000
# 4 0.0000 0.0000 0.0000 31.9053 0.0000 3.9657
# 5 5.1087 4.7964 7.4585 0.0000 30.3790 0.0000
# 6 0.0000 0.0000 0.0000 3.9657 0.0000 32.9721
#
#
#
# Elastic Compliance Matrix: (Units=1/GPa)
#
#
# Indices 1 2 3 4 5 6 
#
# 1 0.027777 -0.011892 -0.002560 0.000000 -0.002165 0.000000
# 2 -0.011892 0.017889 -0.003094 0.000000 -0.000065 0.000000
# 3 -0.002560 -0.003094 0.009295 0.000000 -0.001363 0.000000
# 4 0.000000 0.000000 0.000000 0.031818 0.000000 -0.003827
# 5 -0.002165 -0.000065 -0.001363 0.000000 0.033626 0.000000
# 6 0.000000 0.000000 0.000000 -0.003827 0.000000 0.030789
#
#
# Mechanical properties :
#
#
# Convention : Reuss Voigt Hill
#
# Bulk Modulus (GPa) = 50.32856 57.97197 54.15027
# Shear Modulus (GPa) = 25.91870 29.95529 27.93699
#
# Velocity S-wave (km/s) = 3.56939 3.83728 3.70576
# Velocity P-wave (km/s) = 6.45962 6.93754 6.70284
#
# Compressibility (1/GPa) = 0.01986943
#
# Stress axis : x y z
#
# Youngs Moduli (GPa) = 36.00047 55.89945 107.58479
#
# Poissons Ratio (x) = 0.66476 0.27544
# Poissons Ratio (y) = 0.42812 0.33285
# Poissons Ratio (z) = 0.09217 0.17295
#
# Static dielectric constant tensor:
#      x y z
#    x -114.439150 0.000000 -14.680160 
#    y 0.000000 2.875460 0.000000 
#    z -14.680160 0.000000 2.070280 
# 
# 
# High freq. dielectric constant tensor:
#      x y z
#    x 1.757160 0.000000 0.006290 
#    y 0.000000 1.800080 0.000000 
#    z 0.006290 0.000000 1.804860 
# 
# From -- ./inp_files/50730.got.cif
#   From: 2010.06.25/outbox.cif.g09.slc.cpg/sg11_26_cif.got.tgz:50730.got - 2010.06.27 23:14:04.
