data_PCOD8069369
_publ_section_title
;
Structure prediction by ZEFSAII (Michael W. Deem and Ramdas Pophale) SiO2 
 PCOD8069369
Probable space group: P 21/M
;
_chemical_formula_sum "Si O2"
_cell_formula_units_Z 28
_cell_length_a 14.349888
_cell_length_b 8.692130
_cell_length_c 14.445593
_cell_angle_alpha 90.000000
_cell_angle_beta 59.642650
_cell_angle_gamma 90.000000
_cell_volume 1554.767995
_symmetry_space_group_name_H-M "P 21/M"
_symmetry_group_IT_number 11
_symmetry_cell_setting 'monoclinic'
loop_
_space_group_symop_operation_xyz
x,y,z
-x,1/2+y,-z
-x,-y,-z
x,1/2-y,z
loop_
_atom_site_type_symbol
_atom_site_label
_atom_site_fract_x
_atom_site_fract_y
_atom_site_fract_z
Si Si1 0.740881 0.429304 0.562886
Si Si2 0.073218 0.576395 0.202927
Si Si3 0.106444 0.432970 0.994986
Si Si4 0.516076 0.068335 0.593524
Si Si5 0.828613 0.576914 0.349192
Si Si6 0.096724 0.068884 0.390136
Si Si7 0.710510 0.931327 0.231638
O O1 0.737290 0.250000 0.588010
O O2 0.623637 0.493923 0.590403
O O3 0.824957 0.462578 0.437892
O O4 0.786165 0.518834 0.629159
O O5 0.118925 0.750000 0.187261
O O6 0.125548 0.489487 0.089911
O O7 0.096528 0.487280 0.285346
O O8 0.946477 0.579648 0.246231
O O9 0.096946 0.250000 0.998067
O O10 0.214104 0.495733 0.888203
O O11 0.000000 0.500000 0.000000
O O12 0.524022 0.250000 0.576798
O O13 0.415867 0.022712 0.711721
O O14 0.500000 0.000000 0.500000
O O15 0.794986 0.750000 0.397295
O O16 0.750011 0.506344 0.311202
O O17 0.083870 0.250000 0.400348
O O18 0.000000 0.000000 0.500000
O O19 0.726334 0.750000 0.225091
#
# Coordination Sequence:
#
# PCOD8069369 Si02
#       7
#     4   4   4   4   4   4   4
#     4  11  22  34  52  82 114 145 184 229 273 326
#     4  11  22  37  55  81 113 146 182 227 277 330
#     4  11  21  35  55  80 111 149 188 228 276 329
#     4  10  20  34  54  80 110 146 186 227 274 325
#     4  10  18  31  53  77 110 150 181 215 267 330
#     4  12  24  38  57  81 110 147 184 225 275 331
#     4   9  18  34  53  76 110 149 184 219 269 325
#
# _framework density 18.009118999999998
#
# number of rings (size 3 to 8) (size 9 to 14) (size 15 to 20)
#    0.000    1.429    4.286    2.571    0.000    1.143 
#    0.000    1.429    0.000    0.857    0.000    0.000 
#    0.000    0.000    0.000    0.000    0.000    0.000 
#
# Total GULP energy -347119.103662 kJ/mol
# GULP energy per Si atom -12397.110845 kJ/mol
# Density = 1.796813 g / cm^3
# Si number density = 18.009119 Si / 1000 Ang^3
#
#
#
# Elastic Constant Matrix: (Units=GPa)
#
#
# Indices 1 2 3 4 5 6 
#
# 1 111.5673 38.3224 51.5077 0.0000 4.9926 0.0000
# 2 38.3224 87.7297 36.6633 0.0000 4.2489 0.0000
# 3 51.5077 36.6633 118.6306 0.0000 4.5896 0.0000
# 4 0.0000 0.0000 0.0000 25.2011 0.0000 6.4865
# 5 4.9926 4.2489 4.5896 0.0000 30.5085 0.0000
# 6 0.0000 0.0000 0.0000 6.4865 0.0000 26.1585
#
#
#
# Elastic Compliance Matrix: (Units=1/GPa)
#
#
# Indices 1 2 3 4 5 6 
#
# 1 0.012124 -0.003523 -0.004142 0.000000 -0.000870 0.000000
# 2 -0.003523 0.014158 -0.002808 0.000000 -0.000973 0.000000
# 3 -0.004142 -0.002808 0.011119 0.000000 -0.000604 0.000000
# 4 0.000000 0.000000 0.000000 0.042386 0.000000 -0.010510
# 5 -0.000870 -0.000973 -0.000604 0.000000 0.033147 0.000000
# 6 0.000000 0.000000 0.000000 -0.010510 0.000000 0.040835
#
#
# Mechanical properties :
#
#
# Convention : Reuss Voigt Hill
#
# Bulk Modulus (GPa) = 60.77034 63.43491 62.10262
# Shear Modulus (GPa) = 27.74678 29.13590 28.44134
#
# Velocity S-wave (km/s) = 3.92944 4.02660 3.97832
# Velocity P-wave (km/s) = 7.37596 7.54442 7.46067
#
# Compressibility (1/GPa) = 0.01645540
#
# Stress axis : x y z
#
# Youngs Moduli (GPa) = 82.47782 70.62929 89.93534
#
# Poissons Ratio (x) = 0.24884 0.37249
# Poissons Ratio (y) = 0.29059 0.25257
# Poissons Ratio (z) = 0.34160 0.19835
#
# Static dielectric constant tensor:
#      x y z
#    x 3.518930 0.000000 -0.101220 
#    y 0.000000 3.295330 0.000000 
#    z -0.101220 0.000000 3.399700 
# 
# 
# High freq. dielectric constant tensor:
#      x y z
#    x 1.692230 0.000000 0.002270 
#    y 0.000000 1.692600 0.000000 
#    z 0.002270 0.000000 1.685760 
# 
# From -- ./inp_files/51092.got.cif
#   From: 2010.06.25/outbox.cif.g09.slc.cpg/sg11_26_cif.got.tgz:51092.got - 2010.06.27 23:14:04.
