data_PCOD8069278
_publ_section_title
;
Structure prediction by ZEFSAII (Michael W. Deem and Ramdas Pophale) SiO2 
 PCOD8069278
Probable space group: P 21/M
;
_chemical_formula_sum "Si O2"
_cell_formula_units_Z 32
_cell_length_a 22.896438
_cell_length_b 13.370414
_cell_length_c 10.135582
_cell_angle_alpha 90.000000
_cell_angle_beta 145.168086
_cell_angle_gamma 90.000000
_cell_volume 1772.260326
_symmetry_space_group_name_H-M "P 21/M"
_symmetry_group_IT_number 11
_symmetry_cell_setting 'monoclinic'
loop_
_space_group_symop_operation_xyz
x,y,z
-x,1/2+y,-z
-x,-y,-z
x,1/2-y,z
loop_
_atom_site_type_symbol
_atom_site_label
_atom_site_fract_x
_atom_site_fract_y
_atom_site_fract_z
Si Si1 0.424081 0.369203 0.743549
Si Si2 0.210586 0.640879 0.645324
Si Si3 0.279954 0.134941 0.953903
Si Si4 0.740964 0.863302 0.788775
Si Si5 0.076600 0.014517 0.967360
Si Si6 0.084909 0.010945 0.547011
Si Si7 0.384682 0.008639 0.931158
Si Si8 0.938828 0.143167 0.870804
O O1 0.452328 0.250000 0.805697
O O2 0.335982 0.386276 0.472631
O O3 0.389580 0.410750 0.821968
O O4 0.515573 0.440290 0.864322
O O5 0.253724 0.750000 0.770089
O O6 0.155912 0.588670 0.669945
O O7 0.296016 0.570757 0.739609
O O8 0.129586 0.658385 0.382545
O O9 0.289990 0.250000 0.929665
O O10 0.161138 0.104010 0.710749
O O11 0.360581 0.070074 0.019545
O O12 0.311316 0.120330 0.165572
O O13 0.782188 0.750000 0.854345
O O14 0.837046 0.938099 0.964424
O O15 0.045008 0.092289 0.023310
O O16 0.976589 0.976990 0.703171
O O17 0.120316 0.918231 0.125067
O O18 0.000000 0.000000 0.500000
O O19 0.966940 0.250000 0.984662
#
# Coordination Sequence:
#
# PCOD8069278 Si02
#       8
#     4   4   4   4   4   4   4   4
#     4  10  21  36  57  83 106 134 176 222 268 320
#     4   9  18  32  51  72 100 135 169 207 257 315
#     4  10  21  36  55  79 108 141 177 220 266 315
#     4  10  20  34  54  78 105 140 177 216 263 316
#     4  10  18  31  51  70 104 137 171 215 257 310
#     4  10  19  32  49  75 102 136 177 213 253 304
#     4  10  20  36  57  80 106 135 173 221 270 313
#     4   9  18  30  46  72  99 132 170 209 258 310
#
# _framework density 18.056038000000001
#
# number of rings (size 3 to 8) (size 9 to 14) (size 15 to 20)
#    0.000    2.250    1.250    1.875    0.000    3.000 
#    0.000    0.000    0.000    0.750    0.000    0.000 
#    0.000    0.000    0.000    0.000    0.000    0.000 
#
# Total GULP energy -396564.228133 kJ/mol
# GULP energy per Si atom -12392.632129 kJ/mol
# Density = 1.801494 g / cm^3
# Si number density = 18.056038 Si / 1000 Ang^3
#
#
#
# Elastic Constant Matrix: (Units=GPa)
#
#
# Indices 1 2 3 4 5 6 
#
# 1 106.2180 52.9543 22.8098 0.0000 -0.2610 0.0000
# 2 52.9543 130.0344 32.0217 0.0000 -3.8460 0.0000
# 3 22.8098 32.0217 58.8815 0.0000 -4.2764 0.0000
# 4 0.0000 0.0000 0.0000 25.2263 0.0000 0.4190
# 5 -0.2610 -3.8460 -4.2764 0.0000 23.4122 0.0000
# 6 0.0000 0.0000 0.0000 0.4190 0.0000 26.6125
#
#
#
# Elastic Compliance Matrix: (Units=1/GPa)
#
#
# Indices 1 2 3 4 5 6 
#
# 1 0.012104 -0.004372 -0.002385 0.000000 -0.001019 0.000000
# 2 -0.004372 0.010466 -0.003929 0.000000 0.000953 0.000000
# 3 -0.002385 -0.003929 0.020264 0.000000 0.003029 0.000000
# 4 0.000000 0.000000 0.000000 0.039651 0.000000 -0.000624
# 5 -0.001019 0.000953 0.003029 0.000000 0.043411 0.000000
# 6 0.000000 0.000000 0.000000 -0.000624 0.000000 0.037586
#
#
# Mechanical properties :
#
#
# Convention : Reuss Voigt Hill
#
# Bulk Modulus (GPa) = 46.59454 56.74507 51.66980
# Shear Modulus (GPa) = 26.04032 27.54008 26.79020
#
# Velocity S-wave (km/s) = 3.80174 3.90969 3.85609
# Velocity P-wave (km/s) = 6.71808 7.20252 6.96451
#
# Compressibility (1/GPa) = 0.02146174
#
# Stress axis : x y z
#
# Youngs Moduli (GPa) = 82.61804 95.54386 49.34825
#
# Poissons Ratio (x) = 0.41770 0.11771
# Poissons Ratio (y) = 0.36119 0.19390
# Poissons Ratio (z) = 0.19707 0.37541
#
# Static dielectric constant tensor:
#      x y z
#    x 3.331290 0.000000 -0.052890 
#    y 0.000000 4.085440 0.000000 
#    z -0.052890 0.000000 3.189600 
# 
# 
# High freq. dielectric constant tensor:
#      x y z
#    x 1.697330 0.000000 -0.005560 
#    y 0.000000 1.711250 0.000000 
#    z -0.005560 0.000000 1.681640 
# 
# From -- ./inp_files/26856.got.cif
#   From: 2010.06.25/outbox.cif.g09.slc.cpg/sg11_14_cif.got.tgz:26856.got - 2010.06.27 23:14:04.
