data_PCOD8069404
_publ_section_title
;
Structure prediction by ZEFSAII (Michael W. Deem and Ramdas Pophale) SiO2 
 PCOD8069404
Probable space group: P 21/M
;
_chemical_formula_sum "Si O2"
_cell_formula_units_Z 28
_cell_length_a 18.897729
_cell_length_b 9.169362
_cell_length_c 15.928947
_cell_angle_alpha 90.000000
_cell_angle_beta 33.121095
_cell_angle_gamma 90.000000
_cell_volume 1508.185365
_symmetry_space_group_name_H-M "P 21/M"
_symmetry_group_IT_number 11
_symmetry_cell_setting 'monoclinic'
loop_
_space_group_symop_operation_xyz
x,y,z
-x,1/2+y,-z
-x,-y,-z
x,1/2-y,z
loop_
_atom_site_type_symbol
_atom_site_label
_atom_site_fract_x
_atom_site_fract_y
_atom_site_fract_z
Si Si1 0.892874 0.577611 0.879283
Si Si2 0.414645 0.581929 0.016542
Si Si3 0.103686 0.577806 0.954546
Si Si4 0.936222 0.090979 0.443737
Si Si5 0.635118 0.081483 0.115909
Si Si6 0.402053 0.919110 0.658998
Si Si7 0.813862 0.909920 0.693367
O O1 0.886672 0.750000 0.904829
O O2 0.005524 0.538856 0.701927
O O3 0.931326 0.481987 0.920008
O O4 0.754647 0.526492 0.981858
O O5 0.415089 0.750000 0.040824
O O6 0.270685 0.518916 0.166989
O O7 0.500000 0.500000 0.000000
O O8 0.456566 0.561411 0.875996
O O9 0.082961 0.750000 0.971005
O O10 0.253419 0.537083 0.784500
O O11 0.000000 0.500000 0.000000
O O12 0.869804 0.250000 0.499330
O O13 0.049191 0.107394 0.399235
O O14 0.831051 0.975742 0.582272
O O15 0.683906 0.250000 0.072649
O O16 0.567198 0.042768 0.272984
O O17 0.424139 0.750000 0.620484
O O18 0.500000 0.000000 0.500000
O O19 0.747558 0.750000 0.750265
#
# Coordination Sequence:
#
# PCOD8069404 Si02
#       7
#     4   4   4   4   4   4   4
#     4  10  18  31  54  81 108 138 177 223 268 321
#     4  11  22  36  54  74 104 144 184 228 275 324
#     4  10  21  37  56  82 114 147 185 228 280 336
#     4   9  18  31  49  76 105 133 168 213 261 312
#     4   9  19  35  54  77 106 140 181 226 270 326
#     4   9  19  36  58  85 112 140 181 228 277 336
#     4  10  19  32  50  74 103 134 172 216 262 311
#
# _framework density 18.565358
#
# number of rings (size 3 to 8) (size 9 to 14) (size 15 to 20)
#    0.000    2.286    1.429    2.571    0.000    5.143 
#    0.000    1.429    0.000    3.429    0.000    0.000 
#    0.000    0.000    0.000    0.000    0.000    0.000 
#
# Total GULP energy -346926.517985 kJ/mol
# GULP energy per Si atom -12390.232785 kJ/mol
# Density = 1.852310 g / cm^3
# Si number density = 18.565358 Si / 1000 Ang^3
#
#
#
# Elastic Constant Matrix: (Units=GPa)
#
#
# Indices 1 2 3 4 5 6 
#
# 1 107.6558 49.9728 51.9411 0.0000 21.7183 0.0000
# 2 49.9728 105.9537 58.2129 0.0000 15.7171 0.0000
# 3 51.9411 58.2129 110.1493 0.0000 27.9160 0.0000
# 4 0.0000 0.0000 0.0000 33.2876 0.0000 0.7551
# 5 21.7183 15.7171 27.9160 0.0000 19.9524 0.0000
# 6 0.0000 0.0000 0.0000 0.7551 0.0000 29.4438
#
#
#
# Elastic Compliance Matrix: (Units=1/GPa)
#
#
# Indices 1 2 3 4 5 6 
#
# 1 0.014064 -0.004097 -0.002177 0.000000 -0.009036 0.000000
# 2 -0.004097 0.014506 -0.006149 0.000000 0.001636 0.000000
# 3 -0.002177 -0.006149 0.017859 0.000000 -0.017775 0.000000
# 4 0.000000 0.000000 0.000000 0.030059 0.000000 -0.000771
# 5 -0.009036 0.001636 -0.017775 0.000000 0.083535 0.000000
# 6 0.000000 0.000000 0.000000 -0.000771 0.000000 0.033983
#
#
# Mechanical properties :
#
#
# Convention : Reuss Voigt Hill
#
# Bulk Modulus (GPa) = 46.33019 71.55694 58.94357
# Shear Modulus (GPa) = 22.11944 27.44556 24.78250
#
# Velocity S-wave (km/s) = 3.45546 3.84907 3.65756
# Velocity P-wave (km/s) = 6.39763 7.64072 7.04664
#
# Compressibility (1/GPa) = 0.02158420
#
# Stress axis : x y z
#
# Youngs Moduli (GPa) = 71.10559 68.93645 55.99279
#
# Poissons Ratio (x) = 0.28242 0.12187
# Poissons Ratio (y) = 0.29131 0.34430
# Poissons Ratio (z) = 0.15476 0.42390
#
# Static dielectric constant tensor:
#      x y z
#    x 2.990800 0.000000 0.269450 
#    y 0.000000 3.821730 0.000000 
#    z 0.269450 0.000000 3.411410 
# 
# 
# High freq. dielectric constant tensor:
#      x y z
#    x 1.702100 0.000000 0.024830 
#    y 0.000000 1.733790 0.000000 
#    z 0.024830 0.000000 1.707640 
# 
# From -- ./inp_files/53179.got.cif
#   From: 2010.06.25/outbox.cif.g09.slc.cpg/sg11_27_cif.got.tgz:53179.got - 2010.06.27 23:14:04.
