data_PCOD8069588
_publ_section_title
;
Structure prediction by ZEFSAII (Michael W. Deem and Ramdas Pophale) SiO2 
 PCOD8069588
Probable space group: P 21/M
;
_chemical_formula_sum "Si O2"
_cell_formula_units_Z 24
_cell_length_a 9.439250
_cell_length_b 14.455956
_cell_length_c 15.762377
_cell_angle_alpha 90.000000
_cell_angle_beta 38.031381
_cell_angle_gamma 90.000000
_cell_volume 1325.111050
_symmetry_space_group_name_H-M "P 21/M"
_symmetry_group_IT_number 11
_symmetry_cell_setting 'monoclinic'
loop_
_space_group_symop_operation_xyz
x,y,z
-x,1/2+y,-z
-x,-y,-z
x,1/2-y,z
loop_
_atom_site_type_symbol
_atom_site_label
_atom_site_fract_x
_atom_site_fract_y
_atom_site_fract_z
Si Si1 0.851410 0.353948 0.509562
Si Si2 0.657431 0.641488 0.649503
Si Si3 0.522899 0.349587 0.820281
Si Si4 0.555175 0.458242 0.097761
Si Si5 0.186632 0.932509 0.185080
Si Si6 0.701299 0.518292 0.469976
O O1 0.880594 0.250000 0.460075
O O2 0.644323 0.360412 0.672999
O O3 0.792374 0.420442 0.460387
O O4 0.085045 0.386134 0.445034
O O5 0.626949 0.750000 0.646528
O O6 0.481664 0.610929 0.806519
O O7 0.604237 0.584987 0.589287
O O8 0.391820 0.250000 0.886601
O O9 0.358741 0.439282 0.910097
O O10 0.718984 0.348440 0.801469
O O11 0.313737 0.473198 0.159782
O O12 0.747489 0.416204 0.944734
O O13 0.912544 0.934582 0.320757
O O14 0.500000 0.500000 0.500000
#
# Coordination Sequence:
#
# PCOD8069588 Si02
#       6
#     4   4   4   4   4   4
#     4  10  18  32  57  81 104 136 182 228 262 306
#     4  11  20  35  59  80 102 139 185 226 264 312
#     4   9  15  27  55  81 103 132 172 225 268 305
#     4   9  17  33  54  78 110 131 178 232 257 315
#     4   9  18  32  49  82 111 135 175 217 274 308
#     4  12  22  36  54  79 114 145 171 221 265 325
#
# _framework density 18.111688999999998
#
# number of rings (size 3 to 8) (size 9 to 14) (size 15 to 20)
#    1.000    1.000    5.000    0.500    0.000    1.333 
#    0.000    1.667    0.000    0.000    0.000    0.000 
#    0.000    0.000    0.000    0.000    0.000    0.000 
#
# Total GULP energy -297390.489372 kJ/mol
# GULP energy per Si atom -12391.270391 kJ/mol
# Density = 1.807047 g / cm^3
# Si number density = 18.111689 Si / 1000 Ang^3
#
#
#
# Elastic Constant Matrix: (Units=GPa)
#
#
# Indices 1 2 3 4 5 6 
#
# 1 76.6897 32.7000 25.0446 0.0000 14.4101 0.0000
# 2 32.7000 81.5155 12.9383 0.0000 12.1343 0.0000
# 3 25.0446 12.9383 89.6746 0.0000 23.3780 0.0000
# 4 0.0000 0.0000 0.0000 7.1700 0.0000 -0.0533
# 5 14.4101 12.1343 23.3780 0.0000 17.0286 0.0000
# 6 0.0000 0.0000 0.0000 -0.0533 0.0000 14.6096
#
#
#
# Elastic Compliance Matrix: (Units=1/GPa)
#
#
# Indices 1 2 3 4 5 6 
#
# 1 0.017582 -0.005513 -0.001963 0.000000 -0.008256 0.000000
# 2 -0.005513 0.015497 0.001505 0.000000 -0.008444 0.000000
# 3 -0.001963 0.001505 0.017644 0.000000 -0.023634 0.000000
# 4 0.000000 0.000000 0.000000 0.139473 0.000000 0.000509
# 5 -0.008256 -0.008444 -0.023634 0.000000 0.104175 0.000000
# 6 0.000000 0.000000 0.000000 0.000509 0.000000 0.068450
#
#
# Mechanical properties :
#
#
# Convention : Reuss Voigt Hill
#
# Bulk Modulus (GPa) = 25.78480 43.24949 34.51714
# Shear Modulus (GPa) = 12.89692 19.57478 16.23585
#
# Velocity S-wave (km/s) = 2.67137 3.29109 2.99729
# Velocity P-wave (km/s) = 4.87672 6.19458 5.57473
#
# Compressibility (1/GPa) = 0.03878254
#
# Stress axis : x y z
#
# Youngs Moduli (GPa) = 56.87499 64.52803 56.67708
#
# Poissons Ratio (x) = 0.35572 0.11125
# Poissons Ratio (y) = 0.31353 -0.08530
# Poissons Ratio (z) = 0.11164 -0.09712
#
# Static dielectric constant tensor:
#      x y z
#    x 2.899270 0.000000 0.224910 
#    y 0.000000 3.386080 0.000000 
#    z 0.224910 0.000000 3.220890 
# 
# 
# High freq. dielectric constant tensor:
#      x y z
#    x 1.650930 0.000000 0.030160 
#    y 0.000000 1.701250 0.000000 
#    z 0.030160 0.000000 1.695250 
# 
# From -- ./inp_files/47527.got.cif
#   From: 2010.06.25/outbox.cif.g09.slc.cpg/sg11_24_cif.got.tgz:47527.got - 2010.06.27 23:14:04.
