data_PCOD8069238
_publ_section_title
;
Structure prediction by ZEFSAII (Michael W. Deem and Ramdas Pophale) SiO2 
 PCOD8069238
Probable space group: P 21/M
;
_chemical_formula_sum "Si O2"
_cell_formula_units_Z 32
_cell_length_a 26.142865
_cell_length_b 8.821132
_cell_length_c 13.951072
_cell_angle_alpha 90.000000
_cell_angle_beta 146.422279
_cell_angle_gamma 90.000000
_cell_volume 1779.357955
_symmetry_space_group_name_H-M "P 21/M"
_symmetry_group_IT_number 11
_symmetry_cell_setting 'monoclinic'
loop_
_space_group_symop_operation_xyz
x,y,z
-x,1/2+y,-z
-x,-y,-z
x,1/2-y,z
loop_
_atom_site_type_symbol
_atom_site_label
_atom_site_fract_x
_atom_site_fract_y
_atom_site_fract_z
Si Si1 0.885871 0.574655 0.242300
Si Si2 0.041788 0.423688 0.973238
Si Si3 0.366673 0.571030 0.461094
Si Si4 0.707515 0.572011 0.847369
Si Si5 0.777556 0.924068 0.642896
Si Si6 0.890740 0.928373 0.633531
Si Si7 0.904774 0.426950 0.464798
Si Si8 0.538508 0.068821 0.658088
O O1 0.885398 0.750000 0.271017
O O2 0.857487 0.480675 0.292477
O O3 0.987248 0.525176 0.365554
O O4 0.813180 0.542458 0.043817
O O5 0.011416 0.250000 0.920583
O O6 0.995593 0.506981 0.810433
O O7 0.152387 0.438469 0.156491
O O8 0.000000 0.500000 0.000000
O O9 0.378411 0.750000 0.471057
O O10 0.310907 0.509567 0.282055
O O11 0.310624 0.527403 0.469829
O O12 0.468062 0.492697 0.629260
O O13 0.686263 0.750000 0.802798
O O14 0.641847 0.499809 0.828349
O O15 0.746281 0.750000 0.582697
O O16 0.823608 0.982167 0.615460
O O17 0.896606 0.750000 0.641443
O O18 0.854003 0.990814 0.474789
O O19 0.890098 0.250000 0.454181
O O20 0.540998 0.250000 0.661386
O O21 0.500000 0.000000 0.500000
#
# Coordination Sequence:
#
# PCOD8069238 Si02
#       8
#     4   4   4   4   4   4   4   4
#     4   9  20  36  52  72  97 129 164 204 250 293
#     4   9  17  29  44  62  89 122 160 200 238 280
#     4  11  21  31  47  73 102 131 165 201 241 288
#     4  10  19  33  52  72  99 131 164 200 245 294
#     4   9  19  33  46  65  95 130 165 200 239 286
#     4  10  20  33  49  68  94 130 166 203 247 291
#     4  10  20  34  52  73  98 129 165 209 250 287
#     4  10  18  31  49  70  98 129 161 197 242 291
#
# _framework density 17.984013999999998
#
# number of rings (size 3 to 8) (size 9 to 14) (size 15 to 20)
#    0.000    2.250    0.000    6.000    1.750    4.500 
#    0.000    0.000    0.000    0.000    0.000    0.875 
#    0.000    0.000    0.000    0.000    0.000    0.000 
#
# Total GULP energy -396624.554811 kJ/mol
# GULP energy per Si atom -12394.517338 kJ/mol
# Density = 1.794308 g / cm^3
# Si number density = 17.984014 Si / 1000 Ang^3
#
#
#
# Elastic Constant Matrix: (Units=GPa)
#
#
# Indices 1 2 3 4 5 6 
#
# 1 83.4191 35.1600 11.0010 0.0000 -0.4964 0.0000
# 2 35.1600 100.4422 12.2146 0.0000 3.8210 0.0000
# 3 11.0010 12.2146 28.2359 0.0000 1.9760 0.0000
# 4 0.0000 0.0000 0.0000 24.9887 0.0000 0.1922
# 5 -0.4964 3.8210 1.9760 0.0000 24.6119 0.0000
# 6 0.0000 0.0000 0.0000 0.1922 0.0000 30.6003
#
#
#
# Elastic Compliance Matrix: (Units=1/GPa)
#
#
# Indices 1 2 3 4 5 6 
#
# 1 0.014447 -0.004656 -0.003706 0.000000 0.001312 0.000000
# 2 -0.004656 0.012049 -0.003279 0.000000 -0.001701 0.000000
# 3 -0.003706 -0.003279 0.038464 0.000000 -0.002654 0.000000
# 4 0.000000 0.000000 0.000000 0.040020 0.000000 -0.000251
# 5 0.001312 -0.001701 -0.002654 0.000000 0.041134 0.000000
# 6 0.000000 0.000000 0.000000 -0.000251 0.000000 0.032681
#
#
# Mechanical properties :
#
#
# Convention : Reuss Voigt Hill
#
# Bulk Modulus (GPa) = 23.99410 36.53871 30.26640
# Shear Modulus (GPa) = 23.15119 26.28828 24.71974
#
# Velocity S-wave (km/s) = 3.59182 3.82744 3.71150
# Velocity P-wave (km/s) = 5.52923 6.31616 5.93575
#
# Compressibility (1/GPa) = 0.04167691
#
# Stress axis : x y z
#
# Youngs Moduli (GPa) = 69.21950 82.99138 25.99824
#
# Poissons Ratio (x) = 0.38644 0.09635
# Poissons Ratio (y) = 0.32231 0.08526
# Poissons Ratio (z) = 0.25654 0.27215
#
# Static dielectric constant tensor:
#      x y z
#    x 3.530850 0.000000 0.284070 
#    y 0.000000 3.541290 0.000000 
#    z 0.284070 0.000000 3.412740 
# 
# 
# High freq. dielectric constant tensor:
#      x y z
#    x 1.690850 0.000000 0.010190 
#    y 0.000000 1.708800 0.000000 
#    z 0.010190 0.000000 1.652450 
# 
# From -- ./inp_files/56474.got.cif
#   From: 2010.06.25/outbox.cif.g09.slc.cpg/sg11_29_cif.got.tgz:56474.got - 2010.06.27 23:14:04.
