data_PCOD8069169
_publ_section_title
;
Structure prediction by ZEFSAII (Michael W. Deem and Ramdas Pophale) SiO2 
 PCOD8069169
Probable space group: P 21/M
;
_chemical_formula_sum "Si O2"
_cell_formula_units_Z 28
_cell_length_a 8.216716
_cell_length_b 17.804236
_cell_length_c 15.041993
_cell_angle_alpha 90.000000
_cell_angle_beta 46.424566
_cell_angle_gamma 90.000000
_cell_volume 1594.211337
_symmetry_space_group_name_H-M "P 21/M"
_symmetry_group_IT_number 11
_symmetry_cell_setting 'monoclinic'
loop_
_space_group_symop_operation_xyz
x,y,z
-x,1/2+y,-z
-x,-y,-z
x,1/2-y,z
loop_
_atom_site_type_symbol
_atom_site_label
_atom_site_fract_x
_atom_site_fract_y
_atom_site_fract_z
Si Si1 0.903689 0.939139 0.970549
Si Si2 0.457646 0.557159 0.223112
Si Si3 0.337149 0.567629 0.574421
Si Si4 0.233947 0.838035 0.450732
Si Si5 0.158541 0.031683 0.205311
Si Si6 0.762527 0.833441 0.709117
Si Si7 0.621970 0.098688 0.245406
O O1 0.825665 0.977143 0.906918
O O2 0.115761 0.883743 0.876856
O O3 0.682296 0.902493 0.098976
O O4 0.000000 0.000000 0.000000
O O5 0.319684 0.616887 0.332618
O O6 0.300299 0.533456 0.199767
O O7 0.532344 0.484324 0.251838
O O8 0.500000 0.500000 0.500000
O O9 0.363099 0.630097 0.488178
O O10 0.397759 0.609740 0.642235
O O11 0.096531 0.527150 0.666513
O O12 0.287861 0.750000 0.418398
O O13 0.968107 0.853153 0.564887
O O14 0.251184 0.113244 0.199975
O O15 0.793083 0.750000 0.735438
O O16 0.530944 0.838532 0.742199
#
# Coordination Sequence:
#
# PCOD8069169 Si02
#       7
#     4   4   4   4   4   4   4
#     4   9  18  33  51  80 103 127 168 220 257 292
#     4  10  18  32  53  73 104 135 169 211 246 310
#     4  10  18  30  51  77 105 130 171 217 255 303
#     4  10  21  34  49  74 106 139 166 203 264 318
#     4   9  19  31  53  79  96 135 176 210 257 299
#     4   9  19  34  51  73 105 132 168 215 255 304
#     4   9  18  31  53  78  99 130 174 211 255 292
#
# _framework density 17.563544
#
# number of rings (size 3 to 8) (size 9 to 14) (size 15 to 20)
#    0.000    2.571    1.429    0.429    2.000    2.286 
#    0.000    3.571    0.000    0.000    0.000    0.000 
#    0.000    0.000    0.000    0.000    0.000    0.000 
#
# Total GULP energy -346994.952498 kJ/mol
# GULP energy per Si atom -12392.676875 kJ/mol
# Density = 1.752357 g / cm^3
# Si number density = 17.563544 Si / 1000 Ang^3
#
#
#
# Elastic Constant Matrix: (Units=GPa)
#
#
# Indices 1 2 3 4 5 6 
#
# 1 123.5750 31.2244 49.0035 0.0000 8.2565 0.0000
# 2 31.2244 65.0198 36.5269 0.0000 4.5521 0.0000
# 3 49.0035 36.5269 90.5557 0.0000 12.5038 0.0000
# 4 0.0000 0.0000 0.0000 15.7431 0.0000 -1.5805
# 5 8.2565 4.5521 12.5038 0.0000 26.4444 0.0000
# 6 0.0000 0.0000 0.0000 -1.5805 0.0000 19.8373
#
#
#
# Elastic Compliance Matrix: (Units=1/GPa)
#
#
# Indices 1 2 3 4 5 6 
#
# 1 0.010600 -0.002422 -0.004664 0.000000 -0.000687 0.000000
# 2 -0.002422 0.020443 -0.007012 0.000000 0.000552 0.000000
# 3 -0.004664 -0.007012 0.017147 0.000000 -0.005444 0.000000
# 4 0.000000 0.000000 0.000000 0.064032 0.000000 0.005102
# 5 -0.000687 0.000552 -0.005444 0.000000 0.040509 0.000000
# 6 0.000000 0.000000 0.000000 0.005102 0.000000 0.050817
#
#
# Mechanical properties :
#
#
# Convention : Reuss Voigt Hill
#
# Bulk Modulus (GPa) = 50.01424 56.96224 53.48824
# Shear Modulus (GPa) = 20.97242 23.23133 22.10188
#
# Velocity S-wave (km/s) = 3.45931 3.64084 3.55123
# Velocity P-wave (km/s) = 6.67036 7.08356 6.88006
#
# Compressibility (1/GPa) = 0.01999430
#
# Stress axis : x y z
#
# Youngs Moduli (GPa) = 94.34235 48.91546 58.31948
#
# Poissons Ratio (x) = 0.11847 0.27201
# Poissons Ratio (y) = 0.22849 0.40892
# Poissons Ratio (z) = 0.44002 0.34298
#
# Static dielectric constant tensor:
#      x y z
#    x 3.612380 0.000000 -0.135940 
#    y 0.000000 2.963350 0.000000 
#    z -0.135940 0.000000 3.395350 
# 
# 
# High freq. dielectric constant tensor:
#      x y z
#    x 1.695930 0.000000 -0.005360 
#    y 0.000000 1.637050 0.000000 
#    z -0.005360 0.000000 1.683380 
# 
# From -- ./inp_files/47980.got.cif
#   From: 2010.06.25/outbox.cif.g09.slc.cpg/sg11_24_cif.got.tgz:47980.got - 2010.06.27 23:14:04.
