data_PCOD8069642
_publ_section_title
;
Structure prediction by ZEFSAII (Michael W. Deem and Ramdas Pophale) SiO2 
 PCOD8069642
Probable space group: P 21/M
;
_chemical_formula_sum "Si O2"
_cell_formula_units_Z 32
_cell_length_a 11.079877
_cell_length_b 8.566705
_cell_length_c 26.189816
_cell_angle_alpha 90.000000
_cell_angle_beta 144.674615
_cell_angle_gamma 90.000000
_cell_volume 1437.386879
_symmetry_space_group_name_H-M "P 21/M"
_symmetry_group_IT_number 11
_symmetry_cell_setting 'monoclinic'
loop_
_space_group_symop_operation_xyz
x,y,z
-x,1/2+y,-z
-x,-y,-z
x,1/2-y,z
loop_
_atom_site_type_symbol
_atom_site_label
_atom_site_fract_x
_atom_site_fract_y
_atom_site_fract_z
Si Si1 0.671681 0.934838 0.522715
Si Si2 0.166944 0.075567 0.595737
Si Si3 0.669607 0.932726 0.017273
Si Si4 0.466699 0.575603 0.351176
Si Si5 0.220675 0.932969 0.055674
Si Si6 0.966176 0.932559 0.797377
Si Si7 0.953049 0.071985 0.285717
Si Si8 0.400189 0.573071 0.765104
O O1 0.674675 0.750000 0.523238
O O2 0.618201 0.994285 0.447517
O O3 0.892236 0.004383 0.618612
O O4 0.500000 0.000000 0.500000
O O5 0.089177 0.250000 0.582001
O O6 0.397373 0.081851 0.652182
O O7 0.213136 0.977236 0.662418
O O8 0.000000 0.000000 0.500000
O O9 0.623889 0.750000 0.997049
O O10 0.900306 0.967180 0.117209
O O11 0.500000 0.000000 0.000000
O O12 0.681848 0.999633 0.963541
O O13 0.384817 0.750000 0.337038
O O14 0.276849 0.458974 0.275194
O O15 0.191183 0.750000 0.038706
O O16 0.391235 0.968809 0.159293
O O17 0.000000 0.000000 0.000000
O O18 0.021643 0.750000 0.822366
O O19 0.019762 0.004689 0.760294
O O20 0.025833 0.250000 0.304267
O O21 0.712554 0.059729 0.218708
O O22 0.466297 0.750000 0.775324
#
# Coordination Sequence:
#
# PCOD8069642 Si02
#       8
#     4   4   4   4   4   4   4   4
#     4  10  18  33  54  82 118 163 208 259 318 384
#     4  11  24  43  65  92 129 174 225 277 333 400
#     4  12  26  47  73 103 140 180 227 286 349 418
#     4  10  22  38  58  85 125 168 211 266 332 396
#     4  12  27  49  75 106 141 184 235 291 354 423
#     4  11  22  38  64  96 129 168 217 269 328 403
#     4   9  19  36  60  90 128 169 211 263 325 387
#     4  11  23  43  70  98 133 177 221 275 338 403
#
# _framework density 22.262619000000001
#
# number of rings (size 3 to 8) (size 9 to 14) (size 15 to 20)
#    0.000    1.250    1.250    4.875    1.750    4.000 
#    0.000    4.375    0.000    0.000    0.000    0.000 
#    0.000    0.000    0.000    0.000    0.000    0.000 
#
# Total GULP energy -396546.881202 kJ/mol
# GULP energy per Si atom -12392.090038 kJ/mol
# Density = 2.221195 g / cm^3
# Si number density = 22.262619 Si / 1000 Ang^3
#
#
#
# Elastic Constant Matrix: (Units=GPa)
#
#
# Indices 1 2 3 4 5 6 
#
# 1 90.1640 35.7403 22.9679 0.0000 4.0578 0.0000
# 2 35.7403 114.0738 36.6212 0.0000 2.9477 0.0000
# 3 22.9679 36.6212 132.6417 0.0000 -3.4250 0.0000
# 4 0.0000 0.0000 0.0000 36.3862 0.0000 2.2577
# 5 4.0578 2.9477 -3.4250 0.0000 29.5514 0.0000
# 6 0.0000 0.0000 0.0000 2.2577 0.0000 32.0899
#
#
#
# Elastic Compliance Matrix: (Units=1/GPa)
#
#
# Indices 1 2 3 4 5 6 
#
# 1 0.012913 -0.003593 -0.001284 0.000000 -0.001564 0.000000
# 2 -0.003593 0.010666 -0.002344 0.000000 -0.000842 0.000000
# 3 -0.001284 -0.002344 0.008445 0.000000 0.001389 0.000000
# 4 0.000000 0.000000 0.000000 0.027603 0.000000 -0.001942
# 5 -0.001564 -0.000842 0.001389 0.000000 0.034299 0.000000
# 6 0.000000 0.000000 0.000000 -0.001942 0.000000 0.031299
#
#
# Mechanical properties :
#
#
# Convention : Reuss Voigt Hill
#
# Bulk Modulus (GPa) = 56.88227 58.61537 57.74882
# Shear Modulus (GPa) = 34.35746 35.70884 35.03315
#
# Velocity S-wave (km/s) = 3.93272 4.00932 3.97121
# Velocity P-wave (km/s) = 6.79910 6.91513 6.85736
#
# Compressibility (1/GPa) = 0.01758017
#
# Stress axis : x y z
#
# Youngs Moduli (GPa) = 77.44353 93.75255 118.41810
#
# Poissons Ratio (x) = 0.33685 0.15209
# Poissons Ratio (y) = 0.27825 0.27763
# Poissons Ratio (z) = 0.09946 0.21980
#
# Static dielectric constant tensor:
#      x y z
#    x 4.059800 0.000000 -0.113650 
#    y 0.000000 3.847100 0.000000 
#    z -0.113650 0.000000 4.185700 
# 
# 
# High freq. dielectric constant tensor:
#      x y z
#    x 1.882380 0.000000 -0.001390 
#    y 0.000000 1.859330 0.000000 
#    z -0.001390 0.000000 1.893330 
# 
# From -- ./inp_files/73204.got.cif
#   From: 2010.06.25/outbox.cif.g09.slc.cpg/sg11_37_cif.got.tgz:73204.got - 2010.06.27 23:14:04.
