data_PCOD8069924
_publ_section_title
;
Structure prediction by ZEFSAII (Michael W. Deem and Ramdas Pophale) SiO2 
 PCOD8069924
Probable space group: P 21/M
;
_chemical_formula_sum "Si O2"
_cell_formula_units_Z 32
_cell_length_a 15.771337
_cell_length_b 9.236436
_cell_length_c 16.010913
_cell_angle_alpha 90.000000
_cell_angle_beta 109.008754
_cell_angle_gamma 90.000000
_cell_volume 2205.140405
_symmetry_space_group_name_H-M "P 21/M"
_symmetry_group_IT_number 11
_symmetry_cell_setting 'monoclinic'
loop_
_space_group_symop_operation_xyz
x,y,z
-x,1/2+y,-z
-x,-y,-z
x,1/2-y,z
loop_
_atom_site_type_symbol
_atom_site_label
_atom_site_fract_x
_atom_site_fract_y
_atom_site_fract_z
Si Si1 0.417348 0.418725 0.514548
Si Si2 0.000809 0.582398 0.086728
Si Si3 0.514885 0.417190 0.127412
Si Si4 0.472600 0.580511 0.679965
Si Si5 0.197117 0.413912 0.985037
Si Si6 0.663732 0.917175 0.678369
Si Si7 0.832689 0.580194 0.830708
Si Si8 0.634591 0.080847 0.011087
O O1 0.500000 0.500000 0.500000
O O2 0.439187 0.250000 0.533847
O O3 0.400319 0.493666 0.599231
O O4 0.335301 0.439234 0.422337
O O5 0.025537 0.750000 0.080535
O O6 0.076912 0.505798 0.167898
O O7 0.899986 0.568077 0.091253
O O8 0.000000 0.500000 0.000000
O O9 0.486628 0.250000 0.111102
O O10 0.549941 0.453507 0.231243
O O11 0.594488 0.456433 0.089263
O O12 0.426288 0.509252 0.080008
O O13 0.464330 0.750000 0.656194
O O14 0.572483 0.520710 0.690515
O O15 0.231836 0.250000 0.986271
O O16 0.191301 0.453164 0.081019
O O17 0.265300 0.519505 0.960148
O O18 0.666010 0.750000 0.703730
O O19 0.752721 0.985720 0.747842
O O20 0.849871 0.750000 0.821377
O O21 0.637324 0.250000 0.994714
#
# Coordination Sequence:
#
# PCOD8069924 Si02
#       8
#     4   4   4   4   4   4   4   4
#     4   9  16  26  39  57  80 104 132 163 193 229
#     4   9  17  28  40  56  77 102 131 162 196 231
#     4   9  18  31  43  56  79 108 134 165 206 241
#     4   9  16  28  43  55  74 107 139 163 193 233
#     4   9  17  28  41  55  77 109 135 157 194 239
#     4   8  14  24  39  57  77 103 130 155 188 231
#     4   9  16  27  42  58  77 105 136 160 190 233
#     4  10  19  28  41  61  80 101 135 173 200 230
#
# _framework density 14.511547999999999
#
# number of rings (size 3 to 8) (size 9 to 14) (size 15 to 20)
#    0.000    3.000    0.000    3.375    0.000    5.500 
#    0.000    3.125    0.000    0.000    0.000    0.000 
#    0.000    1.000    0.000    2.250    0.000    4.000 
#
# Total GULP energy -396557.668501 kJ/mol
# GULP energy per Si atom -12392.427141 kJ/mol
# Density = 1.447852 g / cm^3
# Si number density = 14.511548 Si / 1000 Ang^3
#
#
#
# Elastic Constant Matrix: (Units=GPa)
#
#
# Indices 1 2 3 4 5 6 
#
# 1 67.9020 35.9397 37.0443 0.0000 10.6059 0.0000
# 2 35.9397 64.5903 35.8636 0.0000 3.1918 0.0000
# 3 37.0443 35.8636 92.7738 0.0000 7.1463 0.0000
# 4 0.0000 0.0000 0.0000 22.5993 0.0000 2.3832
# 5 10.6059 3.1918 7.1463 0.0000 19.8314 0.0000
# 6 0.0000 0.0000 0.0000 2.3832 0.0000 23.3168
#
#
#
# Elastic Compliance Matrix: (Units=1/GPa)
#
#
# Indices 1 2 3 4 5 6 
#
# 1 0.024436 -0.010333 -0.005023 0.000000 -0.009595 0.000000
# 2 -0.010333 0.024087 -0.005464 0.000000 0.003618 0.000000
# 3 -0.005023 -0.005464 0.015040 0.000000 -0.001854 0.000000
# 4 0.000000 0.000000 0.000000 0.044731 0.000000 -0.004572
# 5 -0.009595 0.003618 -0.001854 0.000000 0.055642 0.000000
# 6 0.000000 0.000000 0.000000 -0.004572 0.000000 0.043355
#
#
# Mechanical properties :
#
#
# Convention : Reuss Voigt Hill
#
# Bulk Modulus (GPa) = 45.61841 49.21791 47.41816
# Shear Modulus (GPa) = 19.51305 20.91073 20.21189
#
# Velocity S-wave (km/s) = 3.67093 3.80013 3.73609
# Velocity P-wave (km/s) = 7.03362 7.29690 7.16647
#
# Compressibility (1/GPa) = 0.02192097
#
# Stress axis : x y z
#
# Youngs Moduli (GPa) = 40.92394 41.51634 66.49046
#
# Poissons Ratio (x) = 0.42900 0.33401
# Poissons Ratio (y) = 0.42287 0.36330
# Poissons Ratio (z) = 0.20558 0.22685
#
# Static dielectric constant tensor:
#      x y z
#    x 2.829710 0.000000 0.207590 
#    y 0.000000 2.902020 0.000000 
#    z 0.207590 0.000000 3.098830 
# 
# 
# High freq. dielectric constant tensor:
#      x y z
#    x 1.522950 0.000000 0.013590 
#    y 0.000000 1.555640 0.000000 
#    z 0.013590 0.000000 1.540340 
# 
# From -- ./inp_files/59886.got.cif
#   From: 2010.06.25/outbox.cif.g09.slc.cpg/sg11_30_cif.got.tgz:59886.got - 2010.06.27 23:14:04.
