data_PCOD8069272
_publ_section_title
;
Structure prediction by ZEFSAII (Michael W. Deem and Ramdas Pophale) SiO2 
 PCOD8069272
Probable space group: P 21/M
;
_chemical_formula_sum "Si O2"
_cell_formula_units_Z 32
_cell_length_a 26.612508
_cell_length_b 8.919930
_cell_length_c 20.835685
_cell_angle_alpha 90.000000
_cell_angle_beta 20.575208
_cell_angle_gamma 90.000000
_cell_volume 1738.209019
_symmetry_space_group_name_H-M "P 21/M"
_symmetry_group_IT_number 11
_symmetry_cell_setting 'monoclinic'
loop_
_space_group_symop_operation_xyz
x,y,z
-x,1/2+y,-z
-x,-y,-z
x,1/2-y,z
loop_
_atom_site_type_symbol
_atom_site_label
_atom_site_fract_x
_atom_site_fract_y
_atom_site_fract_z
Si Si1 0.424627 0.421470 0.147623
Si Si2 0.688192 0.427046 0.905171
Si Si3 0.846238 0.572786 0.595243
Si Si4 0.213946 0.575487 0.734887
Si Si5 0.183223 0.427825 0.003087
Si Si6 0.866738 0.928564 0.794660
Si Si7 0.520134 0.574371 0.407460
Si Si8 0.968059 0.926476 0.940234
O O1 0.443094 0.250000 0.108856
O O2 0.255274 0.460876 0.346390
O O3 0.500000 0.500000 0.000000
O O4 0.515842 0.458375 0.102911
O O5 0.722045 0.250000 0.866445
O O6 0.777610 0.502848 0.740993
O O7 0.728837 0.505664 0.923179
O O8 0.870155 0.750000 0.577035
O O9 0.994670 0.492167 0.405905
O O10 0.187732 0.750000 0.778704
O O11 0.382344 0.539139 0.526941
O O12 0.126775 0.524855 0.774817
O O13 0.153876 0.490674 0.868226
O O14 0.189855 0.250000 0.998628
O O15 0.339471 0.490132 0.795870
O O16 0.139914 0.489998 0.124531
O O17 0.063670 0.482685 0.094376
O O18 0.866490 0.750000 0.791451
O O19 0.500000 0.500000 0.500000
O O20 0.536584 0.750000 0.399957
O O21 0.949870 0.750000 0.964261
#
# Coordination Sequence:
#
# PCOD8069272 Si02
#       8
#     4   4   4   4   4   4   4   4
#     4   8  16  30  51  76 101 126 159 204 253 300
#     4  10  19  34  55  79 104 133 169 212 257 303
#     4  10  19  34  55  79 103 132 170 213 258 303
#     4   9  17  27  47  77  99 117 154 202 244 288
#     4   9  19  34  50  67  97 136 169 203 249 299
#     4  11  22  35  49  71 103 140 177 212 252 302
#     4  10  18  31  50  74  98 124 159 201 245 293
#     4   9  16  30  49  69  96 127 155 193 244 295
#
# _framework density 18.409755000000001
#
# number of rings (size 3 to 8) (size 9 to 14) (size 15 to 20)
#    0.000    2.500    1.250    1.500    0.000    1.000 
#    0.000    3.750    0.000    3.000    0.000    0.000 
#    0.000    0.000    0.000    0.000    0.000    0.000 
#
# Total GULP energy -396457.332206 kJ/mol
# GULP energy per Si atom -12389.291631 kJ/mol
# Density = 1.836785 g / cm^3
# Si number density = 18.409755 Si / 1000 Ang^3
#
#
#
# Elastic Constant Matrix: (Units=GPa)
#
#
# Indices 1 2 3 4 5 6 
#
# 1 147.5459 31.1352 36.7668 0.0000 -16.6858 0.0000
# 2 31.1352 46.0116 12.3127 0.0000 -7.1402 0.0000
# 3 36.7668 12.3127 38.0823 0.0000 -10.6823 0.0000
# 4 0.0000 0.0000 0.0000 16.6246 0.0000 -2.1641
# 5 -16.6858 -7.1402 -10.6823 0.0000 29.2605 0.0000
# 6 0.0000 0.0000 0.0000 -2.1641 0.0000 24.7552
#
#
#
# Elastic Compliance Matrix: (Units=1/GPa)
#
#
# Indices 1 2 3 4 5 6 
#
# 1 0.009767 -0.004318 -0.007539 0.000000 0.001764 0.000000
# 2 -0.004318 0.025998 -0.003507 0.000000 0.002601 0.000000
# 3 -0.007539 -0.003507 0.037016 0.000000 0.008359 0.000000
# 4 0.000000 0.000000 0.000000 0.060844 0.000000 0.005319
# 5 0.001764 0.002601 0.008359 0.000000 0.038868 0.000000
# 6 0.000000 0.000000 0.000000 0.005319 0.000000 0.040861
#
#
# Mechanical properties :
#
#
# Convention : Reuss Voigt Hill
#
# Bulk Modulus (GPa) = 23.77954 43.56324 33.67139
# Shear Modulus (GPa) = 19.37254 24.22306 21.79780
#
# Velocity S-wave (km/s) = 3.24743 3.63129 3.44471
# Velocity P-wave (km/s) = 5.19673 6.42621 5.84389
#
# Compressibility (1/GPa) = 0.04205296
#
# Stress axis : x y z
#
# Youngs Moduli (GPa) = 102.38873 38.46493 27.01562
#
# Poissons Ratio (x) = 0.16609 0.20366
# Poissons Ratio (y) = 0.44211 0.09475
# Poissons Ratio (z) = 0.77186 0.13490
#
# Static dielectric constant tensor:
#      x y z
#    x 4.086770 0.000000 -0.572840 
#    y 0.000000 3.295130 0.000000 
#    z -0.572840 0.000000 3.530800 
# 
# 
# High freq. dielectric constant tensor:
#      x y z
#    x 1.720250 0.000000 -0.037150 
#    y 0.000000 1.705470 0.000000 
#    z -0.037150 0.000000 1.693130 
# 
# From -- ./inp_files/67098.got.cif
#   From: 2010.06.25/outbox.cif.g09.slc.cpg/sg11_34_cif.got.tgz:67098.got - 2010.06.27 23:14:04.
