data_PCOD8069855
_publ_section_title
;
Structure prediction by ZEFSAII (Michael W. Deem and Ramdas Pophale) SiO2 
 PCOD8069855
Probable space group: P 21/M
;
_chemical_formula_sum "Si O2"
_cell_formula_units_Z 32
_cell_length_a 16.275592
_cell_length_b 8.539960
_cell_length_c 24.884639
_cell_angle_alpha 90.000000
_cell_angle_beta 153.103051
_cell_angle_gamma 90.000000
_cell_volume 1564.711605
_symmetry_space_group_name_H-M "P 21/M"
_symmetry_group_IT_number 11
_symmetry_cell_setting 'monoclinic'
loop_
_space_group_symop_operation_xyz
x,y,z
-x,1/2+y,-z
-x,-y,-z
x,1/2-y,z
loop_
_atom_site_type_symbol
_atom_site_label
_atom_site_fract_x
_atom_site_fract_y
_atom_site_fract_z
Si Si1 0.552282 0.435907 0.088181
Si Si2 0.954253 0.432036 0.330702
Si Si3 0.719948 0.435003 0.981798
Si Si4 0.755665 0.567213 0.583379
Si Si5 0.461400 0.065093 0.226022
Si Si6 0.151611 0.063967 0.549906
Si Si7 0.577204 0.934551 0.675761
Si Si8 0.127728 0.436323 0.233576
O O1 0.554048 0.250000 0.086662
O O2 0.753407 0.506574 0.217635
O O3 0.416244 0.488668 0.055232
O O4 0.500000 0.500000 0.000000
O O5 0.928380 0.250000 0.325917
O O6 0.046813 0.466997 0.327439
O O7 0.092513 0.494824 0.456419
O O8 0.709395 0.250000 0.982695
O O9 0.674635 0.481711 0.894390
O O10 0.922630 0.500171 0.111080
O O11 0.707993 0.750000 0.552472
O O12 0.601167 0.476600 0.461524
O O13 0.771528 0.504981 0.653524
O O14 0.432592 0.250000 0.205767
O O15 0.425024 0.997368 0.264919
O O16 0.663800 0.021524 0.326227
O O17 0.176767 0.250000 0.569216
O O18 0.000000 0.000000 0.500000
O O19 0.586366 0.750000 0.685144
O O20 0.755282 0.999615 0.748681
O O21 0.122559 0.250000 0.231056
#
# Coordination Sequence:
#
# PCOD8069855 Si02
#       8
#     4   4   4   4   4   4   4   4
#     4  11  22  39  61  88 123 161 200 245 298 356
#     4   9  19  34  55  81 112 150 190 234 287 348
#     4  11  23  41  63  86 116 159 210 254 300 362
#     4  10  18  35  61  87 116 150 193 243 299 364
#     4  11  23  39  58  84 123 160 196 250 307 361
#     4  11  21  36  58  84 114 151 198 244 295 354
#     4  10  21  38  59  87 121 156 195 247 306 361
#     4   9  20  38  61  86 116 156 199 248 309 363
#
# _framework density 20.451053000000002
#
# number of rings (size 3 to 8) (size 9 to 14) (size 15 to 20)
#    0.000    1.750    1.250    3.375    0.000    4.000 
#    0.000    6.875    0.000    0.000    0.000    0.000 
#    0.000    0.000    0.000    0.000    0.000    0.000 
#
# Total GULP energy -396781.445124 kJ/mol
# GULP energy per Si atom -12399.420160 kJ/mol
# Density = 2.040451 g / cm^3
# Si number density = 20.451053 Si / 1000 Ang^3
#
#
#
# Elastic Constant Matrix: (Units=GPa)
#
#
# Indices 1 2 3 4 5 6 
#
# 1 127.5511 10.4570 40.4552 0.0000 -4.9457 0.0000
# 2 10.4570 35.4613 10.5042 0.0000 -1.4857 0.0000
# 3 40.4552 10.5042 112.3198 0.0000 -4.9111 0.0000
# 4 0.0000 0.0000 0.0000 28.5790 0.0000 -3.0171
# 5 -4.9457 -1.4857 -4.9111 0.0000 39.4545 0.0000
# 6 0.0000 0.0000 0.0000 -3.0171 0.0000 25.9699
#
#
#
# Elastic Compliance Matrix: (Units=1/GPa)
#
#
# Indices 1 2 3 4 5 6 
#
# 1 0.008972 -0.001716 -0.003041 0.000000 0.000681 0.000000
# 2 -0.001716 0.029354 -0.002100 0.000000 0.000629 0.000000
# 3 -0.003041 -0.002100 0.010230 0.000000 0.000813 0.000000
# 4 0.000000 0.000000 0.000000 0.035425 0.000000 0.004116
# 5 0.000681 0.000629 0.000813 0.000000 0.025556 0.000000
# 6 0.000000 0.000000 0.000000 0.004116 0.000000 0.038984
#
#
# Mechanical properties :
#
#
# Convention : Reuss Voigt Hill
#
# Bulk Modulus (GPa) = 28.70069 44.24055 36.47062
# Shear Modulus (GPa) = 28.76051 33.06174 30.91112
#
# Velocity S-wave (km/s) = 3.75415 4.02509 3.89198
# Velocity P-wave (km/s) = 5.73200 6.57884 6.16997
#
# Compressibility (1/GPa) = 0.03484237
#
# Stress axis : x y z
#
# Youngs Moduli (GPa) = 111.46209 34.06681 97.74794
#
# Poissons Ratio (x) = 0.05847 0.29726
# Poissons Ratio (y) = 0.19129 0.20523
# Poissons Ratio (z) = 0.33897 0.07152
#
# Static dielectric constant tensor:
#      x y z
#    x 4.036740 0.000000 0.011440 
#    y 0.000000 3.466660 0.000000 
#    z 0.011440 0.000000 3.911530 
# 
# 
# High freq. dielectric constant tensor:
#      x y z
#    x 1.817120 0.000000 -0.000730 
#    y 0.000000 1.772980 0.000000 
#    z -0.000730 0.000000 1.808720 
# 
# From -- ./inp_files/69095.got.cif
#   From: 2010.06.25/outbox.cif.g09.slc.cpg/sg11_35_cif.got.tgz:69095.got - 2010.06.27 23:14:04.
