data_PCOD8069993
_publ_section_title
;
Structure prediction by ZEFSAII (Michael W. Deem and Ramdas Pophale) SiO2 
 PCOD8069993
Probable space group: P 21/M
;
_chemical_formula_sum "Si O2"
_cell_formula_units_Z 24
_cell_length_a 12.418674
_cell_length_b 13.260530
_cell_length_c 13.235555
_cell_angle_alpha 90.000000
_cell_angle_beta 132.456886
_cell_angle_gamma 90.000000
_cell_volume 1608.082701
_symmetry_space_group_name_H-M "P 21/M"
_symmetry_group_IT_number 11
_symmetry_cell_setting 'monoclinic'
loop_
_space_group_symop_operation_xyz
x,y,z
-x,1/2+y,-z
-x,-y,-z
x,1/2-y,z
loop_
_atom_site_type_symbol
_atom_site_label
_atom_site_fract_x
_atom_site_fract_y
_atom_site_fract_z
Si Si1 0.170335 0.487241 0.803529
Si Si2 0.378650 0.133775 0.066715
Si Si3 0.288006 0.631790 0.711720
Si Si4 0.101291 0.631097 0.402223
Si Si5 0.941070 0.481099 0.813114
Si Si6 0.143465 0.133808 0.084824
O O1 0.213702 0.578070 0.759122
O O2 0.063828 0.407334 0.678397
O O3 0.080756 0.531066 0.843570
O O4 0.315089 0.430464 0.933652
O O5 0.369318 0.250000 0.028131
O O6 0.543878 0.099813 0.191584
O O7 0.289623 0.115591 0.113265
O O8 0.268571 0.750000 0.717514
O O9 0.209251 0.597040 0.559299
O O10 0.099175 0.750000 0.386341
O O11 0.155846 0.579413 0.331470
O O12 0.845470 0.567696 0.805791
O O13 0.000355 0.400247 0.932173
O O14 0.125780 0.250000 0.104066
#
# Coordination Sequence:
#
# PCOD8069993 Si02
#       6
#     4   4   4   4   4   4
#     4   9  17  29  47  64  89 112 151 176 215 259
#     4   9  17  29  47  66  87 118 150 175 210 259
#     4  10  19  29  43  67  93 116 142 180 221 256
#     4   9  17  30  46  65  88 114 147 181 217 262
#     4   8  17  26  45  67  84 110 149 178 217 255
#     4   9  15  28  45  65  88 112 146 183 213 254
#
# _framework density 14.924605
#
# number of rings (size 3 to 8) (size 9 to 14) (size 15 to 20)
#    1.000    2.000    0.000    2.000    0.000    0.667 
#    0.000    0.833    0.000    0.000    0.000    0.000 
#    0.000    0.000    0.000    0.000    0.000    0.000 
#
# Total GULP energy -297407.764444 kJ/mol
# GULP energy per Si atom -12391.990185 kJ/mol
# Density = 1.489064 g / cm^3
# Si number density = 14.924605 Si / 1000 Ang^3
#
#
#
# Elastic Constant Matrix: (Units=GPa)
#
#
# Indices 1 2 3 4 5 6 
#
# 1 50.9569 42.0544 40.3501 0.0000 -8.8015 0.0000
# 2 42.0544 70.1829 44.4033 0.0000 -8.0207 0.0000
# 3 40.3501 44.4033 113.1848 0.0000 1.0160 0.0000
# 4 0.0000 0.0000 0.0000 17.9052 0.0000 -8.6979
# 5 -8.8015 -8.0207 1.0160 0.0000 17.8156 0.0000
# 6 0.0000 0.0000 0.0000 -8.6979 0.0000 29.0163
#
#
#
# Elastic Compliance Matrix: (Units=1/GPa)
#
#
# Indices 1 2 3 4 5 6 
#
# 1 0.045389 -0.020369 -0.008313 0.000000 0.013727 0.000000
# 2 -0.020369 0.029640 -0.004398 0.000000 0.003532 0.000000
# 3 -0.008313 -0.004398 0.013586 0.000000 -0.006862 0.000000
# 4 0.000000 0.000000 0.000000 0.065368 0.000000 0.019595
# 5 0.013727 0.003532 -0.006862 0.000000 0.064894 0.000000
# 6 0.000000 0.000000 0.000000 0.019595 0.000000 0.040337
#
#
# Mechanical properties :
#
#
# Convention : Reuss Voigt Hill
#
# Bulk Modulus (GPa) = 44.53617 54.21556 49.37587
# Shear Modulus (GPa) = 15.02133 20.11521 17.56827
#
# Velocity S-wave (km/s) = 3.17595 3.67521 3.43466
# Velocity P-wave (km/s) = 6.58441 7.37663 6.99175
#
# Compressibility (1/GPa) = 0.02245366
#
# Stress axis : x y z
#
# Youngs Moduli (GPa) = 22.03185 33.73794 73.60589
#
# Poissons Ratio (x) = 0.68721 0.61191
# Poissons Ratio (y) = 0.44877 0.32374
# Poissons Ratio (z) = 0.18316 0.14839
#
# Static dielectric constant tensor:
#      x y z
#    x 2.762190 0.000000 -0.026490 
#    y 0.000000 2.746860 0.000000 
#    z -0.026490 0.000000 2.907420 
# 
# 
# High freq. dielectric constant tensor:
#      x y z
#    x 1.556380 0.000000 -0.006130 
#    y 0.000000 1.563500 0.000000 
#    z -0.006130 0.000000 1.566700 
# 
# From -- ./inp_files/24358.got.cif
#   From: 2010.06.25/outbox.cif.g09.slc.cpg/sg11_13_cif.got.tgz:24358.got - 2010.06.27 23:14:04.
