data_PCOD8069490
_publ_section_title
;
Structure prediction by ZEFSAII (Michael W. Deem and Ramdas Pophale) SiO2 
 PCOD8069490
Probable space group: P 21/M
;
_chemical_formula_sum "Si O2"
_cell_formula_units_Z 32
_cell_length_a 12.204694
_cell_length_b 8.981609
_cell_length_c 19.998314
_cell_angle_alpha 90.000000
_cell_angle_beta 124.171317
_cell_angle_gamma 90.000000
_cell_volume 1813.718647
_symmetry_space_group_name_H-M "P 21/M"
_symmetry_group_IT_number 11
_symmetry_cell_setting 'monoclinic'
loop_
_space_group_symop_operation_xyz
x,y,z
-x,1/2+y,-z
-x,-y,-z
x,1/2-y,z
loop_
_atom_site_type_symbol
_atom_site_label
_atom_site_fract_x
_atom_site_fract_y
_atom_site_fract_z
Si Si1 0.807053 0.925686 0.632976
Si Si2 0.650939 0.575557 0.452421
Si Si3 0.287663 0.425811 0.673195
Si Si4 0.599447 0.921750 0.949884
Si Si5 0.437434 0.075724 0.210982
Si Si6 0.688128 0.424749 0.103047
Si Si7 0.111349 0.575194 0.716212
Si Si8 0.638591 0.427096 0.684152
O O1 0.785377 0.750000 0.634397
O O2 0.726262 0.993383 0.542003
O O3 0.959525 0.965570 0.675382
O O4 0.759195 0.009147 0.682861
O O5 0.648334 0.750000 0.461781
O O6 0.728969 0.535298 0.411111
O O7 0.499856 0.517185 0.396150
O O8 0.305124 0.250000 0.689889
O O9 0.416475 0.507907 0.745687
O O10 0.159108 0.486522 0.667131
O O11 0.609381 0.750000 0.971868
O O12 0.636255 0.950227 0.885096
O O13 0.449645 0.978653 0.911460
O O14 0.702195 0.006845 0.033461
O O15 0.450005 0.250000 0.231987
O O16 0.351248 0.993220 0.237750
O O17 0.695617 0.250000 0.097909
O O18 0.807202 0.480604 0.191120
O O19 0.133019 0.750000 0.710855
O O20 0.645922 0.250000 0.691217
#
# Coordination Sequence:
#
# PCOD8069490 Si02
#       8
#     4   4   4   4   4   4   4   4
#     4  10  20  35  54  71  95 136 177 206 246 296
#     4   8  17  33  51  74 100 127 164 212 253 294
#     4  10  19  31  49  74 104 134 165 204 252 295
#     4   9  17  29  48  74 101 127 160 200 242 292
#     4  10  18  32  53  76 103 130 164 205 248 299
#     4   9  17  30  46  70 103 131 160 199 242 290
#     4  10  20  34  50  71 102 138 171 204 241 298
#     4  10  20  34  52  76 104 127 163 214 257 292
#
# _framework density 17.64331
#
# number of rings (size 3 to 8) (size 9 to 14) (size 15 to 20)
#    0.000    2.500    1.250    2.250    0.000    2.500 
#    0.000    3.125    0.000    0.750    0.000    0.000 
#    0.000    0.000    0.000    0.000    0.000    0.000 
#
# Total GULP energy -396769.966012 kJ/mol
# GULP energy per Si atom -12399.061438 kJ/mol
# Density = 1.760315 g / cm^3
# Si number density = 17.643310 Si / 1000 Ang^3
#
#
#
# Elastic Constant Matrix: (Units=GPa)
#
#
# Indices 1 2 3 4 5 6 
#
# 1 117.8423 45.8722 39.8984 0.0000 -16.4235 0.0000
# 2 45.8722 55.2392 23.1587 0.0000 -7.8730 0.0000
# 3 39.8984 23.1587 63.1310 0.0000 -17.8231 0.0000
# 4 0.0000 0.0000 0.0000 23.1312 0.0000 -5.3605
# 5 -16.4235 -7.8730 -17.8231 0.0000 22.1443 0.0000
# 6 0.0000 0.0000 0.0000 -5.3605 0.0000 28.6963
#
#
#
# Elastic Compliance Matrix: (Units=1/GPa)
#
#
# Indices 1 2 3 4 5 6 
#
# 1 0.014147 -0.009353 -0.004512 0.000000 0.003536 0.000000
# 2 -0.009353 0.027624 -0.004410 0.000000 -0.000665 0.000000
# 3 -0.004512 -0.004410 0.024486 0.000000 0.014794 0.000000
# 4 0.000000 0.000000 0.000000 0.045188 0.000000 0.008441
# 5 0.003536 -0.000665 0.014794 0.000000 0.059451 0.000000
# 6 0.000000 0.000000 0.000000 0.008441 0.000000 0.036425
#
#
# Mechanical properties :
#
#
# Convention : Reuss Voigt Hill
#
# Bulk Modulus (GPa) = 33.66163 50.45234 42.05699
# Shear Modulus (GPa) = 19.70273 23.27990 21.49131
#
# Velocity S-wave (km/s) = 3.34537 3.63640 3.49392
# Velocity P-wave (km/s) = 5.83459 6.80360 6.33764
#
# Compressibility (1/GPa) = 0.02970741
#
# Stress axis : x y z
#
# Youngs Moduli (GPa) = 70.68703 36.20041 40.83992
#
# Poissons Ratio (x) = 0.33857 0.18426
# Poissons Ratio (y) = 0.66110 0.18012
# Poissons Ratio (z) = 0.31892 0.15966
#
# Static dielectric constant tensor:
#      x y z
#    x 3.137740 0.000000 -0.182370 
#    y 0.000000 3.144990 0.000000 
#    z -0.182370 0.000000 3.404970 
# 
# 
# High freq. dielectric constant tensor:
#      x y z
#    x 1.664900 0.000000 -0.022410 
#    y 0.000000 1.674490 0.000000 
#    z -0.022410 0.000000 1.677270 
# 
# From -- ./inp_files/42821.got.cif
#   From: 2010.06.25/outbox.cif.g09.slc.cpg/sg11_22_cif.got.tgz:42821.got - 2010.06.27 23:14:04.
