data_PCOD8069682
_publ_section_title
;
Structure prediction by ZEFSAII (Michael W. Deem and Ramdas Pophale) SiO2 
 PCOD8069682
Probable space group: P 21/M
;
_chemical_formula_sum "Si O2"
_cell_formula_units_Z 28
_cell_length_a 20.899913
_cell_length_b 16.883126
_cell_length_c 9.472502
_cell_angle_alpha 90.000000
_cell_angle_beta 153.022116
_cell_angle_gamma 90.000000
_cell_volume 1516.280844
_symmetry_space_group_name_H-M "P 21/M"
_symmetry_group_IT_number 11
_symmetry_cell_setting 'monoclinic'
loop_
_space_group_symop_operation_xyz
x,y,z
-x,1/2+y,-z
-x,-y,-z
x,1/2-y,z
loop_
_atom_site_type_symbol
_atom_site_label
_atom_site_fract_x
_atom_site_fract_y
_atom_site_fract_z
Si Si1 0.407359 0.162152 0.866309
Si Si2 0.211550 0.339001 0.228048
Si Si3 0.321225 0.997273 0.364061
Si Si4 0.633941 0.545967 0.998630
Si Si5 0.318283 0.928340 0.662897
Si Si6 0.886096 0.158890 0.544698
Si Si7 0.845814 0.467811 0.226073
O O1 0.469240 0.250000 0.994449
O O2 0.265449 0.157655 0.494922
O O3 0.378194 0.136536 0.971648
O O4 0.525079 0.107254 0.025592
O O5 0.242628 0.250000 0.226632
O O6 0.287189 0.408447 0.287409
O O7 0.046210 0.356813 0.903379
O O8 0.485620 0.987285 0.649936
O O9 0.277521 0.958796 0.427388
O O10 0.229001 0.948257 0.069238
O O11 0.682684 0.502752 0.236947
O O12 0.753109 0.537795 0.114707
O O13 0.206400 0.864664 0.500942
O O14 0.857240 0.250000 0.450171
O O15 0.845453 0.109087 0.325245
O O16 0.000000 0.500000 0.500000
#
# Coordination Sequence:
#
# PCOD8069682 Si02
#       7
#     4   4   4   4   4   4   4
#     4  10  18  33  56  85 110 140 182 231 283 325
#     4  10  19  32  55  82 112 141 180 232 276 320
#     4  11  19  37  56  86 111 142 189 230 275 332
#     4  10  20  36  55  81 113 146 182 232 274 330
#     4  10  19  34  60  83 109 143 183 231 276 331
#     4  10  22  39  55  81 113 146 185 231 279 328
#     4  11  23  37  57  80 111 153 189 223 273 333
#
# _framework density 18.466235000000001
#
# number of rings (size 3 to 8) (size 9 to 14) (size 15 to 20)
#    0.000    1.714    4.286    1.714    0.000    1.714 
#    0.000    5.000    0.000    0.000    0.000    0.000 
#    0.000    0.000    0.000    0.000    0.000    0.000 
#
# Total GULP energy -347132.289716 kJ/mol
# GULP energy per Si atom -12397.581776 kJ/mol
# Density = 1.842420 g / cm^3
# Si number density = 18.466235 Si / 1000 Ang^3
#
#
#
# Elastic Constant Matrix: (Units=GPa)
#
#
# Indices 1 2 3 4 5 6 
#
# 1 99.5722 27.5118 52.7173 0.0000 0.8137 0.0000
# 2 27.5118 74.7682 28.8699 0.0000 -4.7331 0.0000
# 3 52.7173 28.8699 115.9314 0.0000 -4.3972 0.0000
# 4 0.0000 0.0000 0.0000 26.4241 0.0000 1.8359
# 5 0.8137 -4.7331 -4.3972 0.0000 29.0557 0.0000
# 6 0.0000 0.0000 0.0000 1.8359 0.0000 21.5712
#
#
#
# Elastic Compliance Matrix: (Units=1/GPa)
#
#
# Indices 1 2 3 4 5 6 
#
# 1 0.013872 -0.003046 -0.005615 0.000000 -0.001734 0.000000
# 2 -0.003046 0.015567 -0.002406 0.000000 0.002257 0.000000
# 3 -0.005615 -0.002406 0.011837 0.000000 0.001557 0.000000
# 4 0.000000 0.000000 0.000000 0.038069 0.000000 -0.003240
# 5 -0.001734 0.002257 0.001557 0.000000 0.035069 0.000000
# 6 0.000000 0.000000 0.000000 -0.003240 0.000000 0.046634
#
#
# Mechanical properties :
#
#
# Convention : Reuss Voigt Hill
#
# Bulk Modulus (GPa) = 52.24032 56.49666 54.36849
# Shear Modulus (GPa) = 26.37652 27.48839 26.93246
#
# Velocity S-wave (km/s) = 3.78347 3.86239 3.82314
# Velocity P-wave (km/s) = 6.88747 7.10998 6.99961
#
# Compressibility (1/GPa) = 0.01914230
#
# Stress axis : x y z
#
# Youngs Moduli (GPa) = 72.09008 64.23700 84.47853
#
# Poissons Ratio (x) = 0.19566 0.47435
# Poissons Ratio (y) = 0.21958 0.20326
# Poissons Ratio (z) = 0.40479 0.15456
#
# Static dielectric constant tensor:
#      x y z
#    x 3.410310 0.000000 0.044580 
#    y 0.000000 3.592830 0.000000 
#    z 0.044580 0.000000 3.459890 
# 
# 
# High freq. dielectric constant tensor:
#      x y z
#    x 1.702660 0.000000 0.004220 
#    y 0.000000 1.713120 0.000000 
#    z 0.004220 0.000000 1.725840 
# 
# From -- ./inp_files/26957.got.cif
#   From: 2010.06.25/outbox.cif.g09.slc.cpg/sg11_14_cif.got.tgz:26957.got - 2010.06.27 23:14:04.
