data_PCOD8069955
_publ_section_title
;
Structure prediction by ZEFSAII (Michael W. Deem and Ramdas Pophale) SiO2 
 PCOD8069955
Probable space group: P 21/M
;
_chemical_formula_sum "Si O2"
_cell_formula_units_Z 32
_cell_length_a 5.314332
_cell_length_b 25.470423
_cell_length_c 13.275089
_cell_angle_alpha 90.000000
_cell_angle_beta 66.401782
_cell_angle_gamma 90.000000
_cell_volume 1646.628392
_symmetry_space_group_name_H-M "P 21/M"
_symmetry_group_IT_number 11
_symmetry_cell_setting 'monoclinic'
loop_
_space_group_symop_operation_xyz
x,y,z
-x,1/2+y,-z
-x,-y,-z
x,1/2-y,z
loop_
_atom_site_type_symbol
_atom_site_label
_atom_site_fract_x
_atom_site_fract_y
_atom_site_fract_z
Si Si1 0.779872 0.132262 0.470134
Si Si2 0.981859 0.690774 0.268133
Si Si3 0.831622 0.937629 0.918378
Si Si4 0.269735 0.952922 0.980266
Si Si5 0.068795 0.963402 0.681203
Si Si6 0.518326 0.368071 0.731683
Si Si7 0.279632 0.309103 0.470374
Si Si8 0.500747 0.012741 0.749252
O O1 0.824892 0.073256 0.425112
O O2 0.649471 0.128871 0.600538
O O3 0.573981 0.161988 0.426618
O O4 0.072796 0.161987 0.426617
O O5 0.028348 0.750000 0.221651
O O6 0.774288 0.661647 0.225038
O O7 0.851073 0.691831 0.398922
O O8 0.275610 0.661644 0.225037
O O9 0.518831 0.916827 0.982685
O O10 0.015798 0.916827 0.982685
O O11 0.960713 0.925110 0.789286
O O12 0.824513 0.002669 0.925485
O O13 0.388518 0.980688 0.861480
O O14 0.321986 0.999175 0.678462
O O15 0.821088 0.999175 0.678463
O O16 0.469310 0.426249 0.780689
O O17 0.326403 0.250000 0.423602
#
# Coordination Sequence:
#
# PCOD8069955 Si02
#       8
#     4   4   4   4   4   4   4   4
#     4  10  19  29  42  61  84 110 139 167 198 242
#     4   9  17  30  46  61  78 102 135 178 218 240
#     4   8  14  25  40  56  75 102 135 169 201 227
#     4   8  14  25  40  56  75 102 135 169 201 227
#     4  10  19  29  41  59  86 116 140 163 192 234
#     4  10  19  29  42  61  84 110 139 167 198 242
#     4   9  17  30  46  61  78 102 135 178 218 240
#     4  10  19  29  41  59  86 116 140 163 192 234
#
# _framework density 19.43365
#
# number of rings (size 3 to 8) (size 9 to 14) (size 15 to 20)
#    0.000    2.750    0.000    2.250    0.000    4.000 
#    0.000    0.000    0.000    0.000    0.000    0.000 
#    0.000    6.000    0.000    0.000    0.000    0.000 
#
# Total GULP energy -396569.901387 kJ/mol
# GULP energy per Si atom -12392.809418 kJ/mol
# Density = 1.938942 g / cm^3
# Si number density = 19.433650 Si / 1000 Ang^3
#
#
#
# Elastic Constant Matrix: (Units=GPa)
#
#
# Indices 1 2 3 4 5 6 
#
# 1 202.6780 41.0729 2.5111 0.0000 5.7186 0.0000
# 2 41.0729 89.9825 -2.2832 0.0000 1.3546 0.0000
# 3 2.5111 -2.2832 11.3752 0.0000 0.2636 0.0000
# 4 0.0000 0.0000 0.0000 3.5342 0.0000 0.9342
# 5 5.7186 1.3546 0.2636 0.0000 8.8200 0.0000
# 6 0.0000 0.0000 0.0000 0.9342 0.0000 33.4090
#
#
#
# Elastic Compliance Matrix: (Units=1/GPa)
#
#
# Indices 1 2 3 4 5 6 
#
# 1 0.005557 -0.002531 -0.001661 0.000000 -0.003164 0.000000
# 2 -0.002531 0.012351 0.003046 0.000000 -0.000347 0.000000
# 3 -0.001661 0.003046 0.088936 0.000000 -0.002048 0.000000
# 4 0.000000 0.000000 0.000000 0.285059 0.000000 -0.007971
# 5 -0.003164 -0.000347 -0.002048 0.000000 0.115545 0.000000
# 6 0.000000 0.000000 0.000000 -0.007971 0.000000 0.030155
#
#
# Mechanical properties :
#
#
# Convention : Reuss Voigt Hill
#
# Bulk Modulus (GPa) = 9.56470 42.95969 26.26219
# Shear Modulus (GPa) = 8.69950 26.66830 17.68390
#
# Velocity S-wave (km/s) = 2.11807 3.70844 3.01983
# Velocity P-wave (km/s) = 3.30364 6.36322 5.06974
#
# Compressibility (1/GPa) = 0.10455115
#
# Stress axis : x y z
#
# Youngs Moduli (GPa) = 179.96322 80.96494 11.24402
#
# Poissons Ratio (x) = 0.20491 0.01868
# Poissons Ratio (y) = 0.45547 -0.03425
# Poissons Ratio (z) = 0.29898 -0.24661
#
# Static dielectric constant tensor:
#      x y z
#    x 4.679080 0.000000 0.050320 
#    y 0.000000 3.195930 0.000000 
#    z 0.050320 0.000000 3.070420 
# 
# 
# High freq. dielectric constant tensor:
#      x y z
#    x 1.799750 0.000000 0.002770 
#    y 0.000000 1.704370 0.000000 
#    z 0.002770 0.000000 1.711040 
# 
# From -- ./inp_files/5584.got.cif
#   From: 2010.06.25/outbox.cif.g09.slc.cpg/sg11_3_cif.got.tgz:5584.got - 2010.06.27 23:14:04.
