data_PCOD8069512
_publ_section_title
;
Structure prediction by ZEFSAII (Michael W. Deem and Ramdas Pophale) SiO2 
 PCOD8069512
Probable space group: P 21/M
;
_chemical_formula_sum "Si O2"
_cell_formula_units_Z 32
_cell_length_a 20.330747
_cell_length_b 9.098405
_cell_length_c 26.176030
_cell_angle_alpha 90.000000
_cell_angle_beta 158.706282
_cell_angle_gamma 90.000000
_cell_volume 1758.358091
_symmetry_space_group_name_H-M "P 21/M"
_symmetry_group_IT_number 11
_symmetry_cell_setting 'monoclinic'
loop_
_space_group_symop_operation_xyz
x,y,z
-x,1/2+y,-z
-x,-y,-z
x,1/2-y,z
loop_
_atom_site_type_symbol
_atom_site_label
_atom_site_fract_x
_atom_site_fract_y
_atom_site_fract_z
Si Si1 0.276752 0.421381 0.202043
Si Si2 0.815278 0.923250 0.350210
Si Si3 0.458589 0.924541 0.773436
Si Si4 0.366146 0.575235 0.593119
Si Si5 0.869263 0.924562 0.084941
Si Si6 0.689472 0.578002 0.145667
Si Si7 0.983419 0.925291 0.277514
Si Si8 0.960097 0.078683 0.894299
O O1 0.287665 0.250000 0.221359
O O2 0.470662 0.484586 0.324228
O O3 0.216711 0.498748 0.211163
O O4 0.135550 0.457271 0.055115
O O5 0.832132 0.750000 0.372052
O O6 0.775635 0.958997 0.262615
O O7 0.651825 0.989588 0.263961
O O8 0.000000 0.000000 0.500000
O O9 0.435813 0.750000 0.764984
O O10 0.388567 0.976426 0.667564
O O11 0.664828 0.977200 0.928223
O O12 0.371579 0.750000 0.595797
O O13 0.177543 0.511731 0.435476
O O14 0.871694 0.750000 0.086566
O O15 0.942505 0.987475 0.191471
O O16 0.998093 0.981542 0.132355
O O17 0.655646 0.750000 0.114559
O O18 0.829183 0.517992 0.204338
O O19 0.500000 0.500000 0.000000
O O20 0.988246 0.750000 0.281365
O O21 0.917180 0.250000 0.862701
#
# Coordination Sequence:
#
# PCOD8069512 Si02
#       8
#     4   4   4   4   4   4   4   4
#     4   9  16  28  47  71  96 126 162 199 243 292
#     4  11  23  37  53  78 109 138 173 217 264 315
#     4  10  18  32  54  75  97 129 169 212 255 301
#     4   9  16  29  49  72  99 130 166 206 247 297
#     4   9  16  28  48  73  97 125 164 205 246 296
#     4  10  21  37  56  79 104 135 176 217 260 313
#     4   9  17  29  48  73  97 124 162 206 247 292
#     4   9  16  28  46  71  98 124 160 202 242 289
#
# _framework density 18.198796000000002
#
# number of rings (size 3 to 8) (size 9 to 14) (size 15 to 20)
#    0.000    2.500    1.250    1.875    0.000    4.000 
#    0.000    1.875    0.000    1.500    0.000    0.000 
#    0.000    0.000    0.000    0.000    0.000    0.000 
#
# Total GULP energy -396777.308980 kJ/mol
# GULP energy per Si atom -12399.290906 kJ/mol
# Density = 1.815737 g / cm^3
# Si number density = 18.198796 Si / 1000 Ang^3
#
#
#
# Elastic Constant Matrix: (Units=GPa)
#
#
# Indices 1 2 3 4 5 6 
#
# 1 191.2218 39.9015 77.2740 0.0000 6.5180 0.0000
# 2 39.9015 31.9425 31.6385 0.0000 0.1773 0.0000
# 3 77.2740 31.6385 117.4448 0.0000 -2.9602 0.0000
# 4 0.0000 0.0000 0.0000 17.3568 0.0000 5.9659
# 5 6.5180 0.1773 -2.9602 0.0000 34.6224 0.0000
# 6 0.0000 0.0000 0.0000 5.9659 0.0000 28.1076
#
#
#
# Elastic Compliance Matrix: (Units=1/GPa)
#
#
# Indices 1 2 3 4 5 6 
#
# 1 0.008122 -0.006544 -0.003627 0.000000 -0.001806 0.000000
# 2 -0.006544 0.048022 -0.008625 0.000000 0.000249 0.000000
# 3 -0.003627 -0.008625 0.013271 0.000000 0.001862 0.000000
# 4 0.000000 0.000000 0.000000 0.062148 0.000000 -0.013191
# 5 -0.001806 0.000249 0.001862 0.000000 0.029381 0.000000
# 6 0.000000 0.000000 0.000000 -0.013191 0.000000 0.038377
#
#
# Mechanical properties :
#
#
# Convention : Reuss Voigt Hill
#
# Bulk Modulus (GPa) = 31.42216 70.91524 51.16870
# Shear Modulus (GPa) = 20.20034 28.80369 24.50201
#
# Velocity S-wave (km/s) = 3.33525 3.98266 3.67325
# Velocity P-wave (km/s) = 5.66881 7.75889 6.79470
#
# Compressibility (1/GPa) = 0.03182467
#
# Stress axis : x y z
#
# Youngs Moduli (GPa) = 123.12080 20.82387 75.35071
#
# Poissons Ratio (x) = 0.13626 0.27328
# Poissons Ratio (y) = 0.80566 0.64989
# Poissons Ratio (z) = 0.44653 0.17960
#
# Static dielectric constant tensor:
#      x y z
#    x 3.663470 0.000000 0.054550 
#    y 0.000000 2.960960 0.000000 
#    z 0.054550 0.000000 3.480530 
# 
# 
# High freq. dielectric constant tensor:
#      x y z
#    x 1.723880 0.000000 0.007150 
#    y 0.000000 1.658650 0.000000 
#    z 0.007150 0.000000 1.704480 
# 
# From -- ./inp_files/72136.got.cif
#   From: 2010.06.25/outbox.cif.g09.slc.cpg/sg11_37_cif.got.tgz:72136.got - 2010.06.27 23:14:04.
