data_PCOD8069244
_publ_section_title
;
Structure prediction by ZEFSAII (Michael W. Deem and Ramdas Pophale) SiO2 
 PCOD8069244
Probable space group: P 21/M
;
_chemical_formula_sum "Si O2"
_cell_formula_units_Z 24
_cell_length_a 12.552769
_cell_length_b 9.187051
_cell_length_c 16.506645
_cell_angle_alpha 90.000000
_cell_angle_beta 131.500490
_cell_angle_gamma 90.000000
_cell_volume 1425.697315
_symmetry_space_group_name_H-M "P 21/M"
_symmetry_group_IT_number 11
_symmetry_cell_setting 'monoclinic'
loop_
_space_group_symop_operation_xyz
x,y,z
-x,1/2+y,-z
-x,-y,-z
x,1/2-y,z
loop_
_atom_site_type_symbol
_atom_site_label
_atom_site_fract_x
_atom_site_fract_y
_atom_site_fract_z
Si Si1 0.986235 0.080762 0.614005
Si Si2 0.017755 0.921054 0.202446
Si Si3 0.231867 0.086184 0.037807
Si Si4 0.784986 0.920200 0.400590
Si Si5 0.249834 0.414374 0.224753
Si Si6 0.539604 0.422172 0.766690
O O1 0.954499 0.250000 0.587739
O O2 0.013980 0.039554 0.720855
O O3 0.126026 0.033772 0.634146
O O4 0.847808 0.997749 0.511528
O O5 0.042266 0.750000 0.200462
O O6 0.883483 0.977354 0.082670
O O7 0.158730 0.005386 0.246900
O O8 0.276277 0.250000 0.034230
O O9 0.165808 0.088104 0.095933
O O10 0.373016 0.983814 0.110942
O O11 0.794326 0.750000 0.421708
O O12 0.623395 0.969656 0.305398
O O13 0.283706 0.250000 0.270989
O O14 0.397617 0.502742 0.283694
O O15 0.559025 0.250000 0.770861
#
# Coordination Sequence:
#
# PCOD8069244 Si02
#       6
#     4   4   4   4   4   4
#     4   9  19  33  53  74  93 123 158 197 240 282
#     4  10  18  31  49  72 100 126 157 193 235 284
#     4   8  17  30  46  71  99 128 156 191 234 277
#     4   9  18  35  53  71  94 122 160 200 238 279
#     4   9  18  30  47  72  99 128 158 192 233 278
#     4   9  17  30  50  70  93 128 162 192 230 282
#
# _framework density 16.833867999999999
#
# number of rings (size 3 to 8) (size 9 to 14) (size 15 to 20)
#    1.000    2.000    0.000    1.000    0.000    2.667 
#    0.000    1.667    0.000    0.000    0.000    0.000 
#    0.000    0.000    0.000    0.000    0.000    0.000 
#
# Total GULP energy -297415.787904 kJ/mol
# GULP energy per Si atom -12392.324496 kJ/mol
# Density = 1.679555 g / cm^3
# Si number density = 16.833868 Si / 1000 Ang^3
#
#
#
# Elastic Constant Matrix: (Units=GPa)
#
#
# Indices 1 2 3 4 5 6 
#
# 1 93.2030 45.4872 61.0970 0.0000 15.0368 0.0000
# 2 45.4872 65.9107 36.8446 0.0000 11.9252 0.0000
# 3 61.0970 36.8446 66.9019 0.0000 8.0436 0.0000
# 4 0.0000 0.0000 0.0000 22.5074 0.0000 1.1256
# 5 15.0368 11.9252 8.0436 0.0000 26.7148 0.0000
# 6 0.0000 0.0000 0.0000 1.1256 0.0000 22.5336
#
#
#
# Elastic Compliance Matrix: (Units=1/GPa)
#
#
# Indices 1 2 3 4 5 6 
#
# 1 0.030314 -0.006700 -0.023140 0.000000 -0.007105 0.000000
# 2 -0.006700 0.024502 -0.006759 0.000000 -0.005131 0.000000
# 3 -0.023140 -0.006759 0.039295 0.000000 0.004210 0.000000
# 4 0.000000 0.000000 0.000000 0.044541 0.000000 -0.002225
# 5 -0.007105 -0.005131 0.004210 0.000000 0.042454 0.000000
# 6 0.000000 0.000000 0.000000 -0.002225 0.000000 0.044489
#
#
# Mechanical properties :
#
#
# Convention : Reuss Voigt Hill
#
# Bulk Modulus (GPa) = 47.81223 56.98591 52.39907
# Shear Modulus (GPa) = 16.35241 19.85694 18.10467
#
# Velocity S-wave (km/s) = 3.12011 3.43823 3.28303
# Velocity P-wave (km/s) = 6.43771 7.04892 6.75024
#
# Compressibility (1/GPa) = 0.02091515
#
# Stress axis : x y z
#
# Youngs Moduli (GPa) = 32.98782 40.81222 25.44836
#
# Poissons Ratio (x) = 0.27344 0.58887
# Poissons Ratio (y) = 0.22102 0.17199
# Poissons Ratio (z) = 0.76333 0.27583
#
# Static dielectric constant tensor:
#      x y z
#    x 3.041110 0.000000 0.035140 
#    y 0.000000 3.120770 0.000000 
#    z 0.035140 0.000000 3.032220 
# 
# 
# High freq. dielectric constant tensor:
#      x y z
#    x 1.632000 0.000000 0.005670 
#    y 0.000000 1.652270 0.000000 
#    z 0.005670 0.000000 1.630960 
# 
# From -- ./inp_files/58778.got.cif
#   From: 2010.06.25/outbox.cif.g09.slc.cpg/sg11_30_cif.got.tgz:58778.got - 2010.06.27 23:14:04.
