data_PCOD8069736
_publ_section_title
;
Structure prediction by ZEFSAII (Michael W. Deem and Ramdas Pophale) SiO2 
 PCOD8069736
Probable space group: P 21/M
;
_chemical_formula_sum "Si O2"
_cell_formula_units_Z 24
_cell_length_a 18.036266
_cell_length_b 16.161329
_cell_length_c 7.601471
_cell_angle_alpha 90.000000
_cell_angle_beta 37.751320
_cell_angle_gamma 90.000000
_cell_volume 1356.562637
_symmetry_space_group_name_H-M "P 21/M"
_symmetry_group_IT_number 11
_symmetry_cell_setting 'monoclinic'
loop_
_space_group_symop_operation_xyz
x,y,z
-x,1/2+y,-z
-x,-y,-z
x,1/2-y,z
loop_
_atom_site_type_symbol
_atom_site_label
_atom_site_fract_x
_atom_site_fract_y
_atom_site_fract_z
Si Si1 0.817352 0.842509 0.253928
Si Si2 0.264931 0.008637 0.163702
Si Si3 0.215209 0.510279 0.866260
Si Si4 0.027862 0.438380 0.791094
Si Si5 0.608966 0.841060 0.912107
Si Si6 0.394155 0.564863 0.226518
O O1 0.835636 0.750000 0.139382
O O2 0.824905 0.914051 0.091110
O O3 0.919095 0.855556 0.216316
O O4 0.685566 0.851108 0.589363
O O5 0.125771 0.025678 0.471878
O O6 0.346426 0.091249 0.030886
O O7 0.313615 0.934957 0.199725
O O8 0.275052 0.979549 0.944394
O O9 0.311334 0.539686 0.544312
O O10 0.098509 0.571826 0.076265
O O11 0.000000 0.500000 0.000000
O O12 0.627665 0.750000 0.959165
O O13 0.465552 0.850071 0.132753
O O14 0.500000 0.500000 0.000000
#
# Coordination Sequence:
#
# PCOD8069736 Si02
#       6
#     4   4   4   4   4   4
#     4   9  17  32  52  74 100 135 168 207 255 295
#     4  10  19  31  55  79 100 127 171 212 252 297
#     4  11  19  31  55  78 102 130 168 216 248 297
#     4   9  16  33  52  75 101 131 164 206 255 301
#     4   9  18  34  52  70 103 138 168 208 251 294
#     4  10  18  34  49  74 102 133 172 202 249 296
#
# _framework density 17.691773999999999
#
# number of rings (size 3 to 8) (size 9 to 14) (size 15 to 20)
#    0.000    2.333    6.667    0.500    0.000    3.333 
#    0.000    0.833    0.000    1.000    0.000    0.000 
#    0.000    0.000    0.000    0.000    0.000    0.000 
#
# Total GULP energy -297348.847095 kJ/mol
# GULP energy per Si atom -12389.535296 kJ/mol
# Density = 1.765151 g / cm^3
# Si number density = 17.691774 Si / 1000 Ang^3
#
#
#
# Elastic Constant Matrix: (Units=GPa)
#
#
# Indices 1 2 3 4 5 6 
#
# 1 124.0438 24.5460 59.0709 0.0000 8.9706 0.0000
# 2 24.5460 54.2272 28.0657 0.0000 -4.7206 0.0000
# 3 59.0709 28.0657 86.9086 0.0000 -16.1805 0.0000
# 4 0.0000 0.0000 0.0000 13.1579 0.0000 -2.4266
# 5 8.9706 -4.7206 -16.1805 0.0000 27.3182 0.0000
# 6 0.0000 0.0000 0.0000 -2.4266 0.0000 12.2610
#
#
#
# Elastic Compliance Matrix: (Units=1/GPa)
#
#
# Indices 1 2 3 4 5 6 
#
# 1 0.014943 -0.001673 -0.011895 0.000000 -0.012241 0.000000
# 2 -0.001673 0.022334 -0.005906 0.000000 0.000911 0.000000
# 3 -0.011895 -0.005906 0.024767 0.000000 0.017555 0.000000
# 4 0.000000 0.000000 0.000000 0.078879 0.000000 0.015611
# 5 -0.012241 0.000911 0.017555 0.000000 0.051180 0.000000
# 6 0.000000 0.000000 0.000000 0.015611 0.000000 0.084649
#
#
# Mechanical properties :
#
#
# Convention : Reuss Voigt Hill
#
# Bulk Modulus (GPa) = 43.29796 54.28276 48.79036
# Shear Modulus (GPa) = 15.46081 20.78054 18.12068
#
# Velocity S-wave (km/s) = 2.95938 3.43094 3.20385
# Velocity P-wave (km/s) = 6.01697 6.81500 6.42838
#
# Compressibility (1/GPa) = 0.02309577
#
# Stress axis : x y z
#
# Youngs Moduli (GPa) = 66.92300 44.77463 40.37658
#
# Poissons Ratio (x) = 0.07491 0.48028
# Poissons Ratio (y) = 0.11196 0.23845
# Poissons Ratio (z) = 0.79606 0.26443
#
# Static dielectric constant tensor:
#      x y z
#    x 3.632730 0.000000 -0.597610 
#    y 0.000000 3.537620 0.000000 
#    z -0.597610 0.000000 3.636000 
# 
# 
# High freq. dielectric constant tensor:
#      x y z
#    x 1.674960 0.000000 -0.016000 
#    y 0.000000 1.649010 0.000000 
#    z -0.016000 0.000000 1.686770 
# 
# From -- ./inp_files/26966.got.cif
#   From: 2010.06.25/outbox.cif.g09.slc.cpg/sg11_14_cif.got.tgz:26966.got - 2010.06.27 23:14:04.
