data_PCOD8069293
_publ_section_title
;
Structure prediction by ZEFSAII (Michael W. Deem and Ramdas Pophale) SiO2 
 PCOD8069293
Probable space group: P 21/M
;
_chemical_formula_sum "Si O2"
_cell_formula_units_Z 28
_cell_length_a 28.690047
_cell_length_b 9.346295
_cell_length_c 9.697206
_cell_angle_alpha 90.000000
_cell_angle_beta 38.055973
_cell_angle_gamma 90.000000
_cell_volume 1602.883051
_symmetry_space_group_name_H-M "P 21/M"
_symmetry_group_IT_number 11
_symmetry_cell_setting 'monoclinic'
loop_
_space_group_symop_operation_xyz
x,y,z
-x,1/2+y,-z
-x,-y,-z
x,1/2-y,z
loop_
_atom_site_type_symbol
_atom_site_label
_atom_site_fract_x
_atom_site_fract_y
_atom_site_fract_z
Si Si1 0.245457 0.414103 0.102521
Si Si2 0.954603 0.412874 0.786799
Si Si3 0.701055 0.585783 0.316077
Si Si4 0.196648 0.916135 0.720378
Si Si5 0.904376 0.083137 0.597956
Si Si6 0.423498 0.414195 0.183637
Si Si7 0.290254 0.415819 0.297774
O O1 0.217634 0.250000 0.164440
O O2 0.172674 0.513848 0.274562
O O3 0.294919 0.445277 0.123801
O O4 0.299449 0.447083 0.846035
O O5 0.984052 0.250000 0.714770
O O6 0.914457 0.450729 0.735643
O O7 0.025461 0.515783 0.649852
O O8 0.893336 0.435866 0.050337
O O9 0.724496 0.750000 0.291589
O O10 0.761969 0.483707 0.244436
O O11 0.618158 0.556722 0.573119
O O12 0.218773 0.750000 0.661174
O O13 0.220979 0.994127 0.523064
O O14 0.901295 0.250000 0.571997
O O15 0.445495 0.250000 0.114698
O O16 0.368581 0.464074 0.186766
O O17 0.500000 0.500000 0.000000
O O18 0.274797 0.250000 0.367678
#
# Coordination Sequence:
#
# PCOD8069293 Si02
#       7
#     4   4   4   4   4   4   4
#     4  10  19  34  54  74 101 136 170 208 254 301
#     4   9  18  31  46  70 101 133 171 213 256 300
#     4   9  18  32  53  77 100 132 170 205 245 300
#     4  10  18  31  51  75 101 131 171 217 255 294
#     4  10  19  30  47  73 103 132 168 216 259 297
#     4   9  18  34  54  77 103 130 165 203 242 294
#     4   9  20  36  53  75 103 135 169 204 249 306
#
# _framework density 17.468523999999999
#
# number of rings (size 3 to 8) (size 9 to 14) (size 15 to 20)
#    0.000    2.571    1.429    1.714    0.000    4.571 
#    0.000    1.429    0.000    0.000    0.000    0.000 
#    0.000    0.000    0.000    0.000    0.000    0.000 
#
# Total GULP energy -347175.919730 kJ/mol
# GULP energy per Si atom -12399.139990 kJ/mol
# Density = 1.742876 g / cm^3
# Si number density = 17.468524 Si / 1000 Ang^3
#
#
#
# Elastic Constant Matrix: (Units=GPa)
#
#
# Indices 1 2 3 4 5 6 
#
# 1 89.7240 43.3652 66.3325 0.0000 4.1769 0.0000
# 2 43.3652 79.6948 53.2815 0.0000 -6.8059 0.0000
# 3 66.3325 53.2815 115.5901 0.0000 0.6166 0.0000
# 4 0.0000 0.0000 0.0000 30.0380 0.0000 -6.5405
# 5 4.1769 -6.8059 0.6166 0.0000 31.8377 0.0000
# 6 0.0000 0.0000 0.0000 -6.5405 0.0000 24.5535
#
#
#
# Elastic Compliance Matrix: (Units=1/GPa)
#
#
# Indices 1 2 3 4 5 6 
#
# 1 0.020953 -0.005337 -0.009544 0.000000 -0.003705 0.000000
# 2 -0.005337 0.020032 -0.006198 0.000000 0.005102 0.000000
# 3 -0.009544 -0.006198 0.016988 0.000000 -0.000402 0.000000
# 4 0.000000 0.000000 0.000000 0.035341 0.000000 0.009414
# 5 -0.003705 0.005102 -0.000402 0.000000 0.032994 0.000000
# 6 0.000000 0.000000 0.000000 0.009414 0.000000 0.043235
#
#
# Mechanical properties :
#
#
# Convention : Reuss Voigt Hill
#
# Bulk Modulus (GPa) = 63.23707 67.88524 65.56115
# Shear Modulus (GPa) = 23.04438 25.42115 24.23277
#
# Velocity S-wave (km/s) = 3.63601 3.81892 3.72859
# Velocity P-wave (km/s) = 7.34211 7.64142 7.49326
#
# Compressibility (1/GPa) = 0.01581351
#
# Stress axis : x y z
#
# Youngs Moduli (GPa) = 47.72510 49.92133 58.86621
#
# Poissons Ratio (x) = 0.26642 0.56185
# Poissons Ratio (y) = 0.25470 0.36486
# Poissons Ratio (z) = 0.45551 0.30942
#
# Static dielectric constant tensor:
#      x y z
#    x 3.042160 0.000000 0.145250 
#    y 0.000000 3.274340 0.000000 
#    z 0.145250 0.000000 3.337320 
# 
# 
# High freq. dielectric constant tensor:
#      x y z
#    x 1.646120 0.000000 0.004340 
#    y 0.000000 1.679470 0.000000 
#    z 0.004340 0.000000 1.674710 
# 
# From -- ./inp_files/28259.got.cif
#   From: 2010.06.25/outbox.cif.g09.slc.cpg/sg11_15_cif.got.tgz:28259.got - 2010.06.27 23:14:04.
