data_PCOD8069839
_publ_section_title
;
Structure prediction by ZEFSAII (Michael W. Deem and Ramdas Pophale) SiO2 
 PCOD8069839
Probable space group: P 21/M
;
_chemical_formula_sum "Si O2"
_cell_formula_units_Z 32
_cell_length_a 9.008270
_cell_length_b 14.473354
_cell_length_c 19.439557
_cell_angle_alpha 90.000000
_cell_angle_beta 138.791817
_cell_angle_gamma 90.000000
_cell_volume 1669.738645
_symmetry_space_group_name_H-M "P 21/M"
_symmetry_group_IT_number 11
_symmetry_cell_setting 'monoclinic'
loop_
_space_group_symop_operation_xyz
x,y,z
-x,1/2+y,-z
-x,-y,-z
x,1/2-y,z
loop_
_atom_site_type_symbol
_atom_site_label
_atom_site_fract_x
_atom_site_fract_y
_atom_site_fract_z
Si Si1 0.786430 0.531624 0.465986
Si Si2 0.244878 0.501202 0.997412
Si Si3 0.082741 0.145396 0.353294
Si Si4 0.399423 0.855349 0.277490
Si Si5 0.544979 0.092630 0.474529
Si Si6 0.898514 0.352449 0.701613
Si Si7 0.766747 0.491718 0.169472
Si Si8 0.932472 0.357725 0.958811
O O1 0.861930 0.592326 0.557231
O O2 0.632452 0.589877 0.360321
O O3 0.650193 0.438293 0.438560
O O4 0.000000 0.500000 0.500000
O O5 0.510392 0.497909 0.105204
O O6 0.124892 0.590191 0.990141
O O7 0.205929 0.510195 0.902906
O O8 0.139698 0.406741 0.991457
O O9 0.011840 0.250000 0.345341
O O10 0.307898 0.145842 0.383863
O O11 0.877502 0.099411 0.240558
O O12 0.453819 0.750000 0.315015
O O13 0.229483 0.894034 0.276455
O O14 0.291060 0.866185 0.165135
O O15 0.725932 0.154511 0.578076
O O16 0.500000 0.000000 0.500000
O O17 0.993825 0.250000 0.750214
O O18 0.106623 0.418505 0.756156
O O19 0.994057 0.250000 0.993897
#
# Coordination Sequence:
#
# PCOD8069839 Si02
#       8
#     4   4   4   4   4   4   4   4
#     4  11  22  35  58  88 125 155 186 240 292 352
#     4  10  24  40  62  86 119 150 198 255 292 344
#     4  11  22  39  61  85 120 162 197 233 290 358
#     4  10  19  34  60  87 114 152 195 234 287 349
#     4  10  18  35  58  85 116 154 196 237 277 346
#     4  11  19  34  62  90 115 148 196 245 287 340
#     4  11  22  40  60  90 116 153 197 248 302 335
#     4  10  22  41  63  86 114 156 198 239 296 355
#
# _framework density 19.164674999999999
#
# number of rings (size 3 to 8) (size 9 to 14) (size 15 to 20)
#    0.000    1.500    6.250    0.750    1.750    1.500 
#    0.000    6.250    0.000    0.000    0.000    0.000 
#    0.000    0.000    0.000    0.000    0.000    0.000 
#
# Total GULP energy -396775.949255 kJ/mol
# GULP energy per Si atom -12399.248414 kJ/mol
# Density = 1.912106 g / cm^3
# Si number density = 19.164675 Si / 1000 Ang^3
#
#
#
# Elastic Constant Matrix: (Units=GPa)
#
#
# Indices 1 2 3 4 5 6 
#
# 1 94.8916 45.0453 21.7827 0.0000 18.6704 0.0000
# 2 45.0453 116.7605 35.5869 0.0000 12.9806 0.0000
# 3 21.7827 35.5869 76.6676 0.0000 21.3153 0.0000
# 4 0.0000 0.0000 0.0000 28.1006 0.0000 -2.3714
# 5 18.6704 12.9806 21.3153 0.0000 27.2749 0.0000
# 6 0.0000 0.0000 0.0000 -2.3714 0.0000 16.2944
#
#
#
# Elastic Compliance Matrix: (Units=1/GPa)
#
#
# Indices 1 2 3 4 5 6 
#
# 1 0.014232 -0.004722 0.000296 0.000000 -0.007727 0.000000
# 2 -0.004722 0.011587 -0.004347 0.000000 0.001115 0.000000
# 3 0.000296 -0.004347 0.018471 0.000000 -0.012569 0.000000
# 4 0.000000 0.000000 0.000000 0.036029 0.000000 0.005243
# 5 -0.007727 0.001115 -0.012569 0.000000 0.051245 0.000000
# 6 0.000000 0.000000 0.000000 0.005243 0.000000 0.062134
#
#
# Mechanical properties :
#
#
# Convention : Reuss Voigt Hill
#
# Bulk Modulus (GPa) = 37.38899 54.79441 46.09170
# Shear Modulus (GPa) = 22.71090 26.72763 24.71926
#
# Velocity S-wave (km/s) = 3.44617 3.73853 3.59532
# Velocity P-wave (km/s) = 5.94866 6.87669 6.42944
#
# Compressibility (1/GPa) = 0.02674584
#
# Stress axis : x y z
#
# Youngs Moduli (GPa) = 70.26379 86.30263 54.13796
#
# Poissons Ratio (x) = 0.40752 -0.01604
# Poissons Ratio (y) = 0.33178 0.23532
# Poissons Ratio (z) = -0.02082 0.37513
#
# Static dielectric constant tensor:
#      x y z
#    x 3.273060 0.000000 0.163860 
#    y 0.000000 3.520400 0.000000 
#    z 0.163860 0.000000 3.520060 
# 
# 
# High freq. dielectric constant tensor:
#      x y z
#    x 1.733600 0.000000 0.006990 
#    y 0.000000 1.743780 0.000000 
#    z 0.006990 0.000000 1.743000 
# 
# From -- ./inp_files/22251.got.cif
#   From: 2010.06.25/outbox.cif.g09.slc.cpg/sg11_12_cif.got.tgz:22251.got - 2010.06.27 23:14:04.
