data_PCOD8069003
_publ_section_title
;
Structure prediction by ZEFSAII (Michael W. Deem and Ramdas Pophale) SiO2 
 PCOD8069003
Probable space group: P 21/M
;
_chemical_formula_sum "Si O2"
_cell_formula_units_Z 32
_cell_length_a 11.439763
_cell_length_b 8.732184
_cell_length_c 21.206446
_cell_angle_alpha 90.000000
_cell_angle_beta 116.710412
_cell_angle_gamma 90.000000
_cell_volume 1892.344200
_symmetry_space_group_name_H-M "P 21/M"
_symmetry_group_IT_number 11
_symmetry_cell_setting 'monoclinic'
loop_
_space_group_symop_operation_xyz
x,y,z
-x,1/2+y,-z
-x,-y,-z
x,1/2-y,z
loop_
_atom_site_type_symbol
_atom_site_label
_atom_site_fract_x
_atom_site_fract_y
_atom_site_fract_z
Si Si1 0.520794 0.932408 0.277531
Si Si2 0.639900 0.066559 0.018185
Si Si3 0.305547 0.927493 0.460121
Si Si4 0.278206 0.079255 0.842691
Si Si5 0.461441 0.072052 0.392362
Si Si6 0.422962 0.918914 0.127048
Si Si7 0.016675 0.569713 0.435602
Si Si8 0.788501 0.430995 0.299929
O O1 0.533596 0.750000 0.274236
O O2 0.430657 0.000614 0.197605
O O3 0.452055 0.977887 0.325530
O O4 0.665680 0.001395 0.308258
O O5 0.637747 0.250000 0.021841
O O6 0.743881 0.999267 0.093725
O O7 0.667641 0.011218 0.951585
O O8 0.500000 0.000000 0.000000
O O9 0.321976 0.750000 0.446761
O O10 0.403550 0.972458 0.540365
O O11 0.161331 0.969567 0.446933
O O12 0.339089 0.025519 0.406216
O O13 0.218171 0.250000 0.829970
O O14 0.430271 0.086085 0.863831
O O15 0.205093 0.981653 0.771449
O O16 0.454278 0.250000 0.374338
O O17 0.368401 0.750000 0.126127
O O18 0.990459 0.750000 0.431658
O O19 0.000000 0.500000 0.500000
O O20 0.919197 0.490241 0.363879
O O21 0.780777 0.250000 0.302492
#
# Coordination Sequence:
#
# PCOD8069003 Si02
#       8
#     4   4   4   4   4   4   4   4
#     4  10  18  30  47  67  94 127 159 191 232 278
#     4   9  14  22  36  55  81 115 153 190 227 269
#     4   9  20  36  51  68  91 121 155 189 229 278
#     4   9  16  27  40  57  83 117 155 191 231 276
#     4  10  19  32  51  73  94 117 151 194 235 276
#     4   7  13  23  36  56  83 115 150 185 221 267
#     4  11  22  36  53  72  96 125 157 192 231 276
#     4  11  21  32  46  67  94 124 160 197 235 279
#
# _framework density 16.910243999999999
#
# number of rings (size 3 to 8) (size 9 to 14) (size 15 to 20)
#    0.000    2.500    0.000    5.250    0.000    2.500 
#    0.000    1.875    0.000    0.000    0.000    0.000 
#    0.000    1.000    0.000    3.000    0.000    5.625 
#
# Total GULP energy -396501.802655 kJ/mol
# GULP energy per Si atom -12390.681333 kJ/mol
# Density = 1.687176 g / cm^3
# Si number density = 16.910244 Si / 1000 Ang^3
#
#
#
# Elastic Constant Matrix: (Units=GPa)
#
#
# Indices 1 2 3 4 5 6 
#
# 1 56.8790 33.7448 51.1137 0.0000 -12.5478 0.0000
# 2 33.7448 92.3651 50.4463 0.0000 -9.2741 0.0000
# 3 51.1137 50.4463 147.9205 0.0000 -25.7155 0.0000
# 4 0.0000 0.0000 0.0000 30.2188 0.0000 -3.6597
# 5 -12.5478 -9.2741 -25.7155 0.0000 18.9299 0.0000
# 6 0.0000 0.0000 0.0000 -3.6597 0.0000 19.9304
#
#
#
# Elastic Compliance Matrix: (Units=1/GPa)
#
#
# Indices 1 2 3 4 5 6 
#
# 1 0.028733 -0.006189 -0.006590 0.000000 0.007061 0.000000
# 2 -0.006189 0.014641 -0.003038 0.000000 -0.001057 0.000000
# 3 -0.006590 -0.003038 0.011855 0.000000 0.010248 0.000000
# 4 0.000000 0.000000 0.000000 0.033845 0.000000 0.006215
# 5 0.007061 -0.001057 0.010248 0.000000 0.070911 0.000000
# 6 0.000000 0.000000 0.000000 0.006215 0.000000 0.051316
#
#
# Mechanical properties :
#
#
# Convention : Reuss Voigt Hill
#
# Bulk Modulus (GPa) = 42.38343 63.08601 52.73472
# Shear Modulus (GPa) = 19.93615 24.60648 22.27132
#
# Velocity S-wave (km/s) = 3.43729 3.81875 3.63303
# Velocity P-wave (km/s) = 6.39308 7.53864 6.98937
#
# Compressibility (1/GPa) = 0.02359413
#
# Stress axis : x y z
#
# Youngs Moduli (GPa) = 34.80314 68.30170 84.34915
#
# Poissons Ratio (x) = 0.42271 0.55590
# Poissons Ratio (y) = 0.21539 0.25627
# Poissons Ratio (z) = 0.22937 0.20752
#
# Static dielectric constant tensor:
#      x y z
#    x 2.734760 0.000000 -0.204990 
#    y 0.000000 3.257110 0.000000 
#    z -0.204990 0.000000 3.694590 
# 
# 
# High freq. dielectric constant tensor:
#      x y z
#    x 1.589640 0.000000 -0.022290 
#    y 0.000000 1.656180 0.000000 
#    z -0.022290 0.000000 1.672920 
# 
# From -- ./inp_files/64261.got.cif
#   From: 2010.06.25/outbox.cif.g09.slc.cpg/sg11_33_cif.got.tgz:64261.got - 2010.06.27 23:14:04.
