data_PCOD8069575
_publ_section_title
;
Structure prediction by ZEFSAII (Michael W. Deem and Ramdas Pophale) SiO2 
 PCOD8069575
Probable space group: P 21/M
;
_chemical_formula_sum "Si O2"
_cell_formula_units_Z 32
_cell_length_a 12.625071
_cell_length_b 13.815929
_cell_length_c 19.097829
_cell_angle_alpha 90.000000
_cell_angle_beta 28.593588
_cell_angle_gamma 90.000000
_cell_volume 1594.280773
_symmetry_space_group_name_H-M "P 21/M"
_symmetry_group_IT_number 11
_symmetry_cell_setting 'monoclinic'
loop_
_space_group_symop_operation_xyz
x,y,z
-x,1/2+y,-z
-x,-y,-z
x,1/2-y,z
loop_
_atom_site_type_symbol
_atom_site_label
_atom_site_fract_x
_atom_site_fract_y
_atom_site_fract_z
Si Si1 0.776631 0.852179 0.674963
Si Si2 0.354237 0.555751 0.219888
Si Si3 0.244030 0.600433 0.441928
Si Si4 0.721739 0.855398 0.188441
Si Si5 0.785344 0.495974 0.267882
Si Si6 0.887603 0.601752 0.451633
Si Si7 0.810252 0.861984 0.974469
Si Si8 0.379727 0.141907 0.520345
O O1 0.651135 0.750000 0.761195
O O2 0.802269 0.864306 0.576647
O O3 0.019357 0.838459 0.569085
O O4 0.642474 0.938530 0.790833
O O5 0.302795 0.569268 0.330204
O O6 0.155835 0.605147 0.291121
O O7 0.585437 0.605281 0.065113
O O8 0.454750 0.654174 0.352847
O O9 0.196331 0.506264 0.515858
O O10 0.817774 0.750000 0.155825
O O11 0.819172 0.944224 0.176318
O O12 0.786822 0.875762 0.070905
O O13 0.740874 0.577403 0.351512
O O14 0.595322 0.415802 0.369348
O O15 0.002060 0.434529 0.161985
O O16 0.783340 0.664015 0.450051
O O17 0.861325 0.750000 0.925674
O O18 0.441631 0.250000 0.513483
#
# Coordination Sequence:
#
# PCOD8069575 Si02
#       8
#     4   4   4   4   4   4   4   4
#     4   9  15  25  46  80 117 146 172 210 267 324
#     4   8  17  30  52  79 109 137 175 219 268 319
#     4   8  14  27  47  77 112 144 172 216 263 314
#     4  10  18  32  56  83 110 141 178 217 271 325
#     4  11  23  39  55  76 111 141 184 232 263 310
#     4   9  16  31  51  78 109 141 179 222 262 311
#     4  10  21  38  59  79 103 142 180 220 275 335
#     4  11  23  38  58  79 104 144 185 225 272 316
#
# _framework density 20.071746999999998
#
# number of rings (size 3 to 8) (size 9 to 14) (size 15 to 20)
#    0.000    2.500    1.250    3.375    0.000    3.500 
#    0.000    1.875    0.000    0.000    0.000    0.000 
#    0.000    0.000    0.000    0.000    0.000    0.000 
#
# Total GULP energy -396436.772021 kJ/mol
# GULP energy per Si atom -12388.649126 kJ/mol
# Density = 2.002606 g / cm^3
# Si number density = 20.071747 Si / 1000 Ang^3
#
#
#
# Elastic Constant Matrix: (Units=GPa)
#
#
# Indices 1 2 3 4 5 6 
#
# 1 48.1754 16.7344 14.7890 0.0000 -17.4784 0.0000
# 2 16.7344 148.3353 36.0313 0.0000 -11.8094 0.0000
# 3 14.7890 36.0313 58.3686 0.0000 -18.5754 0.0000
# 4 0.0000 0.0000 0.0000 17.5737 0.0000 -1.4794
# 5 -17.4784 -11.8094 -18.5754 0.0000 21.3455 0.0000
# 6 0.0000 0.0000 0.0000 -1.4794 0.0000 16.9739
#
#
#
# Elastic Compliance Matrix: (Units=1/GPa)
#
#
# Indices 1 2 3 4 5 6 
#
# 1 0.029910 -0.001737 0.001358 0.000000 0.024712 0.000000
# 2 -0.001737 0.008032 -0.004919 0.000000 -0.001259 0.000000
# 3 0.001358 -0.004919 0.026710 0.000000 0.021635 0.000000
# 4 0.000000 0.000000 0.000000 0.057324 0.000000 0.004996
# 5 0.024712 -0.001259 0.021635 0.000000 0.085214 0.000000
# 6 0.000000 0.000000 0.000000 0.004996 0.000000 0.059349
#
#
# Mechanical properties :
#
#
# Convention : Reuss Voigt Hill
#
# Bulk Modulus (GPa) = 18.49901 43.33208 30.91555
# Shear Modulus (GPa) = 16.94042 23.66692 20.30367
#
# Velocity S-wave (km/s) = 2.90831 3.43755 3.18394
# Velocity P-wave (km/s) = 4.52925 6.11483 5.38076
#
# Compressibility (1/GPa) = 0.05405694
#
# Stress axis : x y z
#
# Youngs Moduli (GPa) = 33.43417 124.50211 37.43944
#
# Poissons Ratio (x) = 0.21623 -0.05086
# Poissons Ratio (y) = 0.05807 0.18416
# Poissons Ratio (z) = -0.04542 0.61240
#
# Static dielectric constant tensor:
#      x y z
#    x 3.528980 0.000000 -0.335370 
#    y 0.000000 3.930100 0.000000 
#    z -0.335370 0.000000 3.402070 
# 
# 
# High freq. dielectric constant tensor:
#      x y z
#    x 1.762780 0.000000 -0.020330 
#    y 0.000000 1.804260 0.000000 
#    z -0.020330 0.000000 1.738580 
# 
# From -- ./inp_files/59465.got.cif
#   From: 2010.06.25/outbox.cif.g09.slc.cpg/sg11_30_cif.got.tgz:59465.got - 2010.06.27 23:14:04.
