data_PCOD8069428
_publ_section_title
;
Structure prediction by ZEFSAII (Michael W. Deem and Ramdas Pophale) SiO2 
 PCOD8069428
Probable space group: P 21/M
;
_chemical_formula_sum "Si O2"
_cell_formula_units_Z 28
_cell_length_a 12.327378
_cell_length_b 17.113794
_cell_length_c 10.535579
_cell_angle_alpha 90.000000
_cell_angle_beta 142.276863
_cell_angle_gamma 90.000000
_cell_volume 1359.934217
_symmetry_space_group_name_H-M "P 21/M"
_symmetry_group_IT_number 11
_symmetry_cell_setting 'monoclinic'
loop_
_space_group_symop_operation_xyz
x,y,z
-x,1/2+y,-z
-x,-y,-z
x,1/2-y,z
loop_
_atom_site_type_symbol
_atom_site_label
_atom_site_fract_x
_atom_site_fract_y
_atom_site_fract_z
Si Si1 0.071142 0.160853 0.557738
Si Si2 0.529549 0.842155 0.062059
Si Si3 0.791265 0.841463 0.871282
Si Si4 0.795950 0.160487 0.077979
Si Si5 0.030291 0.056320 0.145185
Si Si6 0.924772 0.407668 0.672624
Si Si7 0.451638 0.842700 0.710040
O O1 0.070645 0.250000 0.609508
O O2 0.956787 0.154427 0.326032
O O3 0.989820 0.105734 0.589885
O O4 0.272278 0.134511 0.712084
O O5 0.502691 0.750000 0.030850
O O6 0.385592 0.873929 0.030018
O O7 0.488482 0.877104 0.884814
O O8 0.789280 0.750000 0.843894
O O9 0.608021 0.870894 0.762296
O O10 0.816474 0.883206 0.757389
O O11 0.949505 0.862803 0.113028
O O12 0.771761 0.250000 0.009624
O O13 0.852011 0.105864 0.012072
O O14 0.081646 0.001497 0.311721
O O15 0.000000 0.000000 0.000000
O O16 0.729101 0.375233 0.513493
O O17 0.443060 0.750000 0.708478
#
# Coordination Sequence:
#
# PCOD8069428 Si02
#       7
#     4   4   4   4   4   4   4
#     4  10  18  32  58  89 115 142 182 234 290 339
#     4   9  17  31  55  89 116 136 179 237 284 332
#     4  10  20  37  60  80 109 151 199 239 270 325
#     4  10  20  38  62  84 112 146 186 234 281 332
#     4  10  24  41  56  78 115 159 195 227 276 334
#     4  11  20  34  56  85 120 147 179 232 290 341
#     4  10  18  31  57  89 112 143 189 234 283 334
#
# _framework density 20.589231000000002
#
# number of rings (size 3 to 8) (size 9 to 14) (size 15 to 20)
#    0.000    2.000    2.857    1.714    0.000    1.143 
#    0.000    6.429    0.000    8.571    0.000    0.000 
#    0.000    0.000    0.000    0.000    0.000    0.000 
#
# Total GULP energy -347151.357915 kJ/mol
# GULP energy per Si atom -12398.262783 kJ/mol
# Density = 2.054237 g / cm^3
# Si number density = 20.589231 Si / 1000 Ang^3
#
#
#
# Elastic Constant Matrix: (Units=GPa)
#
#
# Indices 1 2 3 4 5 6 
#
# 1 160.0807 69.1497 32.1326 0.0000 39.0964 0.0000
# 2 69.1497 66.3057 17.2094 0.0000 7.4533 0.0000
# 3 32.1326 17.2094 85.2003 0.0000 37.2953 0.0000
# 4 0.0000 0.0000 0.0000 6.5763 0.0000 -6.3323
# 5 39.0964 7.4533 37.2953 0.0000 37.6375 0.0000
# 6 0.0000 0.0000 0.0000 -6.3323 0.0000 37.9862
#
#
#
# Elastic Compliance Matrix: (Units=1/GPa)
#
#
# Indices 1 2 3 4 5 6 
#
# 1 0.017893 -0.017872 0.006090 0.000000 -0.021083 0.000000
# 2 -0.017872 0.033766 -0.009324 0.000000 0.021117 0.000000
# 3 0.006090 -0.009324 0.023461 0.000000 -0.027727 0.000000
# 4 0.000000 0.000000 0.000000 0.181137 0.000000 0.030196
# 5 -0.021083 0.021117 -0.027727 0.000000 0.071763 0.000000
# 6 0.000000 0.000000 0.000000 0.030196 0.000000 0.031359
#
#
# Mechanical properties :
#
#
# Convention : Reuss Voigt Hill
#
# Bulk Modulus (GPa) = 30.38611 60.95224 45.66917
# Shear Modulus (GPa) = 12.11946 29.31299 20.71623
#
# Velocity S-wave (km/s) = 2.42880 3.77730 3.17546
# Velocity P-wave (km/s) = 4.75980 6.97798 5.97277
#
# Compressibility (1/GPa) = 0.03290978
#
# Stress axis : x y z
#
# Youngs Moduli (GPa) = 55.88666 29.61552 42.62440
#
# Poissons Ratio (x) = 0.52928 -0.25959
# Poissons Ratio (y) = 0.99879 0.39742
# Poissons Ratio (z) = -0.34036 0.27613
#
# Static dielectric constant tensor:
#      x y z
#    x 4.138820 0.000000 0.149930 
#    y 0.000000 3.949360 0.000000 
#    z 0.149930 0.000000 3.554050 
# 
# 
# High freq. dielectric constant tensor:
#      x y z
#    x 1.818660 0.000000 0.015180 
#    y 0.000000 1.790750 0.000000 
#    z 0.015180 0.000000 1.784260 
# 
# From -- ./inp_files/36300.got.cif
#   From: 2010.06.25/outbox.cif.g09.slc.cpg/sg11_19_cif.got.tgz:36300.got - 2010.06.27 23:14:04.
