data_PCOD8069408
_publ_section_title
;
Structure prediction by ZEFSAII (Michael W. Deem and Ramdas Pophale) SiO2 
 PCOD8069408
Probable space group: P 21/M
;
_chemical_formula_sum "Si O2"
_cell_formula_units_Z 24
_cell_length_a 9.183570
_cell_length_b 8.902398
_cell_length_c 19.078313
_cell_angle_alpha 90.000000
_cell_angle_beta 117.554034
_cell_angle_gamma 90.000000
_cell_volume 1382.846536
_symmetry_space_group_name_H-M "P 21/M"
_symmetry_group_IT_number 11
_symmetry_cell_setting 'monoclinic'
loop_
_space_group_symop_operation_xyz
x,y,z
-x,1/2+y,-z
-x,-y,-z
x,1/2-y,z
loop_
_atom_site_type_symbol
_atom_site_label
_atom_site_fract_x
_atom_site_fract_y
_atom_site_fract_z
Si Si1 0.485219 0.928209 0.640709
Si Si2 0.595903 0.572633 0.084886
Si Si3 0.887875 0.419625 0.210370
Si Si4 0.425760 0.919237 0.783710
Si Si5 0.150195 0.573363 0.493994
Si Si6 0.190231 0.572653 0.343553
O O1 0.508636 0.750000 0.640241
O O2 0.479529 0.981544 0.720369
O O3 0.319433 0.981992 0.566215
O O4 0.631595 0.011500 0.634978
O O5 0.598522 0.750000 0.077388
O O6 0.782868 0.507321 0.127029
O O7 0.505493 0.524857 0.138049
O O8 0.500000 0.500000 0.000000
O O9 0.924947 0.250000 0.193232
O O10 0.774653 0.418460 0.255720
O O11 0.058206 0.502986 0.261272
O O12 0.492682 0.750000 0.809903
O O13 0.132568 0.750000 0.497488
O O14 0.147718 0.522504 0.412747
O O15 0.000000 0.500000 0.500000
O O16 0.188656 0.750000 0.334515
#
# Coordination Sequence:
#
# PCOD8069408 Si02
#       6
#     4   4   4   4   4   4
#     4  10  20  36  54  74 105 145 183 218 265 321
#     4  10  18  31  54  83 111 136 171 217 263 313
#     4   9  18  34  54  76 104 139 177 217 264 312
#     4   8  17  32  52  77 103 135 179 219 260 311
#     4  10  22  37  54  77 105 139 183 228 269 312
#     4  11  22  34  50  78 110 140 180 225 268 316
#
# _framework density 17.355505000000001
#
# number of rings (size 3 to 8) (size 9 to 14) (size 15 to 20)
#    1.000    1.333    0.000    3.500    0.000    4.000 
#    0.000    0.000    0.000    1.000    0.000    0.000 
#    0.000    0.000    0.000    0.000    0.000    0.000 
#
# Total GULP energy -297455.755185 kJ/mol
# GULP energy per Si atom -12393.989799 kJ/mol
# Density = 1.731600 g / cm^3
# Si number density = 17.355505 Si / 1000 Ang^3
#
#
#
# Elastic Constant Matrix: (Units=GPa)
#
#
# Indices 1 2 3 4 5 6 
#
# 1 91.7225 44.2596 54.4166 0.0000 17.5192 0.0000
# 2 44.2596 100.0086 66.8237 0.0000 6.4114 0.0000
# 3 54.4166 66.8237 143.7141 0.0000 13.1024 0.0000
# 4 0.0000 0.0000 0.0000 26.3823 0.0000 3.6285
# 5 17.5192 6.4114 13.1024 0.0000 16.4017 0.0000
# 6 0.0000 0.0000 0.0000 3.6285 0.0000 29.7579
#
#
#
# Elastic Compliance Matrix: (Units=1/GPa)
#
#
# Indices 1 2 3 4 5 6 
#
# 1 0.017960 -0.004871 -0.003193 0.000000 -0.014730 0.000000
# 2 -0.004871 0.015828 -0.005852 0.000000 0.003690 0.000000
# 3 -0.003193 -0.005852 0.011183 0.000000 -0.003236 0.000000
# 4 0.000000 0.000000 0.000000 0.038551 0.000000 -0.004701
# 5 -0.014730 0.003690 -0.003236 0.000000 0.077845 0.000000
# 6 0.000000 0.000000 0.000000 -0.004701 0.000000 0.034178
#
#
# Mechanical properties :
#
#
# Convention : Reuss Voigt Hill
#
# Bulk Modulus (GPa) = 58.34065 74.04943 66.19504
# Shear Modulus (GPa) = 21.82546 25.83806 23.83176
#
# Velocity S-wave (km/s) = 3.55005 3.86262 3.70963
# Velocity P-wave (km/s) = 7.10576 7.91530 7.52143
#
# Compressibility (1/GPa) = 0.01714071
#
# Stress axis : x y z
#
# Youngs Moduli (GPa) = 55.67785 63.17793 89.41942
#
# Poissons Ratio (x) = 0.30773 0.28551
# Poissons Ratio (y) = 0.27120 0.52328
# Poissons Ratio (z) = 0.17778 0.36971
#
# Static dielectric constant tensor:
#      x y z
#    x 3.028090 0.000000 -0.019780 
#    y 0.000000 3.198700 0.000000 
#    z -0.019780 0.000000 3.192310 
# 
# 
# High freq. dielectric constant tensor:
#      x y z
#    x 1.650510 0.000000 0.001290 
#    y 0.000000 1.675250 0.000000 
#    z 0.001290 0.000000 1.666260 
# 
# From -- ./inp_files/63289.got.cif
#   From: 2010.06.25/outbox.cif.g09.slc.cpg/sg11_32_cif.got.tgz:63289.got - 2010.06.27 23:14:04.
