data_PCOD8069057
_publ_section_title
;
Structure prediction by ZEFSAII (Michael W. Deem and Ramdas Pophale) SiO2 
 PCOD8069057
Probable space group: P 21/M
;
_chemical_formula_sum "Si O2"
_cell_formula_units_Z 32
_cell_length_a 28.265600
_cell_length_b 8.887973
_cell_length_c 22.376827
_cell_angle_alpha 90.000000
_cell_angle_beta 18.558009
_cell_angle_gamma 90.000000
_cell_volume 1789.154336
_symmetry_space_group_name_H-M "P 21/M"
_symmetry_group_IT_number 11
_symmetry_cell_setting 'monoclinic'
loop_
_space_group_symop_operation_xyz
x,y,z
-x,1/2+y,-z
-x,-y,-z
x,1/2-y,z
loop_
_atom_site_type_symbol
_atom_site_label
_atom_site_fract_x
_atom_site_fract_y
_atom_site_fract_z
Si Si1 0.761513 0.924028 0.793018
Si Si2 0.695012 0.927198 0.217063
Si Si3 0.967504 0.078449 0.454384
Si Si4 0.820715 0.075290 0.508412
Si Si5 0.522141 0.927804 0.908755
Si Si6 0.103241 0.924975 0.827304
Si Si7 0.627306 0.424311 0.419483
Si Si8 0.012423 0.571207 0.807131
O O1 0.716966 0.750000 0.841613
O O2 0.861511 0.957193 0.732240
O O3 0.855908 0.966981 0.621499
O O4 0.610979 0.020895 0.975827
O O5 0.701961 0.750000 0.214554
O O6 0.542996 0.979821 0.366094
O O7 0.702962 0.988806 0.274525
O O8 0.840564 0.983499 0.006813
O O9 0.928705 0.250000 0.519874
O O10 0.945830 0.055456 0.409809
O O11 0.774902 0.250000 0.557088
O O12 0.892093 0.007798 0.362391
O O13 0.675809 0.979189 0.695935
O O14 0.520079 0.750000 0.918434
O O15 0.500000 0.000000 0.000000
O O16 0.063341 0.750000 0.875583
O O17 0.276334 0.954172 0.636500
O O18 0.077677 0.991409 0.791657
O O19 0.000000 0.000000 0.000000
O O20 0.627533 0.250000 0.401437
O O21 0.022229 0.750000 0.793215
#
# Coordination Sequence:
#
# PCOD8069057 Si02
#       8
#     4   4   4   4   4   4   4   4
#     4  10  19  32  53  81 108 135 172 220 267 311
#     4   9  16  29  47  69  97 129 164 206 255 306
#     4   9  18  32  52  78 106 137 175 218 265 316
#     4  10  20  36  55  77 107 141 177 220 266 321
#     4  12  23  36  55  81 108 140 178 221 267 320
#     4  10  18  30  48  74 103 134 172 215 259 305
#     4   9  17  27  45  73 100 125 164 213 254 295
#     4   9  18  32  51  73 102 138 173 210 261 316
#
# _framework density 17.885546000000001
#
# number of rings (size 3 to 8) (size 9 to 14) (size 15 to 20)
#    0.000    2.250    2.500    1.500    0.000    0.500 
#    0.000    2.500    0.000    6.000    0.000    3.500 
#    0.000    0.000    0.000    0.000    0.000    0.000 
#
# Total GULP energy -396681.451981 kJ/mol
# GULP energy per Si atom -12396.295374 kJ/mol
# Density = 1.784484 g / cm^3
# Si number density = 17.885546 Si / 1000 Ang^3
#
#
#
# Elastic Constant Matrix: (Units=GPa)
#
#
# Indices 1 2 3 4 5 6 
#
# 1 123.9550 33.6019 78.1836 0.0000 -5.2118 0.0000
# 2 33.6019 59.7794 41.7204 0.0000 -4.0320 0.0000
# 3 78.1836 41.7204 143.9169 0.0000 -3.9327 0.0000
# 4 0.0000 0.0000 0.0000 24.6548 0.0000 -2.3561
# 5 -5.2118 -4.0320 -3.9327 0.0000 30.1481 0.0000
# 6 0.0000 0.0000 0.0000 -2.3561 0.0000 19.1542
#
#
#
# Elastic Compliance Matrix: (Units=1/GPa)
#
#
# Indices 1 2 3 4 5 6 
#
# 1 0.012694 -0.002849 -0.006042 0.000000 0.001025 0.000000
# 2 -0.002849 0.021734 -0.004703 0.000000 0.001801 0.000000
# 3 -0.006042 -0.004703 0.011590 0.000000 -0.000162 0.000000
# 4 0.000000 0.000000 0.000000 0.041043 0.000000 0.005049
# 5 0.001025 0.001801 -0.000162 0.000000 0.033567 0.000000
# 6 0.000000 0.000000 0.000000 0.005049 0.000000 0.052829
#
#
# Mechanical properties :
#
#
# Convention : Reuss Voigt Hill
#
# Bulk Modulus (GPa) = 53.11204 70.51814 61.81509
# Shear Modulus (GPa) = 24.16384 26.40111 25.28247
#
# Velocity S-wave (km/s) = 3.67962 3.84619 3.76383
# Velocity P-wave (km/s) = 6.91468 7.69658 7.31608
#
# Compressibility (1/GPa) = 0.01882812
#
# Stress axis : x y z
#
# Youngs Moduli (GPa) = 78.77797 46.01157 86.28237
#
# Poissons Ratio (x) = 0.13110 0.52132
# Poissons Ratio (y) = 0.22446 0.40581
# Poissons Ratio (z) = 0.47598 0.21641
#
# Static dielectric constant tensor:
#      x y z
#    x 3.545260 0.000000 -0.300280 
#    y 0.000000 3.193230 0.000000 
#    z -0.300280 0.000000 3.553980 
# 
# 
# High freq. dielectric constant tensor:
#      x y z
#    x 1.686350 0.000000 -0.028010 
#    y 0.000000 1.677260 0.000000 
#    z -0.028010 0.000000 1.685350 
# 
# From -- ./inp_files/67019.got.cif
#   From: 2010.06.25/outbox.cif.g09.slc.cpg/sg11_34_cif.got.tgz:67019.got - 2010.06.27 23:14:04.
