data_PCOD8069583
_publ_section_title
;
Structure prediction by ZEFSAII (Michael W. Deem and Ramdas Pophale) SiO2 
 PCOD8069583
Probable space group: P 21/M
;
_chemical_formula_sum "Si O2"
_cell_formula_units_Z 28
_cell_length_a 12.015641
_cell_length_b 15.246568
_cell_length_c 8.750730
_cell_angle_alpha 90.000000
_cell_angle_beta 61.147393
_cell_angle_gamma 90.000000
_cell_volume 1404.106307
_symmetry_space_group_name_H-M "P 21/M"
_symmetry_group_IT_number 11
_symmetry_cell_setting 'monoclinic'
loop_
_space_group_symop_operation_xyz
x,y,z
-x,1/2+y,-z
-x,-y,-z
x,1/2-y,z
loop_
_atom_site_type_symbol
_atom_site_label
_atom_site_fract_x
_atom_site_fract_y
_atom_site_fract_z
Si Si1 0.709129 0.155032 0.866948
Si Si2 0.722158 0.850079 0.612906
Si Si3 0.054558 0.068290 0.341918
Si Si4 0.653652 0.997941 0.422130
Si Si5 0.548296 0.901974 0.988540
Si Si6 0.750683 0.989223 0.026818
Si Si7 0.798319 0.351099 0.486758
O O1 0.744983 0.250000 0.911892
O O2 0.704798 0.085410 0.004985
O O3 0.802264 0.130240 0.666926
O O4 0.568574 0.158562 0.881453
O O5 0.734125 0.750000 0.546364
O O6 0.845244 0.873194 0.631961
O O7 0.701454 0.914143 0.484244
O O8 0.598202 0.861109 0.798402
O O9 0.941703 0.126061 0.342653
O O10 0.115057 0.024964 0.148112
O O11 0.000000 0.000000 0.500000
O O12 0.500000 0.000000 0.500000
O O13 0.691549 0.087944 0.480905
O O14 0.743514 0.992170 0.213283
O O15 0.659228 0.908066 0.040466
O O16 0.500000 0.000000 0.000000
O O17 0.765944 0.250000 0.470119
#
# Coordination Sequence:
#
# PCOD8069583 Si02
#       7
#     4   4   4   4   4   4   4
#     4  10  18  32  56  86 114 151 207 261 304 358
#     4  11  23  40  64  91 123 167 213 262 314 372
#     4  11  20  43  68  86 115 159 217 267 311 360
#     4  12  24  40  61  91 135 170 199 248 319 389
#     4   9  17  34  57  83 113 153 207 257 302 354
#     4  10  21  35  60  85 117 164 203 246 314 374
#     4  11  23  40  64  91 122 162 209 261 311 365
#
# _framework density 19.941510999999998
#
# number of rings (size 3 to 8) (size 9 to 14) (size 15 to 20)
#    0.000    1.429    2.857    5.143    0.000    1.714 
#    0.000    4.286    0.000    0.000    0.000    0.000 
#    0.000    0.000    0.000    0.000    0.000    0.000 
#
# Total GULP energy -346912.027007 kJ/mol
# GULP energy per Si atom -12389.715250 kJ/mol
# Density = 1.989612 g / cm^3
# Si number density = 19.941511 Si / 1000 Ang^3
#
#
#
# Elastic Constant Matrix: (Units=GPa)
#
#
# Indices 1 2 3 4 5 6 
#
# 1 88.5023 49.1993 22.6896 0.0000 -10.1263 0.0000
# 2 49.1993 131.2778 53.3617 0.0000 8.0933 0.0000
# 3 22.6896 53.3617 99.5761 0.0000 -1.4332 0.0000
# 4 0.0000 0.0000 0.0000 26.0854 0.0000 -1.6801
# 5 -10.1263 8.0933 -1.4332 0.0000 34.2180 0.0000
# 6 0.0000 0.0000 0.0000 -1.6801 0.0000 21.5808
#
#
#
# Elastic Compliance Matrix: (Units=1/GPa)
#
#
# Indices 1 2 3 4 5 6 
#
# 1 0.015404 -0.006073 -0.000169 0.000000 0.005988 0.000000
# 2 -0.006073 0.012356 -0.005309 0.000000 -0.004942 0.000000
# 3 -0.000169 -0.005309 0.012951 0.000000 0.001748 0.000000
# 4 0.000000 0.000000 0.000000 0.038529 0.000000 0.003000
# 5 0.005988 -0.004942 0.001748 0.000000 0.032239 0.000000
# 6 0.000000 0.000000 0.000000 0.003000 0.000000 0.046571
#
#
# Mechanical properties :
#
#
# Convention : Reuss Voigt Hill
#
# Bulk Modulus (GPa) = 56.79012 63.31750 60.05381
# Shear Modulus (GPa) = 26.73486 29.31720 28.02603
#
# Velocity S-wave (km/s) = 3.66548 3.83843 3.75295
# Velocity P-wave (km/s) = 6.81575 7.17393 6.99713
#
# Compressibility (1/GPa) = 0.01760870
#
# Stress axis : x y z
#
# Youngs Moduli (GPa) = 64.91867 80.93125 77.21300
#
# Poissons Ratio (x) = 0.49153 0.01306
# Poissons Ratio (y) = 0.39428 0.40991
# Poissons Ratio (z) = 0.01098 0.42965
#
# Static dielectric constant tensor:
#      x y z
#    x 3.684040 0.000000 -0.341140 
#    y 0.000000 3.654880 0.000000 
#    z -0.341140 0.000000 3.712030 
# 
# 
# High freq. dielectric constant tensor:
#      x y z
#    x 1.762930 0.000000 -0.024690 
#    y 0.000000 1.779140 0.000000 
#    z -0.024690 0.000000 1.780020 
# 
# From -- ./inp_files/17951.got.cif
#   From: 2010.06.25/outbox.cif.g09.slc.cpg/sg11_9_cif.got.tgz:17951.got - 2010.06.27 23:14:04.
