data_PCOD8069155
_publ_section_title
;
Structure prediction by ZEFSAII (Michael W. Deem and Ramdas Pophale) SiO2 
 PCOD8069155
Probable space group: P 21/M
;
_chemical_formula_sum "Si O2"
_cell_formula_units_Z 26
_cell_length_a 9.315393
_cell_length_b 19.147111
_cell_length_c 12.461588
_cell_angle_alpha 90.000000
_cell_angle_beta 36.412741
_cell_angle_gamma 90.000000
_cell_volume 1319.380772
_symmetry_space_group_name_H-M "P 21/M"
_symmetry_group_IT_number 11
_symmetry_cell_setting 'monoclinic'
loop_
_space_group_symop_operation_xyz
x,y,z
-x,1/2+y,-z
-x,-y,-z
x,1/2-y,z
loop_
_atom_site_type_symbol
_atom_site_label
_atom_site_fract_x
_atom_site_fract_y
_atom_site_fract_z
Si Si1 0.260061 0.973693 0.465390
Si Si2 0.986311 0.750000 0.686403
Si Si3 0.595113 0.401772 0.016501
Si Si4 0.441696 0.750000 0.983608
Si Si5 0.245110 0.015959 0.912318
Si Si6 0.945875 0.097307 0.615400
Si Si7 0.138451 0.750000 0.366093
Si Si8 0.896668 0.897134 0.811680
O O1 0.550199 0.967562 0.300233
O O2 0.174293 0.920557 0.425271
O O3 0.122188 0.949259 0.655489
O O4 0.192987 0.054287 0.481044
O O5 0.006987 0.818922 0.747553
O O6 0.179150 0.750000 0.471067
O O7 0.724134 0.750000 0.789586
O O8 0.656364 0.450209 0.079554
O O9 0.311732 0.406122 0.153961
O O10 0.666599 0.321108 0.002260
O O11 0.756115 0.427261 0.819942
O O12 0.389458 0.750000 0.145647
O O13 0.211727 0.083817 0.007366
O O14 0.000000 0.000000 0.000000
O O15 0.007663 0.179974 0.580295
#
# Coordination Sequence:
#
# PCOD8069155 Si02
#       8
#     4   2   4   2   4   4   2   4
#     4  11  21  34  59  83 112 149 191 233 290 331
#     4  10  20  32  59  89 116 141 178 237 300 338
#     4  10  18  38  59  86 117 145 190 236 288 337
#     4   8  20  30  55  87 119 143 179 237 288 345
#     4  12  26  40  55  82 117 159 198 236 279 337
#     4  10  18  32  59  91 113 145 181 242 287 343
#     4  10  18  30  50  92 125 134 177 236 306 337
#     4  11  21  39  62  88 115 144 192 239 291 343
#
# _framework density 19.706213000000002
#
# number of rings (size 3 to 8) (size 9 to 14) (size 15 to 20)
#    0.000    1.538    4.615    2.308    2.154    0.615 
#    0.000    0.769    0.000    0.000    0.000    0.000 
#    0.000    0.000    0.000    0.000    0.000    0.000 
#
# Total GULP energy -322235.183737 kJ/mol
# GULP energy per Si atom -12393.660913 kJ/mol
# Density = 1.966136 g / cm^3
# Si number density = 19.706213 Si / 1000 Ang^3
#
#
#
# Elastic Constant Matrix: (Units=GPa)
#
#
# Indices 1 2 3 4 5 6 
#
# 1 48.0697 23.4826 15.8807 0.0000 -16.2433 0.0000
# 2 23.4826 130.2995 29.2828 0.0000 -5.8118 0.0000
# 3 15.8807 29.2828 106.3140 0.0000 -17.9202 0.0000
# 4 0.0000 0.0000 0.0000 25.7708 0.0000 0.8655
# 5 -16.2433 -5.8118 -17.9202 0.0000 22.3797 0.0000
# 6 0.0000 0.0000 0.0000 0.8655 0.0000 7.2894
#
#
#
# Elastic Compliance Matrix: (Units=1/GPa)
#
#
# Indices 1 2 3 4 5 6 
#
# 1 0.029948 -0.004533 0.000278 0.000000 0.020782 0.000000
# 2 -0.004533 0.008870 -0.002234 0.000000 -0.002775 0.000000
# 3 0.000278 -0.002234 0.011463 0.000000 0.008801 0.000000
# 4 0.000000 0.000000 0.000000 0.038959 0.000000 -0.004626
# 5 0.020782 -0.002775 0.008801 0.000000 0.066093 0.000000
# 6 0.000000 0.000000 0.000000 -0.004626 0.000000 0.137735
#
#
# Mechanical properties :
#
#
# Convention : Reuss Voigt Hill
#
# Bulk Modulus (GPa) = 26.80680 46.88617 36.84648
# Shear Modulus (GPa) = 15.69956 25.49044 20.59500
#
# Velocity S-wave (km/s) = 2.82562 3.60046 3.23631
# Velocity P-wave (km/s) = 4.92729 6.41316 5.71869
#
# Compressibility (1/GPa) = 0.03730397
#
# Stress axis : x y z
#
# Youngs Moduli (GPa) = 33.39120 112.74291 87.23512
#
# Poissons Ratio (x) = 0.51104 -0.02425
# Poissons Ratio (y) = 0.15135 0.19486
# Poissons Ratio (z) = -0.00928 0.25184
#
# Static dielectric constant tensor:
#      x y z
#    x 2.864450 0.000000 0.017350 
#    y 0.000000 3.948520 0.000000 
#    z 0.017350 0.000000 4.023340 
# 
# 
# High freq. dielectric constant tensor:
#      x y z
#    x 1.675660 0.000000 0.005510 
#    y 0.000000 1.787720 0.000000 
#    z 0.005510 0.000000 1.797150 
# 
# From -- ./inp_files/19324.got.cif
#   From: 2010.06.25/outbox.cif.g09.slc.cpg/sg11_10_cif.got.tgz:19324.got - 2010.06.27 23:14:04.
