data_PCOD8069696
_publ_section_title
;
Structure prediction by ZEFSAII (Michael W. Deem and Ramdas Pophale) SiO2 
 PCOD8069696
Probable space group: P 21/M
;
_chemical_formula_sum "Si O2"
_cell_formula_units_Z 28
_cell_length_a 9.508046
_cell_length_b 8.596119
_cell_length_c 31.810851
_cell_angle_alpha 90.000000
_cell_angle_beta 145.276837
_cell_angle_gamma 90.000000
_cell_volume 1480.975905
_symmetry_space_group_name_H-M "P 21/M"
_symmetry_group_IT_number 11
_symmetry_cell_setting 'monoclinic'
loop_
_space_group_symop_operation_xyz
x,y,z
-x,1/2+y,-z
-x,-y,-z
x,1/2-y,z
loop_
_atom_site_type_symbol
_atom_site_label
_atom_site_fract_x
_atom_site_fract_y
_atom_site_fract_z
Si Si1 0.749475 0.929416 0.078891
Si Si2 0.175947 0.064985 0.506666
Si Si3 0.103010 0.430037 0.794537
Si Si4 0.642454 0.426094 0.901730
Si Si5 0.723023 0.567384 0.640800
Si Si6 0.978231 0.426691 0.061024
Si Si7 0.225000 0.935167 0.431779
O O1 0.699095 0.750000 0.074108
O O2 0.840191 0.999628 0.145413
O O3 0.963527 0.961742 0.097712
O O4 0.500000 0.000000 0.000000
O O5 0.164720 0.250000 0.504479
O O6 0.456019 0.009368 0.582687
O O7 0.082552 0.003308 0.437746
O O8 0.000000 0.000000 0.500000
O O9 0.018685 0.250000 0.775429
O O10 0.350385 0.448853 0.827832
O O11 0.886655 0.533370 0.721839
O O12 0.719609 0.250000 0.909252
O O13 0.762143 0.542468 0.897777
O O14 0.747106 0.464888 0.973784
O O15 0.684766 0.750000 0.624772
O O16 0.873496 0.495670 0.637599
O O17 0.969302 0.250000 0.074349
O O18 0.216266 0.750000 0.431363
O O19 0.500000 0.000000 0.500000
#
# Coordination Sequence:
#
# PCOD8069696 Si02
#       7
#     4   4   4   4   4   4   4
#     4  11  21  35  55  79 108 144 188 236 287 343
#     4  11  21  37  61  90 121 153 188 230 277 331
#     4  10  21  38  56  78 110 147 189 235 288 344
#     4   9  18  34  53  75 103 138 177 224 277 333
#     4  11  22  37  57  85 116 150 192 236 281 334
#     4  10  19  33  52  78 105 134 177 229 278 332
#     4  10  18  33  57  84 113 148 186 225 268 322
#
# _framework density 18.906451000000001
#
# number of rings (size 3 to 8) (size 9 to 14) (size 15 to 20)
#    0.000    1.714    1.429    6.429    0.000    2.286 
#    0.000    1.429    0.000    5.143    0.000    0.000 
#    0.000    0.000    0.000    0.000    0.000    0.000 
#
# Total GULP energy -347145.247713 kJ/mol
# GULP energy per Si atom -12398.044561 kJ/mol
# Density = 1.886342 g / cm^3
# Si number density = 18.906451 Si / 1000 Ang^3
#
#
#
# Elastic Constant Matrix: (Units=GPa)
#
#
# Indices 1 2 3 4 5 6 
#
# 1 114.4940 49.5314 48.5857 0.0000 -18.8077 0.0000
# 2 49.5314 118.5814 38.0521 0.0000 -10.4446 0.0000
# 3 48.5857 38.0521 100.9446 0.0000 -16.2091 0.0000
# 4 0.0000 0.0000 0.0000 27.5651 0.0000 -2.6318
# 5 -18.8077 -10.4446 -16.2091 0.0000 26.4264 0.0000
# 6 0.0000 0.0000 0.0000 -2.6318 0.0000 34.2514
#
#
#
# Elastic Compliance Matrix: (Units=1/GPa)
#
#
# Indices 1 2 3 4 5 6 
#
# 1 0.012858 -0.003631 -0.003972 0.000000 0.005279 0.000000
# 2 -0.003631 0.010692 -0.002240 0.000000 0.000268 0.000000
# 3 -0.003972 -0.002240 0.013385 0.000000 0.004498 0.000000
# 4 0.000000 0.000000 0.000000 0.036546 0.000000 0.002808
# 5 0.005279 0.000268 0.004498 0.000000 0.044463 0.000000
# 6 0.000000 0.000000 0.000000 0.002808 0.000000 0.029412
#
#
# Mechanical properties :
#
#
# Convention : Reuss Voigt Hill
#
# Bulk Modulus (GPa) = 57.97551 67.37316 62.67434
# Shear Modulus (GPa) = 28.93683 30.83862 29.88773
#
# Velocity S-wave (km/s) = 3.91644 4.04309 3.98027
# Velocity P-wave (km/s) = 7.15418 7.58339 7.37191
#
# Compressibility (1/GPa) = 0.01724866
#
# Stress axis : x y z
#
# Youngs Moduli (GPa) = 77.77448 93.52751 74.71199
#
# Poissons Ratio (x) = 0.33960 0.29676
# Poissons Ratio (y) = 0.28240 0.16734
# Poissons Ratio (z) = 0.30892 0.20948
#
# Static dielectric constant tensor:
#      x y z
#    x 3.785110 0.000000 -0.431210 
#    y 0.000000 3.655980 0.000000 
#    z -0.431210 0.000000 3.500410 
# 
# 
# High freq. dielectric constant tensor:
#      x y z
#    x 1.736490 0.000000 -0.018150 
#    y 0.000000 1.742620 0.000000 
#    z -0.018150 0.000000 1.710650 
# 
# From -- ./inp_files/70892.got.cif
#   From: 2010.06.25/outbox.cif.g09.slc.cpg/sg11_36_cif.got.tgz:70892.got - 2010.06.27 23:14:04.
