data_PCOD8069353
_publ_section_title
;
Structure prediction by ZEFSAII (Michael W. Deem and Ramdas Pophale) SiO2 
 PCOD8069353
Probable space group: P 21/M
;
_chemical_formula_sum "Si O2"
_cell_formula_units_Z 32
_cell_length_a 23.670594
_cell_length_b 8.878464
_cell_length_c 24.899029
_cell_angle_alpha 90.000000
_cell_angle_beta 161.064166
_cell_angle_gamma 90.000000
_cell_volume 1698.072496
_symmetry_space_group_name_H-M "P 21/M"
_symmetry_group_IT_number 11
_symmetry_cell_setting 'monoclinic'
loop_
_space_group_symop_operation_xyz
x,y,z
-x,1/2+y,-z
-x,-y,-z
x,1/2-y,z
loop_
_atom_site_type_symbol
_atom_site_label
_atom_site_fract_x
_atom_site_fract_y
_atom_site_fract_z
Si Si1 0.950830 0.072615 0.511694
Si Si2 0.173597 0.428728 0.308371
Si Si3 0.956151 0.083079 0.303062
Si Si4 0.318143 0.083436 0.667278
Si Si5 0.400138 0.574177 0.161618
Si Si6 0.931601 0.573254 0.171766
Si Si7 0.546392 0.075904 0.671166
Si Si8 0.929495 0.070313 0.990598
O O1 0.969190 0.250000 0.524532
O O2 0.750012 0.026559 0.346286
O O3 0.000000 0.000000 0.500000
O O4 0.082229 0.006972 0.675603
O O5 0.162840 0.250000 0.306116
O O6 0.376937 0.482163 0.485296
O O7 0.103584 0.503679 0.300050
O O8 0.059237 0.483277 0.154900
O O9 0.869696 0.250000 0.227508
O O10 0.164950 0.098279 0.485183
O O11 0.885789 0.992569 0.189104
O O12 0.358732 0.250000 0.727705
O O13 0.482835 0.017995 0.783280
O O14 0.350034 0.750000 0.110002
O O15 0.496044 0.547081 0.304302
O O16 0.228579 0.473058 0.009978
O O17 0.954248 0.750000 0.196851
O O18 0.569617 0.250000 0.679919
O O19 0.733351 0.003872 0.822981
O O20 0.931028 0.250000 0.988680
O O21 0.000000 0.000000 0.000000
#
# Coordination Sequence:
#
# PCOD8069353 Si02
#       8
#     4   4   4   4   4   4   4   4
#     4  10  18  31  52  79 112 147 188 237 285 340
#     4  10  20  38  62  82 108 152 195 235 285 345
#     4   9  18  34  53  76 104 142 187 230 276 333
#     4   8  17  31  52  79 103 138 187 231 275 331
#     4  10  18  34  56  78 109 148 189 230 280 346
#     4  12  23  33  50  82 118 147 181 233 293 347
#     4   9  18  35  60  86 108 146 197 236 278 342
#     4  10  21  38  59  84 115 150 193 237 284 342
#
# _framework density 18.844897
#
# number of rings (size 3 to 8) (size 9 to 14) (size 15 to 20)
#    0.750    1.500    1.250    3.000    0.000    3.500 
#    0.000    1.250    0.000    0.750    0.000    0.000 
#    0.000    0.000    0.000    0.000    0.000    0.000 
#
# Total GULP energy -396456.583987 kJ/mol
# GULP energy per Si atom -12389.268250 kJ/mol
# Density = 1.880200 g / cm^3
# Si number density = 18.844897 Si / 1000 Ang^3
#
#
#
# Elastic Constant Matrix: (Units=GPa)
#
#
# Indices 1 2 3 4 5 6 
#
# 1 126.6066 42.5797 48.7006 0.0000 2.4686 0.0000
# 2 42.5797 87.4958 26.8405 0.0000 -3.7935 0.0000
# 3 48.7006 26.8405 111.0076 0.0000 4.7789 0.0000
# 4 0.0000 0.0000 0.0000 14.9167 0.0000 -0.2389
# 5 2.4686 -3.7935 4.7789 0.0000 30.2306 0.0000
# 6 0.0000 0.0000 0.0000 -0.2389 0.0000 32.2247
#
#
#
# Elastic Compliance Matrix: (Units=1/GPa)
#
#
# Indices 1 2 3 4 5 6 
#
# 1 0.010712 -0.004123 -0.003668 0.000000 -0.000812 0.000000
# 2 -0.004123 0.014057 -0.001692 0.000000 0.002368 0.000000
# 3 -0.003668 -0.001692 0.011098 0.000000 -0.001667 0.000000
# 4 0.000000 0.000000 0.000000 0.067047 0.000000 0.000497
# 5 -0.000812 0.002368 -0.001667 0.000000 0.033706 0.000000
# 6 0.000000 0.000000 0.000000 0.000497 0.000000 0.031036
#
#
# Mechanical properties :
#
#
# Convention : Reuss Voigt Hill
#
# Bulk Modulus (GPa) = 59.16396 62.37239 60.76818
# Shear Modulus (GPa) = 26.00707 29.27367 27.64037
#
# Velocity S-wave (km/s) = 3.71894 3.94560 3.83395
# Velocity P-wave (km/s) = 7.06428 7.34347 7.20523
#
# Compressibility (1/GPa) = 0.01690218
#
# Stress axis : x y z
#
# Youngs Moduli (GPa) = 93.35595 71.13747 90.10413
#
# Poissons Ratio (x) = 0.29330 0.33046
# Poissons Ratio (y) = 0.38491 0.15246
# Poissons Ratio (z) = 0.34238 0.12037
#
# Static dielectric constant tensor:
#      x y z
#    x 3.369870 0.000000 0.090680 
#    y 0.000000 3.250490 0.000000 
#    z 0.090680 0.000000 3.540010 
# 
# 
# High freq. dielectric constant tensor:
#      x y z
#    x 1.724500 0.000000 0.000720 
#    y 0.000000 1.710720 0.000000 
#    z 0.000720 0.000000 1.719770 
# 
# From -- ./inp_files/70024.got.cif
#   From: 2010.06.25/outbox.cif.g09.slc.cpg/sg11_36_cif.got.tgz:70024.got - 2010.06.27 23:14:04.
