data_PCOD8069960
_publ_section_title
;
Structure prediction by ZEFSAII (Michael W. Deem and Ramdas Pophale) SiO2 
 PCOD8069960
Probable space group: P 21/M
;
_chemical_formula_sum "Si O2"
_cell_formula_units_Z 32
_cell_length_a 12.117603
_cell_length_b 9.461203
_cell_length_c 21.722658
_cell_angle_alpha 90.000000
_cell_angle_beta 134.181741
_cell_angle_gamma 90.000000
_cell_volume 1785.975915
_symmetry_space_group_name_H-M "P 21/M"
_symmetry_group_IT_number 11
_symmetry_cell_setting 'monoclinic'
loop_
_space_group_symop_operation_xyz
x,y,z
-x,1/2+y,-z
-x,-y,-z
x,1/2-y,z
loop_
_atom_site_type_symbol
_atom_site_label
_atom_site_fract_x
_atom_site_fract_y
_atom_site_fract_z
Si Si1 0.977020 0.083653 0.365360
Si Si2 0.038268 0.911723 0.782598
Si Si3 0.529712 0.583333 0.707358
Si Si4 0.397434 0.912428 0.914028
Si Si5 0.233385 0.594377 0.515120
Si Si6 0.203070 0.918030 0.249475
Si Si7 0.361723 0.901857 0.433780
Si Si8 0.364575 0.584179 0.766518
O O1 0.995953 0.250000 0.382177
O O2 0.009172 0.044652 0.305988
O O3 0.806103 0.027593 0.316502
O O4 0.088828 0.011556 0.460015
O O5 0.988202 0.750000 0.774740
O O6 0.219624 0.930025 0.862151
O O7 0.964232 0.008990 0.808554
O O8 0.563374 0.750000 0.710657
O O9 0.387263 0.534879 0.608290
O O10 0.683704 0.492060 0.755667
O O11 0.484920 0.546947 0.759983
O O12 0.449202 0.750000 0.938614
O O13 0.424792 0.974378 0.855461
O O14 0.500000 0.000000 0.000000
O O15 0.194151 0.750000 0.528435
O O16 0.257101 0.612126 0.452186
O O17 0.189438 0.750000 0.231049
O O18 0.267156 0.962087 0.340621
O O19 0.429635 0.750000 0.440985
O O20 0.500000 0.000000 0.500000
O O21 0.342747 0.750000 0.767141
#
# Coordination Sequence:
#
# PCOD8069960 Si02
#       8
#     4   4   4   4   4   4   4   4
#     4   9  17  30  49  69  93 129 171 213 251 288
#     4   9  18  32  51  75 102 131 163 198 243 301
#     4  10  20  34  50  66  95 141 180 205 240 294
#     4   9  18  35  60  87 107 124 153 195 245 301
#     4  10  19  29  42  66  96 131 174 215 254 289
#     4  11  21  31  46  70 101 132 168 215 256 285
#     4  10  19  29  41  62  93 128 171 219 256 284
#     4   8  17  35  54  73  99 132 167 200 241 300
#
# _framework density 17.917373999999999
#
# number of rings (size 3 to 8) (size 9 to 14) (size 15 to 20)
#    0.000    2.500    2.500    1.875    0.000    2.500 
#    0.000    3.125    0.000    0.750    0.000    0.000 
#    0.000    0.000    0.000    0.000    0.000    0.000 
#
# Total GULP energy -396472.711830 kJ/mol
# GULP energy per Si atom -12389.772245 kJ/mol
# Density = 1.787659 g / cm^3
# Si number density = 17.917374 Si / 1000 Ang^3
#
#
#
# Elastic Constant Matrix: (Units=GPa)
#
#
# Indices 1 2 3 4 5 6 
#
# 1 102.8683 41.7563 27.9568 0.0000 -2.7496 0.0000
# 2 41.7563 66.5148 28.7426 0.0000 5.5322 0.0000
# 3 27.9568 28.7426 64.5038 0.0000 0.6677 0.0000
# 4 0.0000 0.0000 0.0000 27.4845 0.0000 6.1437
# 5 -2.7496 5.5322 0.6677 0.0000 14.5099 0.0000
# 6 0.0000 0.0000 0.0000 6.1437 0.0000 22.4074
#
#
#
# Elastic Compliance Matrix: (Units=1/GPa)
#
#
# Indices 1 2 3 4 5 6 
#
# 1 0.013834 -0.008115 -0.002440 0.000000 0.005828 0.000000
# 2 -0.008115 0.024059 -0.007096 0.000000 -0.010384 0.000000
# 3 -0.002440 -0.007096 0.019709 0.000000 0.001336 0.000000
# 4 0.000000 0.000000 0.000000 0.038760 0.000000 -0.010627
# 5 0.005828 -0.010384 0.001336 0.000000 0.073920 0.000000
# 6 0.000000 0.000000 0.000000 -0.010627 0.000000 0.047542
#
#
# Mechanical properties :
#
#
# Convention : Reuss Voigt Hill
#
# Bulk Modulus (GPa) = 44.84430 47.86647 46.35538
# Shear Modulus (GPa) = 19.18955 21.90909 20.54932
#
# Velocity S-wave (km/s) = 3.27617 3.50063 3.39026
# Velocity P-wave (km/s) = 6.27644 6.56600 6.42285
#
# Compressibility (1/GPa) = 0.02229938
#
# Stress axis : x y z
#
# Youngs Moduli (GPa) = 72.28480 41.56528 50.73926
#
# Poissons Ratio (x) = 0.33730 0.12382
# Poissons Ratio (y) = 0.58659 0.36003
# Poissons Ratio (z) = 0.17639 0.29494
#
# Static dielectric constant tensor:
#      x y z
#    x 3.317210 0.000000 0.006600 
#    y 0.000000 3.301440 0.000000 
#    z 0.006600 0.000000 3.028940 
# 
# 
# High freq. dielectric constant tensor:
#      x y z
#    x 1.691810 0.000000 0.004800 
#    y 0.000000 1.680400 0.000000 
#    z 0.004800 0.000000 1.663160 
# 
# From -- ./inp_files/61805.got.cif
#   From: 2010.06.25/outbox.cif.g09.slc.cpg/sg11_31_cif.got.tgz:61805.got - 2010.06.27 23:14:04.
