data_PCOD8069915
_publ_section_title
;
Structure prediction by ZEFSAII (Michael W. Deem and Ramdas Pophale) SiO2 
 PCOD8069915
Probable space group: P 21/M
;
_chemical_formula_sum "Si O2"
_cell_formula_units_Z 28
_cell_length_a 13.691927
_cell_length_b 9.033056
_cell_length_c 14.471585
_cell_angle_alpha 90.000000
_cell_angle_beta 77.721951
_cell_angle_gamma 90.000000
_cell_volume 1748.905904
_symmetry_space_group_name_H-M "P 21/M"
_symmetry_group_IT_number 11
_symmetry_cell_setting 'monoclinic'
loop_
_space_group_symop_operation_xyz
x,y,z
-x,1/2+y,-z
-x,-y,-z
x,1/2-y,z
loop_
_atom_site_type_symbol
_atom_site_label
_atom_site_fract_x
_atom_site_fract_y
_atom_site_fract_z
Si Si1 0.364395 0.574449 0.718060
Si Si2 0.423237 0.424902 0.390400
Si Si3 0.895352 0.576379 0.535040
Si Si4 0.724154 0.923036 0.425395
Si Si5 0.419143 0.077083 0.888584
Si Si6 0.620918 0.921599 0.899070
Si Si7 0.743572 0.923679 0.709515
O O1 0.357281 0.750000 0.726599
O O2 0.466141 0.513217 0.649925
O O3 0.274912 0.513376 0.671244
O O4 0.356968 0.507492 0.822299
O O5 0.427584 0.250000 0.381246
O O6 0.376446 0.470549 0.498486
O O7 0.351458 0.490733 0.325439
O O8 0.914598 0.750000 0.534551
O O9 0.821635 0.534953 0.465452
O O10 0.846311 0.516747 0.642235
O O11 0.000000 0.500000 0.500000
O O12 0.723541 0.750000 0.402825
O O13 0.422828 0.250000 0.864531
O O14 0.531594 0.018023 0.875069
O O15 0.361045 0.045569 0.996728
O O16 0.591343 0.750000 0.889343
O O17 0.724184 0.959344 0.822129
O O18 0.746141 0.750000 0.689530
#
# Coordination Sequence:
#
# PCOD8069915 Si02
#       7
#     4   4   4   4   4   4   4
#     4  11  19  28  43  62  88 125 156 183 216 259
#     4   8  14  25  42  61  85 117 151 180 211 251
#     4   9  18  32  51  70  91 115 142 182 229 272
#     4   9  18  31  45  63  87 116 149 186 222 262
#     4  10  19  27  40  64  92 122 154 190 223 253
#     4   9  16  29  46  62  86 121 159 189 217 259
#     4   8  13  26  47  66  86 118 152 180 216 265
#
# _framework density 16.010009
#
# number of rings (size 3 to 8) (size 9 to 14) (size 15 to 20)
#    0.000    2.857    1.429    3.000    0.000    1.143 
#    0.000    1.429    0.000    0.000    0.000    1.000 
#    0.000    0.000    0.000    0.000    0.000    0.000 
#
# Total GULP energy -346899.895649 kJ/mol
# GULP energy per Si atom -12389.281987 kJ/mol
# Density = 1.597357 g / cm^3
# Si number density = 16.010009 Si / 1000 Ang^3
#
#
#
# Elastic Constant Matrix: (Units=GPa)
#
#
# Indices 1 2 3 4 5 6 
#
# 1 71.5376 31.2037 59.6981 0.0000 -8.2525 0.0000
# 2 31.2037 53.3974 48.5275 0.0000 3.6487 0.0000
# 3 59.6981 48.5275 137.0165 0.0000 -0.6091 0.0000
# 4 0.0000 0.0000 0.0000 22.5119 0.0000 2.9986
# 5 -8.2525 3.6487 -0.6091 0.0000 20.6385 0.0000
# 6 0.0000 0.0000 0.0000 2.9986 0.0000 21.7729
#
#
#
# Elastic Compliance Matrix: (Units=1/GPa)
#
#
# Indices 1 2 3 4 5 6 
#
# 1 0.025858 -0.008420 -0.008233 0.000000 0.011585 0.000000
# 2 -0.008420 0.030922 -0.007323 0.000000 -0.009050 0.000000
# 3 -0.008233 -0.007323 0.013472 0.000000 -0.001600 0.000000
# 4 0.000000 0.000000 0.000000 0.045251 0.000000 -0.006232
# 5 0.011585 -0.009050 -0.001600 0.000000 0.054638 0.000000
# 6 0.000000 0.000000 0.000000 -0.006232 0.000000 0.046787
#
#
# Mechanical properties :
#
#
# Convention : Reuss Voigt Hill
#
# Bulk Modulus (GPa) = 44.84420 60.09000 52.46710
# Shear Modulus (GPa) = 18.36121 21.15282 19.75702
#
# Velocity S-wave (km/s) = 3.39020 3.63881 3.51670
# Velocity P-wave (km/s) = 6.58753 7.43430 7.02369
#
# Compressibility (1/GPa) = 0.02229943
#
# Stress axis : x y z
#
# Youngs Moduli (GPa) = 38.67259 32.33976 74.22894
#
# Poissons Ratio (x) = 0.27232 0.61109
# Poissons Ratio (y) = 0.32564 0.54358
# Poissons Ratio (z) = 0.31837 0.23683
#
# Static dielectric constant tensor:
#      x y z
#    x 2.769700 0.000000 -0.084970 
#    y 0.000000 2.808580 0.000000 
#    z -0.084970 0.000000 3.299280 
# 
# 
# High freq. dielectric constant tensor:
#      x y z
#    x 1.568400 0.000000 0.002120 
#    y 0.000000 1.597540 0.000000 
#    z 0.002120 0.000000 1.624510 
# 
# From -- ./inp_files/50990.got.cif
#   From: 2010.06.25/outbox.cif.g09.slc.cpg/sg11_26_cif.got.tgz:50990.got - 2010.06.27 23:14:04.
