data_PCOD8069060
_publ_section_title
;
Structure prediction by ZEFSAII (Michael W. Deem and Ramdas Pophale) SiO2 
 PCOD8069060
Probable space group: P 21/M
;
_chemical_formula_sum "Si O2"
_cell_formula_units_Z 32
_cell_length_a 17.810234
_cell_length_b 9.077775
_cell_length_c 24.097336
_cell_angle_alpha 90.000000
_cell_angle_beta 149.656993
_cell_angle_gamma 90.000000
_cell_volume 1968.160008
_symmetry_space_group_name_H-M "P 21/M"
_symmetry_group_IT_number 11
_symmetry_cell_setting 'monoclinic'
loop_
_space_group_symop_operation_xyz
x,y,z
-x,1/2+y,-z
-x,-y,-z
x,1/2-y,z
loop_
_atom_site_type_symbol
_atom_site_label
_atom_site_fract_x
_atom_site_fract_y
_atom_site_fract_z
Si Si1 0.459408 0.421777 0.530858
Si Si2 0.831643 0.077755 0.169280
Si Si3 0.606839 0.076736 0.111931
Si Si4 0.872136 0.578181 0.694179
Si Si5 0.957130 0.077154 0.858525
Si Si6 0.738181 0.422823 0.918522
Si Si7 0.577737 0.078314 0.925361
Si Si8 0.308966 0.922452 0.233500
O O1 0.500000 0.500000 0.500000
O O2 0.495352 0.250000 0.545624
O O3 0.286799 0.448405 0.436252
O O4 0.559042 0.489669 0.644325
O O5 0.835063 0.250000 0.161861
O O6 0.774147 0.042715 0.195476
O O7 0.998366 0.017890 0.264729
O O8 0.717670 0.015336 0.050085
O O9 0.576192 0.250000 0.094267
O O10 0.572511 0.006733 0.150529
O O11 0.500000 0.000000 0.000000
O O12 0.894485 0.750000 0.722919
O O13 0.876016 0.486928 0.753084
O O14 0.979346 0.250000 0.864687
O O15 0.851942 0.040769 0.843686
O O16 0.114605 0.003113 0.967816
O O17 0.775421 0.250000 0.939084
O O18 0.607138 0.453492 0.879286
O O19 0.685377 0.487028 0.825412
O O20 0.552352 0.250000 0.920712
O O21 0.336417 0.750000 0.247444
#
# Coordination Sequence:
#
# PCOD8069060 Si02
#       8
#     4   4   4   4   4   4   4   4
#     4  10  19  32  50  69  90 118 155 194 232 272
#     4   8  14  26  41  62  87 112 148 182 211 262
#     4   9  16  26  41  61  89 118 145 180 221 270
#     4  10  18  30  49  68  89 124 158 182 223 280
#     4  11  20  30  45  68  97 119 150 197 233 268
#     4  10  19  33  49  63  90 128 159 186 226 279
#     4   9  16  27  43  62  86 117 151 183 219 271
#     4   9  19  33  47  66  92 121 155 198 233 263
#
# _framework density 16.258839999999999
#
# number of rings (size 3 to 8) (size 9 to 14) (size 15 to 20)
#    0.000    2.500    2.500    1.875    0.000    0.500 
#    0.000    1.875    0.000    0.000    0.000    0.875 
#    0.000    0.000    0.000    0.000    0.000    0.000 
#
# Total GULP energy -396549.108337 kJ/mol
# GULP energy per Si atom -12392.159636 kJ/mol
# Density = 1.622183 g / cm^3
# Si number density = 16.258840 Si / 1000 Ang^3
#
#
#
# Elastic Constant Matrix: (Units=GPa)
#
#
# Indices 1 2 3 4 5 6 
#
# 1 121.4583 39.4724 31.8343 0.0000 4.7356 0.0000
# 2 39.4724 45.4917 19.5978 0.0000 0.5795 0.0000
# 3 31.8343 19.5978 51.8849 0.0000 -4.0273 0.0000
# 4 0.0000 0.0000 0.0000 11.0025 0.0000 1.1079
# 5 4.7356 0.5795 -4.0273 0.0000 20.2851 0.0000
# 6 0.0000 0.0000 0.0000 1.1079 0.0000 24.3147
#
#
#
# Elastic Compliance Matrix: (Units=1/GPa)
#
#
# Indices 1 2 3 4 5 6 
#
# 1 0.012420 -0.008754 -0.004590 0.000000 -0.003561 0.000000
# 2 -0.008754 0.032577 -0.006955 0.000000 -0.000268 0.000000
# 3 -0.004590 -0.006955 0.025204 0.000000 0.006274 0.000000
# 4 0.000000 0.000000 0.000000 0.091307 0.000000 -0.004161
# 5 -0.003561 -0.000268 0.006274 0.000000 0.051382 0.000000
# 6 0.000000 0.000000 0.000000 -0.004161 0.000000 0.041317
#
#
# Mechanical properties :
#
#
# Convention : Reuss Voigt Hill
#
# Bulk Modulus (GPa) = 33.78018 44.51596 39.14807
# Shear Modulus (GPa) = 16.41105 19.64915 18.03010
#
# Velocity S-wave (km/s) = 3.18049 3.48015 3.33369
# Velocity P-wave (km/s) = 5.85739 6.60209 6.24086
#
# Compressibility (1/GPa) = 0.02960316
#
# Stress axis : x y z
#
# Youngs Moduli (GPa) = 80.51439 30.69636 39.67655
#
# Poissons Ratio (x) = 0.26871 0.18213
# Poissons Ratio (y) = 0.70481 0.27594
# Poissons Ratio (z) = 0.36959 0.21349
#
# Static dielectric constant tensor:
#      x y z
#    x 3.611830 0.000000 0.125750 
#    y 0.000000 2.972170 0.000000 
#    z 0.125750 0.000000 3.099510 
# 
# 
# High freq. dielectric constant tensor:
#      x y z
#    x 1.635870 0.000000 0.013330 
#    y 0.000000 1.607470 0.000000 
#    z 0.013330 0.000000 1.588180 
# 
# From -- ./inp_files/42481.got.cif
#   From: 2010.06.25/outbox.cif.g09.slc.cpg/sg11_22_cif.got.tgz:42481.got - 2010.06.27 23:14:04.
