data_PCOD8069295
_publ_section_title
;
Structure prediction by ZEFSAII (Michael W. Deem and Ramdas Pophale) SiO2 
 PCOD8069295
Probable space group: P 21/M
;
_chemical_formula_sum "Si O2"
_cell_formula_units_Z 28
_cell_length_a 13.602704
_cell_length_b 8.456707
_cell_length_c 14.449738
_cell_angle_alpha 90.000000
_cell_angle_beta 76.628470
_cell_angle_gamma 90.000000
_cell_volume 1617.151288
_symmetry_space_group_name_H-M "P 21/M"
_symmetry_group_IT_number 11
_symmetry_cell_setting 'monoclinic'
loop_
_space_group_symop_operation_xyz
x,y,z
-x,1/2+y,-z
-x,-y,-z
x,1/2-y,z
loop_
_atom_site_type_symbol
_atom_site_label
_atom_site_fract_x
_atom_site_fract_y
_atom_site_fract_z
Si Si1 0.388576 0.933570 0.527334
Si Si2 0.086831 0.566056 0.612978
Si Si3 0.220040 0.063430 0.432737
Si Si4 0.088398 0.067044 0.106769
Si Si5 0.877006 0.565304 0.105411
Si Si6 0.876075 0.433626 0.711333
Si Si7 0.252576 0.069019 0.702437
O O1 0.389301 0.750000 0.504710
O O2 0.500000 0.000000 0.500000
O O3 0.322856 0.020419 0.463485
O O4 0.341663 0.962196 0.640093
O O5 0.112367 0.750000 0.623153
O O6 0.122320 0.514747 0.503123
O O7 0.148456 0.458004 0.670952
O O8 0.969463 0.536499 0.653795
O O9 0.208418 0.250000 0.432245
O O10 0.220311 0.991575 0.328407
O O11 0.104744 0.250000 0.125148
O O12 0.142683 0.968348 0.176109
O O13 0.139817 0.017817 0.998007
O O14 0.968739 0.033688 0.129121
O O15 0.905932 0.750000 0.107391
O O16 0.773378 0.528420 0.184468
O O17 0.896814 0.250000 0.691996
O O18 0.286623 0.250000 0.683821
#
# Coordination Sequence:
#
# PCOD8069295 Si02
#       7
#     4   4   4   4   4   4   4
#     4  11  22  38  57  79 103 129 162 205 252 301
#     4  11  20  31  46  69  98 133 170 207 244 294
#     4  11  22  36  52  72  97 129 165 206 250 302
#     4  10  19  30  46  69  98 136 177 213 247 289
#     4   9  18  31  47  69 100 135 172 211 251 293
#     4  12  22  33  46  67  99 137 173 209 248 293
#     4  10  18  31  51  75 102 134 168 207 252 299
#
# _framework density 17.314398000000001
#
# number of rings (size 3 to 8) (size 9 to 14) (size 15 to 20)
#    0.000    1.429    1.429    8.143    0.000    1.143 
#    0.000    0.000    0.000    0.000    0.000    1.000 
#    0.000    0.000    0.000    0.000    0.000    0.000 
#
# Total GULP energy -347182.120970 kJ/mol
# GULP energy per Si atom -12399.361463 kJ/mol
# Density = 1.727499 g / cm^3
# Si number density = 17.314398 Si / 1000 Ang^3
#
#
#
# Elastic Constant Matrix: (Units=GPa)
#
#
# Indices 1 2 3 4 5 6 
#
# 1 63.5431 16.0888 47.7214 0.0000 -3.4712 0.0000
# 2 16.0888 75.7931 26.1285 0.0000 0.9097 0.0000
# 3 47.7214 26.1285 120.4866 0.0000 5.3580 0.0000
# 4 0.0000 0.0000 0.0000 27.4906 0.0000 1.3751
# 5 -3.4712 0.9097 5.3580 0.0000 18.1107 0.0000
# 6 0.0000 0.0000 0.0000 1.3751 0.0000 23.9832
#
#
#
# Elastic Compliance Matrix: (Units=1/GPa)
#
#
# Indices 1 2 3 4 5 6 
#
# 1 0.023566 -0.001902 -0.009248 0.000000 0.007348 0.000000
# 2 -0.001902 0.014414 -0.002355 0.000000 -0.000392 0.000000
# 3 -0.009248 -0.002355 0.012714 0.000000 -0.005416 0.000000
# 4 0.000000 0.000000 0.000000 0.036481 0.000000 -0.002092
# 5 0.007348 -0.000392 -0.005416 0.000000 0.058246 0.000000
# 6 0.000000 0.000000 0.000000 -0.002092 0.000000 0.041816
#
#
# Mechanical properties :
#
#
# Convention : Reuss Voigt Hill
#
# Bulk Modulus (GPa) = 42.22372 48.85557 45.53964
# Shear Modulus (GPa) = 22.50813 25.24250 23.87532
#
# Velocity S-wave (km/s) = 3.60942 3.82238 3.71742
# Velocity P-wave (km/s) = 6.46606 6.91077 6.69211
#
# Compressibility (1/GPa) = 0.02368337
#
# Stress axis : x y z
#
# Youngs Moduli (GPa) = 42.43440 69.37616 78.65313
#
# Poissons Ratio (x) = 0.13199 0.72738
# Poissons Ratio (y) = 0.08073 0.18522
# Poissons Ratio (z) = 0.39243 0.16337
#
# Static dielectric constant tensor:
#      x y z
#    x 2.808820 0.000000 0.048950 
#    y 0.000000 3.298210 0.000000 
#    z 0.048950 0.000000 3.588370 
# 
# 
# High freq. dielectric constant tensor:
#      x y z
#    x 1.613020 0.000000 0.007830 
#    y 0.000000 1.686920 0.000000 
#    z 0.007830 0.000000 1.675140 
# 
# From -- ./inp_files/50991.got.cif
#   From: 2010.06.25/outbox.cif.g09.slc.cpg/sg11_26_cif.got.tgz:50991.got - 2010.06.27 23:14:04.
