data_PCOD8069483
_publ_section_title
;
Structure prediction by ZEFSAII (Michael W. Deem and Ramdas Pophale) SiO2 
 PCOD8069483
Probable space group: P 21/M
;
_chemical_formula_sum "Si O2"
_cell_formula_units_Z 32
_cell_length_a 11.127374
_cell_length_b 19.112789
_cell_length_c 20.482087
_cell_angle_alpha 90.000000
_cell_angle_beta 24.630209
_cell_angle_gamma 90.000000
_cell_volume 1815.420009
_symmetry_space_group_name_H-M "P 21/M"
_symmetry_group_IT_number 11
_symmetry_cell_setting 'monoclinic'
loop_
_space_group_symop_operation_xyz
x,y,z
-x,1/2+y,-z
-x,-y,-z
x,1/2-y,z
loop_
_atom_site_type_symbol
_atom_site_label
_atom_site_fract_x
_atom_site_fract_y
_atom_site_fract_z
Si Si1 0.850173 0.172867 0.245433
Si Si2 0.244689 0.506327 0.210745
Si Si3 0.515186 0.828228 0.450852
Si Si4 0.594697 0.889579 0.965327
Si Si5 0.611719 0.476840 0.516374
Si Si6 0.147472 0.829533 0.088140
Si Si7 0.693085 0.450534 0.084915
Si Si8 0.217755 0.548504 0.813019
O O1 0.875705 0.250000 0.203800
O O2 0.572294 0.167172 0.430003
O O3 0.802981 0.124457 0.207279
O O4 0.146043 0.157044 0.136898
O O5 0.389545 0.581766 0.124925
O O6 0.390763 0.469056 0.200505
O O7 0.905749 0.516223 0.390255
O O8 0.267190 0.457871 0.135821
O O9 0.430313 0.750000 0.465654
O O10 0.346756 0.892231 0.499031
O O11 0.855379 0.841789 0.273690
O O12 0.412727 0.843015 0.005328
O O13 0.500000 0.500000 0.500000
O O14 0.387810 0.496203 0.682598
O O15 0.163886 0.750000 0.053862
O O16 0.163282 0.881658 0.018526
O O17 0.631030 0.439333 0.191915
O O18 0.899243 0.517319 0.976363
#
# Coordination Sequence:
#
# PCOD8069483 Si02
#       8
#     4   4   4   4   4   4   4   4
#     4  11  21  35  55  82 112 142 177 226 289 336
#     4  10  20  32  55  81 112 141 182 226 277 320
#     4  10  20  33  51  82 113 138 177 224 279 335
#     4  10  18  32  52  84 111 136 176 230 273 330
#     4  12  20  34  58  85 109 146 179 231 289 330
#     4  10  20  34  55  81 111 144 179 223 278 332
#     4  10  22  38  54  79 108 146 188 233 259 326
#     4  11  22  37  57  78 108 143 192 228 272 324
#
# _framework density 17.626774999999999
#
# number of rings (size 3 to 8) (size 9 to 14) (size 15 to 20)
#    0.000    1.500    5.000    1.125    1.750    1.000 
#    0.000    0.000    0.000    0.000    0.000    0.000 
#    0.000    0.000    0.000    0.000    0.000    0.000 
#
# Total GULP energy -396728.791556 kJ/mol
# GULP energy per Si atom -12397.774736 kJ/mol
# Density = 1.758666 g / cm^3
# Si number density = 17.626775 Si / 1000 Ang^3
#
#
#
# Elastic Constant Matrix: (Units=GPa)
#
#
# Indices 1 2 3 4 5 6 
#
# 1 99.8716 41.2006 42.5253 0.0000 10.6471 0.0000
# 2 41.2006 112.0053 21.1840 0.0000 14.4902 0.0000
# 3 42.5253 21.1840 72.5230 0.0000 2.9000 0.0000
# 4 0.0000 0.0000 0.0000 23.8993 0.0000 -1.2638
# 5 10.6471 14.4902 2.9000 0.0000 25.7040 0.0000
# 6 0.0000 0.0000 0.0000 -1.2638 0.0000 20.5529
#
#
#
# Elastic Compliance Matrix: (Units=1/GPa)
#
#
# Indices 1 2 3 4 5 6 
#
# 1 0.015161 -0.003694 -0.007678 0.000000 -0.003331 0.000000
# 2 -0.003694 0.011048 -0.000877 0.000000 -0.004599 0.000000
# 3 -0.007678 -0.000877 0.018483 0.000000 0.001589 0.000000
# 4 0.000000 0.000000 0.000000 0.041979 0.000000 0.002581
# 5 -0.003331 -0.004599 0.001589 0.000000 0.042698 0.000000
# 6 0.000000 0.000000 0.000000 0.002581 0.000000 0.048814
#
#
# Mechanical properties :
#
#
# Convention : Reuss Voigt Hill
#
# Bulk Modulus (GPa) = 49.51813 54.91330 52.21571
# Shear Modulus (GPa) = 23.87642 25.99724 24.93683
#
# Velocity S-wave (km/s) = 3.68442 3.84457 3.76535
# Velocity P-wave (km/s) = 6.80099 7.13643 6.97073
#
# Compressibility (1/GPa) = 0.02019462
#
# Stress axis : x y z
#
# Youngs Moduli (GPa) = 65.95850 90.51597 54.10240
#
# Poissons Ratio (x) = 0.33435 0.41539
# Poissons Ratio (y) = 0.24364 0.04746
# Poissons Ratio (z) = 0.50642 0.07940
#
# Static dielectric constant tensor:
#      x y z
#    x 3.051570 0.000000 -0.013490 
#    y 0.000000 3.468500 0.000000 
#    z -0.013490 0.000000 3.364440 
# 
# 
# High freq. dielectric constant tensor:
#      x y z
#    x 1.653030 0.000000 -0.007640 
#    y 0.000000 1.689870 0.000000 
#    z -0.007640 0.000000 1.684480 
# 
# From -- ./inp_files/64921.got.cif
#   From: 2010.06.25/outbox.cif.g09.slc.cpg/sg11_33_cif.got.tgz:64921.got - 2010.06.27 23:14:04.
