data_PCOD8069265
_publ_section_title
;
Structure prediction by ZEFSAII (Michael W. Deem and Ramdas Pophale) SiO2 
 PCOD8069265
Probable space group: P 21/M
;
_chemical_formula_sum "Si O2"
_cell_formula_units_Z 32
_cell_length_a 11.777031
_cell_length_b 8.821330
_cell_length_c 21.705723
_cell_angle_alpha 90.000000
_cell_angle_beta 127.754793
_cell_angle_gamma 90.000000
_cell_volume 1782.879632
_symmetry_space_group_name_H-M "P 21/M"
_symmetry_group_IT_number 11
_symmetry_cell_setting 'monoclinic'
loop_
_space_group_symop_operation_xyz
x,y,z
-x,1/2+y,-z
-x,-y,-z
x,1/2-y,z
loop_
_atom_site_type_symbol
_atom_site_label
_atom_site_fract_x
_atom_site_fract_y
_atom_site_fract_z
Si Si1 0.453830 0.426946 0.165557
Si Si2 0.348663 0.069682 0.468704
Si Si3 0.667623 0.069520 0.407689
Si Si4 0.543178 0.571934 0.078235
Si Si5 0.267962 0.426062 0.688916
Si Si6 0.856179 0.577087 0.227268
Si Si7 0.855298 0.571682 0.709738
Si Si8 0.644207 0.929165 0.740417
O O1 0.445511 0.250000 0.147579
O O2 0.431690 0.517197 0.094381
O O3 0.606438 0.466376 0.245246
O O4 0.339307 0.473311 0.181420
O O5 0.363982 0.250000 0.479041
O O6 0.231963 0.020338 0.379330
O O7 0.500000 0.000000 0.500000
O O8 0.290818 0.997674 0.512535
O O9 0.686727 0.250000 0.413889
O O10 0.506155 0.013467 0.338333
O O11 0.774563 0.992534 0.392349
O O12 0.530644 0.750000 0.069002
O O13 0.703896 0.519773 0.149599
O O14 0.500000 0.500000 0.000000
O O15 0.316860 0.250000 0.701351
O O16 0.140465 0.441710 0.696959
O O17 0.879699 0.750000 0.216259
O O18 0.982075 0.483567 0.237735
O O19 0.858954 0.750000 0.715752
O O20 0.775821 0.503490 0.744165
O O21 0.640822 0.750000 0.732854
#
# Coordination Sequence:
#
# PCOD8069265 Si02
#       8
#     4   4   4   4   4   4   4   4
#     4   9  16  28  50  77 105 134 166 205 254 302
#     4  11  21  33  49  72 102 135 174 221 266 306
#     4  10  18  31  50  72  99 129 172 222 268 311
#     4  10  20  35  56  82 110 133 164 208 252 301
#     4   9  17  31  49  71 100 131 169 216 262 305
#     4   9  20  36  52  75 106 134 165 210 254 304
#     4  10  20  34  51  72 102 138 175 212 253 308
#     4   8  15  29  47  71 101 131 166 211 253 293
#
# _framework density 17.948492000000002
#
# number of rings (size 3 to 8) (size 9 to 14) (size 15 to 20)
#    0.000    2.500    1.250    3.375    0.000    4.000 
#    0.000    1.875    0.000    0.750    0.000    0.000 
#    0.000    0.000    0.000    0.000    0.000    0.000 
#
# Total GULP energy -396564.175980 kJ/mol
# GULP energy per Si atom -12392.630499 kJ/mol
# Density = 1.790764 g / cm^3
# Si number density = 17.948492 Si / 1000 Ang^3
#
#
#
# Elastic Constant Matrix: (Units=GPa)
#
#
# Indices 1 2 3 4 5 6 
#
# 1 126.8239 41.7535 65.2699 0.0000 -28.4552 0.0000
# 2 41.7535 55.9715 40.4119 0.0000 -13.1481 0.0000
# 3 65.2699 40.4119 89.4203 0.0000 -29.7183 0.0000
# 4 0.0000 0.0000 0.0000 27.1212 0.0000 -5.2592
# 5 -28.4552 -13.1481 -29.7183 0.0000 32.1478 0.0000
# 6 0.0000 0.0000 0.0000 -5.2592 0.0000 29.9886
#
#
#
# Elastic Compliance Matrix: (Units=1/GPa)
#
#
# Indices 1 2 3 4 5 6 
#
# 1 0.013682 -0.004479 -0.006563 0.000000 0.004212 0.000000
# 2 -0.004479 0.027988 -0.009950 0.000000 -0.001715 0.000000
# 3 -0.006563 -0.009950 0.024809 0.000000 0.013056 0.000000
# 4 0.000000 0.000000 0.000000 0.038170 0.000000 0.006694
# 5 0.004212 -0.001715 0.013056 0.000000 0.046202 0.000000
# 6 0.000000 0.000000 0.000000 0.006694 0.000000 0.034520
#
#
# Mechanical properties :
#
#
# Convention : Reuss Voigt Hill
#
# Bulk Modulus (GPa) = 40.82180 63.00957 51.91569
# Shear Modulus (GPa) = 21.22970 26.17020 23.69995
#
# Velocity S-wave (km/s) = 3.44293 3.82261 3.63773
# Velocity P-wave (km/s) = 6.21275 7.39359 6.82874
#
# Compressibility (1/GPa) = 0.02449671
#
# Stress axis : x y z
#
# Youngs Moduli (GPa) = 73.08830 35.72964 40.30748
#
# Poissons Ratio (x) = 0.16002 0.26454
# Poissons Ratio (y) = 0.32733 0.40105
# Poissons Ratio (z) = 0.47969 0.35550
#
# Static dielectric constant tensor:
#      x y z
#    x 3.738660 0.000000 -0.440220 
#    y 0.000000 3.273770 0.000000 
#    z -0.440220 0.000000 3.273910 
# 
# 
# High freq. dielectric constant tensor:
#      x y z
#    x 1.695280 0.000000 -0.037090 
#    y 0.000000 1.693600 0.000000 
#    z -0.037090 0.000000 1.661110 
# 
# From -- ./inp_files/40628.got.cif
#   From: 2010.06.25/outbox.cif.g09.slc.cpg/sg11_21_cif.got.tgz:40628.got - 2010.06.27 23:14:04.
