data_PCOD8069425
_publ_section_title
;
Structure prediction by ZEFSAII (Michael W. Deem and Ramdas Pophale) SiO2 
 PCOD8069425
Probable space group: P 21/M
;
_chemical_formula_sum "Si O2"
_cell_formula_units_Z 32
_cell_length_a 12.024585
_cell_length_b 17.763575
_cell_length_c 14.296597
_cell_angle_alpha 90.000000
_cell_angle_beta 147.575609
_cell_angle_gamma 90.000000
_cell_volume 1637.377286
_symmetry_space_group_name_H-M "P 21/M"
_symmetry_group_IT_number 11
_symmetry_cell_setting 'monoclinic'
loop_
_space_group_symop_operation_xyz
x,y,z
-x,1/2+y,-z
-x,-y,-z
x,1/2-y,z
loop_
_atom_site_type_symbol
_atom_site_label
_atom_site_fract_x
_atom_site_fract_y
_atom_site_fract_z
Si Si1 0.824874 0.660542 0.788232
Si Si2 0.636987 0.339795 0.518529
Si Si3 0.441200 0.163899 0.719768
Si Si4 0.969007 0.836117 0.689529
Si Si5 0.712142 0.082917 0.207469
Si Si6 0.878669 0.161288 0.509110
Si Si7 0.213029 0.660514 0.177171
Si Si8 0.316660 0.088817 0.814266
O O1 0.814302 0.750000 0.775795
O O2 0.598166 0.628680 0.653006
O O3 0.896466 0.630779 0.737686
O O4 0.987287 0.633030 0.982265
O O5 0.636943 0.250000 0.519839
O O6 0.762823 0.370162 0.518820
O O7 0.745824 0.371553 0.689857
O O8 0.494511 0.250000 0.783817
O O9 0.611239 0.130675 0.769034
O O10 0.447551 0.113886 0.816885
O O11 0.215318 0.158163 0.515007
O O12 0.044487 0.750000 0.753474
O O13 0.158051 0.885837 0.787602
O O14 0.768564 0.125667 0.341780
O O15 0.765926 0.995485 0.258954
O O16 0.467934 0.093982 0.011611
O O17 0.854359 0.250000 0.481972
O O18 0.120798 0.142746 0.689894
O O19 0.227199 0.750000 0.189567
#
# Coordination Sequence:
#
# PCOD8069425 Si02
#       8
#     4   4   4   4   4   4   4   4
#     4   9  16  28  49  77 109 141 174 222 279 328
#     4   9  18  32  49  77 112 143 179 218 267 329
#     4  10  18  31  56  86 111 138 179 234 286 329
#     4  10  18  31  56  86 111 138 179 234 286 329
#     4  11  24  40  58  81 113 152 190 231 281 337
#     4  11  23  38  59  85 115 150 187 230 274 329
#     4   9  16  28  49  77 109 141 174 222 279 328
#     4  11  24  40  58  81 113 152 190 231 281 337
#
# _framework density 19.543448999999999
#
# number of rings (size 3 to 8) (size 9 to 14) (size 15 to 20)
#    0.000    2.000    2.500    1.875    0.000    4.000 
#    0.000    2.500    0.000    3.000    0.000    5.250 
#    0.000    0.000    0.000    0.000    0.000    0.000 
#
# Total GULP energy -396838.460070 kJ/mol
# GULP energy per Si atom -12401.201877 kJ/mol
# Density = 1.949897 g / cm^3
# Si number density = 19.543449 Si / 1000 Ang^3
#
#
#
# Elastic Constant Matrix: (Units=GPa)
#
#
# Indices 1 2 3 4 5 6 
#
# 1 139.5840 16.5682 50.8051 0.0000 -1.4098 0.0000
# 2 16.5682 31.3124 15.3983 0.0000 -4.5513 0.0000
# 3 50.8051 15.3983 115.4477 0.0000 -7.2047 0.0000
# 4 0.0000 0.0000 0.0000 17.3509 0.0000 -1.6211
# 5 -1.4098 -4.5513 -7.2047 0.0000 14.7927 0.0000
# 6 0.0000 0.0000 0.0000 -1.6211 0.0000 0.7238
#
#
#
# Elastic Compliance Matrix: (Units=1/GPa)
#
#
# Indices 1 2 3 4 5 6 
#
# 1 0.008825 -0.003184 -0.003576 0.000000 -0.001880 0.000000
# 2 -0.003184 0.036410 -0.002862 0.000000 0.009505 0.000000
# 3 -0.003576 -0.002862 0.010872 0.000000 0.004074 0.000000
# 4 0.000000 0.000000 0.000000 0.072886 0.000000 0.163238
# 5 -0.001880 0.009505 0.004074 0.000000 0.072330 0.000000
# 6 0.000000 0.000000 0.000000 0.163238 0.000000 1.747114
#
#
# Mechanical properties :
#
#
# Convention : Reuss Voigt Hill
#
# Bulk Modulus (GPa) = 27.12817 50.20969 38.66893
# Shear Modulus (GPa) = 2.52529 20.14497 11.33513
#
# Velocity S-wave (km/s) = 1.13796 3.21406 2.41092
# Velocity P-wave (km/s) = 3.95445 6.28654 5.25159
#
# Compressibility (1/GPa) = 0.03686206
#
# Stress axis : x y z
#
# Youngs Moduli (GPa) = 113.31790 27.46494 91.98249
#
# Poissons Ratio (x) = 0.08745 0.32894
# Poissons Ratio (y) = 0.36081 0.26325
# Poissons Ratio (z) = 0.40524 0.07860
#
# Static dielectric constant tensor:
#      x y z
#    x 3.713580 0.000000 -0.008010 
#    y 0.000000 3.170600 0.000000 
#    z -0.008010 0.000000 3.720160 
# 
# 
# High freq. dielectric constant tensor:
#      x y z
#    x 1.765520 0.000000 -0.001710 
#    y 0.000000 1.713390 0.000000 
#    z -0.001710 0.000000 1.778380 
# 
# From -- ./inp_files/50714.got.cif
#   From: 2010.06.25/outbox.cif.g09.slc.cpg/sg11_26_cif.got.tgz:50714.got - 2010.06.27 23:14:04.
