data_PCOD8069344
_publ_section_title
;
Structure prediction by ZEFSAII (Michael W. Deem and Ramdas Pophale) SiO2 
 PCOD8069344
Probable space group: P 21/M
;
_chemical_formula_sum "Si O2"
_cell_formula_units_Z 32
_cell_length_a 11.952198
_cell_length_b 8.526436
_cell_length_c 27.903098
_cell_angle_alpha 90.000000
_cell_angle_beta 31.352050
_cell_angle_gamma 90.000000
_cell_volume 1479.508610
_symmetry_space_group_name_H-M "P 21/M"
_symmetry_group_IT_number 11
_symmetry_cell_setting 'monoclinic'
loop_
_space_group_symop_operation_xyz
x,y,z
-x,1/2+y,-z
-x,-y,-z
x,1/2-y,z
loop_
_atom_site_type_symbol
_atom_site_label
_atom_site_fract_x
_atom_site_fract_y
_atom_site_fract_z
Si Si1 0.057388 0.570713 0.844174
Si Si2 0.274165 0.937389 0.208505
Si Si3 0.406863 0.567066 0.985810
Si Si4 0.497767 0.434849 0.669913
Si Si5 0.385790 0.920668 0.269365
Si Si6 0.134127 0.422290 0.910771
Si Si7 0.589353 0.933353 0.540606
Si Si8 0.175469 0.935037 0.632675
O O1 0.010172 0.750000 0.846804
O O2 0.265321 0.506871 0.739471
O O3 0.132835 0.553555 0.870735
O O4 0.845524 0.466614 0.917226
O O5 0.270324 0.750000 0.210301
O O6 0.274010 0.004837 0.264127
O O7 0.480780 0.990469 0.101941
O O8 0.056569 0.005120 0.263754
O O9 0.449957 0.750000 0.966948
O O10 0.500000 0.500000 0.000000
O O11 0.467373 0.250000 0.689254
O O12 0.603194 0.503442 0.681472
O O13 0.643502 0.476908 0.570781
O O14 0.276594 0.750000 0.316788
O O15 0.623781 0.898507 0.161104
O O16 0.039835 0.250000 0.930246
O O17 0.000000 0.500000 0.000000
O O18 0.600243 0.750000 0.546888
O O19 0.356750 0.984501 0.604808
O O20 0.775010 0.981518 0.435889
O O21 0.174942 0.750000 0.625375
#
# Coordination Sequence:
#
# PCOD8069344 Si02
#       8
#     4   4   4   4   4   4   4   4
#     4  11  22  37  55  81 116 154 198 246 296 352
#     4  11  22  40  64  89 122 161 201 245 302 363
#     4  12  26  43  60  84 118 159 206 252 302 360
#     4  10  20  37  62  90 122 159 202 251 305 358
#     4   8  18  35  55  82 116 155 197 243 292 352
#     4  10  18  31  52  78 108 147 196 247 298 345
#     4  10  21  39  63  91 121 152 198 252 305 361
#     4  10  22  40  62  90 122 157 198 246 303 363
#
# _framework density 21.628803000000001
#
# number of rings (size 3 to 8) (size 9 to 14) (size 15 to 20)
#    0.000    1.750    0.000    5.625    1.750    2.500 
#    0.000    7.500    0.000    0.000    0.000    0.000 
#    0.000    0.000    0.000    0.000    0.000    0.000 
#
# Total GULP energy -396432.266263 kJ/mol
# GULP energy per Si atom -12388.508321 kJ/mol
# Density = 2.157957 g / cm^3
# Si number density = 21.628803 Si / 1000 Ang^3
#
#
#
# Elastic Constant Matrix: (Units=GPa)
#
#
# Indices 1 2 3 4 5 6 
#
# 1 83.5180 22.7182 17.0632 0.0000 16.2594 0.0000
# 2 22.7182 84.5562 9.1974 0.0000 5.2788 0.0000
# 3 17.0632 9.1974 40.1939 0.0000 10.6630 0.0000
# 4 0.0000 0.0000 0.0000 33.8361 0.0000 4.3981
# 5 16.2594 5.2788 10.6630 0.0000 39.0936 0.0000
# 6 0.0000 0.0000 0.0000 4.3981 0.0000 26.6989
#
#
#
# Elastic Compliance Matrix: (Units=1/GPa)
#
#
# Indices 1 2 3 4 5 6 
#
# 1 0.014581 -0.003173 -0.004278 0.000000 -0.004469 0.000000
# 2 -0.003173 0.012852 -0.001599 0.000000 0.000021 0.000000
# 3 -0.004278 -0.001599 0.028602 0.000000 -0.005806 0.000000
# 4 0.000000 0.000000 0.000000 0.030201 0.000000 -0.004975
# 5 -0.004469 0.000021 -0.005806 0.000000 0.029019 0.000000
# 6 0.000000 0.000000 0.000000 -0.004975 0.000000 0.038274
#
#
# Mechanical properties :
#
#
# Convention : Reuss Voigt Hill
#
# Bulk Modulus (GPa) = 26.36218 34.02506 30.19362
# Shear Modulus (GPa) = 27.13354 30.54500 28.83927
#
# Velocity S-wave (km/s) = 3.54575 3.76205 3.65550
# Velocity P-wave (km/s) = 5.38312 5.88525 5.63978
#
# Compressibility (1/GPa) = 0.03793313
#
# Stress axis : x y z
#
# Youngs Moduli (GPa) = 68.58391 77.81091 34.96289
#
# Poissons Ratio (x) = 0.24690 0.14958
# Poissons Ratio (y) = 0.21763 0.05591
# Poissons Ratio (z) = 0.29341 0.12443
#
# Static dielectric constant tensor:
#      x y z
#    x 4.471320 0.000000 -0.339520 
#    y 0.000000 3.740390 0.000000 
#    z -0.339520 0.000000 3.777020 
# 
# 
# High freq. dielectric constant tensor:
#      x y z
#    x 1.852290 0.000000 0.009620 
#    y 0.000000 1.839130 0.000000 
#    z 0.009620 0.000000 1.842640 
# 
# From -- ./inp_files/73039.got.cif
#   From: 2010.06.25/outbox.cif.g09.slc.cpg/sg11_37_cif.got.tgz:73039.got - 2010.06.27 23:14:04.
