data_PCOD8069449
_publ_section_title
;
Structure prediction by ZEFSAII (Michael W. Deem and Ramdas Pophale) SiO2 
 PCOD8069449
Probable space group: P 21/M
;
_chemical_formula_sum "Si O2"
_cell_formula_units_Z 20
_cell_length_a 16.536145
_cell_length_b 15.400831
_cell_length_c 13.904074
_cell_angle_alpha 90.000000
_cell_angle_beta 16.782970
_cell_angle_gamma 90.000000
_cell_volume 1022.441197
_symmetry_space_group_name_H-M "P 21/M"
_symmetry_group_IT_number 11
_symmetry_cell_setting 'monoclinic'
loop_
_space_group_symop_operation_xyz
x,y,z
-x,1/2+y,-z
-x,-y,-z
x,1/2-y,z
loop_
_atom_site_type_symbol
_atom_site_label
_atom_site_fract_x
_atom_site_fract_y
_atom_site_fract_z
Si Si1 0.633824 0.548839 0.259077
Si Si2 0.821715 0.150768 0.342495
Si Si3 0.537642 0.918703 0.890154
Si Si4 0.134017 0.975335 0.188495
Si Si5 0.856233 0.154353 0.522371
O O1 0.500000 0.500000 0.500000
O O2 0.401637 0.601918 0.467025
O O3 0.771108 0.479153 0.030218
O O4 0.870065 0.613703 0.029126
O O5 0.820722 0.250000 0.311795
O O6 0.736580 0.138361 0.551376
O O7 0.397079 0.840649 0.111312
O O8 0.869231 0.909268 0.494044
O O9 0.500000 0.000000 0.000000
O O10 0.381894 0.932672 0.966712
O O11 0.064814 0.073493 0.307729
O O12 0.007130 0.250000 0.353587
#
# Coordination Sequence:
#
# PCOD8069449 Si02
#       5
#     4   4   4   4   4
#     4  11  21  36  58  81 103 141 186 224 262 316
#     4  10  21  36  55  83 112 133 168 227 280 315
#     4  10  18  32  50  72 104 139 164 199 255 315
#     4  10  20  34  50  74 105 136 172 214 257 301
#     4   9  18  32  53  80 106 135 171 212 263 317
#
# _framework density 19.561026999999999
#
# number of rings (size 3 to 8) (size 9 to 14) (size 15 to 20)
#    0.000    2.000    0.000    7.200    0.000    2.400 
#    0.000   13.000    0.000    7.200    0.000    0.000 
#    0.000    0.000    0.000    0.000    0.000    0.000 
#
# Total GULP energy -247887.578163 kJ/mol
# GULP energy per Si atom -12394.378908 kJ/mol
# Density = 1.951650 g / cm^3
# Si number density = 19.561027 Si / 1000 Ang^3
#
#
#
# Elastic Constant Matrix: (Units=GPa)
#
#
# Indices 1 2 3 4 5 6 
#
# 1 86.6635 28.1329 36.4258 0.0000 -5.1433 0.0000
# 2 28.1329 60.5084 24.2152 0.0000 8.4836 0.0000
# 3 36.4258 24.2152 120.5880 0.0000 8.4073 0.0000
# 4 0.0000 0.0000 0.0000 29.1557 0.0000 -0.6933
# 5 -5.1433 8.4836 8.4073 0.0000 46.9608 0.0000
# 6 0.0000 0.0000 0.0000 -0.6933 0.0000 21.5723
#
#
#
# Elastic Compliance Matrix: (Units=1/GPa)
#
#
# Indices 1 2 3 4 5 6 
#
# 1 0.015249 -0.006123 -0.003615 0.000000 0.003424 0.000000
# 2 -0.006123 0.020757 -0.002036 0.000000 -0.004056 0.000000
# 3 -0.003615 -0.002036 0.009919 0.000000 -0.001804 0.000000
# 4 0.000000 0.000000 0.000000 0.034325 0.000000 0.001103
# 5 0.003424 -0.004056 -0.001804 0.000000 0.022725 0.000000
# 6 0.000000 0.000000 0.000000 0.001103 0.000000 0.046391
#
#
# Mechanical properties :
#
#
# Convention : Reuss Voigt Hill
#
# Bulk Modulus (GPa) = 44.68904 49.47864 47.08384
# Shear Modulus (GPa) = 27.72007 31.47014 29.59510
#
# Velocity S-wave (km/s) = 3.76853 4.01536 3.89390
# Velocity P-wave (km/s) = 6.46771 6.84448 6.65876
#
# Compressibility (1/GPa) = 0.02237685
#
# Stress axis : x y z
#
# Youngs Moduli (GPa) = 65.57623 48.17664 100.81256
#
# Poissons Ratio (x) = 0.29500 0.36448
# Poissons Ratio (y) = 0.40154 0.20523
# Poissons Ratio (z) = 0.23709 0.09808
#
# Static dielectric constant tensor:
#      x y z
#    x 3.568330 0.000000 0.109440 
#    y 0.000000 4.186430 0.000000 
#    z 0.109440 0.000000 4.399530 
# 
# 
# High freq. dielectric constant tensor:
#      x y z
#    x 1.759120 0.000000 -0.008510 
#    y 0.000000 1.731190 0.000000 
#    z -0.008510 0.000000 1.762850 
# 
# From -- ./inp_files/39816.got.cif
#   From: 2010.06.25/outbox.cif.g09.slc.cpg/sg11_20_cif.got.tgz:39816.got - 2010.06.27 23:14:04.
