data_PCOD8069342
_publ_section_title
;
Structure prediction by ZEFSAII (Michael W. Deem and Ramdas Pophale) SiO2 
 PCOD8069342
Probable space group: P 21/M
;
_chemical_formula_sum "Si O2"
_cell_formula_units_Z 32
_cell_length_a 15.542274
_cell_length_b 14.578037
_cell_length_c 18.490594
_cell_angle_alpha 90.000000
_cell_angle_beta 24.054245
_cell_angle_gamma 90.000000
_cell_volume 1707.654866
_symmetry_space_group_name_H-M "P 21/M"
_symmetry_group_IT_number 11
_symmetry_cell_setting 'monoclinic'
loop_
_space_group_symop_operation_xyz
x,y,z
-x,1/2+y,-z
-x,-y,-z
x,1/2-y,z
loop_
_atom_site_type_symbol
_atom_site_label
_atom_site_fract_x
_atom_site_fract_y
_atom_site_fract_z
Si Si1 0.113736 0.017892 0.698593
Si Si2 0.194381 0.421248 0.791109
Si Si3 0.341434 0.848399 0.572940
Si Si4 0.639150 0.860166 0.854483
Si Si5 0.123618 0.355413 0.474878
Si Si6 0.391549 0.150566 0.401306
Si Si7 0.790272 0.033818 0.820020
Si Si8 0.204362 0.882300 0.835539
O O1 0.068930 0.047276 0.815093
O O2 0.303748 0.080118 0.526175
O O3 0.910313 0.028395 0.804319
O O4 0.203218 0.914520 0.628866
O O5 0.415293 0.375287 0.604181
O O6 0.237962 0.508708 0.807665
O O7 0.033986 0.355178 0.957562
O O8 0.328854 0.750000 0.543934
O O9 0.248624 0.837980 0.724359
O O10 0.633389 0.750000 0.879801
O O11 0.799094 0.876115 0.665274
O O12 0.724963 0.928525 0.851497
O O13 0.405242 0.897377 0.016229
O O14 0.045676 0.250000 0.540799
O O15 0.327456 0.375514 0.368773
O O16 0.933936 0.422442 0.645745
O O17 0.291596 0.250000 0.495458
O O18 0.642778 0.155244 0.218790
#
# Coordination Sequence:
#
# PCOD8069342 Si02
#       8
#     4   4   4   4   4   4   4   4
#     4  10  20  37  54  80 108 140 180 220 268 317
#     4  10  20  34  54  74 103 143 181 222 266 309
#     4  11  21  36  53  75 111 146 183 224 265 314
#     4  10  21  38  58  83 111 140 179 221 269 329
#     4   9  19  34  55  82 112 141 175 222 269 318
#     4  10  18  31  52  78 107 136 175 225 266 309
#     4  10  21  36  59  83 109 144 178 220 273 326
#     4  10  19  33  52  74 102 141 183 223 263 312
#
# _framework density 18.739149999999999
#
# number of rings (size 3 to 8) (size 9 to 14) (size 15 to 20)
#    0.000    2.000    2.500    1.875    1.750    2.000 
#    0.000    0.000    0.000    0.000    0.000    5.250 
#    0.000    0.000    0.000    0.000    0.000    0.000 
#
# Total GULP energy -396504.641340 kJ/mol
# GULP energy per Si atom -12390.770042 kJ/mol
# Density = 1.869650 g / cm^3
# Si number density = 18.739150 Si / 1000 Ang^3
#
#
#
# Elastic Constant Matrix: (Units=GPa)
#
#
# Indices 1 2 3 4 5 6 
#
# 1 58.2569 25.5465 33.5851 0.0000 -9.4581 0.0000
# 2 25.5465 117.9154 41.7073 0.0000 -2.8273 0.0000
# 3 33.5851 41.7073 101.1754 0.0000 -2.8107 0.0000
# 4 0.0000 0.0000 0.0000 19.5721 0.0000 2.8345
# 5 -9.4581 -2.8273 -2.8107 0.0000 24.3131 0.0000
# 6 0.0000 0.0000 0.0000 2.8345 0.0000 21.8595
#
#
#
# Elastic Compliance Matrix: (Units=1/GPa)
#
#
# Indices 1 2 3 4 5 6 
#
# 1 0.023320 -0.002576 -0.006456 0.000000 0.008026 0.000000
# 2 -0.002576 0.010224 -0.003365 0.000000 -0.000202 0.000000
# 3 -0.006456 -0.003365 0.013376 0.000000 -0.001356 0.000000
# 4 0.000000 0.000000 0.000000 0.052071 0.000000 -0.006752
# 5 0.008026 -0.000202 -0.001356 0.000000 0.044072 0.000000
# 6 0.000000 0.000000 0.000000 -0.006752 0.000000 0.046622
#
#
# Mechanical properties :
#
#
# Convention : Reuss Voigt Hill
#
# Bulk Modulus (GPa) = 45.19638 53.22505 49.21071
# Shear Modulus (GPa) = 22.53713 24.91619 23.72666
#
# Velocity S-wave (km/s) = 3.47172 3.65037 3.56217
# Velocity P-wave (km/s) = 6.34362 6.79939 6.57546
#
# Compressibility (1/GPa) = 0.02212567
#
# Stress axis : x y z
#
# Youngs Moduli (GPa) = 42.88156 97.80684 74.75843
#
# Poissons Ratio (x) = 0.25198 0.48265
# Poissons Ratio (y) = 0.11048 0.25157
# Poissons Ratio (z) = 0.27685 0.32913
#
# Static dielectric constant tensor:
#      x y z
#    x 3.234520 0.000000 -0.021110 
#    y 0.000000 5.832830 0.000000 
#    z -0.021110 0.000000 3.482300 
# 
# 
# High freq. dielectric constant tensor:
#      x y z
#    x 1.708400 0.000000 -0.002690 
#    y 0.000000 1.736140 0.000000 
#    z -0.002690 0.000000 1.726850 
# 
# From -- ./inp_files/66278.got.cif
#   From: 2010.06.25/outbox.cif.g09.slc.cpg/sg11_34_cif.got.tgz:66278.got - 2010.06.27 23:14:04.
