data_PCOD8069897
_publ_section_title
;
Structure prediction by ZEFSAII (Michael W. Deem and Ramdas Pophale) SiO2 
 PCOD8069897
Probable space group: P 21/M
;
_chemical_formula_sum "Si O2"
_cell_formula_units_Z 32
_cell_length_a 27.098579
_cell_length_b 8.651437
_cell_length_c 21.099452
_cell_angle_alpha 90.000000
_cell_angle_beta 19.588495
_cell_angle_gamma 90.000000
_cell_volume 1658.405731
_symmetry_space_group_name_H-M "P 21/M"
_symmetry_group_IT_number 11
_symmetry_cell_setting 'monoclinic'
loop_
_space_group_symop_operation_xyz
x,y,z
-x,1/2+y,-z
-x,-y,-z
x,1/2-y,z
loop_
_atom_site_type_symbol
_atom_site_label
_atom_site_fract_x
_atom_site_fract_y
_atom_site_fract_z
Si Si1 0.215609 0.566866 0.073380
Si Si2 0.042735 0.427385 0.049517
Si Si3 0.542524 0.928799 0.660784
Si Si4 0.551011 0.431483 0.004228
Si Si5 0.984851 0.568341 0.249618
Si Si6 0.331003 0.930059 0.369919
Si Si7 0.848304 0.066506 0.708496
Si Si8 0.795937 0.573641 0.266979
O O1 0.213271 0.750000 0.076758
O O2 0.096646 0.505119 0.167489
O O3 0.179828 0.502244 0.186589
O O4 0.376456 0.508281 0.856558
O O5 0.039038 0.250000 0.076377
O O6 0.055282 0.534813 0.095796
O O7 0.894307 0.460894 0.190355
O O8 0.181766 0.462161 0.834757
O O9 0.544141 0.750000 0.680980
O O10 0.624880 0.949286 0.493450
O O11 0.632604 0.029037 0.602073
O O12 0.553834 0.250000 0.993487
O O13 0.714281 0.490868 0.825885
O O14 0.500000 0.500000 0.000000
O O15 0.437577 0.474851 0.195835
O O16 0.954127 0.750000 0.293088
O O17 0.836109 0.475545 0.441694
O O18 0.352977 0.750000 0.330206
O O19 0.857450 0.250000 0.698044
O O20 0.000000 0.000000 0.500000
O O21 0.846312 0.750000 0.219938
#
# Coordination Sequence:
#
# PCOD8069897 Si02
#       8
#     4   4   4   4   4   4   4   4
#     4   9  20  39  61  83 111 150 198 239 280 342
#     4  10  19  32  50  82 120 149 189 244 291 344
#     4  10  18  37  63  85 110 148 196 243 290 344
#     4  11  24  43  65  90 121 153 192 240 289 344
#     4  11  22  37  58  84 115 158 199 238 289 343
#     4  12  24  38  59  89 119 150 193 244 292 341
#     4  10  22  41  62  87 116 153 193 236 284 340
#     4   9  18  31  55  83 111 151 192 236 296 349
#
# _framework density 19.295639000000001
#
# number of rings (size 3 to 8) (size 9 to 14) (size 15 to 20)
#    0.000    1.750    2.500    2.250    1.750    1.500 
#    0.000    2.500    0.000    0.000    0.000    0.000 
#    0.000    0.000    0.000    0.000    0.000    0.000 
#
# Total GULP energy -396817.371293 kJ/mol
# GULP energy per Si atom -12400.542853 kJ/mol
# Density = 1.925172 g / cm^3
# Si number density = 19.295639 Si / 1000 Ang^3
#
#
#
# Elastic Constant Matrix: (Units=GPa)
#
#
# Indices 1 2 3 4 5 6 
#
# 1 111.1118 26.3489 71.6956 0.0000 -9.3321 0.0000
# 2 26.3489 33.9005 16.1772 0.0000 -5.0651 0.0000
# 3 71.6956 16.1772 168.8006 0.0000 -0.3069 0.0000
# 4 0.0000 0.0000 0.0000 25.5634 0.0000 8.1637
# 5 -9.3321 -5.0651 -0.3069 0.0000 35.3219 0.0000
# 6 0.0000 0.0000 0.0000 8.1637 0.0000 21.8294
#
#
#
# Elastic Compliance Matrix: (Units=1/GPa)
#
#
# Indices 1 2 3 4 5 6 
#
# 1 0.014743 -0.008466 -0.005446 0.000000 0.002634 0.000000
# 2 -0.008466 0.036476 0.000106 0.000000 0.002995 0.000000
# 3 -0.005446 0.000106 0.008224 0.000000 -0.001352 0.000000
# 4 0.000000 0.000000 0.000000 0.044424 0.000000 -0.016614
# 5 0.002634 0.002995 -0.001352 0.000000 0.029425 0.000000
# 6 0.000000 0.000000 0.000000 -0.016614 0.000000 0.052023
#
#
# Mechanical properties :
#
#
# Convention : Reuss Voigt Hill
#
# Bulk Modulus (GPa) = 31.41675 60.25070 45.83372
# Shear Modulus (GPa) = 22.36769 29.84902 26.10835
#
# Velocity S-wave (km/s) = 3.40841 3.93737 3.68240
# Velocity P-wave (km/s) = 5.63975 7.20856 6.47187
#
# Compressibility (1/GPa) = 0.03183016
#
# Stress axis : x y z
#
# Youngs Moduli (GPa) = 67.83048 27.41563 121.58846
#
# Poissons Ratio (x) = 0.23211 0.66211
# Poissons Ratio (y) = 0.57429 -0.01286
# Poissons Ratio (z) = 0.36937 -0.00290
#
# Static dielectric constant tensor:
#      x y z
#    x 3.682610 0.000000 0.279450 
#    y 0.000000 2.967950 0.000000 
#    z 0.279450 0.000000 5.021750 
# 
# 
# High freq. dielectric constant tensor:
#      x y z
#    x 1.740660 0.000000 0.013460 
#    y 0.000000 1.739260 0.000000 
#    z 0.013460 0.000000 1.763560 
# 
# From -- ./inp_files/66987.got.cif
#   From: 2010.06.25/outbox.cif.g09.slc.cpg/sg11_34_cif.got.tgz:66987.got - 2010.06.27 23:14:04.
