data_PCOD8069566
_publ_section_title
;
Structure prediction by ZEFSAII (Michael W. Deem and Ramdas Pophale) SiO2 
 PCOD8069566
Probable space group: P 21/M
;
_chemical_formula_sum "Si O2"
_cell_formula_units_Z 32
_cell_length_a 17.987826
_cell_length_b 18.126974
_cell_length_c 11.186129
_cell_angle_alpha 90.000000
_cell_angle_beta 150.238459
_cell_angle_gamma 90.000000
_cell_volume 1810.539644
_symmetry_space_group_name_H-M "P 21/M"
_symmetry_group_IT_number 11
_symmetry_cell_setting 'monoclinic'
loop_
_space_group_symop_operation_xyz
x,y,z
-x,1/2+y,-z
-x,-y,-z
x,1/2-y,z
loop_
_atom_site_type_symbol
_atom_site_label
_atom_site_fract_x
_atom_site_fract_y
_atom_site_fract_z
Si Si1 0.305428 0.062658 0.677288
Si Si2 0.809463 0.166850 0.982928
Si Si3 0.780706 0.048611 0.140128
Si Si4 0.116152 0.164629 0.280598
Si Si5 0.973582 0.422125 0.895439
Si Si6 0.491899 0.048649 0.162719
Si Si7 0.952747 0.032703 0.602471
Si Si8 0.676788 0.336464 0.551119
O O1 0.270310 0.136818 0.555253
O O2 0.360102 0.997876 0.664734
O O3 0.145258 0.039608 0.507099
O O4 0.424391 0.081468 0.945747
O O5 0.821705 0.250000 0.048202
O O6 0.682671 0.161014 0.703216
O O7 0.757690 0.117037 0.020531
O O8 0.969291 0.141598 0.152457
O O9 0.851019 0.078538 0.364233
O O10 0.890933 0.987939 0.239053
O O11 0.622340 0.007961 0.934981
O O12 0.129110 0.250000 0.282363
O O13 0.102278 0.130223 0.128972
O O14 0.993043 0.424884 0.780050
O O15 0.815915 0.382215 0.695233
O O16 0.000000 0.500000 0.000000
O O17 0.530566 0.118835 0.300480
O O18 0.676152 0.250000 0.507803
#
# Coordination Sequence:
#
# PCOD8069566 Si02
#       8
#     4   4   4   4   4   4   4   4
#     4  10  18  35  54  79 106 138 179 224 268 310
#     4   9  18  34  54  76 106 143 180 220 267 329
#     4  10  20  33  53  82 107 140 181 218 263 325
#     4  10  19  32  55  83 106 136 184 229 271 318
#     4  11  17  31  58  82 104 135 177 232 269 299
#     4  10  21  33  55  80 109 141 179 222 263 322
#     4  10  18  32  56  79 105 134 180 226 263 309
#     4  10  20  35  55  80 109 144 183 220 271 332
#
# _framework density 17.674288000000001
#
# number of rings (size 3 to 8) (size 9 to 14) (size 15 to 20)
#    0.000    2.000    3.750    1.875    0.000    1.000 
#    0.000    1.875    0.000    3.000    0.000    0.000 
#    0.000    0.000    0.000    0.000    0.000    0.000 
#
# Total GULP energy -396546.003923 kJ/mol
# GULP energy per Si atom -12392.062623 kJ/mol
# Density = 1.763406 g / cm^3
# Si number density = 17.674288 Si / 1000 Ang^3
#
#
#
# Elastic Constant Matrix: (Units=GPa)
#
#
# Indices 1 2 3 4 5 6 
#
# 1 82.1961 44.2024 40.3482 0.0000 -25.4640 0.0000
# 2 44.2024 100.9803 63.1901 0.0000 -21.3308 0.0000
# 3 40.3482 63.1901 93.2664 0.0000 -22.0213 0.0000
# 4 0.0000 0.0000 0.0000 26.0202 0.0000 -2.4551
# 5 -25.4640 -21.3308 -22.0213 0.0000 26.9712 0.0000
# 6 0.0000 0.0000 0.0000 -2.4551 0.0000 25.9754
#
#
#
# Elastic Compliance Matrix: (Units=1/GPa)
#
#
# Indices 1 2 3 4 5 6 
#
# 1 0.019825 -0.004288 -0.002543 0.000000 0.013250 0.000000
# 2 -0.004288 0.018696 -0.010253 0.000000 0.002366 0.000000
# 3 -0.002543 -0.010253 0.020177 0.000000 0.005964 0.000000
# 4 0.000000 0.000000 0.000000 0.038777 0.000000 0.003665
# 5 0.013250 0.002366 0.005964 0.000000 0.056327 0.000000
# 6 0.000000 0.000000 0.000000 0.003665 0.000000 0.038844
#
#
# Mechanical properties :
#
#
# Convention : Reuss Voigt Hill
#
# Bulk Modulus (GPa) = 40.76675 63.54712 52.15694
# Shear Modulus (GPa) = 21.27742 24.37351 22.82546
#
# Velocity S-wave (km/s) = 3.47344 3.71757 3.59757
# Velocity P-wave (km/s) = 6.26115 7.37968 6.84331
#
# Compressibility (1/GPa) = 0.02452979
#
# Stress axis : x y z
#
# Youngs Moduli (GPa) = 50.44168 53.48804 49.56125
#
# Poissons Ratio (x) = 0.22935 0.12603
# Poissons Ratio (y) = 0.21629 0.50816
# Poissons Ratio (z) = 0.12827 0.54842
#
# Static dielectric constant tensor:
#      x y z
#    x 3.280600 0.000000 -0.279840 
#    y 0.000000 3.147500 0.000000 
#    z -0.279840 0.000000 3.497630 
# 
# 
# High freq. dielectric constant tensor:
#      x y z
#    x 1.667880 0.000000 -0.019130 
#    y 0.000000 1.667900 0.000000 
#    z -0.019130 0.000000 1.692130 
# 
# From -- ./inp_files/41850.got.cif
#   From: 2010.06.25/outbox.cif.g09.slc.cpg/sg11_21_cif.got.tgz:41850.got - 2010.06.27 23:14:04.
