data_PCOD8069110
_publ_section_title
;
Structure prediction by ZEFSAII (Michael W. Deem and Ramdas Pophale) SiO2 
 PCOD8069110
Probable space group: P 21/M
;
_chemical_formula_sum "Si O2"
_cell_formula_units_Z 32
_cell_length_a 31.398249
_cell_length_b 8.956883
_cell_length_c 12.295478
_cell_angle_alpha 90.000000
_cell_angle_beta 27.768352
_cell_angle_gamma 90.000000
_cell_volume 1611.011189
_symmetry_space_group_name_H-M "P 21/M"
_symmetry_group_IT_number 11
_symmetry_cell_setting 'monoclinic'
loop_
_space_group_symop_operation_xyz
x,y,z
-x,1/2+y,-z
-x,-y,-z
x,1/2-y,z
loop_
_atom_site_type_symbol
_atom_site_label
_atom_site_fract_x
_atom_site_fract_y
_atom_site_fract_z
Si Si1 0.176861 0.926023 0.884681
Si Si2 0.970631 0.925761 0.373372
Si Si3 0.796562 0.422335 0.779674
Si Si4 0.066973 0.411720 0.776323
Si Si5 0.327491 0.428217 0.115161
Si Si6 0.243059 0.086051 0.520818
Si Si7 0.498905 0.072593 0.384619
Si Si8 0.317718 0.921723 0.748472
O O1 0.169453 0.750000 0.893445
O O2 0.243510 0.979503 0.829099
O O3 0.217211 0.978357 0.677711
O O4 0.074809 0.987267 0.144682
O O5 0.965512 0.750000 0.410763
O O6 0.930447 0.981430 0.348480
O O7 0.891936 0.012724 0.619366
O O8 0.811141 0.250000 0.715143
O O9 0.758970 0.512460 0.759657
O O10 0.720159 0.438657 0.044864
O O11 0.021492 0.250000 0.862495
O O12 0.163503 0.399717 0.613036
O O13 0.000000 0.500000 0.000000
O O14 0.334027 0.250000 0.083342
O O15 0.321801 0.468244 0.258696
O O16 0.418277 0.510936 0.872813
O O17 0.264689 0.250000 0.521339
O O18 0.506315 0.250000 0.378573
O O19 0.500000 0.000000 0.500000
O O20 0.405691 0.026112 0.534660
O O21 0.344052 0.750000 0.664811
#
# Coordination Sequence:
#
# PCOD8069110 Si02
#       8
#     4   4   4   4   4   4   4   4
#     4  10  22  40  61  83 117 166 209 247 293 354
#     4  10  20  35  54  82 120 161 202 245 300 351
#     4  11  22  35  57  88 121 156 199 249 300 357
#     4  10  18  30  49  78 112 148 194 243 290 343
#     4  11  22  39  62  92 126 154 189 247 310 356
#     4  10  21  36  56  85 121 157 195 247 301 353
#     4  12  24  40  66  97 122 152 194 243 301 361
#     4  10  23  43  62  86 120 157 201 251 301 353
#
# _framework density 19.863299999999999
#
# number of rings (size 3 to 8) (size 9 to 14) (size 15 to 20)
#    0.000    1.500    3.750    1.875    0.000    3.500 
#    0.000    0.625    0.000    0.000    0.000    0.000 
#    0.000    0.000    0.000    0.000    0.000    0.000 
#
# Total GULP energy -396509.502129 kJ/mol
# GULP energy per Si atom -12390.921942 kJ/mol
# Density = 1.981809 g / cm^3
# Si number density = 19.863300 Si / 1000 Ang^3
#
#
#
# Elastic Constant Matrix: (Units=GPa)
#
#
# Indices 1 2 3 4 5 6 
#
# 1 69.1472 25.2649 20.0529 0.0000 -16.1874 0.0000
# 2 25.2649 90.8063 48.0830 0.0000 -11.3119 0.0000
# 3 20.0529 48.0830 119.2175 0.0000 -21.2147 0.0000
# 4 0.0000 0.0000 0.0000 34.8174 0.0000 -1.0709
# 5 -16.1874 -11.3119 -21.2147 0.0000 25.9859 0.0000
# 6 0.0000 0.0000 0.0000 -1.0709 0.0000 23.5276
#
#
#
# Elastic Compliance Matrix: (Units=1/GPa)
#
#
# Indices 1 2 3 4 5 6 
#
# 1 0.018124 -0.003981 0.000302 0.000000 0.009803 0.000000
# 2 -0.003981 0.014945 -0.005430 0.000000 -0.000408 0.000000
# 3 0.000302 -0.005430 0.011864 0.000000 0.007510 0.000000
# 4 0.000000 0.000000 0.000000 0.028762 0.000000 0.001309
# 5 0.009803 -0.000408 0.007510 0.000000 0.050542 0.000000
# 6 0.000000 0.000000 0.000000 0.001309 0.000000 0.042563
#
#
# Mechanical properties :
#
#
# Convention : Reuss Voigt Hill
#
# Bulk Modulus (GPa) = 37.43539 51.77471 44.60505
# Shear Modulus (GPa) = 25.78334 29.25085 27.51710
#
# Velocity S-wave (km/s) = 3.60674 3.84162 3.72603
# Velocity P-wave (km/s) = 6.01932 6.76753 6.40436
#
# Compressibility (1/GPa) = 0.02671269
#
# Stress axis : x y z
#
# Youngs Moduli (GPa) = 55.17552 66.91285 84.28970
#
# Poissons Ratio (x) = 0.26639 -0.02542
# Poissons Ratio (y) = 0.21966 0.45773
# Poissons Ratio (z) = -0.01664 0.36337
#
# Static dielectric constant tensor:
#      x y z
#    x 3.527200 0.000000 -0.005420 
#    y 0.000000 3.591180 0.000000 
#    z -0.005420 0.000000 3.936230 
# 
# 
# High freq. dielectric constant tensor:
#      x y z
#    x 1.757420 0.000000 0.000400 
#    y 0.000000 1.768910 0.000000 
#    z 0.000400 0.000000 1.790380 
# 
# From -- ./inp_files/45199.got.cif
#   From: 2010.06.25/outbox.cif.g09.slc.cpg/sg11_23_cif.got.tgz:45199.got - 2010.06.27 23:14:04.
