data_PCOD8069122
_publ_section_title
;
Structure prediction by ZEFSAII (Michael W. Deem and Ramdas Pophale) SiO2 
 PCOD8069122
Probable space group: P 21/M
;
_chemical_formula_sum "Si O2"
_cell_formula_units_Z 28
_cell_length_a 14.541420
_cell_length_b 8.536919
_cell_length_c 18.453712
_cell_angle_alpha 90.000000
_cell_angle_beta 39.848651
_cell_angle_gamma 90.000000
_cell_volume 1467.872564
_symmetry_space_group_name_H-M "P 21/M"
_symmetry_group_IT_number 11
_symmetry_cell_setting 'monoclinic'
loop_
_space_group_symop_operation_xyz
x,y,z
-x,1/2+y,-z
-x,-y,-z
x,1/2-y,z
loop_
_atom_site_type_symbol
_atom_site_label
_atom_site_fract_x
_atom_site_fract_y
_atom_site_fract_z
Si Si1 0.261422 0.565808 0.706342
Si Si2 0.972322 0.066880 0.890289
Si Si3 0.312137 0.434713 0.909613
Si Si4 0.634047 0.565659 0.961121
Si Si5 0.768774 0.932079 0.433745
Si Si6 0.944317 0.568849 0.751322
Si Si7 0.499720 0.934579 0.338894
O O1 0.254133 0.750000 0.723438
O O2 0.261171 0.528454 0.621245
O O3 0.406875 0.498084 0.651219
O O4 0.127153 0.482058 0.829334
O O5 0.971869 0.250000 0.871252
O O6 0.956288 0.958236 0.829640
O O7 0.837145 0.021486 0.022675
O O8 0.284228 0.250000 0.925606
O O9 0.431620 0.484131 0.779223
O O10 0.364500 0.496024 0.956754
O O11 0.621316 0.750000 0.971094
O O12 0.781238 0.516790 0.829573
O O13 0.500000 0.500000 0.000000
O O14 0.753182 0.750000 0.426343
O O15 0.656839 0.985974 0.562695
O O16 0.931084 0.969096 0.364161
O O17 0.970023 0.750000 0.717723
O O18 0.483363 0.750000 0.355945
#
# Coordination Sequence:
#
# PCOD8069122 Si02
#       7
#     4   4   4   4   4   4   4
#     4  11  21  34  51  72 100 134 176 219 255 294
#     4  10  18  30  50  74 100 131 169 212 256 298
#     4   9  20  37  53  72 102 137 169 202 251 310
#     4   9  18  33  56  84 107 128 157 198 248 302
#     4  11  21  34  52  75 102 133 174 216 253 294
#     4   9  17  32  52  75 103 134 168 203 246 297
#     4  11  22  36  52  70  98 137 176 214 254 296
#
# _framework density 19.075226000000001
#
# number of rings (size 3 to 8) (size 9 to 14) (size 15 to 20)
#    0.000    2.000    0.000    7.714    0.000    4.571 
#    0.000    0.000    0.000    0.857    0.000    0.000 
#    0.000    0.000    0.000    0.000    0.000    0.000 
#
# Total GULP energy -347089.366686 kJ/mol
# GULP energy per Si atom -12396.048810 kJ/mol
# Density = 1.903181 g / cm^3
# Si number density = 19.075226 Si / 1000 Ang^3
#
#
#
# Elastic Constant Matrix: (Units=GPa)
#
#
# Indices 1 2 3 4 5 6 
#
# 1 47.4528 15.6176 46.8253 0.0000 -26.3747 0.0000
# 2 15.6176 37.1246 35.7160 0.0000 -15.4554 0.0000
# 3 46.8253 35.7160 150.7055 0.0000 -34.8804 0.0000
# 4 0.0000 0.0000 0.0000 28.0405 0.0000 -8.8364
# 5 -26.3747 -15.4554 -34.8804 0.0000 30.3658 0.0000
# 6 0.0000 0.0000 0.0000 -8.8364 0.0000 25.8792
#
#
#
# Elastic Compliance Matrix: (Units=1/GPa)
#
#
# Indices 1 2 3 4 5 6 
#
# 1 0.045319 0.000843 -0.006907 0.000000 0.031857 0.000000
# 2 0.000843 0.037978 -0.006292 0.000000 0.012835 0.000000
# 3 -0.006907 -0.006292 0.011092 0.000000 0.003539 0.000000
# 4 0.000000 0.000000 0.000000 0.039963 0.000000 0.013645
# 5 0.031857 0.012835 0.003539 0.000000 0.071200 0.000000
# 6 0.000000 0.000000 0.000000 0.013645 0.000000 0.043300
#
#
# Mechanical properties :
#
#
# Convention : Reuss Voigt Hill
#
# Bulk Modulus (GPa) = 14.35213 47.95564 31.15388
# Shear Modulus (GPa) = 16.84702 25.99871 21.42286
#
# Velocity S-wave (km/s) = 2.97507 3.69583 3.35486
# Velocity P-wave (km/s) = 4.39792 6.58840 5.60128
#
# Compressibility (1/GPa) = 0.06967609
#
# Stress axis : x y z
#
# Youngs Moduli (GPa) = 22.06599 26.33100 90.15633
#
# Poissons Ratio (x) = -0.02220 0.62275
# Poissons Ratio (y) = -0.01860 0.56725
# Poissons Ratio (z) = 0.15242 0.16567
#
# Static dielectric constant tensor:
#      x y z
#    x 2.150920 0.000000 -0.253490 
#    y 0.000000 3.487890 0.000000 
#    z -0.253490 0.000000 3.886530 
# 
# 
# High freq. dielectric constant tensor:
#      x y z
#    x 1.698460 0.000000 -0.035530 
#    y 0.000000 1.747890 0.000000 
#    z -0.035530 0.000000 1.748010 
# 
# From -- ./inp_files/53185.got.cif
#   From: 2010.06.25/outbox.cif.g09.slc.cpg/sg11_27_cif.got.tgz:53185.got - 2010.06.27 23:14:04.
