data_PCOD8069967
_publ_section_title
;
Structure prediction by ZEFSAII (Michael W. Deem and Ramdas Pophale) SiO2 
 PCOD8069967
Probable space group: P 21/M
;
_chemical_formula_sum "Si O2"
_cell_formula_units_Z 28
_cell_length_a 14.614213
_cell_length_b 8.980114
_cell_length_c 13.629546
_cell_angle_alpha 90.000000
_cell_angle_beta 77.083380
_cell_angle_gamma 90.000000
_cell_volume 1743.444119
_symmetry_space_group_name_H-M "P 21/M"
_symmetry_group_IT_number 11
_symmetry_cell_setting 'monoclinic'
loop_
_space_group_symop_operation_xyz
x,y,z
-x,1/2+y,-z
-x,-y,-z
x,1/2-y,z
loop_
_atom_site_type_symbol
_atom_site_label
_atom_site_fract_x
_atom_site_fract_y
_atom_site_fract_z
Si Si1 0.608331 0.917899 0.566615
Si Si2 0.289385 0.083888 0.253867
Si Si3 0.471240 0.428065 0.107998
Si Si4 0.274364 0.576471 0.621659
Si Si5 0.432810 0.575651 0.721931
Si Si6 0.904282 0.927038 0.633933
Si Si7 0.906112 0.925083 0.407213
O O1 0.601951 0.750000 0.523752
O O2 0.675279 0.913078 0.644015
O O3 0.507372 0.986062 0.623510
O O4 0.652531 0.031148 0.479332
O O5 0.275581 0.250000 0.217687
O O6 0.367369 0.009480 0.163747
O O7 0.185140 0.010141 0.282050
O O8 0.471156 0.250000 0.098930
O O9 0.545638 0.483645 0.173413
O O10 0.500000 0.500000 0.000000
O O11 0.250962 0.750000 0.616879
O O12 0.326283 0.541123 0.713483
O O13 0.178338 0.484981 0.639745
O O14 0.454479 0.750000 0.718646
O O15 0.913992 0.750000 0.640376
O O16 0.889564 0.972701 0.523741
O O17 0.997087 0.003764 0.654970
O O18 0.911684 0.750000 0.392617
#
# Coordination Sequence:
#
# PCOD8069967 Si02
#       7
#     4   4   4   4   4   4   4
#     4   9  15  28  44  60  85 120 153 181 214 256
#     4   8  14  27  47  65  86 119 150 175 217 272
#     4   9  17  32  51  69  90 115 145 183 224 268
#     4  11  19  27  40  63  90 121 155 183 212 255
#     4   8  17  30  45  62  87 121 151 177 218 272
#     4   9  16  29  45  62  84 117 157 186 214 259
#     4  10  19  29  42  61  88 122 154 186 222 254
#
# _framework density 16.060165000000001
#
# number of rings (size 3 to 8) (size 9 to 14) (size 15 to 20)
#    0.000    2.857    1.429    3.000    0.000    0.571 
#    0.000    5.714    0.000    0.000    0.000    1.000 
#    0.000    0.000    0.000    0.000    0.000    0.000 
#
# Total GULP energy -346914.310192 kJ/mol
# GULP energy per Si atom -12389.796793 kJ/mol
# Density = 1.602361 g / cm^3
# Si number density = 16.060165 Si / 1000 Ang^3
#
#
#
# Elastic Constant Matrix: (Units=GPa)
#
#
# Indices 1 2 3 4 5 6 
#
# 1 144.3303 34.9891 54.7476 0.0000 -4.3413 0.0000
# 2 34.9891 33.9585 20.3737 0.0000 -2.4089 0.0000
# 3 54.7476 20.3737 74.8072 0.0000 -8.6734 0.0000
# 4 0.0000 0.0000 0.0000 18.4503 0.0000 -2.3482
# 5 -4.3413 -2.4089 -8.6734 0.0000 14.1603 0.0000
# 6 0.0000 0.0000 0.0000 -2.3482 0.0000 23.3245
#
#
#
# Elastic Compliance Matrix: (Units=1/GPa)
#
#
# Indices 1 2 3 4 5 6 
#
# 1 0.011141 -0.007877 -0.006209 0.000000 -0.001727 0.000000
# 2 -0.007877 0.040768 -0.005182 0.000000 0.001346 0.000000
# 3 -0.006209 -0.005182 0.020453 0.000000 0.009742 0.000000
# 4 0.000000 0.000000 0.000000 0.054903 0.000000 0.005527
# 5 -0.001727 0.001346 0.009742 0.000000 0.076287 0.000000
# 6 0.000000 0.000000 0.000000 0.005527 0.000000 0.043430
#
#
# Mechanical properties :
#
#
# Convention : Reuss Voigt Hill
#
# Bulk Modulus (GPa) = 29.56303 52.59076 41.07690
# Shear Modulus (GPa) = 16.84673 20.71940 18.78306
#
# Velocity S-wave (km/s) = 3.24230 3.59571 3.42357
# Velocity P-wave (km/s) = 5.69775 7.07503 6.42341
#
# Compressibility (1/GPa) = 0.03382603
#
# Stress axis : x y z
#
# Youngs Moduli (GPa) = 89.75656 24.52877 48.89371
#
# Poissons Ratio (x) = 0.19321 0.30357
# Poissons Ratio (y) = 0.70701 0.25339
# Poissons Ratio (z) = 0.55727 0.12712
#
# Static dielectric constant tensor:
#      x y z
#    x 3.323790 0.000000 -0.053640 
#    y 0.000000 2.837500 0.000000 
#    z -0.053640 0.000000 2.801480 
# 
# 
# High freq. dielectric constant tensor:
#      x y z
#    x 1.628830 0.000000 -0.004310 
#    y 0.000000 1.595630 0.000000 
#    z -0.004310 0.000000 1.569480 
# 
# From -- ./inp_files/50981.got.cif
#   From: 2010.06.25/outbox.cif.g09.slc.cpg/sg11_26_cif.got.tgz:50981.got - 2010.06.27 23:14:04.
