data_PCOD8069085
_publ_section_title
;
Structure prediction by ZEFSAII (Michael W. Deem and Ramdas Pophale) SiO2 
 PCOD8069085
Probable space group: P 21/M
;
_chemical_formula_sum "Si O2"
_cell_formula_units_Z 32
_cell_length_a 20.148672
_cell_length_b 8.909584
_cell_length_c 28.116037
_cell_angle_alpha 90.000000
_cell_angle_beta 159.080092
_cell_angle_gamma 90.000000
_cell_volume 1802.197133
_symmetry_space_group_name_H-M "P 21/M"
_symmetry_group_IT_number 11
_symmetry_cell_setting 'monoclinic'
loop_
_space_group_symop_operation_xyz
x,y,z
-x,1/2+y,-z
-x,-y,-z
x,1/2-y,z
loop_
_atom_site_type_symbol
_atom_site_label
_atom_site_fract_x
_atom_site_fract_y
_atom_site_fract_z
Si Si1 0.164379 0.927857 0.889759
Si Si2 0.270590 0.926917 0.065104
Si Si3 0.408654 0.075989 0.655147
Si Si4 0.940562 0.571164 0.910726
Si Si5 0.315786 0.070486 0.897556
Si Si6 0.936377 0.415092 0.604551
Si Si7 0.447255 0.926075 0.353460
Si Si8 0.201223 0.581337 0.380327
O O1 0.157352 0.750000 0.876458
O O2 0.265822 0.971770 0.006753
O O3 0.283480 0.006002 0.928426
O O4 0.954611 0.989738 0.752723
O O5 0.277242 0.750000 0.076187
O O6 0.087262 0.984510 0.969431
O O7 0.457008 0.994630 0.214411
O O8 0.383050 0.250000 0.645929
O O9 0.502135 0.039956 0.667249
O O10 0.199944 0.011250 0.519905
O O11 0.933459 0.750000 0.911213
O O12 0.742793 0.509432 0.761264
O O13 0.000000 0.500000 0.000000
O O14 0.328152 0.250000 0.909063
O O15 0.146563 0.020802 0.749177
O O16 0.500000 0.000000 0.000000
O O17 0.941696 0.250000 0.585597
O O18 0.857058 0.410567 0.604233
O O19 0.427479 0.750000 0.349833
O O20 0.604088 0.993360 0.493470
O O21 0.220678 0.750000 0.372552
#
# Coordination Sequence:
#
# PCOD8069085 Si02
#       8
#     4   4   4   4   4   4   4   4
#     4  10  19  34  55  76 102 137 172 205 252 308
#     4   9  19  34  50  71 102 138 173 212 257 306
#     4   9  16  29  48  70  98 132 169 209 249 296
#     4  11  20  33  49  70 101 135 174 221 267 307
#     4  10  20  35  56  82 110 133 163 205 251 300
#     4   8  16  29  46  73 103 127 156 202 249 291
#     4  10  18  30  49  73  98 128 173 221 266 311
#     4   9  17  31  49  71 100 131 167 214 262 303
#
# _framework density 17.756103
#
# number of rings (size 3 to 8) (size 9 to 14) (size 15 to 20)
#    0.000    2.500    1.250    2.625    0.000    4.000 
#    0.000    4.375    0.000    0.750    0.000    0.000 
#    0.000    0.000    0.000    0.000    0.000    0.000 
#
# Total GULP energy -396681.566039 kJ/mol
# GULP energy per Si atom -12396.298939 kJ/mol
# Density = 1.771569 g / cm^3
# Si number density = 17.756103 Si / 1000 Ang^3
#
#
#
# Elastic Constant Matrix: (Units=GPa)
#
#
# Indices 1 2 3 4 5 6 
#
# 1 69.4604 39.1715 65.8475 0.0000 6.8563 0.0000
# 2 39.1715 81.8002 63.4063 0.0000 1.3253 0.0000
# 3 65.8475 63.4063 170.6355 0.0000 14.3514 0.0000
# 4 0.0000 0.0000 0.0000 34.3872 0.0000 5.1766
# 5 6.8563 1.3253 14.3514 0.0000 25.5818 0.0000
# 6 0.0000 0.0000 0.0000 5.1766 0.0000 18.0352
#
#
#
# Elastic Compliance Matrix: (Units=1/GPa)
#
#
# Indices 1 2 3 4 5 6 
#
# 1 0.024930 -0.006460 -0.007017 0.000000 -0.002410 0.000000
# 2 -0.006460 0.019041 -0.004875 0.000000 0.003480 0.000000
# 3 -0.007017 -0.004875 0.010706 0.000000 -0.003873 0.000000
# 4 0.000000 0.000000 0.000000 0.030394 0.000000 -0.008724
# 5 -0.002410 0.003480 -0.003873 0.000000 0.041728 0.000000
# 6 0.000000 0.000000 0.000000 -0.008724 0.000000 0.057951
#
#
# Mechanical properties :
#
#
# Convention : Reuss Voigt Hill
#
# Bulk Modulus (GPa) = 55.64255 73.19409 64.41832
# Shear Modulus (GPa) = 21.98337 25.83223 23.90780
#
# Velocity S-wave (km/s) = 3.52244 3.81837 3.67339
# Velocity P-wave (km/s) = 6.92450 7.79432 7.37225
#
# Compressibility (1/GPa) = 0.01797186
#
# Stress axis : x y z
#
# Youngs Moduli (GPa) = 40.11280 52.51856 93.40852
#
# Poissons Ratio (x) = 0.33925 0.65547
# Poissons Ratio (y) = 0.25912 0.45539
# Poissons Ratio (z) = 0.28148 0.25604
#
# Static dielectric constant tensor:
#      x y z
#    x 2.934590 0.000000 0.081630 
#    y 0.000000 3.352120 0.000000 
#    z 0.081630 0.000000 3.773090 
# 
# 
# High freq. dielectric constant tensor:
#      x y z
#    x 1.639770 0.000000 0.006150 
#    y 0.000000 1.686990 0.000000 
#    z 0.006150 0.000000 1.703860 
# 
# From -- ./inp_files/64426.got.cif
#   From: 2010.06.25/outbox.cif.g09.slc.cpg/sg11_33_cif.got.tgz:64426.got - 2010.06.27 23:14:04.
