data_PCOD8069200
_publ_section_title
;
Structure prediction by ZEFSAII (Michael W. Deem and Ramdas Pophale) SiO2 
 PCOD8069200
Probable space group: P 21/M
;
_chemical_formula_sum "Si O2"
_cell_formula_units_Z 32
_cell_length_a 11.761187
_cell_length_b 17.070032
_cell_length_c 10.625639
_cell_angle_alpha 90.000000
_cell_angle_beta 53.774292
_cell_angle_gamma 90.000000
_cell_volume 1720.877822
_symmetry_space_group_name_H-M "P 21/M"
_symmetry_group_IT_number 11
_symmetry_cell_setting 'monoclinic'
loop_
_space_group_symop_operation_xyz
x,y,z
-x,1/2+y,-z
-x,-y,-z
x,1/2-y,z
loop_
_atom_site_type_symbol
_atom_site_label
_atom_site_fract_x
_atom_site_fract_y
_atom_site_fract_z
Si Si1 0.317602 0.985866 0.747140
Si Si2 0.911892 0.837600 0.699279
Si Si3 0.906671 0.563706 0.932014
Si Si4 0.849134 0.160373 0.093718
Si Si5 0.124704 0.936671 0.428548
Si Si6 0.635618 0.987246 0.568213
Si Si7 0.953387 0.400192 0.782339
Si Si8 0.229689 0.337299 0.471644
O O1 0.288276 0.894613 0.799466
O O2 0.473650 0.012345 0.687771
O O3 0.300675 0.993491 0.609232
O O4 0.212983 0.045312 0.887248
O O5 0.931051 0.750000 0.738234
O O6 0.842805 0.891284 0.853194
O O7 0.806418 0.839867 0.651498
O O8 0.067443 0.867814 0.556505
O O9 0.976594 0.482486 0.840345
O O10 0.024461 0.620495 0.911680
O O11 0.821464 0.250000 0.156687
O O12 0.887608 0.162662 0.920737
O O13 0.152964 0.907531 0.267347
O O14 0.269511 0.970022 0.388823
O O15 0.000000 0.000000 0.500000
O O16 0.638581 0.893611 0.588831
O O17 0.102178 0.369746 0.637753
O O18 0.269340 0.250000 0.489170
#
# Coordination Sequence:
#
# PCOD8069200 Si02
#       8
#     4   4   4   4   4   4   4   4
#     4  10  24  36  57  77 110 145 182 221 264 333
#     4  10  19  31  53  85 112 136 177 230 273 309
#     4  11  19  34  54  77 107 144 183 221 263 322
#     4  11  22  35  55  81 110 142 176 226 276 319
#     4  11  18  33  61  84 106 142 184 228 262 313
#     4  11  20  39  55  80 107 144 184 222 269 319
#     4  10  18  32  52  83 108 134 182 230 262 313
#     4  10  18  30  53  81 109 138 173 225 275 314
#
# _framework density 18.59516
#
# number of rings (size 3 to 8) (size 9 to 14) (size 15 to 20)
#    0.000    1.500    3.750    4.500    0.000    1.000 
#    0.000    6.250    0.000    3.750    0.000    0.000 
#    0.000    0.000    0.000    0.000    0.000    0.000 
#
# Total GULP energy -396698.097051 kJ/mol
# GULP energy per Si atom -12396.815533 kJ/mol
# Density = 1.855284 g / cm^3
# Si number density = 18.595160 Si / 1000 Ang^3
#
#
#
# Elastic Constant Matrix: (Units=GPa)
#
#
# Indices 1 2 3 4 5 6 
#
# 1 67.5012 7.9531 22.1234 0.0000 2.1703 0.0000
# 2 7.9531 94.7255 20.3450 0.0000 4.9640 0.0000
# 3 22.1234 20.3450 78.4438 0.0000 12.5813 0.0000
# 4 0.0000 0.0000 0.0000 20.8670 0.0000 6.6433
# 5 2.1703 4.9640 12.5813 0.0000 22.1312 0.0000
# 6 0.0000 0.0000 0.0000 6.6433 0.0000 22.2815
#
#
#
# Elastic Compliance Matrix: (Units=1/GPa)
#
#
# Indices 1 2 3 4 5 6 
#
# 1 0.016365 -0.000427 -0.004690 0.000000 0.001157 0.000000
# 2 -0.000427 0.011209 -0.002630 0.000000 -0.000977 0.000000
# 3 -0.004690 -0.002630 0.016048 0.000000 -0.008073 0.000000
# 4 0.000000 0.000000 0.000000 0.052948 0.000000 -0.015787
# 5 0.001157 -0.000977 -0.008073 0.000000 0.049880 0.000000
# 6 0.000000 0.000000 0.000000 -0.015787 0.000000 0.049587
#
#
# Mechanical properties :
#
#
# Convention : Reuss Voigt Hill
#
# Bulk Modulus (GPa) = 35.55348 37.94596 36.74972
# Shear Modulus (GPa) = 22.63394 25.73921 24.18658
#
# Velocity S-wave (km/s) = 3.49262 3.72450 3.61042
# Velocity P-wave (km/s) = 5.95195 6.24072 6.09805
#
# Compressibility (1/GPa) = 0.02812664
#
# Stress axis : x y z
#
# Youngs Moduli (GPa) = 61.10651 89.21615 62.31462
#
# Poissons Ratio (x) = 0.03812 0.29227
# Poissons Ratio (y) = 0.02611 0.16388
# Poissons Ratio (z) = 0.28660 0.23462
#
# Static dielectric constant tensor:
#      x y z
#    x 3.375610 0.000000 0.357020 
#    y 0.000000 3.720860 0.000000 
#    z 0.357020 0.000000 3.448510 
# 
# 
# High freq. dielectric constant tensor:
#      x y z
#    x 1.709480 0.000000 0.030860 
#    y 0.000000 1.723710 0.000000 
#    z 0.030860 0.000000 1.711410 
# 
# From -- ./inp_files/36038.got.cif
#   From: 2010.06.25/outbox.cif.g09.slc.cpg/sg11_19_cif.got.tgz:36038.got - 2010.06.27 23:14:04.
