data_PCOD8069559
_publ_section_title
;
Structure prediction by ZEFSAII (Michael W. Deem and Ramdas Pophale) SiO2 
 PCOD8069559
Probable space group: P 21/M
;
_chemical_formula_sum "Si O2"
_cell_formula_units_Z 32
_cell_length_a 27.507694
_cell_length_b 8.506256
_cell_length_c 20.984115
_cell_angle_alpha 90.000000
_cell_angle_beta 19.794945
_cell_angle_gamma 90.000000
_cell_volume 1662.802488
_symmetry_space_group_name_H-M "P 21/M"
_symmetry_group_IT_number 11
_symmetry_cell_setting 'monoclinic'
loop_
_space_group_symop_operation_xyz
x,y,z
-x,1/2+y,-z
-x,-y,-z
x,1/2-y,z
loop_
_atom_site_type_symbol
_atom_site_label
_atom_site_fract_x
_atom_site_fract_y
_atom_site_fract_z
Si Si1 0.570442 0.065273 0.350823
Si Si2 0.796906 0.435951 0.631971
Si Si3 0.649805 0.563148 0.687931
Si Si4 0.836081 0.562928 0.339833
Si Si5 0.066919 0.936491 0.352736
Si Si6 0.153003 0.936437 0.930067
Si Si7 0.663911 0.936305 0.925392
Si Si8 0.295796 0.436504 0.627274
O O1 0.567647 0.250000 0.357893
O O2 0.737272 0.010094 0.147814
O O3 0.465540 0.011033 0.422595
O O4 0.500000 0.000000 0.500000
O O5 0.805184 0.250000 0.622563
O O6 0.707252 0.493412 0.682558
O O7 0.713195 0.493708 0.797361
O O8 0.960408 0.504732 0.427877
O O9 0.644944 0.750000 0.698885
O O10 0.753830 0.502191 0.503588
O O11 0.493060 0.498802 0.864684
O O12 0.833899 0.750000 0.341277
O O13 0.760310 0.494217 0.370045
O O14 0.998210 0.496517 0.140785
O O15 0.074812 0.750000 0.342195
O O16 0.228411 0.006759 0.150527
O O17 0.000000 0.000000 0.500000
O O18 0.146912 0.750000 0.931506
O O19 0.200481 0.999770 0.802809
O O20 0.664994 0.750000 0.919533
O O21 0.281131 0.250000 0.646713
#
# Coordination Sequence:
#
# PCOD8069559 Si02
#       8
#     4   4   4   4   4   4   4   4
#     4   8  14  24  43  68  95 119 151 195 243 292
#     4  11  21  36  57  82 108 137 173 217 264 315
#     4  11  22  37  52  72 104 143 182 223 266 316
#     4   9  19  33  49  68  97 131 168 209 252 300
#     4  10  18  32  55  84 111 137 169 211 259 310
#     4   9  16  29  48  72  96 125 161 203 249 299
#     4  11  21  36  57  82 108 137 173 217 264 315
#     4   9  16  29  48  72  96 125 161 203 249 299
#
# _framework density 19.244617999999999
#
# number of rings (size 3 to 8) (size 9 to 14) (size 15 to 20)
#    0.000    2.250    0.000    6.000    0.000    0.000 
#    0.000    3.750    0.000    4.500    0.000    3.500 
#    0.000    0.000    0.000    0.000    0.000    0.000 
#
# Total GULP energy -396485.231682 kJ/mol
# GULP energy per Si atom -12390.163490 kJ/mol
# Density = 1.920082 g / cm^3
# Si number density = 19.244618 Si / 1000 Ang^3
#
#
#
# Elastic Constant Matrix: (Units=GPa)
#
#
# Indices 1 2 3 4 5 6 
#
# 1 54.7740 17.8230 73.7954 0.0000 -23.4302 0.0000
# 2 17.8230 83.4203 31.4664 0.0000 -7.1470 0.0000
# 3 73.7954 31.4664 138.6684 0.0000 -30.8877 0.0000
# 4 0.0000 0.0000 0.0000 22.6605 0.0000 -5.6835
# 5 -23.4302 -7.1470 -30.8877 0.0000 38.4219 0.0000
# 6 0.0000 0.0000 0.0000 -5.6835 0.0000 21.5903
#
#
#
# Elastic Compliance Matrix: (Units=1/GPa)
#
#
# Indices 1 2 3 4 5 6 
#
# 1 0.071748 -0.000985 -0.034417 0.000000 0.015902 0.000000
# 2 -0.000985 0.013123 -0.002490 0.000000 -0.000161 0.000000
# 3 -0.034417 -0.002490 0.025963 0.000000 -0.000579 0.000000
# 4 0.000000 0.000000 0.000000 0.047249 0.000000 0.012438
# 5 0.015902 -0.000161 -0.000579 0.000000 0.035229 0.000000
# 6 0.000000 0.000000 0.000000 0.012438 0.000000 0.049591
#
#
# Mechanical properties :
#
#
# Convention : Reuss Voigt Hill
#
# Bulk Modulus (GPa) = 28.52899 58.11469 43.32184
# Shear Modulus (GPa) = 15.13454 26.78642 20.96048
#
# Velocity S-wave (km/s) = 2.80738 3.73485 3.30382
# Velocity P-wave (km/s) = 5.03638 6.99016 6.09210
#
# Compressibility (1/GPa) = 0.03505206
#
# Stress axis : x y z
#
# Youngs Moduli (GPa) = 13.93763 76.20085 38.51625
#
# Poissons Ratio (x) = 0.07503 1.32561
# Poissons Ratio (y) = 0.01372 0.09589
# Poissons Ratio (z) = 0.47969 0.18972
#
# Static dielectric constant tensor:
#      x y z
#    x 3.901140 0.000000 -0.698410 
#    y 0.000000 3.446190 0.000000 
#    z -0.698410 0.000000 4.017470 
# 
# 
# High freq. dielectric constant tensor:
#      x y z
#    x 1.739670 0.000000 -0.041470 
#    y 0.000000 1.742360 0.000000 
#    z -0.041470 0.000000 1.747200 
# 
# From -- ./inp_files/67103.got.cif
#   From: 2010.06.25/outbox.cif.g09.slc.cpg/sg11_34_cif.got.tgz:67103.got - 2010.06.27 23:14:04.
