data_PCOD8069701
_publ_section_title
;
Structure prediction by ZEFSAII (Michael W. Deem and Ramdas Pophale) SiO2 
 PCOD8069701
Probable space group: P 21/M
;
_chemical_formula_sum "Si O2"
_cell_formula_units_Z 32
_cell_length_a 20.245982
_cell_length_b 9.086716
_cell_length_c 25.252413
_cell_angle_alpha 90.000000
_cell_angle_beta 22.927490
_cell_angle_gamma 90.000000
_cell_volume 1809.795896
_symmetry_space_group_name_H-M "P 21/M"
_symmetry_group_IT_number 11
_symmetry_cell_setting 'monoclinic'
loop_
_space_group_symop_operation_xyz
x,y,z
-x,1/2+y,-z
-x,-y,-z
x,1/2-y,z
loop_
_atom_site_type_symbol
_atom_site_label
_atom_site_fract_x
_atom_site_fract_y
_atom_site_fract_z
Si Si1 0.137286 0.421858 0.362341
Si Si2 0.643407 0.920838 0.706680
Si Si3 0.647301 0.422110 0.359674
Si Si4 0.035798 0.078683 0.594536
Si Si5 0.858484 0.922262 0.367050
Si Si6 0.320629 0.925267 0.885626
Si Si7 0.477256 0.922922 0.660526
Si Si8 0.016979 0.924133 0.827769
O O1 0.097505 0.250000 0.387480
O O2 0.317557 0.448501 0.259521
O O3 0.000000 0.500000 0.500000
O O4 0.126408 0.494480 0.311910
O O5 0.639728 0.750000 0.695411
O O6 0.792043 0.986085 0.559286
O O7 0.458682 0.981669 0.827117
O O8 0.500000 0.500000 0.500000
O O9 0.617551 0.250000 0.388645
O O10 0.636541 0.467844 0.305931
O O11 0.827917 0.471467 0.248963
O O12 0.014911 0.250000 0.596878
O O13 0.038928 0.049299 0.654623
O O14 0.856896 0.750000 0.353386
O O15 0.667725 0.986094 0.513406
O O16 0.957101 0.011339 0.249618
O O17 0.290768 0.750000 0.909344
O O18 0.385896 0.982601 0.780404
O O19 0.147676 0.007223 0.024574
O O20 0.497135 0.750000 0.652164
O O21 0.997829 0.750000 0.837942
#
# Coordination Sequence:
#
# PCOD8069701 Si02
#       8
#     4   4   4   4   4   4   4   4
#     4   9  16  26  43  71 107 139 168 210 261 309
#     4   8  14  27  48  73 100 131 169 212 252 296
#     4  10  20  35  55  78 106 136 172 216 262 311
#     4   9  16  28  49  78 105 128 168 222 263 304
#     4  10  18  33  58  80 100 135 182 221 254 310
#     4  10  19  35  57  77 100 138 182 218 252 305
#     4   9  17  32  58  82  98 129 180 223 253 297
#     4  11  24  37  49  76 114 141 166 215 270 316
#
# _framework density 17.681550999999999
#
# number of rings (size 3 to 8) (size 9 to 14) (size 15 to 20)
#    0.000    2.500    2.500    1.500    0.000    1.500 
#    0.000    4.375    0.000    0.750    0.000    0.000 
#    0.000    0.000    0.000    0.000    0.000    0.000 
#
# Total GULP energy -396621.754427 kJ/mol
# GULP energy per Si atom -12394.429826 kJ/mol
# Density = 1.764131 g / cm^3
# Si number density = 17.681551 Si / 1000 Ang^3
#
#
#
# Elastic Constant Matrix: (Units=GPa)
#
#
# Indices 1 2 3 4 5 6 
#
# 1 149.0976 47.5507 60.6634 0.0000 -14.3674 0.0000
# 2 47.5507 50.4140 32.4114 0.0000 -4.3702 0.0000
# 3 60.6634 32.4114 102.0004 0.0000 -0.7213 0.0000
# 4 0.0000 0.0000 0.0000 21.4241 0.0000 -1.7112
# 5 -14.3674 -4.3702 -0.7213 0.0000 26.3731 0.0000
# 6 0.0000 0.0000 0.0000 -1.7112 0.0000 25.8042
#
#
#
# Elastic Compliance Matrix: (Units=1/GPa)
#
#
# Indices 1 2 3 4 5 6 
#
# 1 0.011311 -0.007476 -0.004317 0.000000 0.004805 0.000000
# 2 -0.007476 0.030281 -0.005170 0.000000 0.000803 0.000000
# 3 -0.004317 -0.005170 0.013994 0.000000 -0.002826 0.000000
# 4 0.000000 0.000000 0.000000 0.046925 0.000000 0.003112
# 5 0.004805 0.000803 -0.002826 0.000000 0.040591 0.000000
# 6 0.000000 0.000000 0.000000 0.003112 0.000000 0.038960
#
#
# Mechanical properties :
#
#
# Convention : Reuss Voigt Hill
#
# Bulk Modulus (GPa) = 46.17016 64.75144 55.46080
# Shear Modulus (GPa) = 22.40052 25.44604 23.92328
#
# Velocity S-wave (km/s) = 3.56320 3.79770 3.68232
# Velocity P-wave (km/s) = 6.56485 7.47867 7.03661
#
# Compressibility (1/GPa) = 0.02165901
#
# Stress axis : x y z
#
# Youngs Moduli (GPa) = 88.40891 33.02412 71.45718
#
# Poissons Ratio (x) = 0.24690 0.30851
# Poissons Ratio (y) = 0.66098 0.36942
# Poissons Ratio (z) = 0.38170 0.17073
#
# Static dielectric constant tensor:
#      x y z
#    x 4.109120 0.000000 0.049230 
#    y 0.000000 3.110010 0.000000 
#    z 0.049230 0.000000 3.393340 
# 
# 
# High freq. dielectric constant tensor:
#      x y z
#    x 1.705230 0.000000 -0.012960 
#    y 0.000000 1.658420 0.000000 
#    z -0.012960 0.000000 1.652030 
# 
# From -- ./inp_files/72044.got.cif
#   From: 2010.06.25/outbox.cif.g09.slc.cpg/sg11_37_cif.got.tgz:72044.got - 2010.06.27 23:14:04.
