data_PCOD8069156
_publ_section_title
;
Structure prediction by ZEFSAII (Michael W. Deem and Ramdas Pophale) SiO2 
 PCOD8069156
Probable space group: P 21/M
;
_chemical_formula_sum "Si O2"
_cell_formula_units_Z 32
_cell_length_a 11.723560
_cell_length_b 8.877993
_cell_length_c 17.164614
_cell_angle_alpha 90.000000
_cell_angle_beta 85.580395
_cell_angle_gamma 90.000000
_cell_volume 1781.209599
_symmetry_space_group_name_H-M "P 21/M"
_symmetry_group_IT_number 11
_symmetry_cell_setting 'monoclinic'
loop_
_space_group_symop_operation_xyz
x,y,z
-x,1/2+y,-z
-x,-y,-z
x,1/2-y,z
loop_
_atom_site_type_symbol
_atom_site_label
_atom_site_fract_x
_atom_site_fract_y
_atom_site_fract_z
Si Si1 0.111761 0.574972 0.958715
Si Si2 0.449287 0.922318 0.185962
Si Si3 0.757521 0.077006 0.897527
Si Si4 0.521532 0.578781 0.579487
Si Si5 0.914512 0.922380 0.764681
Si Si6 0.632815 0.073212 0.267194
Si Si7 0.858947 0.927677 0.208411
Si Si8 0.702362 0.921306 0.685744
O O1 0.086731 0.750000 0.945139
O O2 0.146164 0.498096 0.876780
O O3 0.217015 0.550930 0.012801
O O4 0.000000 0.500000 0.000000
O O5 0.490154 0.750000 0.187438
O O6 0.378038 0.957401 0.110093
O O7 0.560867 0.026020 0.193374
O O8 0.356829 0.954062 0.257955
O O9 0.784898 0.250000 0.872207
O O10 0.838978 0.968753 0.843101
O O11 0.500000 0.500000 0.500000
O O12 0.493135 0.750000 0.564575
O O13 0.437556 0.521341 0.652633
O O14 0.654212 0.555000 0.600359
O O15 0.952626 0.750000 0.774419
O O16 0.839354 0.940834 0.688839
O O17 0.026552 0.024616 0.751835
O O18 0.655610 0.250000 0.262775
O O19 0.752337 0.986494 0.263987
O O20 0.854752 0.750000 0.201215
O O21 0.667036 0.750000 0.714028
#
# Coordination Sequence:
#
# PCOD8069156 Si02
#       8
#     4   4   4   4   4   4   4   4
#     4  11  21  34  51  74 104 139 177 221 265 310
#     4   9  16  29  50  75 100 130 167 214 262 304
#     4   9  18  31  49  73 102 131 170 220 264 306
#     4   9  18  33  56  84 111 134 163 204 251 304
#     4  10  18  30  51  74 100 136 176 216 260 305
#     4  10  21  38  55  75 104 138 174 211 253 311
#     4  12  24  36  51  74 104 138 177 221 265 313
#     4   8  16  30  48  75 106 136 170 208 249 300
#
# _framework density 17.965319000000001
#
# number of rings (size 3 to 8) (size 9 to 14) (size 15 to 20)
#    0.000    2.250    1.250    3.375    0.000    4.000 
#    0.000    0.625    0.000    0.750    0.000    0.000 
#    0.000    0.000    0.000    0.000    0.000    0.000 
#
# Total GULP energy -396582.723147 kJ/mol
# GULP energy per Si atom -12393.210098 kJ/mol
# Density = 1.792443 g / cm^3
# Si number density = 17.965319 Si / 1000 Ang^3
#
#
#
# Elastic Constant Matrix: (Units=GPa)
#
#
# Indices 1 2 3 4 5 6 
#
# 1 114.2138 45.2782 55.2262 0.0000 20.1112 0.0000
# 2 45.2782 97.0327 40.5026 0.0000 7.3203 0.0000
# 3 55.2262 40.5026 90.1897 0.0000 23.1563 0.0000
# 4 0.0000 0.0000 0.0000 25.9168 0.0000 2.0658
# 5 20.1112 7.3203 23.1563 0.0000 26.8424 0.0000
# 6 0.0000 0.0000 0.0000 2.0658 0.0000 31.1507
#
#
#
# Elastic Compliance Matrix: (Units=1/GPa)
#
#
# Indices 1 2 3 4 5 6 
#
# 1 0.013718 -0.003736 -0.005581 0.000000 -0.004444 0.000000
# 2 -0.003736 0.013774 -0.004691 0.000000 0.003090 0.000000
# 3 -0.005581 -0.004691 0.019537 0.000000 -0.011393 0.000000
# 4 0.000000 0.000000 0.000000 0.038790 0.000000 -0.002572
# 5 -0.004444 0.003090 -0.011393 0.000000 0.049571 0.000000
# 6 0.000000 0.000000 0.000000 -0.002572 0.000000 0.032273
#
#
# Mechanical properties :
#
#
# Convention : Reuss Voigt Hill
#
# Bulk Modulus (GPa) = 52.59729 64.82779 58.71254
# Shear Modulus (GPa) = 24.75039 27.47726 26.11383
#
# Velocity S-wave (km/s) = 3.71573 3.91508 3.81671
# Velocity P-wave (km/s) = 6.91011 7.52332 7.22323
#
# Compressibility (1/GPa) = 0.01901238
#
# Stress axis : x y z
#
# Youngs Moduli (GPa) = 72.89777 72.59867 51.18450
#
# Poissons Ratio (x) = 0.27125 0.28565
# Poissons Ratio (y) = 0.27237 0.24012
# Poissons Ratio (z) = 0.40683 0.34058
#
# Static dielectric constant tensor:
#      x y z
#    x 3.500990 0.000000 0.466390 
#    y 0.000000 3.439020 0.000000 
#    z 0.466390 0.000000 3.144370 
# 
# 
# High freq. dielectric constant tensor:
#      x y z
#    x 1.696140 0.000000 0.037910 
#    y 0.000000 1.706950 0.000000 
#    z 0.037910 0.000000 1.655170 
# 
# From -- ./inp_files/58694.got.cif
#   From: 2010.06.25/outbox.cif.g09.slc.cpg/sg11_30_cif.got.tgz:58694.got - 2010.06.27 23:14:04.
