data_PCOD8069022
_publ_section_title
;
Structure prediction by ZEFSAII (Michael W. Deem and Ramdas Pophale) SiO2 
 PCOD8069022
Probable space group: P 21/M
;
_chemical_formula_sum "Si O2"
_cell_formula_units_Z 32
_cell_length_a 14.416454
_cell_length_b 8.837044
_cell_length_c 26.244550
_cell_angle_alpha 90.000000
_cell_angle_beta 144.787365
_cell_angle_gamma 90.000000
_cell_volume 1927.918417
_symmetry_space_group_name_H-M "P 21/M"
_symmetry_group_IT_number 11
_symmetry_cell_setting 'monoclinic'
loop_
_space_group_symop_operation_xyz
x,y,z
-x,1/2+y,-z
-x,-y,-z
x,1/2-y,z
loop_
_atom_site_type_symbol
_atom_site_label
_atom_site_fract_x
_atom_site_fract_y
_atom_site_fract_z
Si Si1 0.321093 0.928260 0.543410
Si Si2 0.715337 0.921789 0.267869
Si Si3 0.949917 0.573237 0.748260
Si Si4 0.742778 0.574868 0.093510
Si Si5 0.177469 0.930127 0.583343
Si Si6 0.564096 0.074100 0.106765
Si Si7 0.966093 0.078255 0.652422
Si Si8 0.413016 0.429009 0.412269
O O1 0.299962 0.750000 0.535506
O O2 0.285244 0.989212 0.583934
O O3 0.189855 0.991336 0.444951
O O4 0.495353 0.974726 0.599105
O O5 0.661505 0.750000 0.254800
O O6 0.892098 0.926760 0.324206
O O7 0.721595 0.015196 0.322814
O O8 0.587616 0.996093 0.171983
O O9 0.958015 0.750000 0.762204
O O10 0.005370 0.533026 0.716160
O O11 0.769281 0.510493 0.676205
O O12 0.082607 0.492769 0.844093
O O13 0.760659 0.750000 0.114951
O O14 0.680147 0.496402 0.116659
O O15 0.621393 0.547055 0.992327
O O16 0.159019 0.750000 0.576109
O O17 0.000000 0.000000 0.500000
O O18 0.605914 0.250000 0.129769
O O19 0.938626 0.250000 0.660025
O O20 0.500000 0.500000 0.500000
O O21 0.414024 0.250000 0.421271
#
# Coordination Sequence:
#
# PCOD8069022 Si02
#       8
#     4   4   4   4   4   4   4   4
#     4   9  18  34  50  65  94 133 168 203 244 287
#     4  11  21  33  49  73 101 133 166 200 250 298
#     4  11  21  30  46  74 101 129 169 208 243 288
#     4  10  20  33  49  70 100 134 163 198 248 298
#     4  11  21  34  51  71  97 132 171 209 247 291
#     4  10  20  33  50  73  98 128 167 205 241 291
#     4  10  18  30  48  67  96 135 168 196 239 293
#     4  10  20  33  49  71  97 129 169 208 245 290
#
# _framework density 16.598213999999999
#
# number of rings (size 3 to 8) (size 9 to 14) (size 15 to 20)
#    0.000    1.750    3.750    1.875    0.000    2.500 
#    0.000    1.250    0.000    0.000    0.000    0.875 
#    0.000    0.000    0.000    0.000    0.000    0.000 
#
# Total GULP energy -396717.995883 kJ/mol
# GULP energy per Si atom -12397.437371 kJ/mol
# Density = 1.656044 g / cm^3
# Si number density = 16.598214 Si / 1000 Ang^3
#
#
#
# Elastic Constant Matrix: (Units=GPa)
#
#
# Indices 1 2 3 4 5 6 
#
# 1 83.2160 33.4671 45.3480 0.0000 2.2822 0.0000
# 2 33.4671 73.4673 46.3657 0.0000 2.1255 0.0000
# 3 45.3480 46.3657 123.7692 0.0000 6.6298 0.0000
# 4 0.0000 0.0000 0.0000 29.3806 0.0000 -1.0978
# 5 2.2822 2.1255 6.6298 0.0000 27.8856 0.0000
# 6 0.0000 0.0000 0.0000 -1.0978 0.0000 16.7805
#
#
#
# Elastic Compliance Matrix: (Units=1/GPa)
#
#
# Indices 1 2 3 4 5 6 
#
# 1 0.016192 -0.004756 -0.004152 0.000000 0.000025 0.000000
# 2 -0.004756 0.019225 -0.005471 0.000000 0.000225 0.000000
# 3 -0.004152 -0.005471 0.011760 0.000000 -0.002039 0.000000
# 4 0.000000 0.000000 0.000000 0.034120 0.000000 0.002232
# 5 0.000025 0.000225 -0.002039 0.000000 0.036326 0.000000
# 6 0.000000 0.000000 0.000000 0.002232 0.000000 0.059739
#
#
# Mechanical properties :
#
#
# Convention : Reuss Voigt Hill
#
# Bulk Modulus (GPa) = 54.29788 58.97936 56.63862
# Shear Modulus (GPa) = 23.55616 25.16078 24.35847
#
# Velocity S-wave (km/s) = 3.77131 3.89765 3.83500
# Velocity P-wave (km/s) = 7.19360 7.47437 7.33533
#
# Compressibility (1/GPa) = 0.01841693
#
# Stress axis : x y z
#
# Youngs Moduli (GPa) = 61.75999 52.01682 85.03656
#
# Poissons Ratio (x) = 0.24740 0.35308
# Poissons Ratio (y) = 0.29374 0.46525
# Poissons Ratio (z) = 0.25643 0.28459
#
# Static dielectric constant tensor:
#      x y z
#    x 3.098570 0.000000 0.090830 
#    y 0.000000 3.150520 0.000000 
#    z 0.090830 0.000000 3.320840 
# 
# 
# High freq. dielectric constant tensor:
#      x y z
#    x 1.608210 0.000000 0.003390 
#    y 0.000000 1.640650 0.000000 
#    z 0.003390 0.000000 1.640610 
# 
# From -- ./inp_files/71643.got.cif
#   From: 2010.06.25/outbox.cif.g09.slc.cpg/sg11_36_cif.got.tgz:71643.got - 2010.06.27 23:14:04.
