data_PCOD8069431
_publ_section_title
;
Structure prediction by ZEFSAII (Michael W. Deem and Ramdas Pophale) SiO2 
 PCOD8069431
Probable space group: P 21/M
;
_chemical_formula_sum "Si O2"
_cell_formula_units_Z 32
_cell_length_a 12.328279
_cell_length_b 24.198078
_cell_length_c 11.885251
_cell_angle_alpha 90.000000
_cell_angle_beta 149.217742
_cell_angle_gamma 90.000000
_cell_volume 1814.564157
_symmetry_space_group_name_H-M "P 21/M"
_symmetry_group_IT_number 11
_symmetry_cell_setting 'monoclinic'
loop_
_space_group_symop_operation_xyz
x,y,z
-x,1/2+y,-z
-x,-y,-z
x,1/2-y,z
loop_
_atom_site_type_symbol
_atom_site_label
_atom_site_fract_x
_atom_site_fract_y
_atom_site_fract_z
Si Si1 0.857717 0.312578 0.502232
Si Si2 0.682322 0.417853 0.468526
Si Si3 0.947764 0.090612 0.320585
Si Si4 0.310617 0.810405 0.895880
Si Si5 0.427814 0.947426 0.867368
Si Si6 0.330610 0.036028 0.284408
Si Si7 0.012516 0.010145 0.175477
Si Si8 0.269827 0.360586 0.767453
O O1 0.847054 0.250000 0.542695
O O2 0.761335 0.356455 0.505740
O O3 0.724588 0.316193 0.269497
O O4 0.101122 0.326904 0.690908
O O5 0.611825 0.456053 0.299969
O O6 0.469095 0.413007 0.356551
O O7 0.868739 0.451693 0.697423
O O8 0.835073 0.145329 0.166943
O O9 0.798362 0.071061 0.287999
O O10 0.975742 0.042357 0.257232
O O11 0.171072 0.105744 0.575185
O O12 0.244970 0.750000 0.881324
O O13 0.560337 0.819469 0.138716
O O14 0.610257 0.901915 0.042535
O O15 0.500000 0.000000 0.000000
O O16 0.147483 0.050670 0.212235
O O17 0.500000 0.000000 0.500000
O O18 0.216449 0.002319 0.081985
#
# Coordination Sequence:
#
# PCOD8069431 Si02
#       8
#     4   4   4   4   4   4   4   4
#     4  10  20  33  49  74 106 143 183 215 251 310
#     4  11  20  33  52  77 107 140 174 215 263 312
#     4  10  20  32  49  79 106 136 172 211 256 310
#     4   9  18  33  48  70 107 144 179 212 247 300
#     4  11  21  29  46  78 112 140 165 208 261 313
#     4   9  21  38  54  76  97 134 174 212 261 313
#     4  10  21  36  56  75 105 136 172 216 265 317
#     4  10  18  32  46  74 107 143 176 201 257 302
#
# _framework density 17.635089000000001
#
# number of rings (size 3 to 8) (size 9 to 14) (size 15 to 20)
#    0.000    2.000    3.750    1.875    3.500    4.500 
#    0.000    0.000    0.000    0.750    0.000   10.500 
#    0.000    0.000    0.000    0.000    0.000    0.000 
#
# Total GULP energy -396516.128489 kJ/mol
# GULP energy per Si atom -12391.129015 kJ/mol
# Density = 1.759495 g / cm^3
# Si number density = 17.635089 Si / 1000 Ang^3
#
#
#
# Elastic Constant Matrix: (Units=GPa)
#
#
# Indices 1 2 3 4 5 6 
#
# 1 54.9306 22.6493 28.6710 0.0000 7.6532 0.0000
# 2 22.6493 87.9453 25.6408 0.0000 5.8494 0.0000
# 3 28.6710 25.6408 105.6131 0.0000 9.1465 0.0000
# 4 0.0000 0.0000 0.0000 14.8287 0.0000 4.3832
# 5 7.6532 5.8494 9.1465 0.0000 24.9956 0.0000
# 6 0.0000 0.0000 0.0000 4.3832 0.0000 16.1067
#
#
#
# Elastic Compliance Matrix: (Units=1/GPa)
#
#
# Indices 1 2 3 4 5 6 
#
# 1 0.023093 -0.004243 -0.004867 0.000000 -0.004297 0.000000
# 2 -0.004243 0.013098 -0.001937 0.000000 -0.001058 0.000000
# 3 -0.004867 -0.001937 0.011455 0.000000 -0.002248 0.000000
# 4 0.000000 0.000000 0.000000 0.073336 0.000000 -0.019957
# 5 -0.004297 -0.001058 -0.002248 0.000000 0.042393 0.000000
# 6 0.000000 0.000000 0.000000 -0.019957 0.000000 0.067517
#
#
# Mechanical properties :
#
#
# Convention : Reuss Voigt Hill
#
# Bulk Modulus (GPa) = 39.13349 44.71236 41.92293
# Shear Modulus (GPa) = 19.12031 22.62139 20.87085
#
# Velocity S-wave (km/s) = 3.29632 3.58543 3.44391
# Velocity P-wave (km/s) = 6.06024 6.52301 6.29588
#
# Compressibility (1/GPa) = 0.02555356
#
# Stress axis : x y z
#
# Youngs Moduli (GPa) = 43.30297 76.34563 87.30076
#
# Poissons Ratio (x) = 0.32390 0.42489
# Poissons Ratio (y) = 0.18372 0.16907
# Poissons Ratio (z) = 0.21075 0.14786
#
# Static dielectric constant tensor:
#      x y z
#    x 3.305290 0.000000 0.238710 
#    y 0.000000 4.240940 0.000000 
#    z 0.238710 0.000000 3.525760 
# 
# 
# High freq. dielectric constant tensor:
#      x y z
#    x 1.653270 0.000000 0.018350 
#    y 0.000000 1.665130 0.000000 
#    z 0.018350 0.000000 1.701830 
# 
# From -- ./inp_files/36636.got.cif
#   From: 2010.06.25/outbox.cif.g09.slc.cpg/sg11_19_cif.got.tgz:36636.got - 2010.06.27 23:14:04.
