data_PCOD8069434
_publ_section_title
;
Structure prediction by ZEFSAII (Michael W. Deem and Ramdas Pophale) SiO2 
 PCOD8069434
Probable space group: P 21/M
;
_chemical_formula_sum "Si O2"
_cell_formula_units_Z 24
_cell_length_a 11.895409
_cell_length_b 8.751889
_cell_length_c 14.439392
_cell_angle_alpha 90.000000
_cell_angle_beta 70.126391
_cell_angle_gamma 90.000000
_cell_volume 1413.719995
_symmetry_space_group_name_H-M "P 21/M"
_symmetry_group_IT_number 11
_symmetry_cell_setting 'monoclinic'
loop_
_space_group_symop_operation_xyz
x,y,z
-x,1/2+y,-z
-x,-y,-z
x,1/2-y,z
loop_
_atom_site_type_symbol
_atom_site_label
_atom_site_fract_x
_atom_site_fract_y
_atom_site_fract_z
Si Si1 0.254898 0.570964 0.174002
Si Si2 0.429015 0.429994 0.435310
Si Si3 0.602108 0.429598 0.034152
Si Si4 0.480869 0.568750 0.226918
Si Si5 0.043480 0.574356 0.351107
Si Si6 0.824674 0.424276 0.492522
O O1 0.255491 0.750000 0.193772
O O2 0.362639 0.505150 0.207360
O O3 0.125725 0.508881 0.243808
O O4 0.275472 0.536919 0.058483
O O5 0.500000 0.500000 0.500000
O O6 0.445204 0.250000 0.429721
O O7 0.486565 0.498486 0.326608
O O8 0.290105 0.469798 0.484453
O O9 0.582053 0.250000 0.052131
O O10 0.597435 0.511261 0.135738
O O11 0.500000 0.500000 0.000000
O O12 0.483835 0.750000 0.233568
O O13 0.006121 0.750000 0.346850
O O14 0.121978 0.554706 0.420887
O O15 0.923222 0.474980 0.389334
O O16 0.787422 0.250000 0.483927
#
# Coordination Sequence:
#
# PCOD8069434 Si02
#       6
#     4   4   4   4   4   4
#     4   8  14  26  45  68  98 131 161 195 239 287
#     4  12  24  37  53  72  95 129 169 207 247 295
#     4   9  16  26  42  67  96 130 165 200 243 293
#     4  10  18  32  48  67  97 130 162 205 248 290
#     4   9  16  29  48  70  99 134 164 197 243 291
#     4  10  19  32  48  70  99 129 164 205 245 289
#
# _framework density 16.976488
#
# number of rings (size 3 to 8) (size 9 to 14) (size 15 to 20)
#    0.000    2.333    1.667    4.000    0.000    0.667 
#    0.000    1.667    0.000    0.000    0.000    1.167 
#    0.000    0.000    0.000    0.000    0.000    0.000 
#
# Total GULP energy -297441.510687 kJ/mol
# GULP energy per Si atom -12393.396279 kJ/mol
# Density = 1.693785 g / cm^3
# Si number density = 16.976488 Si / 1000 Ang^3
#
#
#
# Elastic Constant Matrix: (Units=GPa)
#
#
# Indices 1 2 3 4 5 6 
#
# 1 33.1351 27.6524 48.1468 0.0000 -6.4242 0.0000
# 2 27.6524 95.4508 54.3870 0.0000 -3.8219 0.0000
# 3 48.1468 54.3870 167.8033 0.0000 -23.8909 0.0000
# 4 0.0000 0.0000 0.0000 28.7295 0.0000 -2.2692
# 5 -6.4242 -3.8219 -23.8909 0.0000 26.0348 0.0000
# 6 0.0000 0.0000 0.0000 -2.2692 0.0000 20.4854
#
#
#
# Elastic Compliance Matrix: (Units=1/GPa)
#
#
# Indices 1 2 3 4 5 6 
#
# 1 0.057293 -0.008892 -0.013493 0.000000 0.000450 0.000000
# 2 -0.008892 0.014343 -0.002427 0.000000 -0.002316 0.000000
# 3 -0.013493 -0.002427 0.011609 0.000000 0.006968 0.000000
# 4 0.000000 0.000000 0.000000 0.035115 0.000000 0.003890
# 5 0.000450 -0.002316 0.006968 0.000000 0.044575 0.000000
# 6 0.000000 0.000000 0.000000 0.003890 0.000000 0.049246
#
#
# Mechanical properties :
#
#
# Convention : Reuss Voigt Hill
#
# Bulk Modulus (GPa) = 29.74264 61.86238 45.80251
# Shear Modulus (GPa) = 18.31429 26.13016 22.22222
#
# Velocity S-wave (km/s) = 3.28808 3.92752 3.62194
# Velocity P-wave (km/s) = 5.65449 7.55555 6.67306
#
# Compressibility (1/GPa) = 0.03362177
#
# Stress axis : x y z
#
# Youngs Moduli (GPa) = 17.45428 69.72138 86.13741
#
# Poissons Ratio (x) = 0.61995 1.16221
# Poissons Ratio (y) = 0.15520 0.20906
# Poissons Ratio (z) = 0.23550 0.16922
#
# Static dielectric constant tensor:
#      x y z
#    x 2.910100 0.000000 -0.420110 
#    y 0.000000 3.229470 0.000000 
#    z -0.420110 0.000000 3.778450 
# 
# 
# High freq. dielectric constant tensor:
#      x y z
#    x 1.598800 0.000000 -0.031250 
#    y 0.000000 1.655070 0.000000 
#    z -0.031250 0.000000 1.668480 
# 
# From -- ./inp_files/36984.got.cif
#   From: 2010.06.25/outbox.cif.g09.slc.cpg/sg11_19_cif.got.tgz:36984.got - 2010.06.27 23:14:04.
