data_PCOD8069460
_publ_section_title
;
Structure prediction by ZEFSAII (Michael W. Deem and Ramdas Pophale) SiO2 
 PCOD8069460
Probable space group: P 21/M
;
_chemical_formula_sum "Si O2"
_cell_formula_units_Z 32
_cell_length_a 13.719504
_cell_length_b 10.205123
_cell_length_c 13.495831
_cell_angle_alpha 90.000000
_cell_angle_beta 114.924644
_cell_angle_gamma 90.000000
_cell_volume 1713.554372
_symmetry_space_group_name_H-M "P 21/M"
_symmetry_group_IT_number 11
_symmetry_cell_setting 'monoclinic'
loop_
_space_group_symop_operation_xyz
x,y,z
-x,1/2+y,-z
-x,-y,-z
x,1/2-y,z
loop_
_atom_site_type_symbol
_atom_site_label
_atom_site_fract_x
_atom_site_fract_y
_atom_site_fract_z
Si Si1 0.746548 0.099450 0.048694
Si Si2 0.161417 0.902140 0.277056
Si Si3 0.337611 0.595074 0.196936
Si Si4 0.421978 0.100802 0.672459
Si Si5 0.263540 0.893800 0.529047
Si Si6 0.276045 0.105964 0.794263
Si Si7 0.902980 0.466757 0.385797
Si Si8 0.980961 0.392343 0.210628
O O1 0.710300 0.250000 0.053669
O O2 0.875191 0.089901 0.098591
O O3 0.702657 0.006887 0.116776
O O4 0.700216 0.042912 0.926123
O O5 0.133074 0.750000 0.244443
O O6 0.256857 0.953176 0.247561
O O7 0.192201 0.926873 0.403454
O O8 0.057556 0.989771 0.211448
O O9 0.338181 0.750000 0.193052
O O10 0.456920 0.545297 0.273583
O O11 0.416015 0.250000 0.628079
O O12 0.376305 0.096554 0.763503
O O13 0.354631 0.004425 0.573282
O O14 0.317598 0.750000 0.540464
O O15 0.186085 0.885874 0.591337
O O16 0.273572 0.250000 0.843202
O O17 0.162069 0.091351 0.686845
O O18 0.950073 0.387127 0.313715
O O19 0.000000 0.500000 0.500000
O O20 0.033686 0.250000 0.210193
#
# Coordination Sequence:
#
# PCOD8069460 Si02
#       8
#     4   4   4   4   4   4   4   4
#     4   9  19  36  56  77 104 141 176 212 263 318
#     4  10  21  36  54  77 103 140 183 218 256 310
#     4   9  19  38  59  74  98 140 187 221 256 312
#     4   9  19  36  56  78 104 139 176 214 262 316
#     4  10  20  34  52  80 111 138 171 215 263 311
#     4   9  19  32  51  81 110 132 168 217 264 311
#     4  10  18  32  51  78 107 143 172 205 251 321
#     4  10  20  33  51  78 109 138 171 215 264 311
#
# _framework density 18.674634000000001
#
# number of rings (size 3 to 8) (size 9 to 14) (size 15 to 20)
#    0.000    2.500    1.250    0.375    0.000    8.000 
#    0.000    1.875    0.000    0.000    0.000    0.000 
#    0.000    0.000    0.000    0.000    0.000    0.000 
#
# Total GULP energy -396652.793576 kJ/mol
# GULP energy per Si atom -12395.399799 kJ/mol
# Density = 1.863213 g / cm^3
# Si number density = 18.674634 Si / 1000 Ang^3
#
#
#
# Elastic Constant Matrix: (Units=GPa)
#
#
# Indices 1 2 3 4 5 6 
#
# 1 72.8534 27.3923 3.3664 0.0000 7.6468 0.0000
# 2 27.3923 95.7083 16.6159 0.0000 7.1783 0.0000
# 3 3.3664 16.6159 30.2302 0.0000 9.6282 0.0000
# 4 0.0000 0.0000 0.0000 19.8043 0.0000 1.0521
# 5 7.6468 7.1783 9.6282 0.0000 24.3569 0.0000
# 6 0.0000 0.0000 0.0000 1.0521 0.0000 20.3375
#
#
#
# Elastic Compliance Matrix: (Units=1/GPa)
#
#
# Indices 1 2 3 4 5 6 
#
# 1 0.015813 -0.004568 0.002176 0.000000 -0.004479 0.000000
# 2 -0.004568 0.012892 -0.006663 0.000000 0.000268 0.000000
# 3 0.002176 -0.006663 0.041290 0.000000 -0.015041 0.000000
# 4 0.000000 0.000000 0.000000 0.050633 0.000000 -0.002619
# 5 -0.004479 0.000268 -0.015041 0.000000 0.048329 0.000000
# 6 0.000000 0.000000 0.000000 -0.002619 0.000000 0.049306
#
#
# Mechanical properties :
#
#
# Convention : Reuss Voigt Hill
#
# Bulk Modulus (GPa) = 19.27293 32.61567 25.94430
# Shear Modulus (GPa) = 19.71079 22.99422 21.35250
#
# Velocity S-wave (km/s) = 3.25235 3.51281 3.38508
# Velocity P-wave (km/s) = 4.94434 5.82720 5.40383
#
# Compressibility (1/GPa) = 0.05188623
#
# Stress axis : x y z
#
# Youngs Moduli (GPa) = 63.23851 77.56535 24.21893
#
# Poissons Ratio (x) = 0.35430 -0.05270
# Poissons Ratio (y) = 0.28885 0.16137
# Poissons Ratio (z) = -0.13761 0.51682
#
# Static dielectric constant tensor:
#      x y z
#    x 3.431160 0.000000 0.033020 
#    y 0.000000 3.431260 0.000000 
#    z 0.033020 0.000000 3.419450 
# 
# 
# High freq. dielectric constant tensor:
#      x y z
#    x 1.716390 0.000000 0.002490 
#    y 0.000000 1.714730 0.000000 
#    z 0.002490 0.000000 1.718660 
# 
# From -- ./inp_files/51764.got.cif
#   From: 2010.06.25/outbox.cif.g09.slc.cpg/sg11_26_cif.got.tgz:51764.got - 2010.06.27 23:14:04.
