data_PCOD8069921
_publ_section_title
;
Structure prediction by ZEFSAII (Michael W. Deem and Ramdas Pophale) SiO2 
 PCOD8069921
Probable space group: P 21/M
;
_chemical_formula_sum "Si O2"
_cell_formula_units_Z 32
_cell_length_a 16.772970
_cell_length_b 9.115824
_cell_length_c 13.703821
_cell_angle_alpha 90.000000
_cell_angle_beta 78.362106
_cell_angle_gamma 90.000000
_cell_volume 2052.231377
_symmetry_space_group_name_H-M "P 21/M"
_symmetry_group_IT_number 11
_symmetry_cell_setting 'monoclinic'
loop_
_space_group_symop_operation_xyz
x,y,z
-x,1/2+y,-z
-x,-y,-z
x,1/2-y,z
loop_
_atom_site_type_symbol
_atom_site_label
_atom_site_fract_x
_atom_site_fract_y
_atom_site_fract_z
Si Si1 0.079211 0.084699 0.089591
Si Si2 0.492137 0.420344 0.900040
Si Si3 0.980222 0.574878 0.606128
Si Si4 0.663490 0.076388 0.077585
Si Si5 0.817695 0.913726 0.747890
Si Si6 0.946797 0.580593 0.234223
Si Si7 0.328310 0.917394 0.148887
Si Si8 0.815076 0.581514 0.117420
O O1 0.042970 0.250000 0.094902
O O2 0.151970 0.078638 0.149063
O O3 0.116435 0.035306 0.977749
O O4 0.009226 0.970874 0.135153
O O5 0.470672 0.250000 0.920571
O O6 0.419037 0.500238 0.859720
O O7 0.581017 0.437382 0.827685
O O8 0.500000 0.500000 0.000000
O O9 0.988149 0.750000 0.598215
O O10 0.044045 0.516860 0.670970
O O11 0.000000 0.500000 0.500000
O O12 0.888886 0.525975 0.659259
O O13 0.653793 0.250000 0.088287
O O14 0.737375 0.023081 0.127057
O O15 0.676234 0.024625 0.962084
O O16 0.795939 0.750000 0.720945
O O17 0.734179 0.003799 0.762483
O O18 0.964792 0.750000 0.254768
O O19 0.855375 0.561530 0.214412
O O20 0.301589 0.750000 0.153557
O O21 0.788546 0.750000 0.106272
#
# Coordination Sequence:
#
# PCOD8069921 Si02
#       8
#     4   4   4   4   4   4   4   4
#     4   9  17  29  42  60  88 121 154 187 223 259
#     4   9  17  28  40  57  83 117 155 192 226 262
#     4  10  21  37  53  69  89 115 147 186 233 278
#     4  10  19  28  40  61  86 120 160 192 226 263
#     4   9  17  28  45  66  88 115 147 183 225 267
#     4  10  20  31  46  67  88 116 151 186 227 271
#     4   9  17  27  40  61  86 114 152 189 221 261
#     4  10  19  30  43  61  89 123 156 188 223 263
#
# _framework density 15.592784
#
# number of rings (size 3 to 8) (size 9 to 14) (size 15 to 20)
#    0.000    2.500    1.250    3.375    0.000    6.500 
#    0.000    0.000    0.000    0.000    0.000    0.000 
#    0.000    1.000    0.000    3.250    0.000    4.000 
#
# Total GULP energy -396640.513759 kJ/mol
# GULP energy per Si atom -12395.016055 kJ/mol
# Density = 1.555729 g / cm^3
# Si number density = 15.592784 Si / 1000 Ang^3
#
#
#
# Elastic Constant Matrix: (Units=GPa)
#
#
# Indices 1 2 3 4 5 6 
#
# 1 103.1268 56.4669 39.7772 0.0000 -2.2408 0.0000
# 2 56.4669 85.1967 32.6411 0.0000 -2.9492 0.0000
# 3 39.7772 32.6411 63.8557 0.0000 -3.0424 0.0000
# 4 0.0000 0.0000 0.0000 19.6700 0.0000 -1.9523
# 5 -2.2408 -2.9492 -3.0424 0.0000 12.6347 0.0000
# 6 0.0000 0.0000 0.0000 -1.9523 0.0000 31.0475
#
#
#
# Elastic Compliance Matrix: (Units=1/GPa)
#
#
# Indices 1 2 3 4 5 6 
#
# 1 0.016869 -0.008908 -0.005980 0.000000 -0.000527 0.000000
# 2 -0.008908 0.019333 -0.004243 0.000000 0.001911 0.000000
# 3 -0.005980 -0.004243 0.021705 0.000000 0.003176 0.000000
# 4 0.000000 0.000000 0.000000 0.051158 0.000000 0.003217
# 5 -0.000527 0.001911 0.003176 0.000000 0.080265 0.000000
# 6 0.000000 0.000000 0.000000 0.003217 0.000000 0.032411
#
#
# Mechanical properties :
#
#
# Convention : Reuss Voigt Hill
#
# Bulk Modulus (GPa) = 50.89832 56.66108 53.77970
# Shear Modulus (GPa) = 18.75810 20.89004 19.82407
#
# Velocity S-wave (km/s) = 3.47219 3.66420 3.56948
# Velocity P-wave (km/s) = 6.98483 7.37012 7.18006
#
# Compressibility (1/GPa) = 0.01964701
#
# Stress axis : x y z
#
# Youngs Moduli (GPa) = 59.27888 51.72459 46.07165
#
# Poissons Ratio (x) = 0.46076 0.27551
# Poissons Ratio (y) = 0.52805 0.19546
# Poissons Ratio (z) = 0.35449 0.21944
#
# Static dielectric constant tensor:
#      x y z
#    x 4.886380 0.000000 -0.058590 
#    y 0.000000 3.058470 0.000000 
#    z -0.058590 0.000000 2.589200 
# 
# 
# High freq. dielectric constant tensor:
#      x y z
#    x 1.598760 0.000000 -0.004200 
#    y 0.000000 1.610370 0.000000 
#    z -0.004200 0.000000 1.538880 
# 
# From -- ./inp_files/51249.got.cif
#   From: 2010.06.25/outbox.cif.g09.slc.cpg/sg11_26_cif.got.tgz:51249.got - 2010.06.27 23:14:04.
