data_PCOD8069550
_publ_section_title
;
Structure prediction by ZEFSAII (Michael W. Deem and Ramdas Pophale) SiO2 
 PCOD8069550
Probable space group: P 21/M
;
_chemical_formula_sum "Si O2"
_cell_formula_units_Z 28
_cell_length_a 15.353669
_cell_length_b 21.783440
_cell_length_c 9.603191
_cell_angle_alpha 90.000000
_cell_angle_beta 26.375072
_cell_angle_gamma 90.000000
_cell_volume 1426.846248
_symmetry_space_group_name_H-M "P 21/M"
_symmetry_group_IT_number 11
_symmetry_cell_setting 'monoclinic'
loop_
_space_group_symop_operation_xyz
x,y,z
-x,1/2+y,-z
-x,-y,-z
x,1/2-y,z
loop_
_atom_site_type_symbol
_atom_site_label
_atom_site_fract_x
_atom_site_fract_y
_atom_site_fract_z
Si Si1 0.019843 0.679381 0.548430
Si Si2 0.224211 0.998595 0.356221
Si Si3 0.282288 0.044803 0.565525
Si Si4 0.549973 0.935587 0.205666
Si Si5 0.876171 0.576800 0.931746
Si Si6 0.631438 0.679885 0.944378
Si Si7 0.571026 0.380059 0.013636
O O1 0.042605 0.750000 0.554909
O O2 0.939944 0.646137 0.802635
O O3 0.865101 0.669651 0.642193
O O4 0.234791 0.652726 0.204509
O O5 0.010005 0.968920 0.648366
O O6 0.207652 0.042652 0.514056
O O7 0.379076 0.941311 0.152552
O O8 0.284800 0.038526 0.137519
O O9 0.455530 0.096011 0.316452
O O10 0.356728 0.976317 0.496188
O O11 0.112506 0.064405 0.917753
O O12 0.650997 0.934870 0.212369
O O13 0.502893 0.865454 0.226932
O O14 0.573948 0.750000 0.060663
O O15 0.569529 0.665123 0.873904
#
# Coordination Sequence:
#
# PCOD8069550 Si02
#       7
#     4   4   4   4   4   4   4
#     4   9  20  36  54  77 104 140 188 223 255 323
#     4  10  18  33  54  74 108 138 176 214 260 319
#     4  11  19  33  51  82 114 133 169 224 281 319
#     4  10  18  34  51  76 107 140 183 219 257 326
#     4  10  21  31  53  81 108 143 171 216 283 315
#     4  10  18  32  55  78  99 136 186 226 258 306
#     4  10  18  34  56  77 104 139 178 221 265 314
#
# _framework density 19.623695999999999
#
# number of rings (size 3 to 8) (size 9 to 14) (size 15 to 20)
#    0.000    2.000    2.857    2.571    0.000    1.143 
#    0.000    1.429    0.000    0.000    0.000    9.000 
#    0.000    0.000    0.000    0.000    0.000    0.000 
#
# Total GULP energy -346941.617641 kJ/mol
# GULP energy per Si atom -12390.772059 kJ/mol
# Density = 1.957903 g / cm^3
# Si number density = 19.623696 Si / 1000 Ang^3
#
#
#
# Elastic Constant Matrix: (Units=GPa)
#
#
# Indices 1 2 3 4 5 6 
#
# 1 57.5296 19.9541 10.5467 0.0000 -7.4938 0.0000
# 2 19.9541 118.2549 27.3287 0.0000 -6.5734 0.0000
# 3 10.5467 27.3287 57.5791 0.0000 2.0158 0.0000
# 4 0.0000 0.0000 0.0000 19.2936 0.0000 -4.4161
# 5 -7.4938 -6.5734 2.0158 0.0000 25.5448 0.0000
# 6 0.0000 0.0000 0.0000 -4.4161 0.0000 24.3859
#
#
#
# Elastic Compliance Matrix: (Units=1/GPa)
#
#
# Indices 1 2 3 4 5 6 
#
# 1 0.019371 -0.002373 -0.002607 0.000000 0.005278 0.000000
# 2 -0.002373 0.009994 -0.004387 0.000000 0.002222 0.000000
# 3 -0.002607 -0.004387 0.020049 0.000000 -0.003476 0.000000
# 4 0.000000 0.000000 0.000000 0.054072 0.000000 0.009792
# 5 0.005278 0.002222 -0.003476 0.000000 0.041541 0.000000
# 6 0.000000 0.000000 0.000000 0.009792 0.000000 0.042781
#
#
# Mechanical properties :
#
#
# Convention : Reuss Voigt Hill
#
# Bulk Modulus (GPa) = 32.59336 38.78027 35.68682
# Shear Modulus (GPa) = 23.06636 25.54715 24.30675
#
# Velocity S-wave (km/s) = 3.43218 3.61203 3.52325
# Velocity P-wave (km/s) = 5.68786 6.09923 5.89713
#
# Compressibility (1/GPa) = 0.03068110
#
# Stress axis : x y z
#
# Youngs Moduli (GPa) = 51.62437 100.06071 49.87892
#
# Poissons Ratio (x) = 0.23742 0.13002
# Poissons Ratio (y) = 0.12249 0.21880
# Poissons Ratio (z) = 0.13457 0.43892
#
# Static dielectric constant tensor:
#      x y z
#    x 3.446020 0.000000 -0.208420 
#    y 0.000000 3.778450 0.000000 
#    z -0.208420 0.000000 3.334750 
# 
# 
# High freq. dielectric constant tensor:
#      x y z
#    x 1.760660 0.000000 -0.021090 
#    y 0.000000 1.763890 0.000000 
#    z -0.021090 0.000000 1.729150 
# 
# From -- ./inp_files/23179.got.cif
#   From: 2010.06.25/outbox.cif.g09.slc.cpg/sg11_12_cif.got.tgz:23179.got - 2010.06.27 23:14:04.
