data_PCOD8069285
_publ_section_title
;
Structure prediction by ZEFSAII (Michael W. Deem and Ramdas Pophale) SiO2 
 PCOD8069285
Probable space group: P 21/M
;
_chemical_formula_sum "Si O2"
_cell_formula_units_Z 32
_cell_length_a 10.984972
_cell_length_b 20.152956
_cell_length_c 10.984970
_cell_angle_alpha 90.000000
_cell_angle_beta 49.163632
_cell_angle_gamma 90.000000
_cell_volume 1839.888602
_symmetry_space_group_name_H-M "P 21/M"
_symmetry_group_IT_number 11
_symmetry_cell_setting 'monoclinic'
loop_
_space_group_symop_operation_xyz
x,y,z
-x,1/2+y,-z
-x,-y,-z
x,1/2-y,z
loop_
_atom_site_type_symbol
_atom_site_label
_atom_site_fract_x
_atom_site_fract_y
_atom_site_fract_z
Si Si1 0.136031 0.419345 0.472938
Si Si2 0.300564 0.927737 0.646740
Si Si3 0.326798 0.449477 0.987990
Si Si4 0.409965 0.676689 0.754302
Si Si5 0.353260 0.072263 0.699436
Si Si6 0.987990 0.449477 0.326798
Si Si7 0.754302 0.676689 0.409965
Si Si8 0.527062 0.919345 0.863969
O O1 0.030952 0.407465 0.420171
O O2 0.135469 0.352357 0.553082
O O3 0.318515 0.440248 0.318514
O O4 0.062595 0.476833 0.603090
O O5 0.291385 0.872395 0.758630
O O6 0.465171 0.923921 0.465171
O O7 0.155902 0.912590 0.648515
O O8 0.278619 1.000000 0.721381
O O9 0.351485 0.412590 0.844099
O O10 0.396910 0.523167 0.937405
O O11 0.138709 0.454422 0.138709
O O12 0.420171 0.407464 0.030952
O O13 0.332148 0.750000 0.819571
O O14 0.572740 0.682354 0.572740
O O15 0.446918 0.647643 0.864531
O O16 0.241370 0.127605 0.708615
O O17 0.819571 0.750000 0.332148
#
# Coordination Sequence:
#
# PCOD8069285 Si02
#       8
#     4   4   4   4   4   4   4   4
#     4   9  17  32  50  71  98 127 163 203 242 287
#     4  10  18  31  51  73  98 128 163 204 244 285
#     4  10  19  29  48  76 102 126 158 202 250 290
#     4   9  17  31  52  73  93 126 171 206 236 286
#     4  10  18  31  51  73  98 128 163 204 244 285
#     4  10  19  29  48  76 102 126 158 202 250 290
#     4   9  17  31  52  73  93 126 171 206 236 286
#     4   9  17  32  50  71  98 127 163 203 242 287
#
# _framework density 17.392358000000002
#
# number of rings (size 3 to 8) (size 9 to 14) (size 15 to 20)
#    0.000    2.500    2.500    0.750    0.000    1.500 
#    0.000    1.250    0.000    4.500    0.000    0.000 
#    0.000    0.000    0.000    0.000    0.000    0.000 
#
# Total GULP energy -396722.162133 kJ/mol
# GULP energy per Si atom -12397.567567 kJ/mol
# Density = 1.735277 g / cm^3
# Si number density = 17.392358 Si / 1000 Ang^3
#
#
#
# Elastic Constant Matrix: (Units=GPa)
#
#
# Indices 1 2 3 4 5 6 
#
# 1 134.3112 67.6780 36.8007 0.0000 20.4697 0.0000
# 2 67.6780 128.4072 32.9089 0.0000 20.7181 0.0000
# 3 36.8007 32.9089 59.0476 0.0000 24.3780 0.0000
# 4 0.0000 0.0000 0.0000 13.2108 0.0000 5.3828
# 5 20.4697 20.7181 24.3780 0.0000 29.2502 0.0000
# 6 0.0000 0.0000 0.0000 5.3828 0.0000 22.2442
#
#
#
# Elastic Compliance Matrix: (Units=1/GPa)
#
#
# Indices 1 2 3 4 5 6 
#
# 1 0.011001 -0.004630 -0.003737 0.000000 -0.001305 0.000000
# 2 -0.004630 0.011258 -0.002187 0.000000 -0.002911 0.000000
# 3 -0.003737 -0.002187 0.028608 0.000000 -0.019678 0.000000
# 4 0.000000 0.000000 0.000000 0.083975 0.000000 -0.020321
# 5 -0.001305 -0.002911 -0.019678 0.000000 0.053563 0.000000
# 6 0.000000 0.000000 0.000000 -0.020321 0.000000 0.049873
#
#
# Mechanical properties :
#
#
# Convention : Reuss Voigt Hill
#
# Bulk Modulus (GPa) = 33.60367 66.28235 49.94301
# Shear Modulus (GPa) = 18.56618 25.23295 21.89957
#
# Velocity S-wave (km/s) = 3.27079 3.81308 3.55230
# Velocity P-wave (km/s) = 5.79888 7.58807 6.75299
#
# Compressibility (1/GPa) = 0.02975865
#
# Stress axis : x y z
#
# Youngs Moduli (GPa) = 90.89893 88.82391 34.95553
#
# Poissons Ratio (x) = 0.41125 0.13064
# Poissons Ratio (y) = 0.42086 0.07645
# Poissons Ratio (z) = 0.33972 0.19425
#
# Static dielectric constant tensor:
#      x y z
#    x 3.427340 0.000000 0.189660 
#    y 0.000000 3.242900 0.000000 
#    z 0.189660 0.000000 3.109060 
# 
# 
# High freq. dielectric constant tensor:
#      x y z
#    x 1.681000 0.000000 0.016250 
#    y 0.000000 1.642640 0.000000 
#    z 0.016250 0.000000 1.653740 
# 
# From -- ./inp_files/36275.got.cif
#   From: 2010.06.25/outbox.cif.g09.slc.cpg/sg11_19_cif.got.tgz:36275.got - 2010.06.27 23:14:04.
