data_PCOD8069432
_publ_section_title
;
Structure prediction by ZEFSAII (Michael W. Deem and Ramdas Pophale) SiO2 
 PCOD8069432
Probable space group: P 21/M
;
_chemical_formula_sum "Si O2"
_cell_formula_units_Z 28
_cell_length_a 14.384238
_cell_length_b 8.895360
_cell_length_c 21.785315
_cell_angle_alpha 90.000000
_cell_angle_beta 38.394678
_cell_angle_gamma 90.000000
_cell_volume 1731.243952
_symmetry_space_group_name_H-M "P 21/M"
_symmetry_group_IT_number 11
_symmetry_cell_setting 'monoclinic'
loop_
_space_group_symop_operation_xyz
x,y,z
-x,1/2+y,-z
-x,-y,-z
x,1/2-y,z
loop_
_atom_site_type_symbol
_atom_site_label
_atom_site_fract_x
_atom_site_fract_y
_atom_site_fract_z
Si Si1 0.238049 0.428937 0.986287
Si Si2 0.329478 0.577568 0.376956
Si Si3 0.036162 0.426945 0.916678
Si Si4 0.957245 0.923336 0.459291
Si Si5 0.274725 0.579753 0.261415
Si Si6 0.653937 0.574233 0.202293
Si Si7 0.482586 0.927647 0.943086
O O1 0.237028 0.250000 0.992882
O O2 0.302973 0.488258 0.887523
O O3 0.335207 0.500449 0.989685
O O4 0.066849 0.491570 0.081088
O O5 0.315984 0.750000 0.403358
O O6 0.200638 0.491572 0.482547
O O7 0.307360 0.554665 0.315986
O O8 0.494148 0.509126 0.308176
O O9 0.001981 0.250000 0.935545
O O10 0.215232 0.457037 0.815022
O O11 0.000000 0.500000 0.000000
O O12 0.932517 0.750000 0.485728
O O13 0.096877 0.947524 0.340265
O O14 0.000000 0.000000 0.500000
O O15 0.320281 0.750000 0.219332
O O16 0.369767 0.463130 0.172867
O O17 0.630319 0.750000 0.204319
O O18 0.462424 0.750000 0.958810
O O19 0.500000 0.000000 0.000000
#
# Coordination Sequence:
#
# PCOD8069432 Si02
#       7
#     4   4   4   4   4   4   4
#     4  10  18  32  47  60  86 118 149 188 230 265
#     4   9  15  26  43  63  89 121 149 178 217 260
#     4   9  16  26  41  63  87 117 153 183 220 267
#     4   9  17  27  40  60  85 115 146 180 218 261
#     4   9  17  31  46  59  85 118 148 184 228 263
#     4   8  14  25  42  62  89 121 147 177 218 260
#     4  12  24  35  49  67  86 113 153 193 229 271
#
# _framework density 16.173341000000001
#
# number of rings (size 3 to 8) (size 9 to 14) (size 15 to 20)
#    0.000    2.571    1.429    4.286    0.000    2.857 
#    0.000    1.429    0.000    0.000    0.000    0.000 
#    0.000    1.143    0.000    3.429    0.000    5.286 
#
# Total GULP energy -346900.595791 kJ/mol
# GULP energy per Si atom -12389.306993 kJ/mol
# Density = 1.613653 g / cm^3
# Si number density = 16.173341 Si / 1000 Ang^3
#
#
#
# Elastic Constant Matrix: (Units=GPa)
#
#
# Indices 1 2 3 4 5 6 
#
# 1 105.2267 48.0466 52.1368 0.0000 -34.4777 0.0000
# 2 48.0466 98.0164 37.0450 0.0000 -17.5001 0.0000
# 3 52.1368 37.0450 60.3165 0.0000 -34.1517 0.0000
# 4 0.0000 0.0000 0.0000 23.8681 0.0000 -6.6609
# 5 -34.4777 -17.5001 -34.1517 0.0000 34.5537 0.0000
# 6 0.0000 0.0000 0.0000 -6.6609 0.0000 23.3791
#
#
#
# Elastic Compliance Matrix: (Units=1/GPa)
#
#
# Indices 1 2 3 4 5 6 
#
# 1 0.018318 -0.004220 -0.009317 0.000000 0.006931 0.000000
# 2 -0.004220 0.014400 -0.007837 0.000000 -0.004664 0.000000
# 3 -0.009317 -0.007837 0.049809 0.000000 0.035964 0.000000
# 4 0.000000 0.000000 0.000000 0.045516 0.000000 0.012968
# 5 0.006931 -0.004664 0.035964 0.000000 0.069040 0.000000
# 6 0.000000 0.000000 0.000000 0.012968 0.000000 0.046468
#
#
# Mechanical properties :
#
#
# Convention : Reuss Voigt Hill
#
# Bulk Modulus (GPa) = 25.13904 59.77960 42.45932
# Shear Modulus (GPa) = 16.69119 24.78226 20.73672
#
# Velocity S-wave (km/s) = 3.21599 3.91870 3.58460
# Velocity P-wave (km/s) = 5.41917 7.58399 6.59107
#
# Compressibility (1/GPa) = 0.03977877
#
# Stress axis : x y z
#
# Youngs Moduli (GPa) = 54.59231 69.44228 20.07667
#
# Poissons Ratio (x) = 0.29306 0.18705
# Poissons Ratio (y) = 0.23039 0.15734
# Poissons Ratio (z) = 0.50863 0.54422
#
# Static dielectric constant tensor:
#      x y z
#    x 3.226250 0.000000 -0.758120 
#    y 0.000000 3.305340 0.000000 
#    z -0.758120 0.000000 3.365490 
# 
# 
# High freq. dielectric constant tensor:
#      x y z
#    x 1.595390 0.000000 -0.054050 
#    y 0.000000 1.622680 0.000000 
#    z -0.054050 0.000000 1.594720 
# 
# From -- ./inp_files/64147.got.cif
#   From: 2010.06.25/outbox.cif.g09.slc.cpg/sg11_33_cif.got.tgz:64147.got - 2010.06.27 23:14:04.
