data_PCOD8069297
_publ_section_title
;
Structure prediction by ZEFSAII (Michael W. Deem and Ramdas Pophale) SiO2 
 PCOD8069297
Probable space group: P 21/M
;
_chemical_formula_sum "Si O2"
_cell_formula_units_Z 32
_cell_length_a 25.326867
_cell_length_b 11.148059
_cell_length_c 13.548199
_cell_angle_alpha 90.000000
_cell_angle_beta 28.135961
_cell_angle_gamma 90.000000
_cell_volume 1803.865983
_symmetry_space_group_name_H-M "P 21/M"
_symmetry_group_IT_number 11
_symmetry_cell_setting 'monoclinic'
loop_
_space_group_symop_operation_xyz
x,y,z
-x,1/2+y,-z
-x,-y,-z
x,1/2-y,z
loop_
_atom_site_type_symbol
_atom_site_label
_atom_site_fract_x
_atom_site_fract_y
_atom_site_fract_z
Si Si1 0.353250 0.115452 0.909416
Si Si2 0.846972 0.504728 0.650004
Si Si3 0.889562 0.884620 0.061811
Si Si4 0.073984 0.618618 0.295744
Si Si5 0.757285 0.960712 0.100975
Si Si6 0.213376 0.611788 0.662501
Si Si7 0.600539 0.112702 0.491476
Si Si8 0.862006 0.116020 0.422523
O O1 0.361122 0.250000 0.936694
O O2 0.274844 0.043036 0.112611
O O3 0.303845 0.118219 0.880386
O O4 0.476820 0.055090 0.706736
O O5 0.892690 0.397860 0.644281
O O6 0.830656 0.470204 0.563436
O O7 0.939754 0.609214 0.505277
O O8 0.881601 0.750000 0.125584
O O9 0.804460 0.877602 0.110046
O O10 0.863346 0.001340 0.172299
O O11 0.014095 0.908991 0.820528
O O12 0.111064 0.750000 0.201209
O O13 0.136097 0.526246 0.122403
O O14 0.667684 0.053538 0.291495
O O15 0.167159 0.750000 0.761354
O O16 0.335246 0.598013 0.510279
O O17 0.223204 0.595289 0.528467
O O18 0.586563 0.250000 0.483269
O O19 0.851333 0.250000 0.481219
#
# Coordination Sequence:
#
# PCOD8069297 Si02
#       8
#     4   4   4   4   4   4   4   4
#     4  10  20  33  49  71 103 138 174 212 256 308
#     4  10  20  33  47  72 100 135 171 208 252 308
#     4  10  19  32  51  78 109 136 167 210 266 317
#     4  10  19  31  48  72 103 134 166 209 258 306
#     4  10  18  31  51  76 102 133 169 207 258 312
#     4   9  19  35  55  76 102 136 177 218 260 305
#     4   9  18  33  52  74  99 133 173 218 262 304
#     4  10  19  34  53  74 101 135 173 210 255 312
#
# _framework density 17.739677
#
# number of rings (size 3 to 8) (size 9 to 14) (size 15 to 20)
#    0.000    2.250    1.250    2.250    0.000    0.500 
#    0.000    1.875    0.000   10.500    0.000    0.000 
#    0.000    0.000    0.000    0.000    0.000    0.000 
#
# Total GULP energy -396573.358145 kJ/mol
# GULP energy per Si atom -12392.917442 kJ/mol
# Density = 1.769930 g / cm^3
# Si number density = 17.739677 Si / 1000 Ang^3
#
#
#
# Elastic Constant Matrix: (Units=GPa)
#
#
# Indices 1 2 3 4 5 6 
#
# 1 76.9469 22.8886 32.8867 0.0000 10.0927 0.0000
# 2 22.8886 78.5119 26.1689 0.0000 8.0699 0.0000
# 3 32.8867 26.1689 88.9066 0.0000 -6.5092 0.0000
# 4 0.0000 0.0000 0.0000 15.6921 0.0000 -0.6941
# 5 10.0927 8.0699 -6.5092 0.0000 27.0825 0.0000
# 6 0.0000 0.0000 0.0000 -0.6941 0.0000 12.7026
#
#
#
# Elastic Compliance Matrix: (Units=1/GPa)
#
#
# Indices 1 2 3 4 5 6 
#
# 1 0.017293 -0.002196 -0.006285 0.000000 -0.007301 0.000000
# 2 -0.002196 0.015191 -0.004001 0.000000 -0.004670 0.000000
# 3 -0.006285 -0.004001 0.015278 0.000000 0.007206 0.000000
# 4 0.000000 0.000000 0.000000 0.063881 0.000000 0.003491
# 5 -0.007301 -0.004670 0.007206 0.000000 0.042768 0.000000
# 6 0.000000 0.000000 0.000000 0.003491 0.000000 0.078915
#
#
# Mechanical properties :
#
#
# Convention : Reuss Voigt Hill
#
# Bulk Modulus (GPa) = 43.86384 45.36154 44.61269
# Shear Modulus (GPa) = 18.80493 21.92352 20.36423
#
# Velocity S-wave (km/s) = 3.25937 3.51927 3.39181
# Velocity P-wave (km/s) = 6.24057 6.49153 6.36729
#
# Compressibility (1/GPa) = 0.02279782
#
# Stress axis : x y z
#
# Youngs Moduli (GPa) = 57.82720 65.83003 65.45511
#
# Poissons Ratio (x) = 0.14458 0.41137
# Poissons Ratio (y) = 0.12700 0.26187
# Poissons Ratio (z) = 0.36343 0.26337
#
# Static dielectric constant tensor:
#      x y z
#    x 3.397240 0.000000 -0.095810 
#    y 0.000000 3.250430 0.000000 
#    z -0.095810 0.000000 3.160950 
# 
# 
# High freq. dielectric constant tensor:
#      x y z
#    x 1.688150 0.000000 -0.005560 
#    y 0.000000 1.681970 0.000000 
#    z -0.005560 0.000000 1.667800 
# 
# From -- ./inp_files/35091.got.cif
#   From: 2010.06.25/outbox.cif.g09.slc.cpg/sg11_18_cif.got.tgz:35091.got - 2010.06.27 23:14:04.
