data_PCOD8069768
_publ_section_title
;
Structure prediction by ZEFSAII (Michael W. Deem and Ramdas Pophale) SiO2 
 PCOD8069768
Probable space group: P 21/M
;
_chemical_formula_sum "Si O2"
_cell_formula_units_Z 28
_cell_length_a 9.654529
_cell_length_b 8.575579
_cell_length_c 28.496286
_cell_angle_alpha 90.000000
_cell_angle_beta 141.199139
_cell_angle_gamma 90.000000
_cell_volume 1478.372766
_symmetry_space_group_name_H-M "P 21/M"
_symmetry_group_IT_number 11
_symmetry_cell_setting 'monoclinic'
loop_
_space_group_symop_operation_xyz
x,y,z
-x,1/2+y,-z
-x,-y,-z
x,1/2-y,z
loop_
_atom_site_type_symbol
_atom_site_label
_atom_site_fract_x
_atom_site_fract_y
_atom_site_fract_z
Si Si1 0.579241 0.566853 0.740662
Si Si2 0.247821 0.934471 0.818231
Si Si3 0.299752 0.568258 0.047531
Si Si4 0.786069 0.432649 0.706659
Si Si5 0.305754 0.433969 0.417523
Si Si6 0.180415 0.566658 0.696055
Si Si7 0.877305 0.431130 0.897334
O O1 0.570507 0.750000 0.727675
O O2 0.612319 0.473936 0.701314
O O3 0.346797 0.501839 0.700508
O O4 0.774785 0.533252 0.828843
O O5 0.274672 0.750000 0.828180
O O6 0.245247 0.999802 0.764238
O O7 0.451407 0.015180 0.898864
O O8 0.016766 0.983424 0.780819
O O9 0.268231 0.750000 0.029590
O O10 0.247752 0.524625 0.087672
O O11 0.135195 0.474618 0.970037
O O12 0.826705 0.250000 0.714558
O O13 0.683287 0.491486 0.630895
O O14 0.500000 0.500000 0.500000
O O15 0.329172 0.250000 0.417806
O O16 0.074042 0.478079 0.381953
O O17 0.210207 0.750000 0.706603
O O18 0.852883 0.250000 0.878346
#
# Coordination Sequence:
#
# PCOD8069768 Si02
#       7
#     4   4   4   4   4   4   4
#     4  11  20  36  57  81 111 148 186 230 280 332
#     4  10  18  34  56  80 107 144 189 236 279 329
#     4  10  19  31  50  78 109 145 189 236 281 329
#     4  11  23  38  56  83 115 149 183 226 275 333
#     4  10  20  39  63  90 115 145 181 224 271 326
#     4   8  17  32  56  83 109 140 182 225 269 322
#     4  10  20  32  49  77 111 147 186 234 281 329
#
# _framework density 18.939741999999999
#
# number of rings (size 3 to 8) (size 9 to 14) (size 15 to 20)
#    0.000    2.000    1.429    4.286    0.000    1.143 
#    0.000    3.571    0.000    0.000    0.000    0.000 
#    0.000    0.000    0.000    0.000    0.000    0.000 
#
# Total GULP energy -347239.944006 kJ/mol
# GULP energy per Si atom -12401.426572 kJ/mol
# Density = 1.889663 g / cm^3
# Si number density = 18.939742 Si / 1000 Ang^3
#
#
#
# Elastic Constant Matrix: (Units=GPa)
#
#
# Indices 1 2 3 4 5 6 
#
# 1 107.5709 19.3886 42.6106 0.0000 7.4746 0.0000
# 2 19.3886 63.3260 21.6146 0.0000 -0.3267 0.0000
# 3 42.6106 21.6146 105.0660 0.0000 15.4651 0.0000
# 4 0.0000 0.0000 0.0000 33.5604 0.0000 0.4995
# 5 7.4746 -0.3267 15.4651 0.0000 24.2211 0.0000
# 6 0.0000 0.0000 0.0000 0.4995 0.0000 25.3802
#
#
#
# Elastic Compliance Matrix: (Units=1/GPa)
#
#
# Indices 1 2 3 4 5 6 
#
# 1 0.011336 -0.002102 -0.004024 0.000000 -0.000957 0.000000
# 2 -0.002102 0.017537 -0.003185 0.000000 0.002919 0.000000
# 3 -0.004024 -0.003185 0.012835 0.000000 -0.006996 0.000000
# 4 0.000000 0.000000 0.000000 0.029806 0.000000 -0.000587
# 5 -0.000957 0.002919 -0.006996 0.000000 0.046088 0.000000
# 6 0.000000 0.000000 0.000000 -0.000587 0.000000 0.039412
#
#
# Mechanical properties :
#
#
# Convention : Reuss Voigt Hill
#
# Bulk Modulus (GPa) = 43.31712 49.24339 46.28025
# Shear Modulus (GPa) = 27.27317 29.45563 28.36440
#
# Velocity S-wave (km/s) = 3.79885 3.94792 3.87410
# Velocity P-wave (km/s) = 6.49325 6.84382 6.67084
#
# Compressibility (1/GPa) = 0.02308556
#
# Stress axis : x y z
#
# Youngs Moduli (GPa) = 88.21831 57.02216 77.91344
#
# Poissons Ratio (x) = 0.11987 0.31351
# Poissons Ratio (y) = 0.18544 0.24814
# Poissons Ratio (z) = 0.35498 0.18161
#
# Static dielectric constant tensor:
#      x y z
#    x 3.531880 0.000000 0.187880 
#    y 0.000000 3.365120 0.000000 
#    z 0.187880 0.000000 3.348050 
# 
# 
# High freq. dielectric constant tensor:
#      x y z
#    x 1.724320 0.000000 0.015970 
#    y 0.000000 1.737600 0.000000 
#    z 0.015970 0.000000 1.725030 
# 
# From -- ./inp_files/28293.got.cif
#   From: 2010.06.25/outbox.cif.g09.slc.cpg/sg11_15_cif.got.tgz:28293.got - 2010.06.27 23:14:04.
