data_PCOD8069139
_publ_section_title
;
Structure prediction by ZEFSAII (Michael W. Deem and Ramdas Pophale) SiO2 
 PCOD8069139
Probable space group: P 21/M
;
_chemical_formula_sum "Si O2"
_cell_formula_units_Z 28
_cell_length_a 14.194302
_cell_length_b 9.218882
_cell_length_c 17.552711
_cell_angle_alpha 90.000000
_cell_angle_beta 136.617481
_cell_angle_gamma 90.000000
_cell_volume 1577.641756
_symmetry_space_group_name_H-M "P 21/M"
_symmetry_group_IT_number 11
_symmetry_cell_setting 'monoclinic'
loop_
_space_group_symop_operation_xyz
x,y,z
-x,1/2+y,-z
-x,-y,-z
x,1/2-y,z
loop_
_atom_site_type_symbol
_atom_site_label
_atom_site_fract_x
_atom_site_fract_y
_atom_site_fract_z
Si Si1 0.323793 0.077795 0.164464
Si Si2 0.135513 0.918043 0.604180
Si Si3 0.836707 0.919727 0.781270
Si Si4 0.929613 0.415472 0.267590
Si Si5 0.849268 0.083993 0.056162
Si Si6 0.801437 0.079536 0.609904
Si Si7 0.628397 0.420460 0.365063
O O1 0.322771 0.250000 0.158665
O O2 0.234466 0.024194 0.183738
O O3 0.477208 0.013713 0.263611
O O4 0.259757 0.016713 0.049584
O O5 0.115266 0.750000 0.570718
O O6 0.160312 0.938819 0.709283
O O7 0.266075 0.983942 0.635969
O O8 0.000000 0.000000 0.500000
O O9 0.811754 0.750000 0.753339
O O10 0.997449 0.956772 0.880808
O O11 0.768055 0.003070 0.670192
O O12 0.985446 0.250000 0.294997
O O13 0.835395 0.446870 0.138471
O O14 0.059002 0.521686 0.345753
O O15 0.816133 0.250000 0.016667
O O16 0.817080 0.250000 0.632474
O O17 0.678347 0.042195 0.479617
O O18 0.619655 0.250000 0.348116
#
# Coordination Sequence:
#
# PCOD8069139 Si02
#       7
#     4   4   4   4   4   4   4
#     4  10  20  35  52  70  98 138 173 202 245 299
#     4  10  18  32  54  77 102 132 164 200 246 297
#     4   9  19  34  52  73  99 131 168 208 251 298
#     4   9  18  32  52  76 102 131 162 203 253 296
#     4   9  18  33  50  72  99 126 167 215 251 285
#     4  10  18  30  50  76 103 129 163 207 250 293
#     4   9  19  33  49  74 106 133 162 204 250 295
#
# _framework density 17.748007999999999
#
# number of rings (size 3 to 8) (size 9 to 14) (size 15 to 20)
#    0.000    2.571    1.429    1.714    0.000    3.429 
#    0.000    2.857    0.000    0.000    0.000    0.000 
#    0.000    0.000    0.000    0.000    0.000    0.000 
#
# Total GULP energy -347178.197272 kJ/mol
# GULP energy per Si atom -12399.221331 kJ/mol
# Density = 1.770761 g / cm^3
# Si number density = 17.748008 Si / 1000 Ang^3
#
#
#
# Elastic Constant Matrix: (Units=GPa)
#
#
# Indices 1 2 3 4 5 6 
#
# 1 82.0654 25.2173 64.5457 0.0000 -9.9018 0.0000
# 2 25.2173 43.3634 42.9233 0.0000 -3.1010 0.0000
# 3 64.5457 42.9233 138.4451 0.0000 -4.2868 0.0000
# 4 0.0000 0.0000 0.0000 29.7610 0.0000 -4.4811
# 5 -9.9018 -3.1010 -4.2868 0.0000 24.3070 0.0000
# 6 0.0000 0.0000 0.0000 -4.4811 0.0000 19.3321
#
#
#
# Elastic Compliance Matrix: (Units=1/GPa)
#
#
# Indices 1 2 3 4 5 6 
#
# 1 0.020545 -0.003176 -0.008393 0.000000 0.006484 0.000000
# 2 -0.003176 0.033907 -0.008987 0.000000 0.001447 0.000000
# 3 -0.008393 -0.008987 0.013857 0.000000 -0.002122 0.000000
# 4 0.000000 0.000000 0.000000 0.034816 0.000000 0.008070
# 5 0.006484 0.001447 -0.002122 0.000000 0.043592 0.000000
# 6 0.000000 0.000000 0.000000 0.008070 0.000000 0.053598
#
#
# Mechanical properties :
#
#
# Convention : Reuss Voigt Hill
#
# Bulk Modulus (GPa) = 36.76920 58.80517 47.78719
# Shear Modulus (GPa) = 19.96066 23.42585 21.69325
#
# Velocity S-wave (km/s) = 3.35725 3.63700 3.49992
# Velocity P-wave (km/s) = 5.98252 7.13038 6.58152
#
# Compressibility (1/GPa) = 0.02719668
#
# Stress axis : x y z
#
# Youngs Moduli (GPa) = 48.67396 29.49225 72.16770
#
# Poissons Ratio (x) = 0.09367 0.60570
# Poissons Ratio (y) = 0.15460 0.64857
# Poissons Ratio (z) = 0.40852 0.26505
#
# Static dielectric constant tensor:
#      x y z
#    x 3.528720 0.000000 -0.131790 
#    y 0.000000 3.123140 0.000000 
#    z -0.131790 0.000000 3.282270 
# 
# 
# High freq. dielectric constant tensor:
#      x y z
#    x 1.684840 0.000000 -0.018260 
#    y 0.000000 1.669950 0.000000 
#    z -0.018260 0.000000 1.681660 
# 
# From -- ./inp_files/37194.got.cif
#   From: 2010.06.25/outbox.cif.g09.slc.cpg/sg11_19_cif.got.tgz:37194.got - 2010.06.27 23:14:04.
