data_PCOD8069965
_publ_section_title
;
Structure prediction by ZEFSAII (Michael W. Deem and Ramdas Pophale) SiO2 
 PCOD8069965
Probable space group: P 21/M
;
_chemical_formula_sum "Si O2"
_cell_formula_units_Z 32
_cell_length_a 20.663883
_cell_length_b 9.182544
_cell_length_c 29.091562
_cell_angle_alpha 90.000000
_cell_angle_beta 158.577294
_cell_angle_gamma 90.000000
_cell_volume 2016.169949
_symmetry_space_group_name_H-M "P 21/M"
_symmetry_group_IT_number 11
_symmetry_cell_setting 'monoclinic'
loop_
_space_group_symop_operation_xyz
x,y,z
-x,1/2+y,-z
-x,-y,-z
x,1/2-y,z
loop_
_atom_site_type_symbol
_atom_site_label
_atom_site_fract_x
_atom_site_fract_y
_atom_site_fract_z
Si Si1 0.392986 0.420601 0.791151
Si Si2 0.147924 0.917893 0.569570
Si Si3 0.705257 0.084145 0.542550
Si Si4 0.574949 0.078155 0.594031
Si Si5 0.984727 0.077998 0.294059
Si Si6 0.078730 0.588788 0.220524
Si Si7 0.213510 0.579610 0.929046
Si Si8 0.899519 0.915708 0.326488
O O1 0.391087 0.250000 0.778760
O O2 0.334222 0.505464 0.705675
O O3 0.260881 0.457615 0.745576
O O4 0.587104 0.478246 0.933263
O O5 0.154062 0.750000 0.588702
O O6 0.090889 0.932007 0.478429
O O7 0.000000 0.000000 0.500000
O O8 0.669811 0.250000 0.503295
O O9 0.804280 0.077858 0.656385
O O10 0.517502 0.997813 0.422911
O O11 0.826161 0.002821 0.584862
O O12 0.529055 0.250000 0.562330
O O13 0.789175 0.053760 0.735076
O O14 0.500000 0.000000 0.500000
O O15 0.016585 0.250000 0.316447
O O16 0.857276 0.031885 0.167712
O O17 0.889188 0.025475 0.277141
O O18 0.999933 0.750000 0.163026
O O19 0.911589 0.481847 0.113018
O O20 0.207974 0.750000 0.931020
O O21 0.875720 0.750000 0.293283
#
# Coordination Sequence:
#
# PCOD8069965 Si02
#       8
#     4   4   4   4   4   4   4   4
#     4   9  18  32  47  63  85 112 142 179 219 254
#     4   9  17  30  48  67  84 104 134 176 222 261
#     4   9  16  26  39  55  78 109 142 175 213 251
#     4   9  15  23  36  55  78 105 140 177 211 248
#     4  10  19  29  42  61  86 116 148 177 208 252
#     4   8  15  25  37  55  79 108 140 173 208 247
#     4   9  18  30  42  59  86 117 146 177 211 248
#     4   9  18  31  45  61  84 111 139 176 219 256
#
# _framework density 15.871677999999999
#
# number of rings (size 3 to 8) (size 9 to 14) (size 15 to 20)
#    0.000    3.000    0.000    3.000    0.000    7.500 
#    0.000    0.000    0.000    0.000    0.000    0.000 
#    0.000    1.000    0.000    3.250    0.000    5.625 
#
# Total GULP energy -396541.783186 kJ/mol
# GULP energy per Si atom -12391.930725 kJ/mol
# Density = 1.583555 g / cm^3
# Si number density = 15.871678 Si / 1000 Ang^3
#
#
#
# Elastic Constant Matrix: (Units=GPa)
#
#
# Indices 1 2 3 4 5 6 
#
# 1 46.5231 29.0016 47.7457 0.0000 22.1486 0.0000
# 2 29.0016 74.7101 43.7207 0.0000 9.8987 0.0000
# 3 47.7457 43.7207 83.1180 0.0000 15.5418 0.0000
# 4 0.0000 0.0000 0.0000 22.2954 0.0000 3.8197
# 5 22.1486 9.8987 15.5418 0.0000 16.4221 0.0000
# 6 0.0000 0.0000 0.0000 3.8197 0.0000 28.1926
#
#
#
# Elastic Compliance Matrix: (Units=1/GPa)
#
#
# Indices 1 2 3 4 5 6 
#
# 1 0.164743 -0.007042 -0.060966 0.000000 -0.160248 0.000000
# 2 -0.007042 0.019721 -0.007146 0.000000 0.004373 0.000000
# 3 -0.060966 -0.007146 0.042076 0.000000 0.046712 0.000000
# 4 0.000000 0.000000 0.000000 0.045918 0.000000 -0.006221
# 5 -0.160248 0.004373 0.046712 0.000000 0.230177 0.000000
# 6 0.000000 0.000000 0.000000 -0.006221 0.000000 0.036313
#
#
# Mechanical properties :
#
#
# Convention : Reuss Voigt Hill
#
# Bulk Modulus (GPa) = 13.11767 49.47636 31.29701
# Shear Modulus (GPa) = 6.99625 18.97423 12.98524
#
# Velocity S-wave (km/s) = 2.10180 3.46132 2.86342
# Velocity P-wave (km/s) = 3.76469 6.87130 5.54020
#
# Compressibility (1/GPa) = 0.07623307
#
# Stress axis : x y z
#
# Youngs Moduli (GPa) = 6.07004 50.70696 23.76624
#
# Poissons Ratio (x) = 0.35707 1.44893
# Poissons Ratio (y) = 0.04274 0.16984
# Poissons Ratio (z) = 0.37007 0.36236
#
# Static dielectric constant tensor:
#      x y z
#    x 3.060640 0.000000 0.263660 
#    y 0.000000 3.142820 0.000000 
#    z 0.263660 0.000000 3.307610 
# 
# 
# High freq. dielectric constant tensor:
#      x y z
#    x 1.585890 0.000000 0.027010 
#    y 0.000000 1.621340 0.000000 
#    z 0.027010 0.000000 1.574920 
# 
# From -- ./inp_files/42445.got.cif
#   From: 2010.06.25/outbox.cif.g09.slc.cpg/sg11_22_cif.got.tgz:42445.got - 2010.06.27 23:14:04.
