data_PCOD8069587
_publ_section_title
;
Structure prediction by ZEFSAII (Michael W. Deem and Ramdas Pophale) SiO2 
 PCOD8069587
Probable space group: P 21/M
;
_chemical_formula_sum "Si O2"
_cell_formula_units_Z 32
_cell_length_a 11.314656
_cell_length_b 11.589080
_cell_length_c 20.312907
_cell_angle_alpha 90.000000
_cell_angle_beta 40.957928
_cell_angle_gamma 90.000000
_cell_volume 1745.975670
_symmetry_space_group_name_H-M "P 21/M"
_symmetry_group_IT_number 11
_symmetry_cell_setting 'monoclinic'
loop_
_space_group_symop_operation_xyz
x,y,z
-x,1/2+y,-z
-x,-y,-z
x,1/2-y,z
loop_
_atom_site_type_symbol
_atom_site_label
_atom_site_fract_x
_atom_site_fract_y
_atom_site_fract_z
Si Si1 0.489627 0.615352 0.654742
Si Si2 0.996202 0.877899 0.541682
Si Si3 0.197924 0.494464 0.557022
Si Si4 0.160390 0.618644 0.705981
Si Si5 0.830513 0.118646 0.725892
Si Si6 0.620609 0.945545 0.737270
Si Si7 0.229837 0.032506 0.122705
Si Si8 0.440341 0.876685 0.943863
O O1 0.530120 0.750000 0.649459
O O2 0.622168 0.567118 0.542996
O O3 0.286306 0.593528 0.715990
O O4 0.517224 0.546559 0.711236
O O5 0.033753 0.750000 0.491315
O O6 0.797561 0.864888 0.656593
O O7 0.146249 0.892640 0.535472
O O8 0.000000 0.000000 0.500000
O O9 0.222122 0.533599 0.621889
O O10 0.035533 0.402585 0.616942
O O11 0.185773 0.750000 0.671653
O O12 0.954630 0.599300 0.814703
O O13 0.785664 0.250000 0.753245
O O14 0.690949 0.071535 0.729770
O O15 0.798200 0.062359 0.809803
O O16 0.486348 0.894914 0.848035
O O17 0.381448 0.119838 0.085270
O O18 0.294891 0.971310 0.028185
O O19 0.354799 0.750000 0.987372
#
# Coordination Sequence:
#
# PCOD8069587 Si02
#       8
#     4   4   4   4   4   4   4   4
#     4  11  21  35  53  75 107 149 188 224 266 317
#     4  11  21  33  53  79 111 144 178 225 276 325
#     4  10  20  34  52  79 105 139 186 227 266 320
#     4  10  21  37  56  75 105 144 183 226 269 319
#     4   9  18  32  52  78 110 142 173 225 284 324
#     4  10  21  34  51  80 111 141 184 222 262 329
#     4   9  19  33  53  83 106 130 175 222 272 329
#     4  10  18  32  57  80 104 134 167 220 278 328
#
# _framework density 18.327863000000001
#
# number of rings (size 3 to 8) (size 9 to 14) (size 15 to 20)
#    0.000    2.000    1.250    3.750    0.000    2.000 
#    0.000    1.250    0.000    6.750    0.000    0.000 
#    0.000    0.000    0.000    0.000    0.000    0.000 
#
# Total GULP energy -396603.899762 kJ/mol
# GULP energy per Si atom -12393.871868 kJ/mol
# Density = 1.828615 g / cm^3
# Si number density = 18.327863 Si / 1000 Ang^3
#
#
#
# Elastic Constant Matrix: (Units=GPa)
#
#
# Indices 1 2 3 4 5 6 
#
# 1 99.1404 25.0649 25.3109 0.0000 -4.3311 0.0000
# 2 25.0649 94.1050 8.3873 0.0000 5.6061 0.0000
# 3 25.3109 8.3873 79.8025 0.0000 6.8347 0.0000
# 4 0.0000 0.0000 0.0000 9.2330 0.0000 -2.6865
# 5 -4.3311 5.6061 6.8347 0.0000 21.6742 0.0000
# 6 0.0000 0.0000 0.0000 -2.6865 0.0000 14.9137
#
#
#
# Elastic Compliance Matrix: (Units=1/GPa)
#
#
# Indices 1 2 3 4 5 6 
#
# 1 0.012063 -0.003132 -0.003877 0.000000 0.004443 0.000000
# 2 -0.003132 0.011672 0.000081 0.000000 -0.003670 0.000000
# 3 -0.003877 0.000081 0.014204 0.000000 -0.005275 0.000000
# 4 0.000000 0.000000 0.000000 0.114298 0.000000 0.020589
# 5 0.004443 -0.003670 -0.005275 0.000000 0.049638 0.000000
# 6 0.000000 0.000000 0.000000 0.020589 0.000000 0.070761
#
#
# Mechanical properties :
#
#
# Convention : Reuss Voigt Hill
#
# Bulk Modulus (GPa) = 41.52469 43.39711 42.46090
# Shear Modulus (GPa) = 16.97679 23.44983 20.21331
#
# Velocity S-wave (km/s) = 3.04679 3.58084 3.32456
# Velocity P-wave (km/s) = 5.92309 6.38954 6.16073
#
# Compressibility (1/GPa) = 0.02408206
#
# Stress axis : x y z
#
# Youngs Moduli (GPa) = 82.90147 85.67458 70.40316
#
# Poissons Ratio (x) = 0.26833 0.27297
# Poissons Ratio (y) = 0.25965 -0.00570
# Poissons Ratio (z) = 0.32143 -0.00694
#
# Static dielectric constant tensor:
#      x y z
#    x 3.284900 0.000000 0.014620 
#    y 0.000000 3.354360 0.000000 
#    z 0.014620 0.000000 3.403230 
# 
# 
# High freq. dielectric constant tensor:
#      x y z
#    x 1.692220 0.000000 0.008290 
#    y 0.000000 1.709320 0.000000 
#    z 0.008290 0.000000 1.704670 
# 
# From -- ./inp_files/64609.got.cif
#   From: 2010.06.25/outbox.cif.g09.slc.cpg/sg11_33_cif.got.tgz:64609.got - 2010.06.27 23:14:04.
