data_PCOD8069077
_publ_section_title
;
Structure prediction by ZEFSAII (Michael W. Deem and Ramdas Pophale) SiO2 
 PCOD8069077
Probable space group: P 21/M
;
_chemical_formula_sum "Si O2"
_cell_formula_units_Z 32
_cell_length_a 11.538209
_cell_length_b 14.072892
_cell_length_c 11.862040
_cell_angle_alpha 90.000000
_cell_angle_beta 74.528364
_cell_angle_gamma 90.000000
_cell_volume 1856.313072
_symmetry_space_group_name_H-M "P 21/M"
_symmetry_group_IT_number 11
_symmetry_cell_setting 'monoclinic'
loop_
_space_group_symop_operation_xyz
x,y,z
-x,1/2+y,-z
-x,-y,-z
x,1/2-y,z
loop_
_atom_site_type_symbol
_atom_site_label
_atom_site_fract_x
_atom_site_fract_y
_atom_site_fract_z
Si Si1 0.700042 0.142558 0.021562
Si Si2 0.314051 0.360044 0.808953
Si Si3 0.869015 0.524486 0.991635
Si Si4 0.538166 0.640998 0.019531
Si Si5 0.769238 0.638268 0.831384
Si Si6 0.606772 0.353903 0.295805
Si Si7 0.632210 0.974140 0.423432
Si Si8 0.326090 0.359920 0.381319
O O1 0.730662 0.250000 0.973797
O O2 0.668633 0.140378 0.160318
O O3 0.813744 0.076769 0.971722
O O4 0.589594 0.094695 0.979632
O O5 0.273292 0.250000 0.812472
O O6 0.204244 0.420501 0.890604
O O7 0.432311 0.371029 0.856480
O O8 0.359877 0.395292 0.676320
O O9 0.875817 0.586237 0.873344
O O10 0.000000 0.500000 0.000000
O O11 0.524887 0.750000 0.985091
O O12 0.647189 0.598032 0.919026
O O13 0.784926 0.750000 0.847324
O O14 0.761651 0.614252 0.700445
O O15 0.621822 0.250000 0.346518
O O16 0.678435 0.426258 0.359738
O O17 0.465747 0.377144 0.314334
O O18 0.709461 0.931046 0.507066
O O19 0.500000 0.000000 0.500000
O O20 0.306296 0.250000 0.421695
#
# Coordination Sequence:
#
# PCOD8069077 Si02
#       8
#     4   4   4   4   4   4   4   4
#     4  10  18  30  49  72 101 134 168 210 261 314
#     4  10  20  35  53  78 109 140 172 217 269 319
#     4  11  23  35  51  75 104 137 182 220 261 310
#     4   8  15  28  49  75 101 129 164 206 263 324
#     4   9  17  32  53  76 102 133 169 215 265 312
#     4   9  16  28  44  69 104 138 167 202 250 308
#     4  10  19  29  47  77 109 140 172 204 259 322
#     4   9  16  28  49  75 104 132 169 209 247 310
#
# _framework density 17.238472000000002
#
# number of rings (size 3 to 8) (size 9 to 14) (size 15 to 20)
#    0.000    2.500    2.500    1.500    0.000    5.500 
#    0.000    0.000    0.000    1.500    0.000    0.000 
#    0.000    0.000    0.000    0.000    0.000    0.000 
#
# Total GULP energy -396466.238282 kJ/mol
# GULP energy per Si atom -12389.569946 kJ/mol
# Density = 1.719924 g / cm^3
# Si number density = 17.238472 Si / 1000 Ang^3
#
#
#
# Elastic Constant Matrix: (Units=GPa)
#
#
# Indices 1 2 3 4 5 6 
#
# 1 100.2609 50.4534 34.9224 0.0000 20.1231 0.0000
# 2 50.4534 98.3526 42.7575 0.0000 17.6820 0.0000
# 3 34.9224 42.7575 85.3426 0.0000 27.2431 0.0000
# 4 0.0000 0.0000 0.0000 27.5849 0.0000 8.8068
# 5 20.1231 17.6820 27.2431 0.0000 23.8008 0.0000
# 6 0.0000 0.0000 0.0000 8.8068 0.0000 22.6435
#
#
#
# Elastic Compliance Matrix: (Units=1/GPa)
#
#
# Indices 1 2 3 4 5 6 
#
# 1 0.014636 -0.005897 -0.000761 0.000000 -0.007122 0.000000
# 2 -0.005897 0.015559 -0.005175 0.000000 -0.000651 0.000000
# 3 -0.000761 -0.005175 0.020783 0.000000 -0.019301 0.000000
# 4 0.000000 0.000000 0.000000 0.041391 0.000000 -0.016099
# 5 -0.007122 -0.000651 -0.019301 0.000000 0.070613 0.000000
# 6 0.000000 0.000000 0.000000 -0.016099 0.000000 0.050424
#
#
# Mechanical properties :
#
#
# Convention : Reuss Voigt Hill
#
# Bulk Modulus (GPa) = 36.61303 60.02476 48.31890
# Shear Modulus (GPa) = 20.31079 25.19403 22.75241
#
# Velocity S-wave (km/s) = 3.43625 3.82710 3.63693
# Velocity P-wave (km/s) = 6.08515 7.37732 6.76217
#
# Compressibility (1/GPa) = 0.02731268
#
# Stress axis : x y z
#
# Youngs Moduli (GPa) = 68.32507 64.27187 48.11709
#
# Poissons Ratio (x) = 0.37899 0.03663
# Poissons Ratio (y) = 0.40289 0.24899
# Poissons Ratio (z) = 0.05201 0.33258
#
# Static dielectric constant tensor:
#      x y z
#    x 2.914510 0.000000 0.321060 
#    y 0.000000 3.652660 0.000000 
#    z 0.321060 0.000000 3.240050 
# 
# 
# High freq. dielectric constant tensor:
#      x y z
#    x 1.616380 0.000000 0.027140 
#    y 0.000000 1.681960 0.000000 
#    z 0.027140 0.000000 1.650390 
# 
# From -- ./inp_files/35488.got.cif
#   From: 2010.06.25/outbox.cif.g09.slc.cpg/sg11_18_cif.got.tgz:35488.got - 2010.06.27 23:14:04.
