data_PCOD8069115
_publ_section_title
;
Structure prediction by ZEFSAII (Michael W. Deem and Ramdas Pophale) SiO2 
 PCOD8069115
Probable space group: P 21/M
;
_chemical_formula_sum "Si O2"
_cell_formula_units_Z 28
_cell_length_a 19.557467
_cell_length_b 9.069777
_cell_length_c 21.928758
_cell_angle_alpha 90.000000
_cell_angle_beta 153.108655
_cell_angle_gamma 90.000000
_cell_volume 1759.340211
_symmetry_space_group_name_H-M "P 21/M"
_symmetry_group_IT_number 11
_symmetry_cell_setting 'monoclinic'
loop_
_space_group_symop_operation_xyz
x,y,z
-x,1/2+y,-z
-x,-y,-z
x,1/2-y,z
loop_
_atom_site_type_symbol
_atom_site_label
_atom_site_fract_x
_atom_site_fract_y
_atom_site_fract_z
Si Si1 0.594417 0.084077 0.160494
Si Si2 0.572906 0.424589 0.500007
Si Si3 0.466218 0.084203 0.647582
Si Si4 0.142747 0.923139 0.844902
Si Si5 0.547015 0.076861 0.844867
Si Si6 0.828973 0.584204 0.647615
Si Si7 0.726568 0.584077 0.160483
O O1 0.650898 0.250000 0.216771
O O2 0.575329 0.003533 0.209972
O O3 0.719630 1.000000 0.219625
O O4 0.436838 0.082548 0.000005
O O5 0.500000 0.500000 0.500000
O O6 0.565243 0.250000 0.500006
O O7 0.479982 0.479659 0.365798
O O8 0.748400 0.479658 0.634223
O O9 0.530730 0.250000 0.689090
O O10 0.524332 0.019513 0.757885
O O11 0.282029 0.088282 0.499980
O O12 0.134132 0.750000 0.824730
O O13 0.283033 0.963240 0.000018
O O14 0.991470 0.980485 0.757928
O O15 0.155398 0.003533 0.790051
O O16 0.515288 0.250000 0.824697
O O17 0.847468 0.750000 0.689117
O O18 0.782642 0.750000 0.216760
#
# Coordination Sequence:
#
# PCOD8069115 Si02
#       7
#     4   4   4   4   4   4   4
#     4   9  16  25  38  58  85 116 151 189 225 260
#     4  10  18  30  50  72  91 114 147 182 214 252
#     4   8  16  30  46  67  92 118 145 177 216 260
#     4   9  16  27  45  67  91 118 147 181 222 264
#     4   9  16  27  45  67  91 118 147 181 222 264
#     4   8  16  30  46  67  92 118 145 177 216 260
#     4   9  16  25  38  58  85 116 151 189 225 260
#
# _framework density 15.915056999999999
#
# number of rings (size 3 to 8) (size 9 to 14) (size 15 to 20)
#    0.857    2.286    0.000    1.714    0.000    4.571 
#    0.000    0.000    0.000    1.714    0.000    0.000 
#    0.000    0.000    0.000    0.000    0.000    0.000 
#
# Total GULP energy -346944.800402 kJ/mol
# GULP energy per Si atom -12390.885729 kJ/mol
# Density = 1.587883 g / cm^3
# Si number density = 15.915057 Si / 1000 Ang^3
#
#
#
# Elastic Constant Matrix: (Units=GPa)
#
#
# Indices 1 2 3 4 5 6 
#
# 1 157.9435 76.8295 47.5877 0.0000 0.5984 0.0000
# 2 76.8295 103.6332 25.8761 0.0000 0.4791 0.0000
# 3 47.5877 25.8761 40.0892 0.0000 0.5043 0.0000
# 4 0.0000 0.0000 0.0000 13.4886 0.0000 0.1819
# 5 0.5984 0.4791 0.5043 0.0000 23.0473 0.0000
# 6 0.0000 0.0000 0.0000 0.1819 0.0000 32.6381
#
#
#
# Elastic Compliance Matrix: (Units=1/GPa)
#
#
# Indices 1 2 3 4 5 6 
#
# 1 0.012988 -0.006890 -0.010971 0.000000 0.000046 0.000000
# 2 -0.006890 0.015158 -0.001604 0.000000 -0.000101 0.000000
# 3 -0.010971 -0.001604 0.039010 0.000000 -0.000535 0.000000
# 4 0.000000 0.000000 0.000000 0.074142 0.000000 -0.000413
# 5 0.000046 -0.000101 -0.000535 0.000000 0.043402 0.000000
# 6 0.000000 0.000000 0.000000 -0.000413 0.000000 0.030641
#
#
# Mechanical properties :
#
#
# Convention : Reuss Voigt Hill
#
# Bulk Modulus (GPa) = 35.42848 66.91694 51.17271
# Shear Modulus (GPa) = 18.96237 23.92632 21.44434
#
# Velocity S-wave (km/s) = 3.45552 3.88155 3.67471
# Velocity P-wave (km/s) = 6.18305 7.88835 7.08718
#
# Compressibility (1/GPa) = 0.02822588
#
# Stress axis : x y z
#
# Youngs Moduli (GPa) = 76.99323 65.97055 25.63459
#
# Poissons Ratio (x) = 0.45452 0.28124
# Poissons Ratio (y) = 0.53046 0.04113
# Poissons Ratio (z) = 0.84469 0.10584
#
# Static dielectric constant tensor:
#      x y z
#    x 3.003650 0.000000 0.003120 
#    y 0.000000 3.072240 0.000000 
#    z 0.003120 0.000000 2.675160 
# 
# 
# High freq. dielectric constant tensor:
#      x y z
#    x 1.607420 0.000000 0.000430 
#    y 0.000000 1.615020 0.000000 
#    z 0.000430 0.000000 1.562320 
# 
# From -- ./inp_files/66006.got.cif
#   From: 2010.06.25/outbox.cif.g09.slc.cpg/sg11_34_cif.got.tgz:66006.got - 2010.06.27 23:14:04.
