data_PCOD8069649
_publ_section_title
;
Structure prediction by ZEFSAII (Michael W. Deem and Ramdas Pophale) SiO2 
 PCOD8069649
Probable space group: P 21/M
;
_chemical_formula_sum "Si O2"
_cell_formula_units_Z 28
_cell_length_a 11.412110
_cell_length_b 18.544601
_cell_length_c 14.217859
_cell_angle_alpha 90.000000
_cell_angle_beta 151.536804
_cell_angle_gamma 90.000000
_cell_volume 1434.056808
_symmetry_space_group_name_H-M "P 21/M"
_symmetry_group_IT_number 11
_symmetry_cell_setting 'monoclinic'
loop_
_space_group_symop_operation_xyz
x,y,z
-x,1/2+y,-z
-x,-y,-z
x,1/2-y,z
loop_
_atom_site_type_symbol
_atom_site_label
_atom_site_fract_x
_atom_site_fract_y
_atom_site_fract_z
Si Si1 0.382657 0.043388 0.804710
Si Si2 0.031098 0.667901 0.302010
Si Si3 0.769520 0.940131 0.985326
Si Si4 0.813726 0.539963 0.664387
Si Si5 0.936206 0.668207 0.453527
Si Si6 0.180082 0.920023 0.766568
Si Si7 0.516839 0.912718 0.619370
O O1 0.268781 0.108317 0.662331
O O2 0.538453 0.988151 0.852926
O O3 0.164865 0.997639 0.702158
O O4 0.548749 0.084525 0.998679
O O5 0.980647 0.750000 0.238761
O O6 0.010165 0.655207 0.398544
O O7 0.310295 0.648885 0.471243
O O8 0.827967 0.620902 0.104169
O O9 0.699495 0.903731 0.837016
O O10 0.010360 0.990036 0.146516
O O11 0.611323 0.491359 0.468304
O O12 0.678622 0.595842 0.638668
O O13 0.970724 0.583679 0.698627
O O14 0.847454 0.750000 0.408974
O O15 0.160038 0.648205 0.681616
#
# Coordination Sequence:
#
# PCOD8069649 Si02
#       7
#     4   4   4   4   4   4   4
#     4  10  19  33  56  80 105 137 177 219 264 318
#     4  10  22  36  51  78 109 138 180 225 267 319
#     4  10  19  34  57  82 107 138 178 226 269 310
#     4   9  19  32  53  82 105 130 176 221 255 314
#     4  11  22  35  53  78 109 141 174 218 270 322
#     4  10  19  34  54  78 107 140 173 215 264 313
#     4  10  18  33  55  77 104 138 172 217 270 311
#
# _framework density 19.525029
#
# number of rings (size 3 to 8) (size 9 to 14) (size 15 to 20)
#    0.000    2.000    0.000    6.000    0.000    1.143 
#    0.000    4.286    0.000    0.857    0.000    0.000 
#    0.000    0.000    0.000    0.000    0.000    0.000 
#
# Total GULP energy -347122.735275 kJ/mol
# GULP energy per Si atom -12397.240546 kJ/mol
# Density = 1.948059 g / cm^3
# Si number density = 19.525029 Si / 1000 Ang^3
#
#
#
# Elastic Constant Matrix: (Units=GPa)
#
#
# Indices 1 2 3 4 5 6 
#
# 1 99.5991 42.0870 38.5840 0.0000 5.1443 0.0000
# 2 42.0870 104.6986 31.0858 0.0000 1.6819 0.0000
# 3 38.5840 31.0858 66.1828 0.0000 -8.6822 0.0000
# 4 0.0000 0.0000 0.0000 25.7951 0.0000 -1.2253
# 5 5.1443 1.6819 -8.6822 0.0000 30.1744 0.0000
# 6 0.0000 0.0000 0.0000 -1.2253 0.0000 23.1038
#
#
#
# Elastic Compliance Matrix: (Units=1/GPa)
#
#
# Indices 1 2 3 4 5 6 
#
# 1 0.014683 -0.003621 -0.007442 0.000000 -0.004443 0.000000
# 2 -0.003621 0.012135 -0.003737 0.000000 -0.001134 0.000000
# 3 -0.007442 -0.003737 0.022237 0.000000 0.007875 0.000000
# 4 0.000000 0.000000 0.000000 0.038865 0.000000 0.002061
# 5 -0.004443 -0.001134 0.007875 0.000000 0.036227 0.000000
# 6 0.000000 0.000000 0.000000 0.002061 0.000000 0.043392
#
#
# Mechanical properties :
#
#
# Convention : Reuss Voigt Hill
#
# Bulk Modulus (GPa) = 51.40481 54.88824 53.14653
# Shear Modulus (GPa) = 24.55499 26.39621 25.47560
#
# Velocity S-wave (km/s) = 3.55014 3.68083 3.61607
# Velocity P-wave (km/s) = 6.57187 6.79981 6.68681
#
# Compressibility (1/GPa) = 0.01945343
#
# Stress axis : x y z
#
# Youngs Moduli (GPa) = 68.10642 82.40762 44.97061
#
# Poissons Ratio (x) = 0.29843 0.33467
# Poissons Ratio (y) = 0.24664 0.16807
# Poissons Ratio (z) = 0.50684 0.30798
#
# Static dielectric constant tensor:
#      x y z
#    x 3.457570 0.000000 -0.052210 
#    y 0.000000 3.318160 0.000000 
#    z -0.052210 0.000000 3.689270 
# 
# 
# High freq. dielectric constant tensor:
#      x y z
#    x 1.750590 0.000000 -0.005130 
#    y 0.000000 1.726460 0.000000 
#    z -0.005130 0.000000 1.774520 
# 
# From -- ./inp_files/50559.got.cif
#   From: 2010.06.25/outbox.cif.g09.slc.cpg/sg11_26_cif.got.tgz:50559.got - 2010.06.27 23:14:04.
