data_PCOD8069785
_publ_section_title
;
Structure prediction by ZEFSAII (Michael W. Deem and Ramdas Pophale) SiO2 
 PCOD8069785
Probable space group: P 21/M
;
_chemical_formula_sum "Si O2"
_cell_formula_units_Z 24
_cell_length_a 10.258130
_cell_length_b 17.693309
_cell_length_c 10.281967
_cell_angle_alpha 90.000000
_cell_angle_beta 136.948944
_cell_angle_gamma 90.000000
_cell_volume 1273.947206
_symmetry_space_group_name_H-M "P 21/M"
_symmetry_group_IT_number 11
_symmetry_cell_setting 'monoclinic'
loop_
_space_group_symop_operation_xyz
x,y,z
-x,1/2+y,-z
-x,-y,-z
x,1/2-y,z
loop_
_atom_site_type_symbol
_atom_site_label
_atom_site_fract_x
_atom_site_fract_y
_atom_site_fract_z
Si Si1 0.961783 0.839489 0.744943
Si Si2 0.645161 0.662044 0.125479
Si Si3 0.998906 0.089099 0.505408
Si Si4 0.638593 0.339832 0.857770
Si Si5 0.607847 0.161665 0.304861
Si Si6 0.554847 0.839558 0.542413
O O1 0.970113 0.750000 0.728311
O O2 0.949850 0.876886 0.596213
O O3 0.775763 0.864104 0.690850
O O4 0.146831 0.868649 0.958434
O O5 0.688622 0.750000 0.179952
O O6 0.842579 0.616585 0.276202
O O7 0.499199 0.630905 0.128166
O O8 0.557013 0.647083 0.920127
O O9 0.793967 0.115749 0.403684
O O10 0.000000 0.000000 0.500000
O O11 0.634501 0.250000 0.853000
O O12 0.567317 0.372591 0.667617
O O13 0.660886 0.250000 0.350010
O O14 0.530834 0.129327 0.385696
O O15 0.541277 0.750000 0.532292
#
# Coordination Sequence:
#
# PCOD8069785 Si02
#       6
#     4   4   4   4   4   4
#     4  10  18  34  58  81 106 143 189 232 274 334
#     4  10  19  35  61  85 107 145 191 234 279 329
#     4  12  24  36  55  84 116 154 191 229 277 334
#     4   9  16  29  56  86 106 136 182 229 278 330
#     4  10  21  38  59  87 116 142 182 240 287 324
#     4   9  18  32  56  87 113 136 176 235 289 328
#
# _framework density 18.839084
#
# number of rings (size 3 to 8) (size 9 to 14) (size 15 to 20)
#    0.000    2.000    3.333    1.500    0.000    2.000 
#    0.000    5.833    0.000    2.000    0.000    0.000 
#    0.000    0.000    0.000    0.000    0.000    0.000 
#
# Total GULP energy -297626.931257 kJ/mol
# GULP energy per Si atom -12401.122136 kJ/mol
# Density = 1.879621 g / cm^3
# Si number density = 18.839084 Si / 1000 Ang^3
#
#
#
# Elastic Constant Matrix: (Units=GPa)
#
#
# Indices 1 2 3 4 5 6 
#
# 1 87.8257 38.3214 25.9465 0.0000 -7.8968 0.0000
# 2 38.3214 49.9157 34.9095 0.0000 8.0188 0.0000
# 3 25.9465 34.9095 107.5885 0.0000 2.3586 0.0000
# 4 0.0000 0.0000 0.0000 5.9846 0.0000 3.7685
# 5 -7.8968 8.0188 2.3586 0.0000 41.9564 0.0000
# 6 0.0000 0.0000 0.0000 3.7685 0.0000 6.7456
#
#
#
# Elastic Compliance Matrix: (Units=1/GPa)
#
#
# Indices 1 2 3 4 5 6 
#
# 1 0.018691 -0.015704 0.000446 0.000000 0.006494 0.000000
# 2 -0.015704 0.039981 -0.008964 0.000000 -0.010093 0.000000
# 3 0.000446 -0.008964 0.012071 0.000000 0.001119 0.000000
# 4 0.000000 0.000000 0.000000 0.257783 0.000000 -0.144015
# 5 0.006494 -0.010093 0.001119 0.000000 0.026923 0.000000
# 6 0.000000 0.000000 0.000000 -0.144015 0.000000 0.228703
#
#
# Mechanical properties :
#
#
# Convention : Reuss Voigt Hill
#
# Bulk Modulus (GPa) = 44.84801 49.29832 47.07316
# Shear Modulus (GPa) = 7.81213 20.68081 14.24647
#
# Velocity S-wave (km/s) = 2.03857 3.31684 2.75293
# Velocity P-wave (km/s) = 5.42204 6.39480 5.92841
#
# Compressibility (1/GPa) = 0.02229753
#
# Stress axis : x y z
#
# Youngs Moduli (GPa) = 53.50226 25.01182 82.84118
#
# Poissons Ratio (x) = 0.39279 -0.03692
# Poissons Ratio (y) = 0.84022 0.74260
# Poissons Ratio (z) = -0.02385 0.22421
#
# Static dielectric constant tensor:
#      x y z
#    x 3.660630 0.000000 -0.037390 
#    y 0.000000 3.001590 0.000000 
#    z -0.037390 0.000000 3.817360 
# 
# 
# High freq. dielectric constant tensor:
#      x y z
#    x 1.736420 0.000000 0.006180 
#    y 0.000000 1.680320 0.000000 
#    z 0.006180 0.000000 1.749300 
# 
# From -- ./inp_files/14398.got.cif
#   From: 2010.06.25/outbox.cif.g09.slc.cpg/sg11_8_cif.got.tgz:14398.got - 2010.06.27 23:14:04.
