data_PCOD8069013
_publ_section_title
;
Structure prediction by ZEFSAII (Michael W. Deem and Ramdas Pophale) SiO2 
 PCOD8069013
Probable space group: P 21/M
;
_chemical_formula_sum "Si O2"
_cell_formula_units_Z 32
_cell_length_a 23.843406
_cell_length_b 8.859838
_cell_length_c 12.352526
_cell_angle_alpha 90.000000
_cell_angle_beta 133.789111
_cell_angle_gamma 90.000000
_cell_volume 1883.744225
_symmetry_space_group_name_H-M "P 21/M"
_symmetry_group_IT_number 11
_symmetry_cell_setting 'monoclinic'
loop_
_space_group_symop_operation_xyz
x,y,z
-x,1/2+y,-z
-x,-y,-z
x,1/2-y,z
loop_
_atom_site_type_symbol
_atom_site_label
_atom_site_fract_x
_atom_site_fract_y
_atom_site_fract_z
Si Si1 0.065237 0.074845 0.288661
Si Si2 0.504596 0.926931 0.389351
Si Si3 0.335657 0.926421 0.168290
Si Si4 0.343194 0.571906 0.423280
Si Si5 0.191082 0.425355 0.282635
Si Si6 0.178852 0.929085 0.859300
Si Si7 0.906790 0.926997 0.058066
Si Si8 0.076658 0.073532 0.553912
O O1 0.042947 0.250000 0.242647
O O2 0.140895 0.032426 0.320469
O O3 0.084199 0.036694 0.437810
O O4 0.995226 0.972329 0.151264
O O5 0.519676 0.750000 0.419897
O O6 0.419234 0.959272 0.222425
O O7 0.500000 0.000000 0.500000
O O8 0.576236 0.002723 0.420309
O O9 0.321490 0.750000 0.161538
O O10 0.332281 0.991987 0.286145
O O11 0.265303 0.992320 0.002388
O O12 0.350603 0.750000 0.437617
O O13 0.270887 0.518242 0.398396
O O14 0.212030 0.250000 0.307797
O O15 0.144729 0.473290 0.113319
O O16 0.176016 0.750000 0.842708
O O17 0.119879 0.977046 0.874580
O O18 0.152790 0.004325 0.712373
O O19 0.901108 0.750000 0.076019
O O20 0.072638 0.250000 0.571927
O O21 0.000000 0.000000 0.500000
#
# Coordination Sequence:
#
# PCOD8069013 Si02
#       8
#     4   4   4   4   4   4   4   4
#     4  10  22  38  53  68  96 134 169 207 256 299
#     4   9  16  28  45  69  99 132 166 200 239 294
#     4   8  16  29  46  69  98 130 163 195 241 295
#     4  10  18  30  47  71 101 135 165 196 244 299
#     4  10  21  35  50  73 100 132 169 206 247 299
#     4  11  20  33  52  73 100 134 166 203 250 296
#     4  11  21  32  50  75 100 126 167 209 246 296
#     4  11  22  36  53  73  96 128 169 213 254 298
#
# _framework density 16.987444
#
# number of rings (size 3 to 8) (size 9 to 14) (size 15 to 20)
#    0.000    2.000    2.500    3.000    0.000    1.500 
#    0.000    1.875    0.000    0.000    0.000    0.875 
#    0.000    0.000    0.000    0.000    0.000    0.000 
#
# Total GULP energy -396741.861997 kJ/mol
# GULP energy per Si atom -12398.183187 kJ/mol
# Density = 1.694878 g / cm^3
# Si number density = 16.987444 Si / 1000 Ang^3
#
#
#
# Elastic Constant Matrix: (Units=GPa)
#
#
# Indices 1 2 3 4 5 6 
#
# 1 107.0293 40.6658 50.0465 0.0000 23.1048 0.0000
# 2 40.6658 69.4597 30.2855 0.0000 10.8874 0.0000
# 3 50.0465 30.2855 68.0554 0.0000 20.8624 0.0000
# 4 0.0000 0.0000 0.0000 23.7261 0.0000 5.2461
# 5 23.1048 10.8874 20.8624 0.0000 32.0537 0.0000
# 6 0.0000 0.0000 0.0000 5.2461 0.0000 25.3527
#
#
#
# Elastic Compliance Matrix: (Units=1/GPa)
#
#
# Indices 1 2 3 4 5 6 
#
# 1 0.016093 -0.005158 -0.008146 0.000000 -0.004547 0.000000
# 2 -0.005158 0.019548 -0.005010 0.000000 0.000339 0.000000
# 3 -0.008146 -0.005010 0.025725 0.000000 -0.009170 0.000000
# 4 0.000000 0.000000 0.000000 0.044168 0.000000 -0.009140
# 5 -0.004547 0.000339 -0.009170 0.000000 0.040328 0.000000
# 6 0.000000 0.000000 0.000000 -0.009140 0.000000 0.041335
#
#
# Mechanical properties :
#
#
# Convention : Reuss Voigt Hill
#
# Bulk Modulus (GPa) = 40.42208 54.05999 47.24103
# Shear Modulus (GPa) = 21.54522 24.46294 23.00408
#
# Velocity S-wave (km/s) = 3.56519 3.79893 3.68391
# Velocity P-wave (km/s) = 6.38704 7.15088 6.77973
#
# Compressibility (1/GPa) = 0.02473896
#
# Stress axis : x y z
#
# Youngs Moduli (GPa) = 62.13787 51.15675 38.87330
#
# Poissons Ratio (x) = 0.26385 0.31665
# Poissons Ratio (y) = 0.32048 0.19476
# Poissons Ratio (z) = 0.50615 0.25630
#
# Static dielectric constant tensor:
#      x y z
#    x 3.274590 0.000000 0.322400 
#    y 0.000000 3.169170 0.000000 
#    z 0.322400 0.000000 3.366550 
# 
# 
# High freq. dielectric constant tensor:
#      x y z
#    x 1.641480 0.000000 0.027930 
#    y 0.000000 1.657780 0.000000 
#    z 0.027930 0.000000 1.638000 
# 
# From -- ./inp_files/43814.got.cif
#   From: 2010.06.25/outbox.cif.g09.slc.cpg/sg11_22_cif.got.tgz:43814.got - 2010.06.27 23:14:04.
