data_PCOD8069045
_publ_section_title
;
Structure prediction by ZEFSAII (Michael W. Deem and Ramdas Pophale) SiO2 
 PCOD8069045
Probable space group: P 21/M
;
_chemical_formula_sum "Si O2"
_cell_formula_units_Z 32
_cell_length_a 14.928367
_cell_length_b 8.873013
_cell_length_c 20.384624
_cell_angle_alpha 90.000000
_cell_angle_beta 137.275604
_cell_angle_gamma 90.000000
_cell_volume 1831.970153
_symmetry_space_group_name_H-M "P 21/M"
_symmetry_group_IT_number 11
_symmetry_cell_setting 'monoclinic'
loop_
_space_group_symop_operation_xyz
x,y,z
-x,1/2+y,-z
-x,-y,-z
x,1/2-y,z
loop_
_atom_site_type_symbol
_atom_site_label
_atom_site_fract_x
_atom_site_fract_y
_atom_site_fract_z
Si Si1 0.916355 0.929490 0.012725
Si Si2 0.111880 0.571104 0.514302
Si Si3 0.286988 0.580559 0.815147
Si Si4 0.989451 0.926710 0.665816
Si Si5 0.339246 0.418344 0.966575
Si Si6 0.615400 0.421173 0.277572
Si Si7 0.361028 0.927461 0.111864
Si Si8 0.027753 0.416959 0.814370
O O1 0.908252 0.750000 0.002498
O O2 0.989194 0.976208 0.120100
O O3 0.768602 0.993189 0.929290
O O4 0.000000 0.000000 0.000000
O O5 0.098467 0.750000 0.512851
O O6 0.102340 0.516519 0.434229
O O7 0.256388 0.517117 0.615599
O O8 0.000000 0.500000 0.500000
O O9 0.277769 0.750000 0.837057
O O10 0.375647 0.488003 0.915101
O O11 0.359039 0.568334 0.785665
O O12 0.137644 0.521130 0.727727
O O13 0.965204 0.750000 0.643914
O O14 0.956403 0.974060 0.723258
O O15 0.400671 0.250000 0.006385
O O16 0.182326 0.411025 0.883940
O O17 0.390664 0.520857 0.053439
O O18 0.584738 0.250000 0.282210
O O19 0.486953 0.523175 0.223969
O O20 0.341043 0.750000 0.104327
O O21 0.966481 0.250000 0.773749
#
# Coordination Sequence:
#
# PCOD8069045 Si02
#       8
#     4   4   4   4   4   4   4   4
#     4  10  20  36  59  85 111 136 164 201 248 305
#     4  11  21  34  51  71  97 133 178 225 268 306
#     4   9  17  30  46  66  93 129 173 215 255 300
#     4  10  18  30  48  72 100 133 173 219 262 299
#     4   9  17  30  47  67  94 130 169 209 252 298
#     4  10  21  36  49  66  96 134 174 217 261 303
#     4  11  22  35  51  73 100 133 169 208 253 303
#     4   8  16  30  48  74 103 133 166 203 247 297
#
# _framework density 17.467534000000001
#
# number of rings (size 3 to 8) (size 9 to 14) (size 15 to 20)
#    0.000    2.250    1.250    3.375    0.000    6.000 
#    0.000    0.000    0.000    0.000    0.000    0.875 
#    0.000    0.000    0.000    0.000    0.000    0.000 
#
# Total GULP energy -396715.633258 kJ/mol
# GULP energy per Si atom -12397.363539 kJ/mol
# Density = 1.742778 g / cm^3
# Si number density = 17.467534 Si / 1000 Ang^3
#
#
#
# Elastic Constant Matrix: (Units=GPa)
#
#
# Indices 1 2 3 4 5 6 
#
# 1 54.9091 28.7659 52.3854 0.0000 -7.8565 0.0000
# 2 28.7659 90.0447 51.1614 0.0000 -0.2741 0.0000
# 3 52.3854 51.1614 117.1596 0.0000 -0.8716 0.0000
# 4 0.0000 0.0000 0.0000 26.9406 0.0000 -4.0548
# 5 -7.8565 -0.2741 -0.8716 0.0000 18.5303 0.0000
# 6 0.0000 0.0000 0.0000 -4.0548 0.0000 25.0636
#
#
#
# Elastic Compliance Matrix: (Units=1/GPa)
#
#
# Indices 1 2 3 4 5 6 
#
# 1 0.035770 -0.003135 -0.014518 0.000000 0.014437 0.000000
# 2 -0.003135 0.015045 -0.005178 0.000000 -0.001350 0.000000
# 3 -0.014518 -0.005178 0.017248 0.000000 -0.005421 0.000000
# 4 0.000000 0.000000 0.000000 0.038045 0.000000 0.006155
# 5 0.014437 -0.001350 -0.005421 0.000000 0.059812 0.000000
# 6 0.000000 0.000000 0.000000 0.006155 0.000000 0.040894
#
#
# Mechanical properties :
#
#
# Convention : Reuss Voigt Hill
#
# Bulk Modulus (GPa) = 44.63979 58.52653 51.58316
# Shear Modulus (GPa) = 19.23505 22.76027 20.99766
#
# Velocity S-wave (km/s) = 3.32202 3.61363 3.47089
# Velocity P-wave (km/s) = 6.35025 7.14071 6.75705
#
# Compressibility (1/GPa) = 0.02240154
#
# Stress axis : x y z
#
# Youngs Moduli (GPa) = 27.95633 66.46664 57.97921
#
# Poissons Ratio (x) = 0.20835 0.84172
# Poissons Ratio (y) = 0.08763 0.30024
# Poissons Ratio (z) = 0.40586 0.34419
#
# Static dielectric constant tensor:
#      x y z
#    x 3.035070 0.000000 -0.152680 
#    y 0.000000 3.390830 0.000000 
#    z -0.152680 0.000000 3.415760 
# 
# 
# High freq. dielectric constant tensor:
#      x y z
#    x 1.634230 0.000000 -0.008850 
#    y 0.000000 1.681510 0.000000 
#    z -0.008850 0.000000 1.673990 
# 
# From -- ./inp_files/65241.got.cif
#   From: 2010.06.25/outbox.cif.g09.slc.cpg/sg11_33_cif.got.tgz:65241.got - 2010.06.27 23:14:04.
