data_PCOD8069892
_publ_section_title
;
Structure prediction by ZEFSAII (Michael W. Deem and Ramdas Pophale) SiO2 
 PCOD8069892
Probable space group: P 21/M
;
_chemical_formula_sum "Si O2"
_cell_formula_units_Z 32
_cell_length_a 8.593469
_cell_length_b 24.565120
_cell_length_c 14.018812
_cell_angle_alpha 90.000000
_cell_angle_beta 146.141640
_cell_angle_gamma 90.000000
_cell_volume 1648.786099
_symmetry_space_group_name_H-M "P 21/M"
_symmetry_group_IT_number 11
_symmetry_cell_setting 'monoclinic'
loop_
_space_group_symop_operation_xyz
x,y,z
-x,1/2+y,-z
-x,-y,-z
x,1/2-y,z
loop_
_atom_site_type_symbol
_atom_site_label
_atom_site_fract_x
_atom_site_fract_y
_atom_site_fract_z
Si Si1 0.618558 0.859142 0.406199
Si Si2 0.391534 0.130969 0.992773
Si Si3 0.918888 0.189972 0.240509
Si Si4 0.693064 0.025880 0.178008
Si Si5 0.583858 0.582080 0.201931
Si Si6 0.302575 0.448579 0.405027
Si Si7 0.028454 0.114803 0.118717
Si Si8 0.016799 0.685647 0.080659
O O1 0.723443 0.887005 0.361658
O O2 0.550213 0.904109 0.452181
O O3 0.870292 0.820101 0.565133
O O4 0.349206 0.821657 0.250413
O O5 0.599244 0.182198 0.109420
O O6 0.537669 0.081963 0.128136
O O7 0.334041 0.112612 0.854550
O O8 0.103622 0.153035 0.889833
O O9 0.962764 0.250000 0.222669
O O10 0.969550 0.148110 0.183320
O O11 0.001075 0.037119 0.295682
O O12 0.698105 0.980259 0.263817
O O13 0.500000 0.000000 0.000000
O O14 0.250031 0.581529 0.050390
O O15 0.500000 0.500000 0.500000
O O16 0.267492 0.427161 0.277021
O O17 0.120120 0.155748 0.081452
O O18 0.945138 0.750000 0.043510
#
# Coordination Sequence:
#
# PCOD8069892 Si02
#       8
#     4   4   4   4   4   4   4   4
#     4  10  22  38  55  88 118 146 195 238 292 349
#     4  10  20  37  59  83 111 148 194 237 282 345
#     4  10  18  37  60  76 108 151 190 238 289 339
#     4  10  18  37  61  82 117 152 190 231 282 345
#     4   9  19  36  62  81 113 156 188 230 286 350
#     4  11  22  37  59  93 121 155 191 234 299 352
#     4   9  19  39  56  84 113 149 196 231 286 353
#     4  11  23  38  60  87 113 150 199 249 291 337
#
# _framework density 19.408218999999999
#
# number of rings (size 3 to 8) (size 9 to 14) (size 15 to 20)
#    0.000    2.000    5.000    1.125    3.500    1.500 
#    2.250    4.375    0.000    0.000    0.000    0.000 
#    0.000    0.000    0.000    0.000    0.000    0.000 
#
# Total GULP energy -396574.325717 kJ/mol
# GULP energy per Si atom -12392.947679 kJ/mol
# Density = 1.936404 g / cm^3
# Si number density = 19.408219 Si / 1000 Ang^3
#
#
#
# Elastic Constant Matrix: (Units=GPa)
#
#
# Indices 1 2 3 4 5 6 
#
# 1 58.5615 16.2621 11.3349 0.0000 -4.9642 0.0000
# 2 16.2621 98.1324 19.6365 0.0000 3.7451 0.0000
# 3 11.3349 19.6365 61.1058 0.0000 -7.5906 0.0000
# 4 0.0000 0.0000 0.0000 31.4299 0.0000 6.1097
# 5 -4.9642 3.7451 -7.5906 0.0000 20.9079 0.0000
# 6 0.0000 0.0000 0.0000 6.1097 0.0000 20.7721
#
#
#
# Elastic Compliance Matrix: (Units=1/GPa)
#
#
# Indices 1 2 3 4 5 6 
#
# 1 0.018611 -0.002840 -0.002018 0.000000 0.004195 0.000000
# 2 -0.002840 0.011556 -0.003694 0.000000 -0.004086 0.000000
# 3 -0.002018 -0.003694 0.018797 0.000000 0.007007 0.000000
# 4 0.000000 0.000000 0.000000 0.033746 0.000000 -0.009926
# 5 0.004195 -0.004086 0.007007 0.000000 0.052100 0.000000
# 6 0.000000 0.000000 0.000000 -0.009926 0.000000 0.051061
#
#
# Mechanical properties :
#
#
# Convention : Reuss Voigt Hill
#
# Bulk Modulus (GPa) = 31.38911 34.69629 33.04270
# Shear Modulus (GPa) = 23.40852 25.99305 24.70079
#
# Velocity S-wave (km/s) = 3.47668 3.66359 3.57136
# Velocity P-wave (km/s) = 5.68548 5.98429 5.83680
#
# Compressibility (1/GPa) = 0.03185818
#
# Stress axis : x y z
#
# Youngs Moduli (GPa) = 53.73144 86.53401 53.19997
#
# Poissons Ratio (x) = 0.24579 0.10738
# Poissons Ratio (y) = 0.15262 0.19653
# Poissons Ratio (z) = 0.10845 0.31968
#
# Static dielectric constant tensor:
#      x y z
#    x 3.351740 0.000000 -0.117820 
#    y 0.000000 6.747460 0.000000 
#    z -0.117820 0.000000 3.787430 
# 
# 
# High freq. dielectric constant tensor:
#      x y z
#    x 1.729570 0.000000 -0.005580 
#    y 0.000000 1.765820 0.000000 
#    z -0.005580 0.000000 1.752780 
# 
# From -- ./inp_files/23381.got.cif
#   From: 2010.06.25/outbox.cif.g09.slc.cpg/sg11_12_cif.got.tgz:23381.got - 2010.06.27 23:14:04.
