data_PCOD8069144
_publ_section_title
;
Structure prediction by ZEFSAII (Michael W. Deem and Ramdas Pophale) SiO2 
 PCOD8069144
Probable space group: P 21/M
;
_chemical_formula_sum "Si O2"
_cell_formula_units_Z 32
_cell_length_a 26.402279
_cell_length_b 9.353768
_cell_length_c 21.244978
_cell_angle_alpha 90.000000
_cell_angle_beta 20.597484
_cell_angle_gamma 90.000000
_cell_volume 1845.783680
_symmetry_space_group_name_H-M "P 21/M"
_symmetry_group_IT_number 11
_symmetry_cell_setting 'monoclinic'
loop_
_space_group_symop_operation_xyz
x,y,z
-x,1/2+y,-z
-x,-y,-z
x,1/2-y,z
loop_
_atom_site_type_symbol
_atom_site_label
_atom_site_fract_x
_atom_site_fract_y
_atom_site_fract_z
Si Si1 0.443580 0.919372 0.505047
Si Si2 0.360854 0.583697 0.184925
Si Si3 0.669872 0.915787 0.655783
Si Si4 0.760068 0.408439 0.440144
Si Si5 0.855962 0.086155 0.676401
Si Si6 0.133662 0.582298 0.816412
Si Si7 0.648410 0.085721 0.025998
Si Si8 0.560261 0.592302 0.239205
O O1 0.452334 0.750000 0.505072
O O2 0.279533 0.966419 0.681978
O O3 0.546420 0.965154 0.326846
O O4 0.500000 0.000000 0.500000
O O5 0.399782 0.750000 0.152168
O O6 0.298383 0.509339 0.319761
O O7 0.239169 0.568937 0.274572
O O8 0.500000 0.500000 0.000000
O O9 0.706705 0.750000 0.625180
O O10 0.774128 0.975928 0.479562
O O11 0.504291 0.937048 0.829854
O O12 0.805490 0.250000 0.411376
O O13 0.858776 0.456000 0.266622
O O14 0.597852 0.400505 0.605234
O O15 0.896514 0.250000 0.640890
O O16 0.769116 0.026002 0.837934
O O17 0.000000 0.000000 0.500000
O O18 0.110149 0.750000 0.852907
O O19 0.000000 0.500000 0.000000
O O20 0.674841 0.250000 0.010304
O O21 0.660378 0.006675 0.079190
O O22 0.629695 0.750000 0.158342
#
# Coordination Sequence:
#
# PCOD8069144 Si02
#       8
#     4   4   4   4   4   4   4   4
#     4   9  18  32  50  75 105 132 165 210 252 296
#     4  11  21  35  54  78 106 133 168 211 253 299
#     4  10  18  30  50  78 106 129 163 212 258 300
#     4   8  15  29  47  71 101 133 166 206 254 298
#     4  10  22  38  53  74 104 135 169 209 250 301
#     4   9  18  32  51  75 105 136 171 210 249 300
#     4   9  17  31  49  73 103 128 160 208 251 293
#     4   8  15  28  47  72  98 126 165 206 246 296
#
# _framework density 17.33681
#
# number of rings (size 3 to 8) (size 9 to 14) (size 15 to 20)
#    0.000    2.750    1.250    2.250    0.000    3.500 
#    0.000    2.500    2.750    0.000    0.000    0.000 
#    0.000    0.000    0.000    0.000    0.000    0.000 
#
# Total GULP energy -396682.620149 kJ/mol
# GULP energy per Si atom -12396.331880 kJ/mol
# Density = 1.729735 g / cm^3
# Si number density = 17.336810 Si / 1000 Ang^3
#
#
#
# Elastic Constant Matrix: (Units=GPa)
#
#
# Indices 1 2 3 4 5 6 
#
# 1 100.1463 62.8824 57.0634 0.0000 33.3734 0.0000
# 2 62.8824 98.3900 63.1771 0.0000 21.5572 0.0000
# 3 57.0634 63.1771 115.2687 0.0000 30.0893 0.0000
# 4 0.0000 0.0000 0.0000 32.5934 0.0000 6.4989
# 5 33.3734 21.5572 30.0893 0.0000 31.0680 0.0000
# 6 0.0000 0.0000 0.0000 6.4989 0.0000 32.7967
#
#
#
# Elastic Compliance Matrix: (Units=1/GPa)
#
#
# Indices 1 2 3 4 5 6 
#
# 1 0.022196 -0.009768 -0.001579 0.000000 -0.015536 0.000000
# 2 -0.009768 0.020258 -0.007143 0.000000 0.003354 0.000000
# 3 -0.001579 -0.007143 0.015573 0.000000 -0.008429 0.000000
# 4 0.000000 0.000000 0.000000 0.031943 0.000000 -0.006330
# 5 -0.015536 0.003354 -0.008429 0.000000 0.054713 0.000000
# 6 0.000000 0.000000 0.000000 -0.006330 0.000000 0.031745
#
#
# Mechanical properties :
#
#
# Convention : Reuss Voigt Hill
#
# Bulk Modulus (GPa) = 47.51407 75.56120 61.53763
# Shear Modulus (GPa) = 22.68372 28.00376 25.34374
#
# Velocity S-wave (km/s) = 3.62112 4.02341 3.82756
# Velocity P-wave (km/s) = 6.70443 8.07853 7.42334
#
# Compressibility (1/GPa) = 0.02104640
#
# Stress axis : x y z
#
# Youngs Moduli (GPa) = 45.05417 49.36266 64.21576
#
# Poissons Ratio (x) = 0.48216 0.10139
# Poissons Ratio (y) = 0.44008 0.45871
# Poissons Ratio (z) = 0.07113 0.35261
#
# Static dielectric constant tensor:
#      x y z
#    x 3.234270 0.000000 0.409910 
#    y 0.000000 3.337150 0.000000 
#    z 0.409910 0.000000 3.163810 
# 
# 
# High freq. dielectric constant tensor:
#      x y z
#    x 1.658690 0.000000 0.031650 
#    y 0.000000 1.671120 0.000000 
#    z 0.031650 0.000000 1.652830 
# 
# From -- ./inp_files/67105.got.cif
#   From: 2010.06.25/outbox.cif.g09.slc.cpg/sg11_34_cif.got.tgz:67105.got - 2010.06.27 23:14:04.
