data_PCOD8069666
_publ_section_title
;
Structure prediction by ZEFSAII (Michael W. Deem and Ramdas Pophale) SiO2 
 PCOD8069666
Probable space group: P 21/M
;
_chemical_formula_sum "Si O2"
_cell_formula_units_Z 32
_cell_length_a 11.235039
_cell_length_b 16.083733
_cell_length_c 14.370994
_cell_angle_alpha 90.000000
_cell_angle_beta 140.011599
_cell_angle_gamma 90.000000
_cell_volume 1668.825568
_symmetry_space_group_name_H-M "P 21/M"
_symmetry_group_IT_number 11
_symmetry_cell_setting 'monoclinic'
loop_
_space_group_symop_operation_xyz
x,y,z
-x,1/2+y,-z
-x,-y,-z
x,1/2-y,z
loop_
_atom_site_type_symbol
_atom_site_label
_atom_site_fract_x
_atom_site_fract_y
_atom_site_fract_z
Si Si1 0.385991 0.158225 0.875195
Si Si2 0.213964 0.846802 0.424595
Si Si3 0.062721 0.843797 0.141775
Si Si4 0.691390 0.903078 0.979314
Si Si5 0.995755 0.846207 0.902513
Si Si6 0.402045 0.152458 0.266549
Si Si7 0.761301 0.430004 0.101316
Si Si8 0.919614 0.963624 0.355234
O O1 0.362526 0.250000 0.817437
O O2 0.263039 0.094356 0.739114
O O3 0.314807 0.161147 0.938939
O O4 0.605412 0.140151 0.015465
O O5 0.176903 0.750000 0.431432
O O6 0.215416 0.855988 0.312935
O O7 0.420704 0.876932 0.570017
O O8 0.069428 0.906667 0.390459
O O9 0.980333 0.750000 0.095235
O O10 0.899656 0.907183 0.066552
O O11 0.126988 0.859712 0.073404
O O12 0.558835 0.880529 0.814461
O O13 0.642829 0.993779 0.988578
O O14 0.992458 0.750000 0.870126
O O15 0.788308 0.880155 0.800957
O O16 0.073262 0.900179 0.865280
O O17 0.385499 0.250000 0.250640
O O18 0.857518 0.456943 0.256081
O O19 0.000000 0.000000 0.500000
#
# Coordination Sequence:
#
# PCOD8069666 Si02
#       8
#     4   4   4   4   4   4   4   4
#     4  11  22  39  61  83 111 153 203 243 285 351
#     4  10  19  35  58  85 112 151 196 238 289 347
#     4   9  16  31  57  82 108 145 189 237 287 333
#     4  10  18  33  55  83 111 137 189 248 290 320
#     4   9  19  38  57  80 114 150 191 241 285 346
#     4   9  19  32  56  84 112 147 192 239 284 334
#     4  11  23  37  58  84 116 156 192 234 298 348
#     4  11  24  40  58  84 127 153 188 244 303 348
#
# _framework density 19.175163000000001
#
# number of rings (size 3 to 8) (size 9 to 14) (size 15 to 20)
#    0.000    2.000    2.500    4.125    3.500    2.000 
#    0.000    3.750    0.000    1.500    0.000    0.000 
#    0.000    0.000    0.000    0.000    0.000    0.000 
#
# Total GULP energy -396474.084045 kJ/mol
# GULP energy per Si atom -12389.815126 kJ/mol
# Density = 1.913152 g / cm^3
# Si number density = 19.175163 Si / 1000 Ang^3
#
#
#
# Elastic Constant Matrix: (Units=GPa)
#
#
# Indices 1 2 3 4 5 6 
#
# 1 68.6017 27.7970 44.7185 0.0000 -4.9300 0.0000
# 2 27.7970 60.5745 38.1361 0.0000 -5.1820 0.0000
# 3 44.7185 38.1361 151.6200 0.0000 -7.6849 0.0000
# 4 0.0000 0.0000 0.0000 26.6035 0.0000 2.8069
# 5 -4.9300 -5.1820 -7.6849 0.0000 24.2693 0.0000
# 6 0.0000 0.0000 0.0000 2.8069 0.0000 24.7069
#
#
#
# Elastic Compliance Matrix: (Units=1/GPa)
#
#
# Indices 1 2 3 4 5 6 
#
# 1 0.020028 -0.006414 -0.004225 0.000000 0.001361 0.000000
# 2 -0.006414 0.021841 -0.003487 0.000000 0.002256 0.000000
# 3 -0.004225 -0.003487 0.008778 0.000000 0.001177 0.000000
# 4 0.000000 0.000000 0.000000 0.038045 0.000000 -0.004322
# 5 0.001361 0.002256 0.001177 0.000000 0.042335 0.000000
# 6 0.000000 0.000000 0.000000 -0.004322 0.000000 0.040966
#
#
# Mechanical properties :
#
#
# Convention : Reuss Voigt Hill
#
# Bulk Modulus (GPa) = 44.65470 55.78882 50.22176
# Shear Modulus (GPa) = 24.07214 26.45892 25.26553
#
# Velocity S-wave (km/s) = 3.54698 3.71867 3.63384
# Velocity P-wave (km/s) = 6.33349 6.89895 6.62226
#
# Compressibility (1/GPa) = 0.02239406
#
# Stress axis : x y z
#
# Youngs Moduli (GPa) = 49.93121 45.78640 113.91868
#
# Poissons Ratio (x) = 0.29369 0.48125
# Poissons Ratio (y) = 0.32028 0.39726
# Poissons Ratio (z) = 0.21094 0.15967
#
# Static dielectric constant tensor:
#      x y z
#    x 3.390700 0.000000 -0.047350 
#    y 0.000000 3.424100 0.000000 
#    z -0.047350 0.000000 3.732390 
# 
# 
# High freq. dielectric constant tensor:
#      x y z
#    x 1.729220 0.000000 -0.003590 
#    y 0.000000 1.739170 0.000000 
#    z -0.003590 0.000000 1.743510 
# 
# From -- ./inp_files/50419.got.cif
#   From: 2010.06.25/outbox.cif.g09.slc.cpg/sg11_26_cif.got.tgz:50419.got - 2010.06.27 23:14:04.
