data_PCOD8069303
_publ_section_title
;
Structure prediction by ZEFSAII (Michael W. Deem and Ramdas Pophale) SiO2 
 PCOD8069303
Probable space group: P 21/M
;
_chemical_formula_sum "Si O2"
_cell_formula_units_Z 28
_cell_length_a 11.755410
_cell_length_b 9.206134
_cell_length_c 15.703169
_cell_angle_alpha 90.000000
_cell_angle_beta 116.617735
_cell_angle_gamma 90.000000
_cell_volume 1519.313767
_symmetry_space_group_name_H-M "P 21/M"
_symmetry_group_IT_number 11
_symmetry_cell_setting 'monoclinic'
loop_
_space_group_symop_operation_xyz
x,y,z
-x,1/2+y,-z
-x,-y,-z
x,1/2-y,z
loop_
_atom_site_type_symbol
_atom_site_label
_atom_site_fract_x
_atom_site_fract_y
_atom_site_fract_z
Si Si1 0.168900 0.421603 0.962149
Si Si2 0.447167 0.081437 0.744915
Si Si3 0.388553 0.418649 0.916520
Si Si4 0.809805 0.580580 0.428921
Si Si5 0.962617 0.419511 0.613935
Si Si6 0.289778 0.423317 0.178245
Si Si7 0.083428 0.578447 0.208262
O O1 0.168486 0.250000 0.967197
O O2 0.256379 0.473294 0.912804
O O3 0.025890 0.475170 0.894531
O O4 0.224834 0.483235 0.069432
O O5 0.488050 0.250000 0.751976
O O6 0.388178 0.046268 0.817040
O O7 0.336047 0.042008 0.641266
O O8 0.566834 0.979982 0.766450
O O9 0.408662 0.250000 0.941677
O O10 0.500000 0.500000 0.000000
O O11 0.825603 0.750000 0.451200
O O12 0.846345 0.498156 0.527387
O O13 0.902642 0.533113 0.382260
O O14 0.939386 0.250000 0.595280
O O15 0.962106 0.463628 0.712502
O O16 0.290704 0.250000 0.183738
O O17 0.210937 0.489913 0.230112
O O18 0.109549 0.750000 0.208969
#
# Coordination Sequence:
#
# PCOD8069303 Si02
#       7
#     4   4   4   4   4   4   4
#     4   9  18  33  53  76 104 139 174 214 260 306
#     4  10  20  34  54  78 106 143 178 207 253 318
#     4  10  18  31  51  76 106 136 169 208 253 304
#     4   9  18  34  57  83 108 134 167 211 263 316
#     4   9  18  34  57  83 106 132 169 215 264 311
#     4  11  22  35  51  75 108 141 177 221 261 298
#     4  10  20  36  56  75 101 140 181 214 255 314
#
# _framework density 18.429372999999998
#
# number of rings (size 3 to 8) (size 9 to 14) (size 15 to 20)
#    0.000    2.286    1.429    1.714    0.000    4.571 
#    0.000    2.143    0.000    3.429    0.000    0.000 
#    0.000    0.000    0.000    0.000    0.000    0.000 
#
# Total GULP energy -347190.725878 kJ/mol
# GULP energy per Si atom -12399.668781 kJ/mol
# Density = 1.838743 g / cm^3
# Si number density = 18.429373 Si / 1000 Ang^3
#
#
#
# Elastic Constant Matrix: (Units=GPa)
#
#
# Indices 1 2 3 4 5 6 
#
# 1 104.8966 39.5924 41.5220 0.0000 7.9336 0.0000
# 2 39.5924 45.1099 36.6952 0.0000 5.2194 0.0000
# 3 41.5220 36.6952 102.8916 0.0000 15.4220 0.0000
# 4 0.0000 0.0000 0.0000 29.1104 0.0000 3.2417
# 5 7.9336 5.2194 15.4220 0.0000 22.5658 0.0000
# 6 0.0000 0.0000 0.0000 3.2417 0.0000 26.7262
#
#
#
# Elastic Compliance Matrix: (Units=1/GPa)
#
#
# Indices 1 2 3 4 5 6 
#
# 1 0.014540 -0.011265 -0.001643 0.000000 -0.001384 0.000000
# 2 -0.011265 0.039960 -0.009931 0.000000 0.001505 0.000000
# 3 -0.001643 -0.009931 0.015032 0.000000 -0.007399 0.000000
# 4 0.000000 0.000000 0.000000 0.034822 0.000000 -0.004224
# 5 -0.001384 0.001505 -0.007399 0.000000 0.049510 0.000000
# 6 0.000000 0.000000 0.000000 -0.004224 0.000000 0.037929
#
#
# Mechanical properties :
#
#
# Convention : Reuss Voigt Hill
#
# Bulk Modulus (GPa) = 41.91976 54.27970 48.09973
# Shear Modulus (GPa) = 20.37307 24.68638 22.52972
#
# Velocity S-wave (km/s) = 3.32846 3.66391 3.50021
# Velocity P-wave (km/s) = 6.12920 6.88591 6.51854
#
# Compressibility (1/GPa) = 0.02385510
#
# Stress axis : x y z
#
# Youngs Moduli (GPa) = 68.77551 25.02531 66.52256
#
# Poissons Ratio (x) = 0.28192 0.10927
# Poissons Ratio (y) = 0.77478 0.66061
# Poissons Ratio (z) = 0.11297 0.24852
#
# Static dielectric constant tensor:
#      x y z
#    x 3.308070 0.000000 0.055520 
#    y 0.000000 3.222080 0.000000 
#    z 0.055520 0.000000 3.273700 
# 
# 
# High freq. dielectric constant tensor:
#      x y z
#    x 1.717170 0.000000 0.004150 
#    y 0.000000 1.694840 0.000000 
#    z 0.004150 0.000000 1.712650 
# 
# From -- ./inp_files/37634.got.cif
#   From: 2010.06.25/outbox.cif.g09.slc.cpg/sg11_19_cif.got.tgz:37634.got - 2010.06.27 23:14:04.
