data_PCOD8069000
_publ_section_title
;
Structure prediction by ZEFSAII (Michael W. Deem and Ramdas Pophale) SiO2 
 PCOD8069000
Probable space group: P 21/M
;
_chemical_formula_sum "Si O2"
_cell_formula_units_Z 24
_cell_length_a 18.140361
_cell_length_b 8.684719
_cell_length_c 12.731310
_cell_angle_alpha 90.000000
_cell_angle_beta 44.659738
_cell_angle_gamma 90.000000
_cell_volume 1409.825212
_symmetry_space_group_name_H-M "P 21/M"
_symmetry_group_IT_number 11
_symmetry_cell_setting 'monoclinic'
loop_
_space_group_symop_operation_xyz
x,y,z
-x,1/2+y,-z
-x,-y,-z
x,1/2-y,z
loop_
_atom_site_type_symbol
_atom_site_label
_atom_site_fract_x
_atom_site_fract_y
_atom_site_fract_z
Si Si1 0.215911 0.432348 0.675768
Si Si2 0.379203 0.930805 0.902397
Si Si3 0.615238 0.568778 0.664384
Si Si4 0.004516 0.566674 0.879137
Si Si5 0.386274 0.570206 0.124517
Si Si6 0.208523 0.566406 0.913604
O O1 0.204565 0.250000 0.700180
O O2 0.315413 0.480694 0.505186
O O3 0.232068 0.508150 0.772803
O O4 0.112395 0.499538 0.721463
O O5 0.387371 0.750000 0.876744
O O6 0.497223 0.998932 0.768663
O O7 0.301087 0.998836 0.894166
O O8 0.331561 0.966649 0.067308
O O9 0.612010 0.750000 0.680350
O O10 0.668971 0.503790 0.717202
O O11 0.006259 0.750000 0.876463
O O12 0.899779 0.503302 0.928845
O O13 0.000000 0.500000 0.000000
O O14 0.394197 0.750000 0.135483
O O15 0.500000 0.500000 0.000000
O O16 0.200911 0.750000 0.921616
#
# Coordination Sequence:
#
# PCOD8069000 Si02
#       6
#     4   4   4   4   4   4
#     4  10  19  31  47  68  95 123 152 188 229 271
#     4   8  16  30  47  68  94 123 150 183 228 272
#     4   9  18  32  48  68  95 124 153 187 228 271
#     4  10  18  30  47  66  89 117 155 194 226 266
#     4   9  16  29  48  68  91 120 156 191 224 266
#     4  10  18  30  48  68  93 123 154 185 224 274
#
# _framework density 17.023387
#
# number of rings (size 3 to 8) (size 9 to 14) (size 15 to 20)
#    0.000    2.667    0.000    6.000    0.000    2.000 
#    0.000    8.333    0.000    1.000    0.000    0.000 
#    0.000    0.000    0.000    0.000    0.000    0.000 
#
# Total GULP energy -297355.336937 kJ/mol
# GULP energy per Si atom -12389.805706 kJ/mol
# Density = 1.698464 g / cm^3
# Si number density = 17.023387 Si / 1000 Ang^3
#
#
#
# Elastic Constant Matrix: (Units=GPa)
#
#
# Indices 1 2 3 4 5 6 
#
# 1 116.5267 34.7924 81.3804 0.0000 -3.8621 0.0000
# 2 34.7924 68.3224 34.7686 0.0000 -0.5700 0.0000
# 3 81.3804 34.7686 74.5327 0.0000 1.0919 0.0000
# 4 0.0000 0.0000 0.0000 25.6070 0.0000 1.2097
# 5 -3.8621 -0.5700 1.0919 0.0000 21.0188 0.0000
# 6 0.0000 0.0000 0.0000 1.2097 0.0000 21.1136
#
#
#
# Elastic Compliance Matrix: (Units=1/GPa)
#
#
# Indices 1 2 3 4 5 6 
#
# 1 0.038128 0.002513 -0.042940 0.000000 0.009305 0.000000
# 2 0.002513 0.019379 -0.011807 0.000000 0.001601 0.000000
# 3 -0.042940 -0.011807 0.065981 0.000000 -0.011638 0.000000
# 4 0.000000 0.000000 0.000000 0.039158 0.000000 -0.002244
# 5 0.009305 0.001601 -0.011638 0.000000 0.049934 0.000000
# 6 0.000000 0.000000 0.000000 -0.002244 0.000000 0.047491
#
#
# Mechanical properties :
#
#
# Convention : Reuss Voigt Hill
#
# Bulk Modulus (GPa) = 52.57891 62.36273 57.47082
# Shear Modulus (GPa) = 13.48147 20.77725 17.12936
#
# Velocity S-wave (km/s) = 2.81719 3.49737 3.17555
# Velocity P-wave (km/s) = 6.44480 7.28161 6.87595
#
# Compressibility (1/GPa) = 0.01901903
#
# Stress axis : x y z
#
# Youngs Moduli (GPa) = 26.22710 51.60299 15.15598
#
# Poissons Ratio (x) = -0.12967 0.65080
# Poissons Ratio (y) = -0.06591 0.17895
# Poissons Ratio (z) = 1.12619 0.60929
#
# Static dielectric constant tensor:
#      x y z
#    x 3.818940 0.000000 -0.167920 
#    y 0.000000 3.234750 0.000000 
#    z -0.167920 0.000000 3.510170 
# 
# 
# High freq. dielectric constant tensor:
#      x y z
#    x 1.644490 0.000000 -0.001390 
#    y 0.000000 1.657100 0.000000 
#    z -0.001390 0.000000 1.641060 
# 
# From -- ./inp_files/40495.got.cif
#   From: 2010.06.25/outbox.cif.g09.slc.cpg/sg11_21_cif.got.tgz:40495.got - 2010.06.27 23:14:04.
