data_PCOD8069438
_publ_section_title
;
Structure prediction by ZEFSAII (Michael W. Deem and Ramdas Pophale) SiO2 
 PCOD8069438
Probable space group: P 21/M
;
_chemical_formula_sum "Si O2"
_cell_formula_units_Z 32
_cell_length_a 19.396863
_cell_length_b 9.000224
_cell_length_c 12.687047
_cell_angle_alpha 90.000000
_cell_angle_beta 117.203536
_cell_angle_gamma 90.000000
_cell_volume 1969.866117
_symmetry_space_group_name_H-M "P 21/M"
_symmetry_group_IT_number 11
_symmetry_cell_setting 'monoclinic'
loop_
_space_group_symop_operation_xyz
x,y,z
-x,1/2+y,-z
-x,-y,-z
x,1/2-y,z
loop_
_atom_site_type_symbol
_atom_site_label
_atom_site_fract_x
_atom_site_fract_y
_atom_site_fract_z
Si Si1 0.313854 0.077907 0.019170
Si Si2 0.422385 0.424380 0.906626
Si Si3 0.670803 0.927317 0.589486
Si Si4 0.832258 0.576314 0.780633
Si Si5 0.852343 0.577740 0.031094
Si Si6 0.000258 0.924032 0.887330
Si Si7 0.423518 0.074195 0.673352
Si Si8 0.405485 0.573731 0.266373
O O1 0.329691 0.250000 0.059575
O O2 0.351130 0.034712 0.933247
O O3 0.221530 0.048570 0.945672
O O4 0.347956 0.975534 0.133976
O O5 0.438652 0.250000 0.916280
O O6 0.401440 0.483412 0.774909
O O7 0.500000 0.500000 0.000000
O O8 0.665582 0.750000 0.594788
O O9 0.759070 0.988474 0.664778
O O10 0.639916 0.984445 0.454661
O O11 0.616481 0.996649 0.640192
O O12 0.818550 0.750000 0.781083
O O13 0.832795 0.513782 0.900634
O O14 0.914326 0.542718 0.778477
O O15 0.874358 0.750000 0.040967
O O16 0.928562 0.492879 0.130462
O O17 0.013669 0.750000 0.909292
O O18 0.000000 0.000000 0.000000
O O19 0.424009 0.250000 0.672390
O O20 0.508741 0.016443 0.702418
O O21 0.401032 0.750000 0.276020
#
# Coordination Sequence:
#
# PCOD8069438 Si02
#       8
#     4   4   4   4   4   4   4   4
#     4  10  19  31  49  67  89 125 159 186 228 281
#     4  10  19  33  50  69  90 118 155 196 235 273
#     4  10  18  32  49  64  90 128 156 182 226 278
#     4   8  14  25  42  61  85 114 149 178 209 268
#     4   9  16  28  42  63  88 114 152 188 217 270
#     4   9  16  26  40  62  89 118 146 180 222 271
#     4   9  19  32  47  67  92 119 155 197 230 265
#     4  11  20  30  44  68  97 119 151 198 230 265
#
# _framework density 16.244758999999998
#
# number of rings (size 3 to 8) (size 9 to 14) (size 15 to 20)
#    0.000    2.500    2.500    1.875    0.000    0.500 
#    0.000    1.875    0.000    0.000    0.000    0.875 
#    0.000    0.000    0.000    0.000    0.000    0.000 
#
# Total GULP energy -396567.368251 kJ/mol
# GULP energy per Si atom -12392.730258 kJ/mol
# Density = 1.620779 g / cm^3
# Si number density = 16.244759 Si / 1000 Ang^3
#
#
#
# Elastic Constant Matrix: (Units=GPa)
#
#
# Indices 1 2 3 4 5 6 
#
# 1 141.1266 32.2877 61.7540 0.0000 7.3721 0.0000
# 2 32.2877 38.1993 21.1680 0.0000 0.8004 0.0000
# 3 61.7540 21.1680 89.0267 0.0000 -9.8758 0.0000
# 4 0.0000 0.0000 0.0000 13.4234 0.0000 3.9209
# 5 7.3721 0.8004 -9.8758 0.0000 20.9407 0.0000
# 6 0.0000 0.0000 0.0000 3.9209 0.0000 22.9788
#
#
#
# Elastic Compliance Matrix: (Units=1/GPa)
#
#
# Indices 1 2 3 4 5 6 
#
# 1 0.012363 -0.005809 -0.008075 0.000000 -0.007939 0.000000
# 2 -0.005809 0.033341 -0.004024 0.000000 -0.001127 0.000000
# 3 -0.008075 -0.004024 0.019124 0.000000 0.012015 0.000000
# 4 0.000000 0.000000 0.000000 0.078405 0.000000 -0.013378
# 5 -0.007939 -0.001127 0.012015 0.000000 0.056258 0.000000
# 6 0.000000 0.000000 0.000000 -0.013378 0.000000 0.045801
#
#
# Mechanical properties :
#
#
# Convention : Reuss Voigt Hill
#
# Bulk Modulus (GPa) = 34.46685 55.41910 44.94297
# Shear Modulus (GPa) = 17.19527 21.67810 19.43669
#
# Velocity S-wave (km/s) = 3.25701 3.65700 3.46278
# Velocity P-wave (km/s) = 5.95041 7.21253 6.61166
#
# Compressibility (1/GPa) = 0.02901339
#
# Stress axis : x y z
#
# Youngs Moduli (GPa) = 80.88671 29.99279 52.29153
#
# Poissons Ratio (x) = 0.17421 0.42226
# Poissons Ratio (y) = 0.46983 0.21040
# Poissons Ratio (z) = 0.65318 0.12068
#
# Static dielectric constant tensor:
#      x y z
#    x 3.523040 0.000000 0.174750 
#    y 0.000000 2.972720 0.000000 
#    z 0.174750 0.000000 3.313420 
# 
# 
# High freq. dielectric constant tensor:
#      x y z
#    x 1.632470 0.000000 0.016540 
#    y 0.000000 1.606710 0.000000 
#    z 0.016540 0.000000 1.591200 
# 
# From -- ./inp_files/40654.got.cif
#   From: 2010.06.25/outbox.cif.g09.slc.cpg/sg11_21_cif.got.tgz:40654.got - 2010.06.27 23:14:04.
