data_PCOD8069665
_publ_section_title
;
Structure prediction by ZEFSAII (Michael W. Deem and Ramdas Pophale) SiO2 
 PCOD8069665
Probable space group: P 21/M
;
_chemical_formula_sum "Si O2"
_cell_formula_units_Z 28
_cell_length_a 9.360485
_cell_length_b 16.911223
_cell_length_c 14.553650
_cell_angle_alpha 90.000000
_cell_angle_beta 139.560540
_cell_angle_gamma 90.000000
_cell_volume 1494.348354
_symmetry_space_group_name_H-M "P 21/M"
_symmetry_group_IT_number 11
_symmetry_cell_setting 'monoclinic'
loop_
_space_group_symop_operation_xyz
x,y,z
-x,1/2+y,-z
-x,-y,-z
x,1/2-y,z
loop_
_atom_site_type_symbol
_atom_site_label
_atom_site_fract_x
_atom_site_fract_y
_atom_site_fract_z
Si Si1 0.261799 0.841006 0.360269
Si Si2 0.906247 0.917960 0.070265
Si Si3 0.626427 0.943178 0.488812
Si Si4 0.025419 0.661465 0.744991
Si Si5 0.573537 0.407979 0.371822
Si Si6 0.948637 0.906548 0.888485
Si Si7 0.448630 0.658463 0.833329
O O1 0.221789 0.750000 0.322776
O O2 0.460971 0.870087 0.391330
O O3 0.316493 0.856250 0.493648
O O4 0.041440 0.886658 0.223262
O O5 0.989561 0.880058 0.013950
O O6 0.653187 0.895308 0.963622
O O7 0.928322 0.011669 0.072873
O O8 0.859350 0.907767 0.633332
O O9 0.500000 0.000000 0.500000
O O10 0.661308 0.000520 0.417899
O O11 0.943690 0.750000 0.678025
O O12 0.049909 0.657498 0.867752
O O13 0.259792 0.643968 0.814983
O O14 0.311763 0.411203 0.257480
O O15 0.643662 0.368454 0.310884
O O16 0.520684 0.750000 0.863731
#
# Coordination Sequence:
#
# PCOD8069665 Si02
#       7
#     4   4   4   4   4   4   4
#     4  11  19  30  56  88 111 139 183 241 294 324
#     4  10  21  36  58  83 115 144 186 239 281 336
#     4  10  18  33  55  83 110 137 184 236 277 324
#     4  11  22  37  59  85 117 152 191 234 279 337
#     4  10  19  36  60  81 112 148 190 234 277 340
#     4  10  19  37  59  83 108 149 192 232 278 331
#     4  10  23  39  56  83 116 154 194 229 277 347
#
# _framework density 18.737262999999999
#
# number of rings (size 3 to 8) (size 9 to 14) (size 15 to 20)
#    0.000    1.714    4.286    2.143    0.000    4.000 
#    0.000    0.000    3.143    0.000    0.000    0.000 
#    0.000    0.000    0.000    0.000    0.000    0.000 
#
# Total GULP energy -347039.098885 kJ/mol
# GULP energy per Si atom -12394.253532 kJ/mol
# Density = 1.869462 g / cm^3
# Si number density = 18.737263 Si / 1000 Ang^3
#
#
#
# Elastic Constant Matrix: (Units=GPa)
#
#
# Indices 1 2 3 4 5 6 
#
# 1 90.7944 32.2415 29.7729 0.0000 7.1812 0.0000
# 2 32.2415 55.7030 22.1904 0.0000 12.1508 0.0000
# 3 29.7729 22.1904 93.5801 0.0000 2.3344 0.0000
# 4 0.0000 0.0000 0.0000 24.1858 0.0000 -3.4695
# 5 7.1812 12.1508 2.3344 0.0000 19.0437 0.0000
# 6 0.0000 0.0000 0.0000 -3.4695 0.0000 23.4199
#
#
#
# Elastic Compliance Matrix: (Units=1/GPa)
#
#
# Indices 1 2 3 4 5 6 
#
# 1 0.014551 -0.007131 -0.002924 0.000000 -0.000579 0.000000
# 2 -0.007131 0.026559 -0.003685 0.000000 -0.013805 0.000000
# 3 -0.002924 -0.003685 0.012442 0.000000 0.001929 0.000000
# 4 0.000000 0.000000 0.000000 0.042244 0.000000 0.006258
# 5 -0.000579 -0.013805 0.001929 0.000000 0.061301 0.000000
# 6 0.000000 0.000000 0.000000 0.006258 0.000000 0.043626
#
#
# Mechanical properties :
#
#
# Convention : Reuss Voigt Hill
#
# Bulk Modulus (GPa) = 38.35495 45.38747 41.87121
# Shear Modulus (GPa) = 21.10654 23.72139 22.41396
#
# Velocity S-wave (km/s) = 3.35990 3.56195 3.46240
# Velocity P-wave (km/s) = 5.96374 6.41813 6.19510
#
# Compressibility (1/GPa) = 0.02607225
#
# Stress axis : x y z
#
# Youngs Moduli (GPa) = 68.72487 37.65171 80.37318
#
# Poissons Ratio (x) = 0.26850 0.23501
# Poissons Ratio (y) = 0.49009 0.29615
# Poissons Ratio (z) = 0.20095 0.13874
#
# Static dielectric constant tensor:
#      x y z
#    x 3.329550 0.000000 -0.186910 
#    y 0.000000 3.676070 0.000000 
#    z -0.186910 0.000000 3.516090 
# 
# 
# High freq. dielectric constant tensor:
#      x y z
#    x 1.700980 0.000000 -0.004390 
#    y 0.000000 1.735890 0.000000 
#    z -0.004390 0.000000 1.726420 
# 
# From -- ./inp_files/48034.got.cif
#   From: 2010.06.25/outbox.cif.g09.slc.cpg/sg11_25_cif.got.tgz:48034.got - 2010.06.27 23:14:04.
