data_PCOD8069424
_publ_section_title
;
Structure prediction by ZEFSAII (Michael W. Deem and Ramdas Pophale) SiO2 
 PCOD8069424
Probable space group: P 21/M
;
_chemical_formula_sum "Si O2"
_cell_formula_units_Z 28
_cell_length_a 13.347386
_cell_length_b 13.656776
_cell_length_c 9.088149
_cell_angle_alpha 90.000000
_cell_angle_beta 120.290059
_cell_angle_gamma 90.000000
_cell_volume 1430.453268
_symmetry_space_group_name_H-M "P 21/M"
_symmetry_group_IT_number 11
_symmetry_cell_setting 'monoclinic'
loop_
_space_group_symop_operation_xyz
x,y,z
-x,1/2+y,-z
-x,-y,-z
x,1/2-y,z
loop_
_atom_site_type_symbol
_atom_site_label
_atom_site_fract_x
_atom_site_fract_y
_atom_site_fract_z
Si Si1 0.907082 0.865136 0.516978
Si Si2 0.271756 0.363195 0.355499
Si Si3 0.654247 0.360008 0.293670
Si Si4 0.452916 0.036660 0.668730
Si Si5 0.851517 0.038972 0.271573
Si Si6 0.697556 0.527234 0.905177
Si Si7 0.567272 0.641623 0.050861
O O1 0.908689 0.750000 0.476418
O O2 0.818085 0.887138 0.582418
O O3 0.030846 0.901509 0.666798
O O4 0.871900 0.928438 0.347319
O O5 0.274556 0.250000 0.316688
O O6 0.401357 0.395774 0.502049
O O7 0.236794 0.422591 0.183131
O O8 0.667443 0.250000 0.365337
O O9 0.599401 0.426567 0.383623
O O10 0.778637 0.399472 0.335876
O O11 0.568650 0.362216 0.089161
O O12 0.406647 0.070732 0.794524
O O13 0.592560 0.040799 0.765250
O O14 0.789788 0.035178 0.066649
O O15 0.642278 0.610724 0.966584
O O16 0.605504 0.750000 0.127550
#
# Coordination Sequence:
#
# PCOD8069424 Si02
#       7
#     4   4   4   4   4   4   4
#     4  10  23  40  61  86 111 149 197 243 292 343
#     4  11  23  38  56  82 121 158 191 231 284 344
#     4  10  18  31  56  85 112 144 187 238 287 331
#     4  11  19  37  55  86 117 155 189 236 283 339
#     4  11  20  39  63  85 113 147 194 251 289 333
#     4  11  21  35  56  86 120 152 190 231 287 344
#     4  10  18  31  56  86 115 146 191 235 281 340
#
# _framework density 19.574214000000001
#
# number of rings (size 3 to 8) (size 9 to 14) (size 15 to 20)
#    0.000    1.429    4.286    2.571    0.000    3.429 
#    0.000    0.000    0.000    1.714    0.000    0.000 
#    0.000    0.000    0.000    0.000    0.000    0.000 
#
# Total GULP energy -347215.914238 kJ/mol
# GULP energy per Si atom -12400.568366 kJ/mol
# Density = 1.952966 g / cm^3
# Si number density = 19.574214 Si / 1000 Ang^3
#
#
#
# Elastic Constant Matrix: (Units=GPa)
#
#
# Indices 1 2 3 4 5 6 
#
# 1 62.8828 24.6840 37.5442 0.0000 14.3215 0.0000
# 2 24.6840 72.0741 2.3462 0.0000 5.2900 0.0000
# 3 37.5442 2.3462 52.5761 0.0000 7.6994 0.0000
# 4 0.0000 0.0000 0.0000 22.7771 0.0000 0.2041
# 5 14.3215 5.2900 7.6994 0.0000 32.1240 0.0000
# 6 0.0000 0.0000 0.0000 0.2041 0.0000 26.1822
#
#
#
# Elastic Compliance Matrix: (Units=1/GPa)
#
#
# Indices 1 2 3 4 5 6 
#
# 1 0.037029 -0.011237 -0.024660 0.000000 -0.008747 0.000000
# 2 -0.011237 0.017459 0.007185 0.000000 0.000413 0.000000
# 3 -0.024660 0.007185 0.036141 0.000000 0.001149 0.000000
# 4 0.000000 0.000000 0.000000 0.043907 0.000000 -0.000342
# 5 -0.008747 0.000413 0.001149 0.000000 0.034686 0.000000
# 6 0.000000 0.000000 0.000000 -0.000342 0.000000 0.038197
#
#
# Mechanical properties :
#
#
# Convention : Reuss Voigt Hill
#
# Bulk Modulus (GPa) = 30.11635 35.18688 32.65161
# Shear Modulus (GPa) = 18.12191 24.41391 21.26791
#
# Velocity S-wave (km/s) = 3.04601 3.53547 3.29983
# Velocity P-wave (km/s) = 5.27162 5.88908 5.58888
#
# Compressibility (1/GPa) = 0.03320455
#
# Stress axis : x y z
#
# Youngs Moduli (GPa) = 27.00603 57.27744 27.66978
#
# Poissons Ratio (x) = 0.64362 0.68233
# Poissons Ratio (y) = 0.30346 -0.19880
# Poissons Ratio (z) = 0.66596 -0.41152
#
# Static dielectric constant tensor:
#      x y z
#    x 3.476950 0.000000 0.183930 
#    y 0.000000 3.718610 0.000000 
#    z 0.183930 0.000000 3.469640 
# 
# 
# High freq. dielectric constant tensor:
#      x y z
#    x 1.752000 0.000000 0.009300 
#    y 0.000000 1.766760 0.000000 
#    z 0.009300 0.000000 1.747290 
# 
# From -- ./inp_files/21801.got.cif
#   From: 2010.06.25/outbox.cif.g09.slc.cpg/sg11_11_cif.got.tgz:21801.got - 2010.06.27 23:14:04.
