data_PCOD8069615
_publ_section_title
;
Structure prediction by ZEFSAII (Michael W. Deem and Ramdas Pophale) SiO2 
 PCOD8069615
Probable space group: P 21/M
;
_chemical_formula_sum "Si O2"
_cell_formula_units_Z 28
_cell_length_a 11.214892
_cell_length_b 19.717897
_cell_length_c 7.118215
_cell_angle_alpha 90.000000
_cell_angle_beta 92.575646
_cell_angle_gamma 90.000000
_cell_volume 1572.489767
_symmetry_space_group_name_H-M "P 21/M"
_symmetry_group_IT_number 11
_symmetry_cell_setting 'monoclinic'
loop_
_space_group_symop_operation_xyz
x,y,z
-x,1/2+y,-z
-x,-y,-z
x,1/2-y,z
loop_
_atom_site_type_symbol
_atom_site_label
_atom_site_fract_x
_atom_site_fract_y
_atom_site_fract_z
Si Si1 0.296681 0.673280 0.367649
Si Si2 0.676240 0.072008 0.951007
Si Si3 0.334827 0.470837 0.377229
Si Si4 0.422521 0.915644 0.654924
Si Si5 0.065921 0.431629 0.435641
Si Si6 0.050722 0.926318 0.952552
Si Si7 0.977319 0.329325 0.713522
O O1 0.329874 0.750000 0.333631
O O2 0.346247 0.634993 0.188817
O O3 0.359509 0.650939 0.566189
O O4 0.155393 0.661439 0.377775
O O5 0.651670 0.005507 0.825804
O O6 0.588249 0.078908 0.121106
O O7 0.807866 0.069224 0.044394
O O8 0.436472 0.412819 0.386834
O O9 0.358333 0.520546 0.553023
O O10 0.202708 0.442956 0.391709
O O11 0.065565 0.370787 0.584883
O O12 0.000000 0.500000 0.500000
O O13 0.995883 0.403714 0.252006
O O14 0.009711 0.865862 0.085790
O O15 0.000000 0.000000 0.000000
O O16 0.013444 0.250000 0.731488
#
# Coordination Sequence:
#
# PCOD8069615 Si02
#       7
#     4   4   4   4   4   4   4
#     4   9  19  36  54  77 105 134 180 226 260 319
#     4  10  18  33  52  79 108 137 171 222 276 314
#     4  10  21  33  50  81 110 133 174 226 261 318
#     4  10  20  34  53  76 105 141 175 215 274 316
#     4  12  20  34  59  83 108 145 183 223 276 328
#     4  11  19  32  55  85 109 141 185 227 270 330
#     4  10  22  37  54  82 115 143 179 230 282 330
#
# _framework density 17.806156999999999
#
# number of rings (size 3 to 8) (size 9 to 14) (size 15 to 20)
#    0.000    1.714    2.857    3.857    0.000    1.143 
#    0.000    3.571    0.000    0.000    0.000    0.000 
#    0.000    0.000    0.000    0.000    0.000    0.000 
#
# Total GULP energy -347143.220823 kJ/mol
# GULP energy per Si atom -12397.972172 kJ/mol
# Density = 1.776563 g / cm^3
# Si number density = 17.806157 Si / 1000 Ang^3
#
#
#
# Elastic Constant Matrix: (Units=GPa)
#
#
# Indices 1 2 3 4 5 6 
#
# 1 72.7584 37.5055 35.0814 0.0000 -1.4293 0.0000
# 2 37.5055 103.5185 40.3973 0.0000 -1.1137 0.0000
# 3 35.0814 40.3973 106.7475 0.0000 -3.7059 0.0000
# 4 0.0000 0.0000 0.0000 22.1161 0.0000 4.6149
# 5 -1.4293 -1.1137 -3.7059 0.0000 22.0090 0.0000
# 6 0.0000 0.0000 0.0000 4.6149 0.0000 18.1989
#
#
#
# Elastic Compliance Matrix: (Units=1/GPa)
#
#
# Indices 1 2 3 4 5 6 
#
# 1 0.018325 -0.005033 -0.004109 0.000000 0.000244 0.000000
# 2 -0.005033 0.012717 -0.003166 0.000000 -0.000216 0.000000
# 3 -0.004109 -0.003166 0.011972 0.000000 0.001589 0.000000
# 4 0.000000 0.000000 0.000000 0.047742 0.000000 -0.012106
# 5 0.000244 -0.000216 0.001589 0.000000 0.045708 0.000000
# 6 0.000000 0.000000 0.000000 -0.012106 0.000000 0.058018
#
#
# Mechanical properties :
#
#
# Convention : Reuss Voigt Hill
#
# Bulk Modulus (GPa) = 54.35707 56.55477 55.45592
# Shear Modulus (GPa) = 22.19952 23.80079 23.00015
#
# Velocity S-wave (km/s) = 3.53474 3.66000 3.59792
# Velocity P-wave (km/s) = 6.87405 7.04919 6.96217
#
# Compressibility (1/GPa) = 0.01839687
#
# Stress axis : x y z
#
# Youngs Moduli (GPa) = 54.57166 78.63635 83.53116
#
# Poissons Ratio (x) = 0.39577 0.34323
# Poissons Ratio (y) = 0.27466 0.26446
# Poissons Ratio (z) = 0.22424 0.24896
#
# Static dielectric constant tensor:
#      x y z
#    x 3.289990 0.000000 0.132940 
#    y 0.000000 3.229120 0.000000 
#    z 0.132940 0.000000 3.465780 
# 
# 
# High freq. dielectric constant tensor:
#      x y z
#    x 1.682070 0.000000 0.004160 
#    y 0.000000 1.668130 0.000000 
#    z 0.004160 0.000000 1.702680 
# 
# From -- ./inp_files/4879.got.cif
#   From: 2010.06.25/outbox.cif.g09.slc.cpg/sg11_3_cif.got.tgz:4879.got - 2010.06.27 23:14:04.
