data_PCOD8069165
_publ_section_title
;
Structure prediction by ZEFSAII (Michael W. Deem and Ramdas Pophale) SiO2 
 PCOD8069165
Probable space group: P 21/M
;
_chemical_formula_sum "Si O2"
_cell_formula_units_Z 28
_cell_length_a 15.692665
_cell_length_b 8.708560
_cell_length_c 19.078595
_cell_angle_alpha 90.000000
_cell_angle_beta 145.683630
_cell_angle_gamma 90.000000
_cell_volume 1469.891503
_symmetry_space_group_name_H-M "P 21/M"
_symmetry_group_IT_number 11
_symmetry_cell_setting 'monoclinic'
loop_
_space_group_symop_operation_xyz
x,y,z
-x,1/2+y,-z
-x,-y,-z
x,1/2-y,z
loop_
_atom_site_type_symbol
_atom_site_label
_atom_site_fract_x
_atom_site_fract_y
_atom_site_fract_z
Si Si1 0.564567 0.571858 0.113946
Si Si2 0.817065 0.578514 0.839992
Si Si3 0.608672 0.568547 0.362867
Si Si4 0.519099 0.076282 0.438200
Si Si5 0.166690 0.069317 0.607609
Si Si6 0.618343 0.927072 0.892959
Si Si7 0.107001 0.921869 0.971639
O O1 0.581374 0.750000 0.111437
O O2 0.725804 0.509295 0.254795
O O3 0.438776 0.539015 0.085858
O O4 0.500000 0.500000 0.000000
O O5 0.851278 0.750000 0.893921
O O6 0.646194 0.568548 0.704001
O O7 0.851786 0.445502 0.918793
O O8 0.925188 0.552734 0.844430
O O9 0.577623 0.750000 0.338653
O O10 0.629536 0.513816 0.458048
O O11 0.755014 0.526472 0.414020
O O12 0.463616 0.475732 0.234835
O O13 0.579685 0.250000 0.487146
O O14 0.500000 0.000000 0.500000
O O15 0.149746 0.250000 0.602123
O O16 0.000000 0.000000 0.500000
O O17 0.586591 0.750000 0.889246
O O18 0.798484 0.956306 0.010067
O O19 0.152888 0.750000 0.979728
#
# Coordination Sequence:
#
# PCOD8069165 Si02
#       7
#     4   4   4   4   4   4   4
#     4  10  21  38  58  85 116 148 186 232 284 341
#     4   9  19  33  49  73 103 134 174 219 265 315
#     4  10  20  36  56  81 109 142 187 236 277 328
#     4  11  22  36  54  77 107 145 187 231 277 329
#     4   9  20  37  60  88 117 147 188 235 285 344
#     4  11  20  32  53  81 110 143 182 224 270 329
#     4  10  18  30  51  76 103 135 171 218 266 311
#
# _framework density 19.049026000000001
#
# number of rings (size 3 to 8) (size 9 to 14) (size 15 to 20)
#    0.000    2.000    1.429    3.857    0.000    4.571 
#    0.000    1.429    0.000    1.714    0.000    0.000 
#    0.000    0.000    0.000    0.000    0.000    0.000 
#
# Total GULP energy -346889.328674 kJ/mol
# GULP energy per Si atom -12388.904595 kJ/mol
# Density = 1.900567 g / cm^3
# Si number density = 19.049026 Si / 1000 Ang^3
#
#
#
# Elastic Constant Matrix: (Units=GPa)
#
#
# Indices 1 2 3 4 5 6 
#
# 1 114.4217 26.9084 59.7502 0.0000 2.1522 0.0000
# 2 26.9084 70.5491 27.1923 0.0000 1.3391 0.0000
# 3 59.7502 27.1923 59.8991 0.0000 -3.1086 0.0000
# 4 0.0000 0.0000 0.0000 26.4189 0.0000 -0.7691
# 5 2.1522 1.3391 -3.1086 0.0000 35.3778 0.0000
# 6 0.0000 0.0000 0.0000 -0.7691 0.0000 35.8122
#
#
#
# Elastic Compliance Matrix: (Units=1/GPa)
#
#
# Indices 1 2 3 4 5 6 
#
# 1 0.018508 0.000200 -0.018697 0.000000 -0.002776 0.000000
# 2 0.000200 0.017247 -0.008100 0.000000 -0.001377 0.000000
# 3 -0.018697 -0.008100 0.039277 0.000000 0.004895 0.000000
# 4 0.000000 0.000000 0.000000 0.037875 0.000000 0.000813
# 5 -0.002776 -0.001377 0.004895 0.000000 0.028918 0.000000
# 6 0.000000 0.000000 0.000000 0.000813 0.000000 0.027941
#
#
# Mechanical properties :
#
#
# Convention : Reuss Voigt Hill
#
# Bulk Modulus (GPa) = 45.79465 52.50797 49.15131
# Shear Modulus (GPa) = 21.71655 28.25639 24.98647
#
# Velocity S-wave (km/s) = 3.38010 3.85561 3.62566
# Velocity P-wave (km/s) = 6.27105 6.88806 6.58679
#
# Compressibility (1/GPa) = 0.02183661
#
# Stress axis : x y z
#
# Youngs Moduli (GPa) = 54.02977 57.98264 25.46036
#
# Poissons Ratio (x) = -0.01159 0.47604
# Poissons Ratio (y) = -0.01080 0.20624
# Poissons Ratio (z) = 1.01020 0.46968
#
# Static dielectric constant tensor:
#      x y z
#    x 3.961490 0.000000 0.239390 
#    y 0.000000 3.665140 0.000000 
#    z 0.239390 0.000000 3.264350 
# 
# 
# High freq. dielectric constant tensor:
#      x y z
#    x 1.748940 0.000000 0.014660 
#    y 0.000000 1.747030 0.000000 
#    z 0.014660 0.000000 1.704610 
# 
# From -- ./inp_files/60154.got.cif
#   From: 2010.06.25/outbox.cif.g09.slc.cpg/sg11_31_cif.got.tgz:60154.got - 2010.06.27 23:14:04.
