data_PCOD8069073
_publ_section_title
;
Structure prediction by ZEFSAII (Michael W. Deem and Ramdas Pophale) SiO2 
 PCOD8069073
Probable space group: P 21/M
;
_chemical_formula_sum "Si O2"
_cell_formula_units_Z 28
_cell_length_a 19.053273
_cell_length_b 8.797448
_cell_length_c 14.884861
_cell_angle_alpha 90.000000
_cell_angle_beta 142.140568
_cell_angle_gamma 90.000000
_cell_volume 1531.249092
_symmetry_space_group_name_H-M "P 21/M"
_symmetry_group_IT_number 11
_symmetry_cell_setting 'monoclinic'
loop_
_space_group_symop_operation_xyz
x,y,z
-x,1/2+y,-z
-x,-y,-z
x,1/2-y,z
loop_
_atom_site_type_symbol
_atom_site_label
_atom_site_fract_x
_atom_site_fract_y
_atom_site_fract_z
Si Si1 0.911895 0.071598 0.601963
Si Si2 0.470795 0.426484 0.564090
Si Si3 0.421088 0.930460 0.787855
Si Si4 0.764232 0.928966 0.296024
Si Si5 0.171767 0.073064 0.839475
Si Si6 0.610436 0.070919 0.877095
Si Si7 0.269322 0.071796 0.478439
O O1 0.891984 0.250000 0.569816
O O2 0.044731 0.029912 0.742161
O O3 0.856109 0.988050 0.460784
O O4 0.853039 0.013064 0.635890
O O5 0.500000 0.500000 0.500000
O O6 0.492548 0.250000 0.575202
O O7 0.554279 0.488081 0.727153
O O8 0.337134 0.459990 0.453875
O O9 0.417259 0.750000 0.781924
O O10 0.361241 0.992341 0.818529
O O11 0.550414 0.988494 0.902397
O O12 0.347353 0.005166 0.635130
O O13 0.748982 0.750000 0.291614
O O14 0.812850 0.974195 0.248366
O O15 0.197561 0.250000 0.880087
O O16 0.257047 0.976322 0.988216
O O17 0.594341 0.250000 0.871174
O O18 0.251567 0.250000 0.475645
#
# Coordination Sequence:
#
# PCOD8069073 Si02
#       7
#     4   4   4   4   4   4   4
#     4  10  19  32  50  73 100 132 174 213 245 286
#     4   9  19  34  55  82 104 123 152 194 243 298
#     4  10  18  30  49  71  97 130 167 207 251 294
#     4  10  19  32  49  70  98 132 173 216 252 287
#     4  10  22  35  48  70 100 135 173 211 249 290
#     4  10  21  36  52  73 101 131 164 200 247 304
#     4   9  17  31  50  75 103 129 162 200 242 291
#
# _framework density 18.285724999999999
#
# number of rings (size 3 to 8) (size 9 to 14) (size 15 to 20)
#    0.000    2.286    0.000    6.000    0.000    6.286 
#    0.000    0.000    0.000    0.857    0.000    0.000 
#    0.000    0.000    0.000    0.000    0.000    0.000 
#
# Total GULP energy -347065.624221 kJ/mol
# GULP energy per Si atom -12395.200865 kJ/mol
# Density = 1.824411 g / cm^3
# Si number density = 18.285725 Si / 1000 Ang^3
#
#
#
# Elastic Constant Matrix: (Units=GPa)
#
#
# Indices 1 2 3 4 5 6 
#
# 1 140.4274 53.7714 56.0146 0.0000 13.6394 0.0000
# 2 53.7714 104.0290 38.6950 0.0000 1.3006 0.0000
# 3 56.0146 38.6950 76.4422 0.0000 16.8286 0.0000
# 4 0.0000 0.0000 0.0000 27.4487 0.0000 4.8215
# 5 13.6394 1.3006 16.8286 0.0000 22.4897 0.0000
# 6 0.0000 0.0000 0.0000 4.8215 0.0000 32.0195
#
#
#
# Elastic Compliance Matrix: (Units=1/GPa)
#
#
# Indices 1 2 3 4 5 6 
#
# 1 0.010981 -0.003485 -0.005819 0.000000 -0.002104 0.000000
# 2 -0.003485 0.013351 -0.005387 0.000000 0.005373 0.000000
# 3 -0.005819 -0.005387 0.023020 0.000000 -0.013384 0.000000
# 4 0.000000 0.000000 0.000000 0.037421 0.000000 -0.005635
# 5 -0.002104 0.005373 -0.013384 0.000000 0.055445 0.000000
# 6 0.000000 0.000000 0.000000 -0.005635 0.000000 0.032079
#
#
# Mechanical properties :
#
#
# Convention : Reuss Voigt Hill
#
# Bulk Modulus (GPa) = 55.65393 68.65117 62.15255
# Shear Modulus (GPa) = 24.07664 27.88609 25.98137
#
# Velocity S-wave (km/s) = 3.63256 3.90939 3.77351
# Velocity P-wave (km/s) = 6.93511 7.61596 7.28350
#
# Compressibility (1/GPa) = 0.01796818
#
# Stress axis : x y z
#
# Youngs Moduli (GPa) = 91.06433 74.90197 43.44139
#
# Poissons Ratio (x) = 0.26105 0.25280
# Poissons Ratio (y) = 0.31737 0.23402
# Poissons Ratio (z) = 0.52994 0.40350
#
# Static dielectric constant tensor:
#      x y z
#    x 4.032790 0.000000 0.365840 
#    y 0.000000 3.399560 0.000000 
#    z 0.365840 0.000000 3.211160 
# 
# 
# High freq. dielectric constant tensor:
#      x y z
#    x 1.711600 0.000000 0.025930 
#    y 0.000000 1.718300 0.000000 
#    z 0.025930 0.000000 1.675370 
# 
# From -- ./inp_files/53268.got.cif
#   From: 2010.06.25/outbox.cif.g09.slc.cpg/sg11_27_cif.got.tgz:53268.got - 2010.06.27 23:14:04.
