data_PCOD8069192
_publ_section_title
;
Structure prediction by ZEFSAII (Michael W. Deem and Ramdas Pophale) SiO2 
 PCOD8069192
Probable space group: P 21/M
;
_chemical_formula_sum "Si O2"
_cell_formula_units_Z 28
_cell_length_a 5.119816
_cell_length_b 16.830566
_cell_length_c 15.542021
_cell_angle_alpha 90.000000
_cell_angle_beta 72.005271
_cell_angle_gamma 90.000000
_cell_volume 1273.737312
_symmetry_space_group_name_H-M "P 21/M"
_symmetry_group_IT_number 11
_symmetry_cell_setting 'monoclinic'
loop_
_space_group_symop_operation_xyz
x,y,z
-x,1/2+y,-z
-x,-y,-z
x,1/2-y,z
loop_
_atom_site_type_symbol
_atom_site_label
_atom_site_fract_x
_atom_site_fract_y
_atom_site_fract_z
Si Si1 0.874519 0.343286 0.977668
Si Si2 0.511866 0.656537 0.133035
Si Si3 0.355495 0.901802 0.331059
Si Si4 0.808269 0.554607 0.576296
Si Si5 0.753842 0.841193 0.429670
Si Si6 0.353224 0.842223 0.822604
Si Si7 0.028362 0.157661 0.288932
O O1 0.816723 0.250000 0.986188
O O2 0.192674 0.363450 0.936308
O O3 0.709648 0.376629 0.912345
O O4 0.762091 0.382039 0.077915
O O5 0.476684 0.750000 0.156184
O O6 0.475686 0.608409 0.224202
O O7 0.524026 0.848052 0.380205
O O8 0.038037 0.876394 0.364778
O O9 0.393331 0.995306 0.351203
O O10 0.649782 0.613452 0.526723
O O11 0.992779 0.607342 0.621675
O O12 0.000000 0.500000 0.500000
O O13 0.794531 0.750000 0.450187
O O14 0.274901 0.750000 0.832877
O O15 0.676285 0.856463 0.784728
O O16 0.201226 0.876349 0.753217
O O17 0.981961 0.250000 0.316744
#
# Coordination Sequence:
#
# PCOD8069192 Si02
#       7
#     4   4   4   4   4   4   4
#     4   9  17  30  52  82 113 143 182 233 281 326
#     4  10  18  30  52  80 110 146 186 226 275 336
#     4  11  23  38  57  84 119 154 188 231 287 342
#     4  10  24  42  60  84 116 153 191 235 292 346
#     4  11  22  39  61  84 112 147 194 243 285 335
#     4   9  18  33  56  86 114 143 185 239 288 329
#     4  10  20  36  60  86 113 148 193 238 282 335
#
# _framework density 21.982555000000001
#
# number of rings (size 3 to 8) (size 9 to 14) (size 15 to 20)
#    0.000    2.000    0.000    3.857    0.000    9.143 
#    0.000    4.286    0.000    5.143    0.000    0.000 
#    0.000    0.000    0.000    0.000    0.000    0.000 
#
# Total GULP energy -347224.864950 kJ/mol
# GULP energy per Si atom -12400.888034 kJ/mol
# Density = 2.193252 g / cm^3
# Si number density = 21.982555 Si / 1000 Ang^3
#
#
#
# Elastic Constant Matrix: (Units=GPa)
#
#
# Indices 1 2 3 4 5 6 
#
# 1 70.8164 4.5179 -0.4881 0.0000 19.3754 0.0000
# 2 4.5179 73.2507 35.5139 0.0000 3.2107 0.0000
# 3 -0.4881 35.5139 107.5166 0.0000 27.6126 0.0000
# 4 0.0000 0.0000 0.0000 20.1959 0.0000 -2.1325
# 5 19.3754 3.2107 27.6126 0.0000 34.4470 0.0000
# 6 0.0000 0.0000 0.0000 -2.1325 0.0000 11.2140
#
#
#
# Elastic Compliance Matrix: (Units=1/GPa)
#
#
# Indices 1 2 3 4 5 6 
#
# 1 0.017986 -0.002655 0.004399 0.000000 -0.013395 0.000000
# 2 -0.002655 0.016991 -0.007053 0.000000 0.005563 0.000000
# 3 0.004399 -0.007053 0.015258 0.000000 -0.014048 0.000000
# 4 0.000000 0.000000 0.000000 0.050529 0.000000 0.009609
# 5 -0.013395 0.005563 -0.014048 0.000000 0.047307 0.000000
# 6 0.000000 0.000000 0.000000 0.009609 0.000000 0.091001
#
#
# Mechanical properties :
#
#
# Convention : Reuss Voigt Hill
#
# Bulk Modulus (GPa) = 25.24204 36.74125 30.99165
# Shear Modulus (GPa) = 19.01887 27.30738 23.16313
#
# Velocity S-wave (km/s) = 2.94459 3.52835 3.24960
# Velocity P-wave (km/s) = 4.80296 5.77487 5.31120
#
# Compressibility (1/GPa) = 0.03961645
#
# Stress axis : x y z
#
# Youngs Moduli (GPa) = 55.60021 58.85394 65.53769
#
# Poissons Ratio (x) = 0.15624 -0.28828
# Poissons Ratio (y) = 0.14761 0.46225
# Poissons Ratio (z) = -0.24457 0.41511
#
# Static dielectric constant tensor:
#      x y z
#    x 3.890180 0.000000 0.173400 
#    y 0.000000 4.017390 0.000000 
#    z 0.173400 0.000000 4.169700 
# 
# 
# High freq. dielectric constant tensor:
#      x y z
#    x 1.867740 0.000000 0.009180 
#    y 0.000000 1.835030 0.000000 
#    z 0.009180 0.000000 1.876590 
# 
# From -- ./inp_files/45892.got.cif
#   From: 2010.06.25/outbox.cif.g09.slc.cpg/sg11_23_cif.got.tgz:45892.got - 2010.06.27 23:14:04.
