data_PCOD8069945
_publ_section_title
;
Structure prediction by ZEFSAII (Michael W. Deem and Ramdas Pophale) SiO2 
 PCOD8069945
Probable space group: P 21/M
;
_chemical_formula_sum "Si O2"
_cell_formula_units_Z 32
_cell_length_a 16.476115
_cell_length_b 20.682484
_cell_length_c 15.595070
_cell_angle_alpha 90.000000
_cell_angle_beta 18.821911
_cell_angle_gamma 90.000000
_cell_volume 1714.535480
_symmetry_space_group_name_H-M "P 21/M"
_symmetry_group_IT_number 11
_symmetry_cell_setting 'monoclinic'
loop_
_space_group_symop_operation_xyz
x,y,z
-x,1/2+y,-z
-x,-y,-z
x,1/2-y,z
loop_
_atom_site_type_symbol
_atom_site_label
_atom_site_fract_x
_atom_site_fract_y
_atom_site_fract_z
Si Si1 0.499996 0.003787 0.779217
Si Si2 0.000002 0.426788 0.037668
Si Si3 0.000003 0.964212 0.635366
Si Si4 0.499999 0.869032 0.877528
Si Si5 0.999999 0.400135 0.538456
Si Si6 0.499991 0.178708 0.299304
Si Si7 0.999994 0.327833 0.885977
Si Si8 0.500000 0.036704 0.591285
O O1 0.500001 0.991812 0.676344
O O2 0.749574 0.043113 0.557522
O O3 0.500000 0.935192 0.824363
O O4 0.250417 0.043112 0.056677
O O5 0.749422 0.418837 0.345692
O O6 0.999998 0.367144 0.973225
O O7 0.250581 0.418836 0.844533
O O8 0.000000 0.500000 0.000000
O O9 0.999999 0.908121 0.563942
O O10 0.000003 0.032059 0.586654
O O11 0.500001 0.815221 0.803790
O O12 0.748004 0.861243 0.687809
O O13 0.251995 0.861243 0.183817
O O14 0.499988 0.250000 0.338325
O O15 0.243146 0.146173 0.590375
O O16 0.756833 0.146173 0.076692
O O17 0.999982 0.250000 0.900512
O O18 0.500000 0.000000 0.500000
#
# Coordination Sequence:
#
# PCOD8069945 Si02
#       8
#     4   4   4   4   4   4   4   4
#     4  10  19  29  46  69  95 136 163 196 250 304
#     4  10  21  32  50  70  97 133 162 221 258 296
#     4   9  17  30  46  64  98 125 160 199 231 303
#     4  10  19  28  48  69  96 128 167 195 237 305
#     4   9  17  30  44  70  92 125 159 196 241 279
#     4  10  21  34  50  71 100 135 172 212 240 297
#     4  10  21  36  52  70  97 137 180 210 253 306
#     4  10  21  33  44  71 102 133 165 211 261 303
#
# _framework density 18.663947
#
# number of rings (size 3 to 8) (size 9 to 14) (size 15 to 20)
#    0.000    2.250    0.000    3.000    7.000    3.000 
#    0.000    0.000    0.000    0.000    0.000    0.000 
#    0.000   20.000    0.000    0.000    0.000    0.000 
#
# Total GULP energy -396492.317037 kJ/mol
# GULP energy per Si atom -12390.384907 kJ/mol
# Density = 1.862147 g / cm^3
# Si number density = 18.663947 Si / 1000 Ang^3
#
#
#
# Elastic Constant Matrix: (Units=GPa)
#
#
# Indices 1 2 3 4 5 6 
#
# 1 100.2586 12.5342 51.1594 0.0000 -6.4663 0.0000
# 2 12.5342 29.7008 17.3588 0.0000 -1.3874 0.0000
# 3 51.1594 17.3588 194.2333 0.0000 -20.5580 0.0000
# 4 0.0000 0.0000 0.0000 7.0706 0.0000 5.0441
# 5 -6.4663 -1.3874 -20.5580 0.0000 39.8458 0.0000
# 6 0.0000 0.0000 0.0000 5.0441 0.0000 24.6087
#
#
#
# Elastic Compliance Matrix: (Units=1/GPa)
#
#
# Indices 1 2 3 4 5 6 
#
# 1 0.011835 -0.003353 -0.002778 0.000000 0.000370 0.000000
# 2 -0.003353 0.036482 -0.002433 0.000000 -0.000529 0.000000
# 3 -0.002778 -0.002433 0.006390 0.000000 0.002761 0.000000
# 4 0.000000 0.000000 0.000000 0.165653 0.000000 -0.033954
# 5 0.000370 -0.000529 0.002761 0.000000 0.026563 0.000000
# 6 0.000000 0.000000 0.000000 -0.033954 0.000000 0.047596
#
#
# Mechanical properties :
#
#
# Convention : Reuss Voigt Hill
#
# Bulk Modulus (GPa) = 26.61220 54.03307 40.32264
# Shear Modulus (GPa) = 15.42385 30.51438 22.96911
#
# Velocity S-wave (km/s) = 2.87783 4.04782 3.51189
# Velocity P-wave (km/s) = 5.03310 7.13161 6.17219
#
# Compressibility (1/GPa) = 0.03757675
#
# Stress axis : x y z
#
# Youngs Moduli (GPa) = 84.49469 27.41107 156.49577
#
# Poissons Ratio (x) = 0.09192 0.43480
# Poissons Ratio (y) = 0.28335 0.38078
# Poissons Ratio (z) = 0.23476 0.06670
#
# Static dielectric constant tensor:
#      x y z
#    x 3.472700 0.000000 -0.287710 
#    y 0.000000 2.892910 0.000000 
#    z -0.287710 0.000000 4.472980 
# 
# 
# High freq. dielectric constant tensor:
#      x y z
#    x 1.713550 0.000000 -0.013560 
#    y 0.000000 1.655210 0.000000 
#    z -0.013560 0.000000 1.760690 
# 
# From -- ./inp_files/7050.got.cif
#   From: 2010.06.25/outbox.cif.g09.slc.cpg/sg11_4_cif.got.tgz:7050.got - 2010.06.27 23:14:04.
