data_PCOD8069622
_publ_section_title
;
Structure prediction by ZEFSAII (Michael W. Deem and Ramdas Pophale) SiO2 
 PCOD8069622
Probable space group: P 21/M
;
_chemical_formula_sum "Si O2"
_cell_formula_units_Z 28
_cell_length_a 12.044248
_cell_length_b 18.595447
_cell_length_c 9.601947
_cell_angle_alpha 90.000000
_cell_angle_beta 129.151908
_cell_angle_gamma 90.000000
_cell_volume 1667.682072
_symmetry_space_group_name_H-M "P 21/M"
_symmetry_group_IT_number 11
_symmetry_cell_setting 'monoclinic'
loop_
_space_group_symop_operation_xyz
x,y,z
-x,1/2+y,-z
-x,-y,-z
x,1/2-y,z
loop_
_atom_site_type_symbol
_atom_site_label
_atom_site_fract_x
_atom_site_fract_y
_atom_site_fract_z
Si Si1 0.670441 0.026155 0.023581
Si Si2 0.970721 0.409974 0.826294
Si Si3 0.228106 0.834031 0.529809
Si Si4 0.947440 0.071004 0.117973
Si Si5 0.788167 0.614996 0.189417
Si Si6 0.489998 0.897789 0.873469
Si Si7 0.003438 0.332913 0.424274
O O1 0.774993 0.059667 0.990331
O O2 0.602917 0.089780 0.060468
O O3 0.766760 0.971442 0.196200
O O4 0.543911 0.975973 0.856219
O O5 0.825255 0.377925 0.646490
O O6 0.968371 0.495866 0.804607
O O7 0.104944 0.372360 0.855969
O O8 0.979140 0.390680 0.996168
O O9 0.217321 0.750000 0.488954
O O10 0.393270 0.855727 0.686227
O O11 0.131795 0.854938 0.587493
O O12 0.003979 0.121538 0.284733
O O13 0.849636 0.651379 0.376558
O O14 0.632033 0.648905 0.026307
O O15 0.996914 0.250000 0.377221
#
# Coordination Sequence:
#
# PCOD8069622 Si02
#       7
#     4   4   4   4   4   4   4
#     4   8  16  28  50  77  98 123 163 205 252 290
#     4   9  20  32  52  77 100 132 170 206 253 297
#     4  10  20  33  51  76 101 133 172 207 249 305
#     4  10  18  33  53  75 104 131 168 214 251 293
#     4   8  17  31  50  74 101 125 162 206 247 297
#     4   9  16  30  51  75  99 127 162 206 253 291
#     4  10  20  31  50  77  99 131 171 208 252 297
#
# _framework density 16.789770000000001
#
# number of rings (size 3 to 8) (size 9 to 14) (size 15 to 20)
#    0.857    2.000    1.429    0.000    2.000    2.857 
#    0.000    0.714    3.143    0.000    0.000    0.000 
#    0.000    0.000    0.000    0.000    0.000    0.000 
#
# Total GULP energy -346937.528271 kJ/mol
# GULP energy per Si atom -12390.626010 kJ/mol
# Density = 1.675156 g / cm^3
# Si number density = 16.789770 Si / 1000 Ang^3
#
#
#
# Elastic Constant Matrix: (Units=GPa)
#
#
# Indices 1 2 3 4 5 6 
#
# 1 75.9947 26.9923 58.3086 0.0000 1.2313 0.0000
# 2 26.9923 53.4257 48.7321 0.0000 -5.7504 0.0000
# 3 58.3086 48.7321 131.3244 0.0000 4.1819 0.0000
# 4 0.0000 0.0000 0.0000 8.4232 0.0000 0.8635
# 5 1.2313 -5.7504 4.1819 0.0000 32.9647 0.0000
# 6 0.0000 0.0000 0.0000 0.8635 0.0000 16.5908
#
#
#
# Elastic Compliance Matrix: (Units=1/GPa)
#
#
# Indices 1 2 3 4 5 6 
#
# 1 0.020289 -0.003139 -0.007834 0.000000 -0.000312 0.000000
# 2 -0.003139 0.030143 -0.010004 0.000000 0.006645 0.000000
# 3 -0.007834 -0.010004 0.014912 0.000000 -0.003344 0.000000
# 4 0.000000 0.000000 0.000000 0.119357 0.000000 -0.006212
# 5 -0.000312 0.006645 -0.003344 0.000000 0.031930 0.000000
# 6 0.000000 0.000000 0.000000 -0.006212 0.000000 0.060598
#
#
# Mechanical properties :
#
#
# Convention : Reuss Voigt Hill
#
# Bulk Modulus (GPa) = 42.74977 58.75673 50.75325
# Shear Modulus (GPa) = 15.29148 20.04317 17.66733
#
# Velocity S-wave (km/s) = 3.02116 3.45885 3.24739
# Velocity P-wave (km/s) = 6.13897 7.14304 6.65995
#
# Compressibility (1/GPa) = 0.02339194
#
# Stress axis : x y z
#
# Youngs Moduli (GPa) = 49.28664 33.17486 67.06126
#
# Poissons Ratio (x) = 0.10412 0.52536
# Poissons Ratio (y) = 0.15469 0.67086
# Poissons Ratio (z) = 0.38611 0.33187
#
# Static dielectric constant tensor:
#      x y z
#    x 3.182450 0.000000 0.172450 
#    y 0.000000 2.918690 0.000000 
#    z 0.172450 0.000000 2.972680 
# 
# 
# High freq. dielectric constant tensor:
#      x y z
#    x 1.638520 0.000000 0.015970 
#    y 0.000000 1.630420 0.000000 
#    z 0.015970 0.000000 1.625580 
# 
# From -- ./inp_files/19241.got.cif
#   From: 2010.06.25/outbox.cif.g09.slc.cpg/sg11_10_cif.got.tgz:19241.got - 2010.06.27 23:14:04.
