data_PCOD8069901
_publ_section_title
;
Structure prediction by ZEFSAII (Michael W. Deem and Ramdas Pophale) SiO2 
 PCOD8069901
Probable space group: P 21/M
;
_chemical_formula_sum "Si O2"
_cell_formula_units_Z 24
_cell_length_a 6.150490
_cell_length_b 22.757367
_cell_length_c 7.377823
_cell_angle_alpha 90.000000
_cell_angle_beta 68.984014
_cell_angle_gamma 90.000000
_cell_volume 963.973659
_symmetry_space_group_name_H-M "P 21/M"
_symmetry_group_IT_number 11
_symmetry_cell_setting 'monoclinic'
loop_
_space_group_symop_operation_xyz
x,y,z
-x,1/2+y,-z
-x,-y,-z
x,1/2-y,z
loop_
_atom_site_type_symbol
_atom_site_label
_atom_site_fract_x
_atom_site_fract_y
_atom_site_fract_z
Si Si1 0.192621 0.975500 0.274304
Si Si2 0.805271 0.889453 0.315983
Si Si3 0.306984 0.918896 0.598533
Si Si4 0.480611 0.423268 0.100645
Si Si5 0.420077 0.183516 0.913532
Si Si6 0.120510 0.684410 0.464379
O O1 0.173674 0.964710 0.500549
O O2 0.981431 0.944153 0.232177
O O3 0.231106 0.044884 0.221251
O O4 0.429160 0.945306 0.123329
O O5 0.571062 0.918563 0.453860
O O6 0.774991 0.850662 0.144573
O O7 0.895806 0.843991 0.439792
O O8 0.322511 0.937588 0.804444
O O9 0.192761 0.854373 0.616798
O O10 0.437790 0.353054 0.097199
O O11 0.337771 0.250000 0.979336
O O12 0.668810 0.183556 0.741436
O O13 0.063285 0.750000 0.548003
#
# Coordination Sequence:
#
# PCOD8069901 Si02
#       6
#     4   4   4   4   4   4
#     4  10  22  41  59  84 118 154 193 232 289 346
#     4  10  18  38  59  84 116 152 190 235 288 341
#     4  10  21  38  58  86 117 148 191 242 290 334
#     4  11  21  40  61  85 118 153 189 240 288 340
#     4  10  20  37  59  85 116 150 191 238 286 338
#     4   9  18  36  59  81 114 157 193 234 286 342
#
# _framework density 24.896947000000001
#
# number of rings (size 3 to 8) (size 9 to 14) (size 15 to 20)
#    0.000    2.000    5.000    1.000    0.000    2.667 
#    6.000    0.000    0.000    0.000    0.000    0.000 
#    0.000    0.000    0.000    0.000    0.000    0.000 
#
# Total GULP energy -297484.125834 kJ/mol
# GULP energy per Si atom -12395.171910 kJ/mol
# Density = 2.484028 g / cm^3
# Si number density = 24.896947 Si / 1000 Ang^3
#
#
#
# Elastic Constant Matrix: (Units=GPa)
#
#
# Indices 1 2 3 4 5 6 
#
# 1 44.8164 -12.9735 -6.5804 0.0000 22.5652 0.0000
# 2 -12.9735 106.4196 11.9047 0.0000 13.8055 0.0000
# 3 -6.5804 11.9047 83.2000 0.0000 23.9579 0.0000
# 4 0.0000 0.0000 0.0000 25.7049 0.0000 13.5349
# 5 22.5652 13.8055 23.9579 0.0000 32.5759 0.0000
# 6 0.0000 0.0000 0.0000 13.5349 0.0000 28.8627
#
#
#
# Elastic Compliance Matrix: (Units=1/GPa)
#
#
# Indices 1 2 3 4 5 6 
#
# 1 0.061665 0.013445 0.021433 0.000000 -0.064176 0.000000
# 2 0.013445 0.012880 0.004408 0.000000 -0.018013 0.000000
# 3 0.021433 0.004408 0.022705 0.000000 -0.033413 0.000000
# 4 0.000000 0.000000 0.000000 0.051659 0.000000 -0.024225
# 5 -0.064176 -0.018013 -0.033413 0.000000 0.107360 0.000000
# 6 0.000000 0.000000 0.000000 -0.024225 0.000000 0.046007
#
#
# Mechanical properties :
#
#
# Convention : Reuss Voigt Hill
#
# Bulk Modulus (GPa) = 5.68756 24.34864 15.01810
# Shear Modulus (GPa) = 17.71098 33.56771 25.63935
#
# Velocity S-wave (km/s) = 2.67005 3.67586 3.21256
# Velocity P-wave (km/s) = 3.43438 5.27417 4.45038
#
# Compressibility (1/GPa) = 0.17582236
#
# Stress axis : x y z
#
# Youngs Moduli (GPa) = 16.21655 77.64208 44.04273
#
# Poissons Ratio (x) = -1.04392 -0.94398
# Poissons Ratio (y) = -0.21804 -0.19412
# Poissons Ratio (z) = -0.34757 -0.34221
#
# Static dielectric constant tensor:
#      x y z
#    x 4.454370 0.000000 0.181800 
#    y 0.000000 4.868620 0.000000 
#    z 0.181800 0.000000 4.372120 
# 
# 
# High freq. dielectric constant tensor:
#      x y z
#    x 1.993540 0.000000 0.004750 
#    y 0.000000 1.999560 0.000000 
#    z 0.004750 0.000000 1.969080 
# 
# From -- ./inp_files/10445.got.cif
#   From: 2010.06.25/outbox.cif.g09.slc.cpg/sg11_6_cif.got.tgz:10445.got - 2010.06.27 23:14:04.
