data_PCOD8069032
_publ_section_title
;
Structure prediction by ZEFSAII (Michael W. Deem and Ramdas Pophale) SiO2 
 PCOD8069032
Probable space group: P 21/M
;
_chemical_formula_sum "Si O2"
_cell_formula_units_Z 32
_cell_length_a 14.986943
_cell_length_b 10.220492
_cell_length_c 26.569430
_cell_angle_alpha 90.000000
_cell_angle_beta 27.937435
_cell_angle_gamma 90.000000
_cell_volume 1906.704120
_symmetry_space_group_name_H-M "P 21/M"
_symmetry_group_IT_number 11
_symmetry_cell_setting 'monoclinic'
loop_
_space_group_symop_operation_xyz
x,y,z
-x,1/2+y,-z
-x,-y,-z
x,1/2-y,z
loop_
_atom_site_type_symbol
_atom_site_label
_atom_site_fract_x
_atom_site_fract_y
_atom_site_fract_z
Si Si1 0.322894 0.104032 0.797127
Si Si2 0.884590 0.605222 0.493658
Si Si3 0.356334 0.603815 0.550517
Si Si4 0.608411 0.100277 0.149274
Si Si5 0.968590 0.398608 0.906358
Si Si6 0.555287 0.993789 0.594491
Si Si7 0.165935 0.604584 0.742813
Si Si8 0.183692 0.102479 0.356794
O O1 0.341150 0.250000 0.811145
O O2 0.473723 0.094410 0.676412
O O3 0.110552 0.080131 0.882296
O O4 0.360633 0.996052 0.819919
O O5 0.975762 0.750000 0.445192
O O6 0.704059 0.603045 0.546709
O O7 0.811538 0.574519 0.586032
O O8 0.043679 0.498771 0.398639
O O9 0.500000 0.500000 0.500000
O O10 0.442374 0.750000 0.512014
O O11 0.322824 0.572216 0.508504
O O12 0.170099 0.593608 0.679488
O O13 0.632908 0.250000 0.156649
O O14 0.398743 0.080431 0.230127
O O15 0.756792 0.069772 0.030947
O O16 0.985539 0.250000 0.877368
O O17 0.017891 0.497521 0.836726
O O18 0.379185 0.914716 0.658364
O O19 0.097745 0.750000 0.792823
O O20 0.113593 0.250000 0.380027
#
# Coordination Sequence:
#
# PCOD8069032 Si02
#       8
#     4   4   4   4   4   4   4   4
#     4  10  19  28  42  68  95 121 155 192 226 266
#     4  10  19  32  48  68  92 123 160 196 234 278
#     4   9  18  31  47  69  97 128 159 192 233 280
#     4  10  19  33  48  63  89 125 159 191 231 277
#     4   9  19  32  46  65  91 123 157 192 231 275
#     4  10  18  30  48  70  96 129 157 188 230 283
#     4   9  18  31  48  70  96 124 156 192 229 274
#     4   9  19  33  47  65  90 123 159 197 236 276
#
# _framework density 16.782888
#
# number of rings (size 3 to 8) (size 9 to 14) (size 15 to 20)
#    0.000    2.500    1.250    1.125    0.000    7.500 
#    0.000    0.000    0.000    0.000    0.000    0.875 
#    0.000    0.000    0.000    0.000    0.000    0.000 
#
# Total GULP energy -396613.546493 kJ/mol
# GULP energy per Si atom -12394.173328 kJ/mol
# Density = 1.674469 g / cm^3
# Si number density = 16.782888 Si / 1000 Ang^3
#
#
#
# Elastic Constant Matrix: (Units=GPa)
#
#
# Indices 1 2 3 4 5 6 
#
# 1 33.1262 24.4003 34.8142 0.0000 4.5207 0.0000
# 2 24.4003 111.4399 57.8841 0.0000 7.3286 0.0000
# 3 34.8142 57.8841 106.3440 0.0000 0.9746 0.0000
# 4 0.0000 0.0000 0.0000 21.6431 0.0000 -0.0518
# 5 4.5207 7.3286 0.9746 0.0000 21.6990 0.0000
# 6 0.0000 0.0000 0.0000 -0.0518 0.0000 19.5520
#
#
#
# Elastic Compliance Matrix: (Units=1/GPa)
#
#
# Indices 1 2 3 4 5 6 
#
# 1 0.048320 -0.002567 -0.014343 0.000000 -0.008555 0.000000
# 2 -0.002567 0.012989 -0.006197 0.000000 -0.003574 0.000000
# 3 -0.014343 -0.006197 0.017433 0.000000 0.004298 0.000000
# 4 0.000000 0.000000 0.000000 0.046204 0.000000 0.000122
# 5 -0.008555 -0.003574 0.004298 0.000000 0.048882 0.000000
# 6 0.000000 0.000000 0.000000 0.000122 0.000000 0.051146
#
#
# Mechanical properties :
#
#
# Convention : Reuss Voigt Hill
#
# Bulk Modulus (GPa) = 30.74317 53.90081 42.32199
# Shear Modulus (GPa) = 17.72857 21.49959 19.61408
#
# Velocity S-wave (km/s) = 3.25368 3.58305 3.42233
# Velocity P-wave (km/s) = 5.69852 7.02167 6.39441
#
# Compressibility (1/GPa) = 0.03252756
#
# Stress axis : x y z
#
# Youngs Moduli (GPa) = 20.69546 76.98538 57.36355
#
# Poissons Ratio (x) = 0.19764 0.82276
# Poissons Ratio (y) = 0.05313 0.35549
# Poissons Ratio (z) = 0.29683 0.47709
#
# Static dielectric constant tensor:
#      x y z
#    x 2.961740 0.000000 0.166380 
#    y 0.000000 3.274260 0.000000 
#    z 0.166380 0.000000 3.284850 
# 
# 
# High freq. dielectric constant tensor:
#      x y z
#    x 1.602340 0.000000 0.008620 
#    y 0.000000 1.662270 0.000000 
#    z 0.008620 0.000000 1.635480 
# 
# From -- ./inp_files/71611.got.cif
#   From: 2010.06.25/outbox.cif.g09.slc.cpg/sg11_36_cif.got.tgz:71611.got - 2010.06.27 23:14:04.
