data_PCOD8069948
_publ_section_title
;
Structure prediction by ZEFSAII (Michael W. Deem and Ramdas Pophale) SiO2 
 PCOD8069948
Probable space group: P 21/M
;
_chemical_formula_sum "Si O2"
_cell_formula_units_Z 32
_cell_length_a 14.229154
_cell_length_b 9.240692
_cell_length_c 15.852823
_cell_angle_alpha 90.000000
_cell_angle_beta 90.828202
_cell_angle_gamma 90.000000
_cell_volume 2084.226016
_symmetry_space_group_name_H-M "P 21/M"
_symmetry_group_IT_number 11
_symmetry_cell_setting 'monoclinic'
loop_
_space_group_symop_operation_xyz
x,y,z
-x,1/2+y,-z
-x,-y,-z
x,1/2-y,z
loop_
_atom_site_type_symbol
_atom_site_label
_atom_site_fract_x
_atom_site_fract_y
_atom_site_fract_z
Si Si1 0.595551 0.919122 0.684764
Si Si2 0.405045 0.415636 0.497899
Si Si3 0.280033 0.419670 0.158338
Si Si4 0.100023 0.082747 0.915916
Si Si5 0.598310 0.579497 0.002711
Si Si6 0.397944 0.079452 0.679683
Si Si7 0.714531 0.920208 0.164498
Si Si8 0.888966 0.418091 0.911204
O O1 0.573119 0.750000 0.697378
O O2 0.645004 0.948711 0.592986
O O3 0.667840 0.972886 0.756448
O O4 0.498313 0.004146 0.692795
O O5 0.500000 0.500000 0.500000
O O6 0.434363 0.250000 0.500622
O O7 0.352029 0.453385 0.585665
O O8 0.258319 0.250000 0.159928
O O9 0.343490 0.462772 0.079512
O O10 0.181222 0.503491 0.154003
O O11 0.114534 0.250000 0.943882
O O12 0.175423 0.038474 0.844905
O O13 0.995349 0.057722 0.878751
O O14 0.120978 0.984944 0.996575
O O15 0.580234 0.750000 0.006583
O O16 0.500000 0.500000 0.000000
O O17 0.655520 0.520891 0.084209
O O18 0.413767 0.250000 0.692749
O O19 0.325981 0.015300 0.748480
O O20 0.703218 0.750000 0.167109
O O21 0.863336 0.250000 0.916163
#
# Coordination Sequence:
#
# PCOD8069948 Si02
#       8
#     4   4   4   4   4   4   4   4
#     4   9  17  28  42  60  85 116 143 169 205 247
#     4   8  14  25  40  60  83 106 138 174 206 241
#     4  10  19  31  44  58  83 118 144 167 208 252
#     4   9  17  32  48  61  83 110 137 172 216 258
#     4  10  19  29  40  55  80 113 142 166 195 236
#     4   9  16  26  43  64  85 110 139 174 208 240
#     4   9  16  28  44  60  81 111 139 164 204 251
#     4  10  19  29  46  67  82 103 139 182 215 244
#
# _framework density 15.353421000000001
#
# number of rings (size 3 to 8) (size 9 to 14) (size 15 to 20)
#    0.000    2.750    1.250    1.125    0.000    1.500 
#    0.000    0.625    0.000    0.000    0.000    0.875 
#    0.000    0.000    0.000    0.000    0.000    0.000 
#
# Total GULP energy -396483.468984 kJ/mol
# GULP energy per Si atom -12390.108406 kJ/mol
# Density = 1.531848 g / cm^3
# Si number density = 15.353421 Si / 1000 Ang^3
#
#
#
# Elastic Constant Matrix: (Units=GPa)
#
#
# Indices 1 2 3 4 5 6 
#
# 1 109.2001 33.3844 70.2758 0.0000 -4.4376 0.0000
# 2 33.3844 34.4504 29.2244 0.0000 0.3844 0.0000
# 3 70.2758 29.2244 148.3874 0.0000 -5.1572 0.0000
# 4 0.0000 0.0000 0.0000 13.1461 0.0000 2.2418
# 5 -4.4376 0.3844 -5.1572 0.0000 13.3425 0.0000
# 6 0.0000 0.0000 0.0000 2.2418 0.0000 22.5573
#
#
#
# Elastic Compliance Matrix: (Units=1/GPa)
#
#
# Indices 1 2 3 4 5 6 
#
# 1 0.016144 -0.011173 -0.005319 0.000000 0.003635 0.000000
# 2 -0.011173 0.042764 -0.003348 0.000000 -0.006242 0.000000
# 3 -0.005319 -0.003348 0.009994 0.000000 0.002190 0.000000
# 4 0.000000 0.000000 0.000000 0.077380 0.000000 -0.007690
# 5 0.003635 -0.006242 0.002190 0.000000 0.077184 0.000000
# 6 0.000000 0.000000 0.000000 -0.007690 0.000000 0.045096
#
#
# Mechanical properties :
#
#
# Convention : Reuss Voigt Hill
#
# Bulk Modulus (GPa) = 34.22035 61.97857 48.09946
# Shear Modulus (GPa) = 15.72422 20.41941 18.07182
#
# Velocity S-wave (km/s) = 3.20371 3.65082 3.43454
# Velocity P-wave (km/s) = 6.00182 7.63065 6.86471
#
# Compressibility (1/GPa) = 0.02922238
#
# Stress axis : x y z
#
# Youngs Moduli (GPa) = 61.94252 23.38420 100.06429
#
# Poissons Ratio (x) = 0.26127 0.53223
# Poissons Ratio (y) = 0.69208 0.33498
# Poissons Ratio (z) = 0.32947 0.07828
#
# Static dielectric constant tensor:
#      x y z
#    x 2.880500 0.000000 -0.073400 
#    y 0.000000 2.792030 0.000000 
#    z -0.073400 0.000000 3.505160 
# 
# 
# High freq. dielectric constant tensor:
#      x y z
#    x 1.566130 0.000000 -0.002460 
#    y 0.000000 1.581170 0.000000 
#    z -0.002460 0.000000 1.587350 
# 
# From -- ./inp_files/51185.got.cif
#   From: 2010.06.25/outbox.cif.g09.slc.cpg/sg11_26_cif.got.tgz:51185.got - 2010.06.27 23:14:04.
