data_PCOD8069968
_publ_section_title
;
Structure prediction by ZEFSAII (Michael W. Deem and Ramdas Pophale) SiO2 
 PCOD8069968
Probable space group: P 21/M
;
_chemical_formula_sum "Si O2"
_cell_formula_units_Z 32
_cell_length_a 26.253367
_cell_length_b 8.921170
_cell_length_c 18.278012
_cell_angle_alpha 90.000000
_cell_angle_beta 151.683579
_cell_angle_gamma 90.000000
_cell_volume 2030.607669
_symmetry_space_group_name_H-M "P 21/M"
_symmetry_group_IT_number 11
_symmetry_cell_setting 'monoclinic'
loop_
_space_group_symop_operation_xyz
x,y,z
-x,1/2+y,-z
-x,-y,-z
x,1/2-y,z
loop_
_atom_site_type_symbol
_atom_site_label
_atom_site_fract_x
_atom_site_fract_y
_atom_site_fract_z
Si Si1 0.912227 0.918816 0.484933
Si Si2 0.402245 0.574594 0.286170
Si Si3 0.009446 0.076117 0.125853
Si Si4 0.378516 0.574657 0.424796
Si Si5 0.777107 0.575628 0.037265
Si Si6 0.984061 0.075676 0.715031
Si Si7 0.154561 0.580960 0.736227
Si Si8 0.835994 0.923870 0.812501
O O1 0.869461 0.750000 0.441299
O O2 0.031813 0.917356 0.605325
O O3 0.835147 0.004815 0.330410
O O4 0.908595 0.003825 0.557604
O O5 0.419846 0.750000 0.296824
O O6 0.369691 0.536595 0.327925
O O7 0.511785 0.490613 0.403452
O O8 0.308895 0.517320 0.116369
O O9 0.985663 0.250000 0.108869
O O10 0.104551 0.049019 0.188764
O O11 0.046849 0.000719 0.247969
O O12 0.899741 0.001964 0.959071
O O13 0.374451 0.750000 0.435435
O O14 0.280855 0.495696 0.343041
O O15 0.747029 0.750000 0.999332
O O16 0.891599 0.545886 0.144933
O O17 0.776178 0.515779 0.119087
O O18 0.957445 0.250000 0.685497
O O19 0.199941 0.750000 0.789818
O O20 0.826339 0.750000 0.820027
#
# Coordination Sequence:
#
# PCOD8069968 Si02
#       8
#     4   4   4   4   4   4   4   4
#     4   9  16  26  40  58  83 114 146 179 215 257
#     4  10  20  32  46  65  88 114 146 182 219 260
#     4  10  20  32  46  65  88 115 148 183 219 260
#     4  10  20  33  49  66  86 114 146 181 221 263
#     4  10  19  29  42  62  88 117 149 183 219 258
#     4  10  19  29  43  63  88 118 150 184 219 257
#     4   9  16  26  40  58  82 113 147 179 214 257
#     4  10  20  33  48  65  87 115 146 182 222 262
#
# _framework density 15.75883
#
# number of rings (size 3 to 8) (size 9 to 14) (size 15 to 20)
#    0.000    2.250    0.000    3.750    0.000    9.500 
#    0.000    0.000    0.000    0.000    0.000    0.000 
#    0.000    1.000    0.000    3.750    0.000    5.750 
#
# Total GULP energy -396904.108991 kJ/mol
# GULP energy per Si atom -12403.253406 kJ/mol
# Density = 1.572296 g / cm^3
# Si number density = 15.758830 Si / 1000 Ang^3
#
#
#
# Elastic Constant Matrix: (Units=GPa)
#
#
# Indices 1 2 3 4 5 6 
#
# 1 61.6731 46.8934 29.2919 0.0000 -17.8466 0.0000
# 2 46.8934 99.1988 26.7799 0.0000 -6.6333 0.0000
# 3 29.2919 26.7799 46.2753 0.0000 -10.8530 0.0000
# 4 0.0000 0.0000 0.0000 30.7662 0.0000 -5.5536
# 5 -17.8466 -6.6333 -10.8530 0.0000 29.6246 0.0000
# 6 0.0000 0.0000 0.0000 -5.5536 0.0000 26.9439
#
#
#
# Elastic Compliance Matrix: (Units=1/GPa)
#
#
# Indices 1 2 3 4 5 6 
#
# 1 0.035622 -0.012683 -0.011861 0.000000 0.014274 0.000000
# 2 -0.012683 0.016463 -0.002655 0.000000 -0.004927 0.000000
# 3 -0.011861 -0.002655 0.031550 0.000000 0.003818 0.000000
# 4 0.000000 0.000000 0.000000 0.033759 0.000000 0.006958
# 5 0.014274 -0.004927 0.003818 0.000000 0.042651 0.000000
# 6 0.000000 0.000000 0.000000 0.006958 0.000000 0.038548
#
#
# Mechanical properties :
#
#
# Convention : Reuss Voigt Hill
#
# Bulk Modulus (GPa) = 34.20236 45.89752 40.04994
# Shear Modulus (GPa) = 19.03045 24.41240 21.72142
#
# Velocity S-wave (km/s) = 3.47883 3.94016 3.71666
# Velocity P-wave (km/s) = 6.15525 7.06315 6.62477
#
# Compressibility (1/GPa) = 0.02923775
#
# Stress axis : x y z
#
# Youngs Moduli (GPa) = 28.07254 60.74057 31.69604
#
# Poissons Ratio (x) = 0.77036 0.37595
# Poissons Ratio (y) = 0.35604 0.08415
# Poissons Ratio (z) = 0.33297 0.16126
#
# Static dielectric constant tensor:
#      x y z
#    x 2.848640 0.000000 -0.191550 
#    y 0.000000 3.226480 0.000000 
#    z -0.191550 0.000000 2.841200 
# 
# 
# High freq. dielectric constant tensor:
#      x y z
#    x 1.578820 0.000000 -0.024960 
#    y 0.000000 1.629540 0.000000 
#    z -0.024960 0.000000 1.581350 
# 
# From -- ./inp_files/61810.got.cif
#   From: 2010.06.25/outbox.cif.g09.slc.cpg/sg11_31_cif.got.tgz:61810.got - 2010.06.27 23:14:04.
