data_PCOD8069640
_publ_section_title
;
Structure prediction by ZEFSAII (Michael W. Deem and Ramdas Pophale) SiO2 
 PCOD8069640
Probable space group: P 21/M
;
_chemical_formula_sum "Si O2"
_cell_formula_units_Z 32
_cell_length_a 19.980004
_cell_length_b 9.321995
_cell_length_c 19.836783
_cell_angle_alpha 90.000000
_cell_angle_beta 30.179974
_cell_angle_gamma 90.000000
_cell_volume 1857.376609
_symmetry_space_group_name_H-M "P 21/M"
_symmetry_group_IT_number 11
_symmetry_cell_setting 'monoclinic'
loop_
_space_group_symop_operation_xyz
x,y,z
-x,1/2+y,-z
-x,-y,-z
x,1/2-y,z
loop_
_atom_site_type_symbol
_atom_site_label
_atom_site_fract_x
_atom_site_fract_y
_atom_site_fract_z
Si Si1 0.908043 0.417256 0.670719
Si Si2 0.376188 0.579888 0.845100
Si Si3 0.643539 0.417348 0.640553
Si Si4 0.319269 0.085527 0.619342
Si Si5 0.136262 0.918843 0.144122
Si Si6 0.163560 0.586116 0.411742
Si Si7 0.609904 0.416292 0.319945
Si Si8 0.840377 0.918112 0.370778
O O1 0.939572 0.250000 0.646965
O O2 0.834224 0.464889 0.803917
O O3 0.819072 0.456870 0.682552
O O4 0.050913 0.491432 0.544289
O O5 0.400090 0.750000 0.833112
O O6 0.504257 0.497658 0.760530
O O7 0.347523 0.540959 0.792420
O O8 0.251659 0.518403 0.996098
O O9 0.626140 0.250000 0.637328
O O10 0.698669 0.436750 0.668801
O O11 0.745602 0.487942 0.499894
O O12 0.326518 0.250000 0.634452
O O13 0.456099 0.038212 0.463542
O O14 0.198727 0.056173 0.673048
O O15 0.296664 0.997391 0.707712
O O16 0.138643 0.750000 0.132941
O O17 0.990941 0.974457 0.248225
O O18 0.115317 0.750000 0.458919
O O19 0.631292 0.250000 0.314527
O O20 0.823659 0.750000 0.404541
#
# Coordination Sequence:
#
# PCOD8069640 Si02
#       8
#     4   4   4   4   4   4   4   4
#     4   9  16  30  52  75  99 131 169 205 246 296
#     4  10  20  36  53  73 101 134 173 210 247 296
#     4  11  21  32  49  76 105 135 167 207 255 298
#     4   9  17  29  48  73  99 126 159 206 253 294
#     4   9  18  32  55  78  98 131 172 212 249 291
#     4   9  18  30  47  75 106 130 161 208 254 294
#     4   9  17  30  48  70  98 130 162 203 250 295
#     4  10  18  33  54  78 101 127 170 214 248 292
#
# _framework density 17.228601000000001
#
# number of rings (size 3 to 8) (size 9 to 14) (size 15 to 20)
#    0.000    2.500    2.500    0.375    0.000    1.500 
#    0.000    2.500    0.000    0.000    0.000    0.000 
#    0.000    0.000    0.000    0.000    0.000    0.000 
#
# Total GULP energy -396703.038747 kJ/mol
# GULP energy per Si atom -12396.969961 kJ/mol
# Density = 1.718939 g / cm^3
# Si number density = 17.228601 Si / 1000 Ang^3
#
#
#
# Elastic Constant Matrix: (Units=GPa)
#
#
# Indices 1 2 3 4 5 6 
#
# 1 132.8214 45.7537 71.3761 0.0000 11.2003 0.0000
# 2 45.7537 45.7826 38.0868 0.0000 2.8498 0.0000
# 3 71.3761 38.0868 124.3400 0.0000 9.0388 0.0000
# 4 0.0000 0.0000 0.0000 11.3735 0.0000 1.8957
# 5 11.2003 2.8498 9.0388 0.0000 26.9586 0.0000
# 6 0.0000 0.0000 0.0000 1.8957 0.0000 26.0000
#
#
#
# Elastic Compliance Matrix: (Units=1/GPa)
#
#
# Indices 1 2 3 4 5 6 
#
# 1 0.013555 -0.009485 -0.004653 0.000000 -0.003069 0.000000
# 2 -0.009485 0.035949 -0.005716 0.000000 0.002057 0.000000
# 3 -0.004653 -0.005716 0.012587 0.000000 -0.001683 0.000000
# 4 0.000000 0.000000 0.000000 0.089006 0.000000 -0.006489
# 5 -0.003069 0.002057 -0.001683 0.000000 0.038716 0.000000
# 6 0.000000 0.000000 0.000000 -0.006489 0.000000 0.038935
#
#
# Mechanical properties :
#
#
# Convention : Reuss Voigt Hill
#
# Bulk Modulus (GPa) = 44.67783 68.15302 56.41542
# Shear Modulus (GPa) = 18.12144 22.71490 20.41817
#
# Velocity S-wave (km/s) = 3.24670 3.63497 3.44631
# Velocity P-wave (km/s) = 6.32799 7.56712 6.97513
#
# Compressibility (1/GPa) = 0.02238247
#
# Stress axis : x y z
#
# Youngs Moduli (GPa) = 73.77094 27.81736 79.44908
#
# Poissons Ratio (x) = 0.26385 0.36967
# Poissons Ratio (y) = 0.69973 0.45415
# Poissons Ratio (z) = 0.34325 0.15901
#
# Static dielectric constant tensor:
#      x y z
#    x 3.524830 0.000000 0.102150 
#    y 0.000000 3.120160 0.000000 
#    z 0.102150 0.000000 3.175000 
# 
# 
# High freq. dielectric constant tensor:
#      x y z
#    x 1.682250 0.000000 0.009350 
#    y 0.000000 1.651750 0.000000 
#    z 0.009350 0.000000 1.634130 
# 
# From -- ./inp_files/66405.got.cif
#   From: 2010.06.25/outbox.cif.g09.slc.cpg/sg11_34_cif.got.tgz:66405.got - 2010.06.27 23:14:04.
