data_PCOD8069933
_publ_section_title
;
Structure prediction by ZEFSAII (Michael W. Deem and Ramdas Pophale) SiO2 
 PCOD8069933
Probable space group: P 21/M
;
_chemical_formula_sum "Si O2"
_cell_formula_units_Z 28
_cell_length_a 15.983746
_cell_length_b 9.387426
_cell_length_c 15.716001
_cell_angle_alpha 90.000000
_cell_angle_beta 129.362840
_cell_angle_gamma 90.000000
_cell_volume 1823.174078
_symmetry_space_group_name_H-M "P 21/M"
_symmetry_group_IT_number 11
_symmetry_cell_setting 'monoclinic'
loop_
_space_group_symop_operation_xyz
x,y,z
-x,1/2+y,-z
-x,-y,-z
x,1/2-y,z
loop_
_atom_site_type_symbol
_atom_site_label
_atom_site_fract_x
_atom_site_fract_y
_atom_site_fract_z
Si Si1 0.840200 0.914403 0.893935
Si Si2 0.366869 0.415285 0.341192
Si Si3 0.102304 0.413969 0.598068
Si Si4 0.788354 0.414620 0.461395
Si Si5 0.033511 0.584158 0.892964
Si Si6 0.003026 0.089193 0.705530
Si Si7 0.611036 0.084912 0.478992
O O1 0.847234 0.750000 0.926188
O O2 0.720015 0.957429 0.786508
O O3 0.921230 0.946245 0.868493
O O4 0.868347 0.010022 0.993333
O O5 0.356532 0.250000 0.357826
O O6 0.341420 0.499726 0.410707
O O7 0.485549 0.453812 0.381684
O O8 0.094964 0.250000 0.563879
O O9 0.206138 0.488639 0.620663
O O10 0.101089 0.423717 0.700013
O O11 0.000000 0.500000 0.500000
O O12 0.790220 0.250000 0.434715
O O13 0.677464 0.455825 0.437510
O O14 0.888577 0.448413 0.588283
O O15 0.059741 0.750000 0.903008
O O16 0.026145 0.521508 0.794363
O O17 0.998942 0.250000 0.739606
O O18 0.626474 0.250000 0.511015
#
# Coordination Sequence:
#
# PCOD8069933 Si02
#       7
#     4   4   4   4   4   4   4
#     4   9  18  31  43  58  84 113 140 172 207 245
#     4   9  17  29  44  62  85 114 145 174 207 248
#     4   9  17  28  42  61  85 113 142 171 207 250
#     4   9  17  28  42  62  88 116 142 170 207 249
#     4  10  19  28  42  63  82 107 143 175 206 245
#     4   9  17  28  41  59  85 113 137 165 205 248
#     4   9  17  28  43  64  88 113 142 174 208 246
#
# _framework density 15.357832
#
# number of rings (size 3 to 8) (size 9 to 14) (size 15 to 20)
#    0.000    2.857    0.000    2.571    0.000    4.571 
#    0.000    0.000    0.000    0.000    0.000    1.000 
#    0.000    0.000    0.000    0.000    0.000    0.000 
#
# Total GULP energy -347133.544396 kJ/mol
# GULP energy per Si atom -12397.626586 kJ/mol
# Density = 1.532288 g / cm^3
# Si number density = 15.357832 Si / 1000 Ang^3
#
#
#
# Elastic Constant Matrix: (Units=GPa)
#
#
# Indices 1 2 3 4 5 6 
#
# 1 86.8449 43.8229 35.1597 0.0000 -6.5038 0.0000
# 2 43.8229 78.8316 42.9153 0.0000 -8.3586 0.0000
# 3 35.1597 42.9153 69.8465 0.0000 -0.9080 0.0000
# 4 0.0000 0.0000 0.0000 26.7927 0.0000 -7.0114
# 5 -6.5038 -8.3586 -0.9080 0.0000 19.7230 0.0000
# 6 0.0000 0.0000 0.0000 -7.0114 0.0000 25.3966
#
#
#
# Elastic Compliance Matrix: (Units=1/GPa)
#
#
# Indices 1 2 3 4 5 6 
#
# 1 0.016855 -0.006768 -0.004294 0.000000 0.002492 0.000000
# 2 -0.006768 0.022970 -0.010615 0.000000 0.007014 0.000000
# 3 -0.004294 -0.010615 0.022938 0.000000 -0.004859 0.000000
# 4 0.000000 0.000000 0.000000 0.040230 0.000000 0.011106
# 5 0.002492 0.007014 -0.004859 0.000000 0.054273 0.000000
# 6 0.000000 0.000000 0.000000 0.011106 0.000000 0.042441
#
#
# Mechanical properties :
#
#
# Convention : Reuss Voigt Hill
#
# Bulk Modulus (GPa) = 51.52331 53.25766 52.39048
# Shear Modulus (GPa) = 20.03756 21.95746 20.99751
#
# Velocity S-wave (km/s) = 3.61600 3.78527 3.70160
# Velocity P-wave (km/s) = 7.14530 7.33877 7.24268
#
# Compressibility (1/GPa) = 0.01940869
#
# Stress axis : x y z
#
# Youngs Moduli (GPa) = 59.32960 43.53442 43.59649
#
# Poissons Ratio (x) = 0.29465 0.18719
# Poissons Ratio (y) = 0.40155 0.46279
# Poissons Ratio (z) = 0.25474 0.46213
#
# Static dielectric constant tensor:
#      x y z
#    x 3.228630 0.000000 -0.078260 
#    y 0.000000 3.086770 0.000000 
#    z -0.078260 0.000000 2.755030 
# 
# 
# High freq. dielectric constant tensor:
#      x y z
#    x 1.581580 0.000000 -0.008780 
#    y 0.000000 1.598300 0.000000 
#    z -0.008780 0.000000 1.557310 
# 
# From -- ./inp_files/51110.got.cif
#   From: 2010.06.25/outbox.cif.g09.slc.cpg/sg11_26_cif.got.tgz:51110.got - 2010.06.27 23:14:04.
