data_PCOD8069964
_publ_section_title
;
Structure prediction by ZEFSAII (Michael W. Deem and Ramdas Pophale) SiO2 
 PCOD8069964
Probable space group: P 21/M
;
_chemical_formula_sum "Si O2"
_cell_formula_units_Z 32
_cell_length_a 31.997478
_cell_length_b 8.981048
_cell_length_c 22.698374
_cell_angle_alpha 90.000000
_cell_angle_beta 17.947470
_cell_angle_gamma 90.000000
_cell_volume 2009.983631
_symmetry_space_group_name_H-M "P 21/M"
_symmetry_group_IT_number 11
_symmetry_cell_setting 'monoclinic'
loop_
_space_group_symop_operation_xyz
x,y,z
-x,1/2+y,-z
-x,-y,-z
x,1/2-y,z
loop_
_atom_site_type_symbol
_atom_site_label
_atom_site_fract_x
_atom_site_fract_y
_atom_site_fract_z
Si Si1 0.686653 0.072656 0.888870
Si Si2 0.868751 0.074413 0.148883
Si Si3 0.590142 0.073680 0.720986
Si Si4 0.720978 0.580813 0.441653
Si Si5 0.892838 0.076669 0.512501
Si Si6 0.003485 0.084652 0.854637
Si Si7 0.861037 0.075471 0.425574
Si Si8 0.892129 0.575459 0.686651
O O1 0.679555 0.250000 0.903115
O O2 0.779981 0.014964 0.709478
O O3 0.748689 0.006169 0.867014
O O4 0.539125 0.004056 0.076252
O O5 0.870010 0.250000 0.160932
O O6 0.737239 0.998552 0.355739
O O7 0.875194 0.044897 0.069272
O O8 0.000000 0.000000 0.000000
O O9 0.570247 0.250000 0.743933
O O10 0.716077 0.028537 0.593581
O O11 0.610491 0.009102 0.627965
O O12 0.671086 0.750000 0.499525
O O13 0.863216 0.573805 0.284167
O O14 0.862649 0.250000 0.547286
O O15 0.876497 0.002480 0.469869
O O16 0.047164 0.049725 0.328964
O O17 0.986514 0.250000 0.852078
O O18 0.016432 0.978093 0.780960
O O19 0.876201 0.250000 0.409121
O O20 0.878512 0.750000 0.690869
O O21 0.000000 0.500000 0.500000
#
# Coordination Sequence:
#
# PCOD8069964 Si02
#       8
#     4   4   4   4   4   4   4   4
#     4  10  19  31  46  62  84 112 143 179 217 254
#     4   9  15  23  36  54  77 105 139 175 209 246
#     4  10  19  29  42  61  86 115 146 176 208 251
#     4   9  16  26  39  55  78 108 141 174 210 249
#     4   8  16  30  46  63  83 109 139 176 218 253
#     4   8  15  25  36  54  80 108 137 171 209 244
#     4   9  17  29  43  59  83 115 147 174 205 251
#     4   9  16  29  48  66  84 104 133 175 221 261
#
# _framework density 15.920527999999999
#
# number of rings (size 3 to 8) (size 9 to 14) (size 15 to 20)
#    0.000    3.000    0.000    3.375    0.000    4.500 
#    0.000    3.750    0.000    0.000    0.000    0.000 
#    0.000    1.000    0.000    3.000    0.000    5.500 
#
# Total GULP energy -396472.486849 kJ/mol
# GULP energy per Si atom -12389.765214 kJ/mol
# Density = 1.588429 g / cm^3
# Si number density = 15.920528 Si / 1000 Ang^3
#
#
#
# Elastic Constant Matrix: (Units=GPa)
#
#
# Indices 1 2 3 4 5 6 
#
# 1 90.0386 40.5570 53.0053 0.0000 16.5339 0.0000
# 2 40.5570 72.8474 26.1004 0.0000 5.8594 0.0000
# 3 53.0053 26.1004 43.7238 0.0000 18.8890 0.0000
# 4 0.0000 0.0000 0.0000 27.7243 0.0000 3.8014
# 5 16.5339 5.8594 18.8890 0.0000 18.9871 0.0000
# 6 0.0000 0.0000 0.0000 3.8014 0.0000 16.8764
#
#
#
# Elastic Compliance Matrix: (Units=1/GPa)
#
#
# Indices 1 2 3 4 5 6 
#
# 1 0.046646 -0.004901 -0.064410 0.000000 0.024970 0.000000
# 2 -0.004901 0.018844 -0.008135 0.000000 0.006546 0.000000
# 3 -0.064410 -0.008135 0.141162 0.000000 -0.081835 0.000000
# 4 0.000000 0.000000 0.000000 0.037219 0.000000 -0.008384
# 5 0.024970 0.006546 -0.081835 0.000000 0.110316 0.000000
# 6 0.000000 0.000000 0.000000 -0.008384 0.000000 0.061143
#
#
# Mechanical properties :
#
#
# Convention : Reuss Voigt Hill
#
# Bulk Modulus (GPa) = 19.31952 49.54833 34.43393
# Shear Modulus (GPa) = 8.51099 18.51402 13.51250
#
# Velocity S-wave (km/s) = 2.31463 3.41384 2.91649
# Velocity P-wave (km/s) = 4.39371 6.83585 5.74602
#
# Compressibility (1/GPa) = 0.05176112
#
# Stress axis : x y z
#
# Youngs Moduli (GPa) = 21.43786 53.06692 7.08405
#
# Poissons Ratio (x) = 0.26008 0.45628
# Poissons Ratio (y) = 0.10507 0.05763
# Poissons Ratio (z) = 1.38081 0.43170
#
# Static dielectric constant tensor:
#      x y z
#    x 2.918860 0.000000 -0.027900 
#    y 0.000000 3.089670 0.000000 
#    z -0.027900 0.000000 2.736900 
# 
# 
# High freq. dielectric constant tensor:
#      x y z
#    x 1.582660 0.000000 0.026110 
#    y 0.000000 1.616160 0.000000 
#    z 0.026110 0.000000 1.586570 
# 
# From -- ./inp_files/42444.got.cif
#   From: 2010.06.25/outbox.cif.g09.slc.cpg/sg11_22_cif.got.tgz:42444.got - 2010.06.27 23:14:04.
