data_PCOD8069123
_publ_section_title
;
Structure prediction by ZEFSAII (Michael W. Deem and Ramdas Pophale) SiO2 
 PCOD8069123
Probable space group: P 21/M
;
_chemical_formula_sum "Si O2"
_cell_formula_units_Z 28
_cell_length_a 14.872587
_cell_length_b 8.596597
_cell_length_c 18.794981
_cell_angle_alpha 90.000000
_cell_angle_beta 141.782518
_cell_angle_gamma 90.000000
_cell_volume 1486.615624
_symmetry_space_group_name_H-M "P 21/M"
_symmetry_group_IT_number 11
_symmetry_cell_setting 'monoclinic'
loop_
_space_group_symop_operation_xyz
x,y,z
-x,1/2+y,-z
-x,-y,-z
x,1/2-y,z
loop_
_atom_site_type_symbol
_atom_site_label
_atom_site_fract_x
_atom_site_fract_y
_atom_site_fract_z
Si Si1 0.736365 0.931329 0.429130
Si Si2 0.552231 0.568212 0.912826
Si Si3 0.874946 0.568040 0.970645
Si Si4 0.999826 0.568821 0.329066
Si Si5 0.841822 0.432306 0.105647
Si Si6 0.583991 0.428931 0.780199
Si Si7 0.739021 0.567512 0.267063
O O1 0.774062 0.750000 0.460129
O O2 0.571092 0.966054 0.353200
O O3 0.757952 0.984451 0.360817
O O4 0.839906 0.031281 0.543530
O O5 0.556069 0.750000 0.896830
O O6 0.561904 0.461183 0.849392
O O7 0.399658 0.521461 0.854905
O O8 0.697246 0.520793 0.046726
O O9 0.896151 0.750000 0.993190
O O10 0.718598 0.532785 0.835711
O O11 0.882821 0.488022 0.052321
O O12 0.000000 0.500000 0.000000
O O13 0.986972 0.750000 0.304666
O O14 0.973571 0.475155 0.239989
O O15 0.883303 0.514791 0.315749
O O16 0.814479 0.250000 0.088032
O O17 0.626653 0.250000 0.795700
O O18 0.709997 0.750000 0.242470
#
# Coordination Sequence:
#
# PCOD8069123 Si02
#       7
#     4   4   4   4   4   4   4
#     4   9  18  33  52  74 103 140 180 219 258 302
#     4  10  18  30  50  74 100 132 173 219 264 310
#     4  11  21  36  60  88 112 133 164 205 253 309
#     4  11  22  34  50  73 103 140 181 223 263 306
#     4  11  22  37  54  74 105 140 172 210 262 317
#     4   9  17  32  53  78 107 137 170 209 255 304
#     4   9  19  34  50  71 101 138 181 225 265 305
#
# _framework density 18.834727000000001
#
# number of rings (size 3 to 8) (size 9 to 14) (size 15 to 20)
#    0.000    2.000    0.000    7.714    0.000    4.571 
#    0.000    0.000    0.000    0.857    0.000    0.000 
#    0.000    0.000    0.000    0.000    0.000    0.000 
#
# Total GULP energy -347132.701541 kJ/mol
# GULP energy per Si atom -12397.596484 kJ/mol
# Density = 1.879186 g / cm^3
# Si number density = 18.834727 Si / 1000 Ang^3
#
#
#
# Elastic Constant Matrix: (Units=GPa)
#
#
# Indices 1 2 3 4 5 6 
#
# 1 81.2577 35.1990 51.0625 0.0000 20.9764 0.0000
# 2 35.1990 86.0425 41.7478 0.0000 6.1281 0.0000
# 3 51.0625 41.7478 106.5872 0.0000 14.4060 0.0000
# 4 0.0000 0.0000 0.0000 32.7775 0.0000 6.2579
# 5 20.9764 6.1281 14.4060 0.0000 23.3771 0.0000
# 6 0.0000 0.0000 0.0000 6.2579 0.0000 25.3673
#
#
#
# Elastic Compliance Matrix: (Units=1/GPa)
#
#
# Indices 1 2 3 4 5 6 
#
# 1 0.022536 -0.004813 -0.006926 0.000000 -0.014692 0.000000
# 2 -0.004813 0.015379 -0.004098 0.000000 0.002812 0.000000
# 3 -0.006926 -0.004098 0.014530 0.000000 -0.001665 0.000000
# 4 0.000000 0.000000 0.000000 0.032017 0.000000 -0.007898
# 5 -0.014692 0.002812 -0.001665 0.000000 0.056250 0.000000
# 6 0.000000 0.000000 0.000000 -0.007898 0.000000 0.041369
#
#
# Mechanical properties :
#
#
# Convention : Reuss Voigt Hill
#
# Bulk Modulus (GPa) = 48.14045 58.87844 53.50945
# Shear Modulus (GPa) = 22.65751 26.02957 24.34354
#
# Velocity S-wave (km/s) = 3.47214 3.72156 3.59901
# Velocity P-wave (km/s) = 6.45672 7.05656 6.76330
#
# Compressibility (1/GPa) = 0.02077255
#
# Stress axis : x y z
#
# Youngs Moduli (GPa) = 44.37344 65.02351 68.82275
#
# Poissons Ratio (x) = 0.31293 0.47664
# Poissons Ratio (y) = 0.21355 0.28205
# Poissons Ratio (z) = 0.30731 0.26648
#
# Static dielectric constant tensor:
#      x y z
#    x 3.331370 0.000000 0.426190 
#    y 0.000000 3.423240 0.000000 
#    z 0.426190 0.000000 3.670900 
# 
# 
# High freq. dielectric constant tensor:
#      x y z
#    x 1.699710 0.000000 0.027080 
#    y 0.000000 1.740000 0.000000 
#    z 0.027080 0.000000 1.729110 
# 
# From -- ./inp_files/60137.got.cif
#   From: 2010.06.25/outbox.cif.g09.slc.cpg/sg11_31_cif.got.tgz:60137.got - 2010.06.27 23:14:04.
