data_PCOD8069983
_publ_section_title
;
Structure prediction by ZEFSAII (Michael W. Deem and Ramdas Pophale) SiO2 
 PCOD8069983
Probable space group: P 21/M
;
_chemical_formula_sum "Si O2"
_cell_formula_units_Z 32
_cell_length_a 20.655546
_cell_length_b 8.912365
_cell_length_c 16.217430
_cell_angle_alpha 90.000000
_cell_angle_beta 138.777900
_cell_angle_gamma 90.000000
_cell_volume 1967.359228
_symmetry_space_group_name_H-M "P 21/M"
_symmetry_group_IT_number 11
_symmetry_cell_setting 'monoclinic'
loop_
_space_group_symop_operation_xyz
x,y,z
-x,1/2+y,-z
-x,-y,-z
x,1/2-y,z
loop_
_atom_site_type_symbol
_atom_site_label
_atom_site_fract_x
_atom_site_fract_y
_atom_site_fract_z
Si Si1 0.732193 0.079435 0.255584
Si Si2 0.980272 0.074586 0.715328
Si Si3 0.523770 0.076850 0.107948
Si Si4 0.859102 0.418772 0.912269
Si Si5 0.347628 0.924983 0.002867
Si Si6 0.801610 0.574580 0.017165
Si Si7 0.081553 0.081056 0.185194
Si Si8 0.073782 0.426541 0.506890
O O1 0.772320 0.250000 0.297753
O O2 0.641368 0.060746 0.233049
O O3 0.698969 0.040960 0.130953
O O4 0.815363 0.963999 0.361623
O O5 0.960534 0.250000 0.684424
O O6 0.094364 0.039732 0.840559
O O7 0.913965 0.015888 0.727196
O O8 0.947864 0.986139 0.604196
O O9 0.492742 0.250000 0.074326
O O10 0.500000 0.000000 0.000000
O O11 0.458017 0.994298 0.114346
O O12 0.818665 0.250000 0.863995
O O13 0.796137 0.504526 0.920848
O O14 0.847191 0.504569 0.813896
O O15 0.972064 0.416334 0.045912
O O16 0.354311 0.750000 0.027492
O O17 0.282975 0.001631 0.010244
O O18 0.783051 0.750000 0.991348
O O19 0.118335 0.250000 0.238019
O O20 0.058128 0.250000 0.493840
O O21 0.000000 0.500000 0.500000
#
# Coordination Sequence:
#
# PCOD8069983 Si02
#       8
#     4   4   4   4   4   4   4   4
#     4   9  19  34  49  65  87 116 150 187 225 264
#     4  10  20  33  47  63  86 118 155 191 225 263
#     4   9  17  30  48  67  87 112 143 181 223 267
#     4   9  16  26  41  61  86 116 147 180 220 264
#     4  10  19  30  46  67  91 118 147 182 224 270
#     4  10  19  29  43  64  90 120 152 185 223 267
#     4   9  16  27  43  62  85 113 147 184 220 262
#     4  12  24  35  48  65  88 119 154 191 227 263
#
# _framework density 16.265457999999999
#
# number of rings (size 3 to 8) (size 9 to 14) (size 15 to 20)
#    0.000    2.250    0.000    4.875    0.000    9.500 
#    0.000    0.000    0.000    0.000    0.000    0.000 
#    0.000    1.000    0.000    3.750    0.000    5.750 
#
# Total GULP energy -396760.866950 kJ/mol
# GULP energy per Si atom -12398.777092 kJ/mol
# Density = 1.622844 g / cm^3
# Si number density = 16.265458 Si / 1000 Ang^3
#
#
#
# Elastic Constant Matrix: (Units=GPa)
#
#
# Indices 1 2 3 4 5 6 
#
# 1 141.5289 65.7101 41.2299 0.0000 -7.7669 0.0000
# 2 65.7101 114.7300 31.5720 0.0000 -0.2677 0.0000
# 3 41.2299 31.5720 39.4759 0.0000 -3.5228 0.0000
# 4 0.0000 0.0000 0.0000 22.3427 0.0000 -3.2756
# 5 -7.7669 -0.2677 -3.5228 0.0000 20.1008 0.0000
# 6 0.0000 0.0000 0.0000 -3.2756 0.0000 35.4290
#
#
#
# Elastic Compliance Matrix: (Units=1/GPa)
#
#
# Indices 1 2 3 4 5 6 
#
# 1 0.011735 -0.004378 -0.008488 0.000000 0.002989 0.000000
# 2 -0.004378 0.012851 -0.005933 0.000000 -0.002560 0.000000
# 3 -0.008488 -0.005933 0.039257 0.000000 0.003521 0.000000
# 4 0.000000 0.000000 0.000000 0.045372 0.000000 0.004195
# 5 0.002989 -0.002560 0.003521 0.000000 0.051487 0.000000
# 6 0.000000 0.000000 0.000000 0.004195 0.000000 0.028613
#
#
# Mechanical properties :
#
#
# Convention : Reuss Voigt Hill
#
# Bulk Modulus (GPa) = 38.10547 63.63985 50.87266
# Shear Modulus (GPa) = 21.21679 26.05603 23.63641
#
# Velocity S-wave (km/s) = 3.61558 4.00675 3.81618
# Velocity P-wave (km/s) = 6.39593 7.78563 7.12475
#
# Compressibility (1/GPa) = 0.02624295
#
# Stress axis : x y z
#
# Youngs Moduli (GPa) = 85.21259 77.81777 25.47338
#
# Poissons Ratio (x) = 0.34072 0.21623
# Poissons Ratio (y) = 0.37310 0.15114
# Poissons Ratio (z) = 0.72331 0.46170
#
# Static dielectric constant tensor:
#      x y z
#    x 2.221850 0.000000 0.826270 
#    y 0.000000 3.047540 0.000000 
#    z 0.826270 0.000000 2.161720 
# 
# 
# High freq. dielectric constant tensor:
#      x y z
#    x 1.631630 0.000000 -0.009070 
#    y 0.000000 1.647960 0.000000 
#    z -0.009070 0.000000 1.568850 
# 
# From -- ./inp_files/54231.got.cif
#   From: 2010.06.25/outbox.cif.g09.slc.cpg/sg11_28_cif.got.tgz:54231.got - 2010.06.27 23:14:04.
