data_PCOD8069755
_publ_section_title
;
Structure prediction by ZEFSAII (Michael W. Deem and Ramdas Pophale) SiO2 
 PCOD8069755
Probable space group: P 21/M
;
_chemical_formula_sum "Si O2"
_cell_formula_units_Z 28
_cell_length_a 8.506904
_cell_length_b 14.920805
_cell_length_c 17.247199
_cell_angle_alpha 90.000000
_cell_angle_beta 137.606265
_cell_angle_gamma 90.000000
_cell_volume 1475.995545
_symmetry_space_group_name_H-M "P 21/M"
_symmetry_group_IT_number 11
_symmetry_cell_setting 'monoclinic'
loop_
_space_group_symop_operation_xyz
x,y,z
-x,1/2+y,-z
-x,-y,-z
x,1/2-y,z
loop_
_atom_site_type_symbol
_atom_site_label
_atom_site_fract_x
_atom_site_fract_y
_atom_site_fract_z
Si Si1 0.385950 0.349302 0.765125
Si Si2 0.834353 0.407939 0.858742
Si Si3 0.136172 0.852048 0.426932
Si Si4 0.119248 0.987226 0.285545
Si Si5 0.405623 0.151377 0.324263
Si Si6 0.600989 0.490039 0.121065
Si Si7 0.734171 0.900694 0.891599
O O1 0.389228 0.250000 0.801342
O O2 0.585703 0.356762 0.771808
O O3 0.449539 0.414445 0.858162
O O4 0.126900 0.371390 0.637365
O O5 0.908237 0.419415 0.796644
O O6 0.807009 0.504327 0.885669
O O7 0.041679 0.357460 0.982077
O O8 0.149872 0.750000 0.398646
O O9 0.209288 0.924457 0.388130
O O10 0.316197 0.863567 0.563667
O O11 0.284450 0.071408 0.327503
O O12 0.873313 0.031930 0.217301
O O13 0.335095 0.250000 0.332196
O O14 0.348392 0.156627 0.211998
O O15 0.476356 0.410563 0.123481
O O16 0.500000 0.500000 0.000000
#
# Coordination Sequence:
#
# PCOD8069755 Si02
#       7
#     4   4   4   4   4   4   4
#     4   9  19  33  52  78 103 139 184 226 270 320
#     4   9  17  31  52  77 104 131 172 218 269 322
#     4   9  19  37  56  77 108 145 189 234 274 317
#     4  10  19  34  58  84 108 142 185 227 279 322
#     4  10  21  37  55  77 111 151 185 224 273 329
#     4  10  18  34  55  76 108 144 173 219 278 326
#     4   9  18  33  51  75 103 141 171 209 269 330
#
# _framework density 18.970247000000001
#
# number of rings (size 3 to 8) (size 9 to 14) (size 15 to 20)
#    0.000    2.571    1.429    0.429    2.000    1.143 
#    0.000   14.286    0.000    3.429    0.000    0.000 
#    0.000    0.000    0.000    0.000    0.000    0.000 
#
# Total GULP energy -346924.187478 kJ/mol
# GULP energy per Si atom -12390.149553 kJ/mol
# Density = 1.892707 g / cm^3
# Si number density = 18.970247 Si / 1000 Ang^3
#
#
#
# Elastic Constant Matrix: (Units=GPa)
#
#
# Indices 1 2 3 4 5 6 
#
# 1 102.2155 27.8137 47.5315 0.0000 14.0763 0.0000
# 2 27.8137 74.1563 37.7024 0.0000 10.7597 0.0000
# 3 47.5315 37.7024 128.6447 0.0000 10.1894 0.0000
# 4 0.0000 0.0000 0.0000 19.8019 0.0000 0.9272
# 5 14.0763 10.7597 10.1894 0.0000 22.9737 0.0000
# 6 0.0000 0.0000 0.0000 0.9272 0.0000 19.5595
#
#
#
# Elastic Compliance Matrix: (Units=1/GPa)
#
#
# Indices 1 2 3 4 5 6 
#
# 1 0.012802 -0.002177 -0.003681 0.000000 -0.005192 0.000000
# 2 -0.002177 0.016932 -0.003768 0.000000 -0.004925 0.000000
# 3 -0.003681 -0.003768 0.010280 0.000000 -0.000540 0.000000
# 4 0.000000 0.000000 0.000000 0.050613 0.000000 -0.002399
# 5 -0.005192 -0.004925 -0.000540 0.000000 0.049255 0.000000
# 6 0.000000 0.000000 0.000000 -0.002399 0.000000 0.051240
#
#
# Mechanical properties :
#
#
# Convention : Reuss Voigt Hill
#
# Bulk Modulus (GPa) = 48.16261 59.01241 53.58751
# Shear Modulus (GPa) = 23.01026 25.26495 24.13760
#
# Velocity S-wave (km/s) = 3.48654 3.65337 3.57093
# Velocity P-wave (km/s) = 6.45381 6.99797 6.73139
#
# Compressibility (1/GPa) = 0.02076299
#
# Stress axis : x y z
#
# Youngs Moduli (GPa) = 78.11094 59.06061 97.27274
#
# Poissons Ratio (x) = 0.12857 0.35806
# Poissons Ratio (y) = 0.17004 0.36651
# Poissons Ratio (z) = 0.28752 0.22253
#
# Static dielectric constant tensor:
#      x y z
#    x 3.653870 0.000000 0.203680 
#    y 0.000000 3.366700 0.000000 
#    z 0.203680 0.000000 3.724410 
# 
# 
# High freq. dielectric constant tensor:
#      x y z
#    x 1.726610 0.000000 0.016920 
#    y 0.000000 1.722460 0.000000 
#    z 0.016920 0.000000 1.741400 
# 
# From -- ./inp_files/24916.got.cif
#   From: 2010.06.25/outbox.cif.g09.slc.cpg/sg11_13_cif.got.tgz:24916.got - 2010.06.27 23:14:04.
