data_PCOD8069260
_publ_section_title
;
Structure prediction by ZEFSAII (Michael W. Deem and Ramdas Pophale) SiO2 
 PCOD8069260
Probable space group: P 21/M
;
_chemical_formula_sum "Si O2"
_cell_formula_units_Z 24
_cell_length_a 16.762834
_cell_length_b 8.777830
_cell_length_c 22.371323
_cell_angle_alpha 90.000000
_cell_angle_beta 155.920979
_cell_angle_gamma 90.000000
_cell_volume 1343.019729
_symmetry_space_group_name_H-M "P 21/M"
_symmetry_group_IT_number 11
_symmetry_cell_setting 'monoclinic'
loop_
_space_group_symop_operation_xyz
x,y,z
-x,1/2+y,-z
-x,-y,-z
x,1/2-y,z
loop_
_atom_site_type_symbol
_atom_site_label
_atom_site_fract_x
_atom_site_fract_y
_atom_site_fract_z
Si Si1 0.121314 0.930581 0.401175
Si Si2 0.555010 0.930053 0.691852
Si Si3 0.862906 0.069741 0.455737
Si Si4 0.053872 0.068707 0.839016
Si Si5 0.307469 0.069374 0.339411
Si Si6 0.422719 0.430903 0.161834
O O1 0.128059 0.750000 0.406256
O O2 0.335892 0.994985 0.531193
O O3 0.062153 0.986023 0.427370
O O4 0.970674 0.986502 0.246750
O O5 0.537955 0.750000 0.683601
O O6 0.693592 0.978111 0.731726
O O7 0.633805 0.990184 0.809948
O O8 0.872894 0.250000 0.457592
O O9 0.639971 0.012055 0.292968
O O10 0.000000 0.000000 0.500000
O O11 0.038851 0.250000 0.833780
O O12 0.262809 0.006525 0.005443
O O13 0.885747 0.999452 0.764768
O O14 0.311434 0.250000 0.350635
O O15 0.500000 0.000000 0.500000
O O16 0.420960 0.250000 0.159769
#
# Coordination Sequence:
#
# PCOD8069260 Si02
#       6
#     4   4   4   4   4   4
#     4   8  14  27  48  68  90 124 160 187 229 287
#     4   8  14  27  45  66  92 126 162 195 227 272
#     4   9  17  32  53  73  92 121 157 194 235 286
#     4  10  18  31  50  72  95 125 163 200 234 279
#     4  11  20  30  47  70  98 130 167 203 236 273
#     4   8  16  30  50  71  94 125 161 193 232 289
#
# _framework density 17.870177000000002
#
# number of rings (size 3 to 8) (size 9 to 14) (size 15 to 20)
#    0.000    3.000    1.667    2.500    0.000    0.667 
#    0.000    2.500    0.000    1.000    0.000    0.000 
#    0.000    0.000    0.000    0.000    0.000    0.000 
#
# Total GULP energy -297338.925673 kJ/mol
# GULP energy per Si atom -12389.121903 kJ/mol
# Density = 1.782950 g / cm^3
# Si number density = 17.870177 Si / 1000 Ang^3
#
#
#
# Elastic Constant Matrix: (Units=GPa)
#
#
# Indices 1 2 3 4 5 6 
#
# 1 169.7609 23.0734 96.1971 0.0000 -9.7340 0.0000
# 2 23.0734 20.7392 20.4002 0.0000 -0.4520 0.0000
# 3 96.1971 20.4002 153.0710 0.0000 -21.3003 0.0000
# 4 0.0000 0.0000 0.0000 14.0146 0.0000 5.5909
# 5 -9.7340 -0.4520 -21.3003 0.0000 29.2206 0.0000
# 6 0.0000 0.0000 0.0000 5.5909 0.0000 25.8326
#
#
#
# Elastic Compliance Matrix: (Units=1/GPa)
#
#
# Indices 1 2 3 4 5 6 
#
# 1 0.009683 -0.005396 -0.005486 0.000000 -0.000856 0.000000
# 2 -0.005396 0.059176 -0.005139 0.000000 -0.004629 0.000000
# 3 -0.005486 -0.005139 0.011574 0.000000 0.006530 0.000000
# 4 0.000000 0.000000 0.000000 0.078097 0.000000 -0.016902
# 5 -0.000856 -0.004629 0.006530 0.000000 0.038625 0.000000
# 6 0.000000 0.000000 0.000000 -0.016902 0.000000 0.042369
#
#
# Mechanical properties :
#
#
# Convention : Reuss Voigt Hill
#
# Bulk Modulus (GPa) = 20.66504 69.21250 44.93877
# Shear Modulus (GPa) = 17.37941 27.40693 22.39317
#
# Velocity S-wave (km/s) = 3.12194 3.92046 3.54376
# Velocity P-wave (km/s) = 4.95827 7.70118 6.47659
#
# Compressibility (1/GPa) = 0.04839092
#
# Stress axis : x y z
#
# Youngs Moduli (GPa) = 103.26964 16.89881 86.40144
#
# Poissons Ratio (x) = 0.09119 0.47396
# Poissons Ratio (y) = 0.55725 0.44406
# Poissons Ratio (z) = 0.56649 0.08685
#
# Static dielectric constant tensor:
#      x y z
#    x 3.693400 0.000000 -0.315120 
#    y 0.000000 2.861130 0.000000 
#    z -0.315120 0.000000 3.633490 
# 
# 
# High freq. dielectric constant tensor:
#      x y z
#    x 1.696970 0.000000 -0.016840 
#    y 0.000000 1.642970 0.000000 
#    z -0.016840 0.000000 1.685030 
# 
# From -- ./inp_files/20859.got.cif
#   From: 2010.06.25/outbox.cif.g09.slc.cpg/sg11_11_cif.got.tgz:20859.got - 2010.06.27 23:14:04.
