data_PCOD8069963
_publ_section_title
;
Structure prediction by ZEFSAII (Michael W. Deem and Ramdas Pophale) SiO2 
 PCOD8069963
Probable space group: P 21/M
;
_chemical_formula_sum "Si O2"
_cell_formula_units_Z 32
_cell_length_a 12.883942
_cell_length_b 8.931130
_cell_length_c 21.666706
_cell_angle_alpha 90.000000
_cell_angle_beta 129.720500
_cell_angle_gamma 90.000000
_cell_volume 1917.657049
_symmetry_space_group_name_H-M "P 21/M"
_symmetry_group_IT_number 11
_symmetry_cell_setting 'monoclinic'
loop_
_space_group_symop_operation_xyz
x,y,z
-x,1/2+y,-z
-x,-y,-z
x,1/2-y,z
loop_
_atom_site_type_symbol
_atom_site_label
_atom_site_fract_x
_atom_site_fract_y
_atom_site_fract_z
Si Si1 0.366950 0.586434 0.961756
Si Si2 0.922507 0.082003 0.558702
Si Si3 0.613363 0.414789 0.889420
Si Si4 0.884435 0.572450 0.996394
Si Si5 0.203389 0.418087 0.595103
Si Si6 0.332957 0.926590 0.755184
Si Si7 0.894499 0.924787 0.142596
Si Si8 0.057633 0.926017 0.719386
O O1 0.360913 0.750000 0.925362
O O2 0.254033 0.475898 0.893537
O O3 0.500000 0.500000 0.000000
O O4 0.350878 0.615907 0.026971
O O5 0.873092 0.250000 0.554631
O O6 0.057951 0.086498 0.570763
O O7 0.806997 0.997555 0.475523
O O8 0.947038 0.994564 0.631460
O O9 0.605533 0.250000 0.853601
O O10 0.472550 0.502022 0.831359
O O11 0.741466 0.512124 0.915052
O O12 0.882606 0.750000 0.988332
O O13 0.919421 0.528876 0.080955
O O14 0.000000 0.500000 0.000000
O O15 0.259591 0.250000 0.607688
O O16 0.305761 0.511307 0.676430
O O17 0.351584 0.750000 0.757966
O O18 0.209686 0.969788 0.754318
O O19 0.913346 0.750000 0.159762
O O20 0.982640 0.011097 0.227756
O O21 0.039084 0.750000 0.712573
#
# Coordination Sequence:
#
# PCOD8069963 Si02
#       8
#     4   4   4   4   4   4   4   4
#     4  10  19  29  42  60  85 117 149 180 215 258
#     4   9  16  26  40  58  84 119 157 193 226 261
#     4  10  20  32  46  65  88 115 148 184 223 267
#     4  10  21  37  55  71  88 112 143 183 230 277
#     4   9  16  26  40  58  83 118 158 193 225 262
#     4  10  19  29  42  63  92 124 157 191 226 263
#     4  10  20  32  46  65  88 114 146 183 223 267
#     4  10  19  29  43  64  92 125 158 191 225 263
#
# _framework density 16.687028999999999
#
# number of rings (size 3 to 8) (size 9 to 14) (size 15 to 20)
#    0.000    2.250    0.000    3.750    0.000    9.500 
#    0.000    0.000    0.000    0.000    0.000    0.000 
#    0.000    1.000    0.000    3.750    0.000    5.750 
#
# Total GULP energy -396529.824365 kJ/mol
# GULP energy per Si atom -12391.557011 kJ/mol
# Density = 1.664905 g / cm^3
# Si number density = 16.687029 Si / 1000 Ang^3
#
#
#
# Elastic Constant Matrix: (Units=GPa)
#
#
# Indices 1 2 3 4 5 6 
#
# 1 43.6018 30.3954 15.1460 0.0000 -7.9128 0.0000
# 2 30.3954 116.3020 47.2546 0.0000 -10.9148 0.0000
# 3 15.1460 47.2546 90.5942 0.0000 -19.8116 0.0000
# 4 0.0000 0.0000 0.0000 32.9454 0.0000 -1.5452
# 5 -7.9128 -10.9148 -19.8116 0.0000 15.9701 0.0000
# 6 0.0000 0.0000 0.0000 -1.5452 0.0000 19.8785
#
#
#
# Elastic Compliance Matrix: (Units=1/GPa)
#
#
# Indices 1 2 3 4 5 6 
#
# 1 0.029551 -0.007181 0.001282 0.000000 0.011324 0.000000
# 2 -0.007181 0.012659 -0.005885 0.000000 -0.002207 0.000000
# 3 0.001282 -0.005885 0.018050 0.000000 0.019004 0.000000
# 4 0.000000 0.000000 0.000000 0.030464 0.000000 0.002368
# 5 0.011324 -0.002207 0.019004 0.000000 0.090294 0.000000
# 6 0.000000 0.000000 0.000000 0.002368 0.000000 0.050490
#
#
# Mechanical properties :
#
#
# Convention : Reuss Voigt Hill
#
# Bulk Modulus (GPa) = 27.25529 48.45446 37.85488
# Shear Modulus (GPa) = 18.70507 24.27227 21.48867
#
# Velocity S-wave (km/s) = 3.35167 3.81801 3.59241
# Velocity P-wave (km/s) = 5.59883 6.96681 6.31994
#
# Compressibility (1/GPa) = 0.03669012
#
# Stress axis : x y z
#
# Youngs Moduli (GPa) = 33.84020 78.99426 55.40281
#
# Poissons Ratio (x) = 0.56726 -0.07100
# Poissons Ratio (y) = 0.24301 0.32605
# Poissons Ratio (z) = -0.04337 0.46489
#
# Static dielectric constant tensor:
#      x y z
#    x 2.475420 0.000000 0.009880 
#    y 0.000000 3.801300 0.000000 
#    z 0.009880 0.000000 3.130110 
# 
# 
# High freq. dielectric constant tensor:
#      x y z
#    x 1.575870 0.000000 -0.014950 
#    y 0.000000 1.667620 0.000000 
#    z -0.014950 0.000000 1.645420 
# 
# From -- ./inp_files/42822.got.cif
#   From: 2010.06.25/outbox.cif.g09.slc.cpg/sg11_22_cif.got.tgz:42822.got - 2010.06.27 23:14:04.
