data_PCOD8069430
_publ_section_title
;
Structure prediction by ZEFSAII (Michael W. Deem and Ramdas Pophale) SiO2 
 PCOD8069430
Probable space group: P 21/M
;
_chemical_formula_sum "Si O2"
_cell_formula_units_Z 32
_cell_length_a 8.141300
_cell_length_b 15.367937
_cell_length_c 11.840329
_cell_angle_alpha 90.000000
_cell_angle_beta 83.169340
_cell_angle_gamma 90.000000
_cell_volume 1470.887604
_symmetry_space_group_name_H-M "P 21/M"
_symmetry_group_IT_number 11
_symmetry_cell_setting 'monoclinic'
loop_
_space_group_symop_operation_xyz
x,y,z
-x,1/2+y,-z
-x,-y,-z
x,1/2-y,z
loop_
_atom_site_type_symbol
_atom_site_label
_atom_site_fract_x
_atom_site_fract_y
_atom_site_fract_z
Si Si1 0.449962 0.545604 0.286156
Si Si2 0.767329 0.654324 0.969492
Si Si3 0.928239 0.587388 0.165676
Si Si4 0.848463 0.540928 0.576910
Si Si5 0.298544 0.542601 0.068660
Si Si6 0.990300 0.157157 0.250724
Si Si7 0.299656 0.923847 0.823008
Si Si8 0.734008 0.851704 0.382454
O O1 0.282051 0.531741 0.370399
O O2 0.418034 0.576276 0.159366
O O3 0.545466 0.453167 0.266342
O O4 0.564915 0.615883 0.337618
O O5 0.672995 0.750000 0.961395
O O6 0.670576 0.562671 0.951949
O O7 0.924062 0.654203 0.876300
O O8 0.842253 0.655931 0.089018
O O9 0.841288 0.496244 0.153768
O O10 0.895638 0.622375 0.295319
O O11 0.118167 0.570709 0.124272
O O12 0.751061 0.607469 0.505030
O O13 0.000000 0.500000 0.500000
O O14 0.928309 0.583755 0.679826
O O15 0.347845 0.595546 0.950182
O O16 0.016585 0.250000 0.309846
O O17 0.792795 0.150645 0.241008
O O18 0.720639 0.750000 0.399773
#
# Coordination Sequence:
#
# PCOD8069430 Si02
#       8
#     4   4   4   4   4   4   4   4
#     4  11  23  40  63  89 121 168 205 252 305 371
#     4  10  18  31  58  91 123 154 198 261 309 350
#     4  10  18  36  62  88 122 163 209 245 300 371
#     4  12  24  45  68  88 116 161 222 261 306 370
#     4  11  18  36  60  93 124 168 206 241 298 380
#     4  11  21  38  62  94 123 154 204 265 314 358
#     4  10  19  36  59  91 128 159 199 245 313 382
#     4  11  25  43  62  91 126 164 206 256 308 360
#
# _framework density 21.755572999999998
#
# number of rings (size 3 to 8) (size 9 to 14) (size 15 to 20)
#    0.000    1.250    3.750    4.500    0.000    0.000 
#    0.000    7.500    0.000    0.000    0.000    0.000 
#    0.000    0.000    0.000    0.000    0.000    0.000 
#
# Total GULP energy -396473.856591 kJ/mol
# GULP energy per Si atom -12389.808018 kJ/mol
# Density = 2.170606 g / cm^3
# Si number density = 21.755573 Si / 1000 Ang^3
#
#
#
# Elastic Constant Matrix: (Units=GPa)
#
#
# Indices 1 2 3 4 5 6 
#
# 1 70.8033 0.3062 15.0960 0.0000 4.7784 0.0000
# 2 0.3062 69.4866 14.2039 0.0000 11.2069 0.0000
# 3 15.0960 14.2039 80.2583 0.0000 17.1914 0.0000
# 4 0.0000 0.0000 0.0000 15.1415 0.0000 0.6087
# 5 4.7784 11.2069 17.1914 0.0000 38.5065 0.0000
# 6 0.0000 0.0000 0.0000 0.6087 0.0000 19.8704
#
#
#
# Elastic Compliance Matrix: (Units=1/GPa)
#
#
# Indices 1 2 3 4 5 6 
#
# 1 0.014753 0.000619 -0.002713 0.000000 -0.000799 0.000000
# 2 0.000619 0.015397 -0.002062 0.000000 -0.003637 0.000000
# 3 -0.002713 -0.002062 0.014523 0.000000 -0.005547 0.000000
# 4 0.000000 0.000000 0.000000 0.066125 0.000000 -0.002025
# 5 -0.000799 -0.003637 -0.005547 0.000000 0.029604 0.000000
# 6 0.000000 0.000000 0.000000 -0.002025 0.000000 0.050388
#
#
# Mechanical properties :
#
#
# Convention : Reuss Voigt Hill
#
# Bulk Modulus (GPa) = 27.50295 31.08448 29.29371
# Shear Modulus (GPa) = 23.67157 27.43316 25.55236
#
# Velocity S-wave (km/s) = 3.30217 3.55487 3.43085
# Velocity P-wave (km/s) = 5.21616 5.58288 5.40263
#
# Compressibility (1/GPa) = 0.03635973
#
# Stress axis : x y z
#
# Youngs Moduli (GPa) = 67.78093 64.94916 68.85503
#
# Poissons Ratio (x) = -0.04017 0.18682
# Poissons Ratio (y) = -0.04193 0.14199
# Poissons Ratio (z) = 0.18391 0.13393
#
# Static dielectric constant tensor:
#      x y z
#    x 3.925070 0.000000 0.157560 
#    y 0.000000 3.956250 0.000000 
#    z 0.157560 0.000000 4.001680 
# 
# 
# High freq. dielectric constant tensor:
#      x y z
#    x 1.853320 0.000000 0.004360 
#    y 0.000000 1.826970 0.000000 
#    z 0.004360 0.000000 1.865980 
# 
# From -- ./inp_files/31857.got.cif
#   From: 2010.06.25/outbox.cif.g09.slc.cpg/sg11_16_cif.got.tgz:31857.got - 2010.06.27 23:14:04.
