data_PCOD8069777
_publ_section_title
;
Structure prediction by ZEFSAII (Michael W. Deem and Ramdas Pophale) SiO2 
 PCOD8069777
Probable space group: P 21/M
;
_chemical_formula_sum "Si O2"
_cell_formula_units_Z 32
_cell_length_a 16.374090
_cell_length_b 8.904992
_cell_length_c 20.653610
_cell_angle_alpha 90.000000
_cell_angle_beta 36.101937
_cell_angle_gamma 90.000000
_cell_volume 1774.462663
_symmetry_space_group_name_H-M "P 21/M"
_symmetry_group_IT_number 11
_symmetry_cell_setting 'monoclinic'
loop_
_space_group_symop_operation_xyz
x,y,z
-x,1/2+y,-z
-x,-y,-z
x,1/2-y,z
loop_
_atom_site_type_symbol
_atom_site_label
_atom_site_fract_x
_atom_site_fract_y
_atom_site_fract_z
Si Si1 0.628535 0.574187 0.496340
Si Si2 0.370717 0.073280 0.004498
Si Si3 0.067779 0.571259 0.893960
Si Si4 0.082612 0.428033 0.138851
Si Si5 0.107237 0.572032 0.622567
Si Si6 0.646743 0.926600 0.835765
Si Si7 0.657851 0.574070 0.328059
Si Si8 0.941984 0.572825 0.601101
O O1 0.605500 0.750000 0.522218
O O2 0.745832 0.511512 0.468819
O O3 0.673447 0.538405 0.394055
O O4 0.487913 0.488024 0.604334
O O5 0.387003 0.250000 0.987779
O O6 0.240533 0.013652 0.045797
O O7 0.343784 0.023869 0.095587
O O8 0.512383 0.999367 0.887645
O O9 0.069354 0.750000 0.898514
O O10 0.223412 0.512048 0.787021
O O11 0.977334 0.515075 0.890767
O O12 0.000000 0.500000 0.000000
O O13 0.082402 0.250000 0.143204
O O14 0.988096 0.489077 0.257864
O O15 0.130402 0.750000 0.612771
O O16 0.035869 0.524223 0.601469
O O17 0.633100 0.750000 0.838423
O O18 0.785128 0.985220 0.712004
O O19 0.667639 0.750000 0.307014
O O20 0.943411 0.750000 0.592671
O O21 0.000000 0.500000 0.500000
#
# Coordination Sequence:
#
# PCOD8069777 Si02
#       8
#     4   4   4   4   4   4   4   4
#     4  10  20  33  54  85 114 139 175 229 280 323
#     4   9  16  30  53  79 103 131 173 219 259 310
#     4  11  22  37  57  80 110 147 184 226 277 331
#     4   9  17  32  56  80 103 137 182 224 265 317
#     4  10  18  34  57  80 105 141 186 228 271 322
#     4   9  17  31  50  76 107 137 168 212 266 312
#     4  10  20  35  55  81 112 145 181 221 272 333
#     4  10  21  36  55  77 109 147 182 221 271 327
#
# _framework density 18.033628
#
# number of rings (size 3 to 8) (size 9 to 14) (size 15 to 20)
#    0.000    2.250    2.500    1.125    0.000    2.000 
#    0.000    3.125    0.000    4.500    0.000    0.000 
#    0.000    0.000    0.000    0.000    0.000    0.000 
#
# Total GULP energy -396835.096475 kJ/mol
# GULP energy per Si atom -12401.096765 kJ/mol
# Density = 1.799258 g / cm^3
# Si number density = 18.033628 Si / 1000 Ang^3
#
#
#
# Elastic Constant Matrix: (Units=GPa)
#
#
# Indices 1 2 3 4 5 6 
#
# 1 122.8123 37.2447 84.4672 0.0000 -13.2395 0.0000
# 2 37.2447 49.4802 46.4269 0.0000 -2.9437 0.0000
# 3 84.4672 46.4269 155.0912 0.0000 -15.9273 0.0000
# 4 0.0000 0.0000 0.0000 33.9623 0.0000 -3.2881
# 5 -13.2395 -2.9437 -15.9273 0.0000 34.8934 0.0000
# 6 0.0000 0.0000 0.0000 -3.2881 0.0000 27.4175
#
#
#
# Elastic Compliance Matrix: (Units=1/GPa)
#
#
# Indices 1 2 3 4 5 6 
#
# 1 0.013893 -0.004781 -0.005912 0.000000 0.002169 0.000000
# 2 -0.004781 0.029828 -0.006561 0.000000 -0.002292 0.000000
# 3 -0.005912 -0.006561 0.011903 0.000000 0.002636 0.000000
# 4 0.000000 0.000000 0.000000 0.029790 0.000000 0.003573
# 5 0.002169 -0.002292 0.002636 0.000000 0.030492 0.000000
# 6 0.000000 0.000000 0.000000 0.003573 0.000000 0.036902
#
#
# Mechanical properties :
#
#
# Convention : Reuss Voigt Hill
#
# Bulk Modulus (GPa) = 47.35836 73.74014 60.54925
# Shear Modulus (GPa) = 25.72634 29.87097 27.79866
#
# Velocity S-wave (km/s) = 3.78110 4.07431 3.93044
# Velocity P-wave (km/s) = 6.73650 7.94433 7.36522
#
# Compressibility (1/GPa) = 0.02111560
#
# Stress axis : x y z
#
# Youngs Moduli (GPa) = 71.98092 33.52530 84.01475
#
# Poissons Ratio (x) = 0.16027 0.49673
# Poissons Ratio (y) = 0.34411 0.55121
# Poissons Ratio (z) = 0.42559 0.21996
#
# Static dielectric constant tensor:
#      x y z
#    x 3.357100 0.000000 -0.255820 
#    y 0.000000 3.238560 0.000000 
#    z -0.255820 0.000000 3.349740 
# 
# 
# High freq. dielectric constant tensor:
#      x y z
#    x 1.688680 0.000000 -0.022950 
#    y 0.000000 1.686130 0.000000 
#    z -0.022950 0.000000 1.699700 
# 
# From -- ./inp_files/69417.got.cif
#   From: 2010.06.25/outbox.cif.g09.slc.cpg/sg11_35_cif.got.tgz:69417.got - 2010.06.27 23:14:04.
