data_PCOD8069604
_publ_section_title
;
Structure prediction by ZEFSAII (Michael W. Deem and Ramdas Pophale) SiO2 
 PCOD8069604
Probable space group: P 21/M
;
_chemical_formula_sum "Si O2"
_cell_formula_units_Z 32
_cell_length_a 11.757789
_cell_length_b 18.867540
_cell_length_c 15.679289
_cell_angle_alpha 90.000000
_cell_angle_beta 151.256878
_cell_angle_gamma 90.000000
_cell_volume 1672.658187
_symmetry_space_group_name_H-M "P 21/M"
_symmetry_group_IT_number 11
_symmetry_cell_setting 'monoclinic'
loop_
_space_group_symop_operation_xyz
x,y,z
-x,1/2+y,-z
-x,-y,-z
x,1/2-y,z
loop_
_atom_site_type_symbol
_atom_site_label
_atom_site_fract_x
_atom_site_fract_y
_atom_site_fract_z
Si Si1 0.694919 0.030149 0.064784
Si Si2 0.806280 0.833953 0.806550
Si Si3 0.337232 0.047751 0.700101
Si Si4 0.267312 0.666099 0.442025
Si Si5 0.036407 0.551337 0.394237
Si Si6 0.145963 0.666032 0.175496
Si Si7 0.394767 0.329754 0.616273
Si Si8 0.057759 0.830445 0.799999
O O1 0.744935 0.115072 0.106707
O O2 0.588449 0.017960 0.900202
O O3 0.935399 0.987698 0.242919
O O4 0.500000 0.000000 0.000000
O O5 0.794767 0.750000 0.796810
O O6 0.538380 0.861941 0.620610
O O7 0.970249 0.858171 0.835180
O O8 0.922870 0.861450 0.972360
O O9 0.365424 0.126305 0.682856
O O10 0.155895 0.057077 0.658524
O O11 0.254398 0.994614 0.572338
O O12 0.253169 0.750000 0.447955
O O13 0.128779 0.628607 0.428250
O O14 0.138030 0.642434 0.269063
O O15 0.153830 0.750000 0.178151
O O16 0.389246 0.637071 0.295426
O O17 0.453703 0.250000 0.684073
O O18 0.161771 0.331987 0.407229
O O19 0.161162 0.750000 0.872241
#
# Coordination Sequence:
#
# PCOD8069604 Si02
#       8
#     4   4   4   4   4   4   4   4
#     4  10  21  38  58  79 111 152 187 229 286 332
#     4   9  17  31  54  84 116 146 180 229 286 334
#     4  10  21  38  58  78 108 149 189 229 280 332
#     4  10  20  36  57  83 114 149 186 231 280 337
#     4  10  22  39  57  77 111 152 190 228 278 340
#     4   9  17  31  53  82 113 143 177 225 286 336
#     4  10  18  32  59  89 113 139 181 236 283 328
#     4  10  18  33  59  88 115 144 186 237 282 330
#
# _framework density 19.131224
#
# number of rings (size 3 to 8) (size 9 to 14) (size 15 to 20)
#    0.000    2.250    2.500    0.750    0.000    3.000 
#    0.000    4.375    0.000    3.000    0.000    0.000 
#    0.000    0.000    0.000    0.000    0.000    0.000 
#
# Total GULP energy -396558.916551 kJ/mol
# GULP energy per Si atom -12392.466142 kJ/mol
# Density = 1.908768 g / cm^3
# Si number density = 19.131224 Si / 1000 Ang^3
#
#
#
# Elastic Constant Matrix: (Units=GPa)
#
#
# Indices 1 2 3 4 5 6 
#
# 1 63.8956 49.3508 36.8602 0.0000 -11.5099 0.0000
# 2 49.3508 84.4301 40.5756 0.0000 -3.1042 0.0000
# 3 36.8602 40.5756 139.9673 0.0000 -22.5154 0.0000
# 4 0.0000 0.0000 0.0000 19.9236 0.0000 -1.6955
# 5 -11.5099 -3.1042 -22.5154 0.0000 20.7462 0.0000
# 6 0.0000 0.0000 0.0000 -1.6955 0.0000 26.5985
#
#
#
# Elastic Compliance Matrix: (Units=1/GPa)
#
#
# Indices 1 2 3 4 5 6 
#
# 1 0.032910 -0.018187 -0.001084 0.000000 0.014360 0.000000
# 2 -0.018187 0.023943 -0.003875 0.000000 -0.010713 0.000000
# 3 -0.001084 -0.003875 0.010132 0.000000 0.009815 0.000000
# 4 0.000000 0.000000 0.000000 0.050465 0.000000 0.003217
# 5 0.014360 -0.010713 0.009815 0.000000 0.065218 0.000000
# 6 0.000000 0.000000 0.000000 0.003217 0.000000 0.037801
#
#
# Mechanical properties :
#
#
# Convention : Reuss Voigt Hill
#
# Bulk Modulus (GPa) = 48.32641 60.20737 54.26689
# Shear Modulus (GPa) = 18.27081 24.22074 21.24577
#
# Velocity S-wave (km/s) = 3.09370 3.56199 3.33607
# Velocity P-wave (km/s) = 6.17063 6.96104 6.57772
#
# Compressibility (1/GPa) = 0.02069262
#
# Stress axis : x y z
#
# Youngs Moduli (GPa) = 30.38560 41.76553 98.69551
#
# Poissons Ratio (x) = 0.75961 0.10703
# Poissons Ratio (y) = 0.55264 0.38241
# Poissons Ratio (z) = 0.03295 0.16182
#
# Static dielectric constant tensor:
#      x y z
#    x 3.268500 0.000000 -0.178510 
#    y 0.000000 3.365080 0.000000 
#    z -0.178510 0.000000 4.104410 
# 
# 
# High freq. dielectric constant tensor:
#      x y z
#    x 1.719130 0.000000 -0.011820 
#    y 0.000000 1.716660 0.000000 
#    z -0.011820 0.000000 1.769750 
# 
# From -- ./inp_files/50708.got.cif
#   From: 2010.06.25/outbox.cif.g09.slc.cpg/sg11_26_cif.got.tgz:50708.got - 2010.06.27 23:14:04.
