data_PCOD8069533
_publ_section_title
;
Structure prediction by ZEFSAII (Michael W. Deem and Ramdas Pophale) SiO2 
 PCOD8069533
Probable space group: P 21/M
;
_chemical_formula_sum "Si O2"
_cell_formula_units_Z 32
_cell_length_a 20.753088
_cell_length_b 8.719766
_cell_length_c 12.264106
_cell_angle_alpha 90.000000
_cell_angle_beta 128.062584
_cell_angle_gamma 90.000000
_cell_volume 1747.368713
_symmetry_space_group_name_H-M "P 21/M"
_symmetry_group_IT_number 11
_symmetry_cell_setting 'monoclinic'
loop_
_space_group_symop_operation_xyz
x,y,z
-x,1/2+y,-z
-x,-y,-z
x,1/2-y,z
loop_
_atom_site_type_symbol
_atom_site_label
_atom_site_fract_x
_atom_site_fract_y
_atom_site_fract_z
Si Si1 0.268995 0.431796 0.851133
Si Si2 0.476738 0.569405 0.591314
Si Si3 0.873017 0.930525 0.140980
Si Si4 0.377540 0.931600 0.141597
Si Si5 0.213531 0.931453 0.575815
Si Si6 0.030042 0.568089 0.418826
Si Si7 0.246511 0.430698 0.163373
Si Si8 0.711155 0.429244 0.573651
O O1 0.276299 0.250000 0.861052
O O2 0.187573 0.493133 0.827817
O O3 0.267292 0.490959 0.726060
O O4 0.347216 0.501175 0.994910
O O5 0.500000 0.500000 0.500000
O O6 0.491605 0.750000 0.603504
O O7 0.531303 0.494001 0.742963
O O8 0.383833 0.527287 0.522934
O O9 0.872522 0.750000 0.150442
O O10 0.965546 0.989664 0.258433
O O11 0.838078 0.979562 0.986109
O O12 0.378079 0.750000 0.136999
O O13 0.322101 0.984673 0.185236
O O14 0.218173 0.750000 0.595473
O O15 0.120036 0.992209 0.482312
O O16 0.251576 0.984786 0.501498
O O17 0.030176 0.750000 0.428668
O O18 0.000000 0.500000 0.500000
O O19 0.261858 0.250000 0.169157
O O20 0.239731 0.481294 0.281084
O O21 0.725482 0.250000 0.607202
#
# Coordination Sequence:
#
# PCOD8069533 Si02
#       8
#     4   4   4   4   4   4   4   4
#     4  10  19  34  55  80 111 144 180 222 272 327
#     4  11  21  35  56  81 109 142 185 232 274 326
#     4   8  16  30  50  78 108 137 172 223 270 310
#     4  11  21  34  55  83 112 139 177 229 278 325
#     4  10  21  36  55  80 111 148 184 223 275 330
#     4  10  18  32  54  80 109 141 182 227 270 318
#     4  10  19  33  54  79 108 143 184 224 270 324
#     4  10  22  38  54  77 112 148 181 223 277 331
#
# _framework density 18.313251000000001
#
# number of rings (size 3 to 8) (size 9 to 14) (size 15 to 20)
#    0.000    2.000    2.500    3.000    0.000    1.000 
#    0.000    1.875    0.000    0.000    0.000    0.000 
#    0.000    0.000    0.000    0.000    0.000    0.000 
#
# Total GULP energy -396786.148356 kJ/mol
# GULP energy per Si atom -12399.567136 kJ/mol
# Density = 1.827157 g / cm^3
# Si number density = 18.313251 Si / 1000 Ang^3
#
#
#
# Elastic Constant Matrix: (Units=GPa)
#
#
# Indices 1 2 3 4 5 6 
#
# 1 110.4828 35.6214 75.3500 0.0000 -5.6132 0.0000
# 2 35.6214 66.1217 49.3870 0.0000 -3.9465 0.0000
# 3 75.3500 49.3870 181.2612 0.0000 -3.9688 0.0000
# 4 0.0000 0.0000 0.0000 31.0129 0.0000 -4.1027
# 5 -5.6132 -3.9465 -3.9688 0.0000 27.0541 0.0000
# 6 0.0000 0.0000 0.0000 -4.1027 0.0000 19.5897
#
#
#
# Elastic Compliance Matrix: (Units=1/GPa)
#
#
# Indices 1 2 3 4 5 6 
#
# 1 0.013429 -0.003762 -0.004523 0.000000 0.001574 0.000000
# 2 -0.003762 0.020152 -0.003892 0.000000 0.001588 0.000000
# 3 -0.004523 -0.003892 0.008452 0.000000 -0.000266 0.000000
# 4 0.000000 0.000000 0.000000 0.033163 0.000000 0.006946
# 5 0.001574 0.001588 -0.000266 0.000000 0.037482 0.000000
# 6 0.000000 0.000000 0.000000 0.006946 0.000000 0.052502
#
#
# Mechanical properties :
#
#
# Convention : Reuss Voigt Hill
#
# Bulk Modulus (GPa) = 56.56613 75.39806 65.98210
# Shear Modulus (GPa) = 25.58499 28.69847 27.14173
#
# Velocity S-wave (km/s) = 3.74180 3.96294 3.85396
# Velocity P-wave (km/s) = 7.04438 7.88673 7.47743
#
# Compressibility (1/GPa) = 0.01767842
#
# Stress axis : x y z
#
# Youngs Moduli (GPa) = 74.46721 49.62224 118.32103
#
# Poissons Ratio (x) = 0.18670 0.53513
# Poissons Ratio (y) = 0.28017 0.46050
# Poissons Ratio (z) = 0.33680 0.19313
#
# Static dielectric constant tensor:
#      x y z
#    x 3.063670 0.000000 -0.005100 
#    y 0.000000 3.262840 0.000000 
#    z -0.005100 0.000000 3.562570 
# 
# 
# High freq. dielectric constant tensor:
#      x y z
#    x 1.678220 0.000000 0.007700 
#    y 0.000000 1.703970 0.000000 
#    z 0.007700 0.000000 1.730930 
# 
# From -- ./inp_files/42884.got.cif
#   From: 2010.06.25/outbox.cif.g09.slc.cpg/sg11_22_cif.got.tgz:42884.got - 2010.06.27 23:14:04.
