data_PCOD8069509
_publ_section_title
;
Structure prediction by ZEFSAII (Michael W. Deem and Ramdas Pophale) SiO2 
 PCOD8069509
Probable space group: P 21/M
;
_chemical_formula_sum "Si O2"
_cell_formula_units_Z 32
_cell_length_a 9.121479
_cell_length_b 16.727837
_cell_length_c 14.634992
_cell_angle_alpha 90.000000
_cell_angle_beta 39.669944
_cell_angle_gamma 90.000000
_cell_volume 1425.496022
_symmetry_space_group_name_H-M "P 21/M"
_symmetry_group_IT_number 11
_symmetry_cell_setting 'monoclinic'
loop_
_space_group_symop_operation_xyz
x,y,z
-x,1/2+y,-z
-x,-y,-z
x,1/2-y,z
loop_
_atom_site_type_symbol
_atom_site_label
_atom_site_fract_x
_atom_site_fract_y
_atom_site_fract_z
Si Si1 0.486389 0.840724 0.657790
Si Si2 0.571009 0.342160 0.528668
Si Si3 0.102807 0.421535 0.763096
Si Si4 0.641803 0.452336 0.802694
Si Si5 0.001480 0.426701 0.290047
Si Si6 0.990844 0.843256 0.382902
Si Si7 0.680355 0.417561 0.092154
Si Si8 0.568955 0.659027 0.946655
O O1 0.466055 0.750000 0.699747
O O2 0.414828 0.849127 0.587578
O O3 0.750781 0.870325 0.543127
O O4 0.319193 0.892780 0.801837
O O5 0.560918 0.250000 0.565788
O O6 0.352849 0.389480 0.673528
O O7 0.805176 0.386151 0.448064
O O8 0.009901 0.366990 0.724343
O O9 0.116916 0.514672 0.727543
O O10 0.937830 0.414068 0.930000
O O11 0.822564 0.522440 0.734454
O O12 0.419527 0.491165 0.861995
O O13 0.790003 0.386920 0.673527
O O14 0.564348 0.408220 0.932231
O O15 0.156944 0.355532 0.172321
O O16 0.027710 0.750000 0.374009
O O17 0.516511 0.355769 0.115954
O O18 0.514453 0.750000 0.003464
#
# Coordination Sequence:
#
# PCOD8069509 Si02
#       8
#     4   4   4   4   4   4   4   4
#     4   9  20  34  49  74 107 137 174 220 258 307
#     4  10  21  36  54  77 102 139 184 216 256 311
#     4  10  18  32  54  74 106 136 172 224 255 303
#     4  10  19  32  54  77 113 133 170 220 261 314
#     4  10  18  34  51  79 106 135 166 223 266 302
#     4   9  17  31  50  76 105 140 179 212 254 308
#     4  11  19  33  52  82 108 134 172 218 268 310
#     4  11  19  30  54  82 107 136 170 218 264 308
#
# _framework density 22.448326000000002
#
# number of rings (size 3 to 8) (size 9 to 14) (size 15 to 20)
#    0.000    2.000    3.750    3.375    0.000    2.000 
#    0.000    0.625    0.000    0.000    0.000    0.000 
#    0.000    2.250    0.000    0.000    0.000    0.000 
#
# Total GULP energy -396542.378864 kJ/mol
# GULP energy per Si atom -12391.949340 kJ/mol
# Density = 2.239723 g / cm^3
# Si number density = 22.448326 Si / 1000 Ang^3
#
#
#
# Elastic Constant Matrix: (Units=GPa)
#
#
# Indices 1 2 3 4 5 6 
#
# 1 14.2741 13.7236 21.1828 0.0000 -13.0124 0.0000
# 2 13.7236 88.4481 31.1785 0.0000 -16.5729 0.0000
# 3 21.1828 31.1785 131.4063 0.0000 -27.9477 0.0000
# 4 0.0000 0.0000 0.0000 40.7049 0.0000 -9.5534
# 5 -13.0124 -16.5729 -27.9477 0.0000 38.8903 0.0000
# 6 0.0000 0.0000 0.0000 -9.5534 0.0000 12.6836
#
#
#
# Elastic Compliance Matrix: (Units=1/GPa)
#
#
# Indices 1 2 3 4 5 6 
#
# 1 0.122232 -0.009601 -0.011329 0.000000 0.028665 0.000000
# 2 -0.009601 0.013566 -0.001328 0.000000 0.001615 0.000000
# 3 -0.011329 -0.001328 0.010417 0.000000 0.003129 0.000000
# 4 0.000000 0.000000 0.000000 0.029843 0.000000 0.022478
# 5 0.028665 0.001615 0.003129 0.000000 0.038241 0.000000
# 6 0.000000 0.000000 0.000000 0.022478 0.000000 0.095772
#
#
# Mechanical properties :
#
#
# Convention : Reuss Voigt Hill
#
# Bulk Modulus (GPa) = 9.83292 40.69982 25.26637
# Shear Modulus (GPa) = 12.87044 29.65868 21.26456
#
# Velocity S-wave (km/s) = 2.39704 3.63877 3.08111
# Velocity P-wave (km/s) = 3.47143 5.98532 4.89259
#
# Compressibility (1/GPa) = 0.10169923
#
# Stress axis : x y z
#
# Youngs Moduli (GPa) = 8.18117 73.71201 95.99795
#
# Poissons Ratio (x) = 0.70769 1.08761
# Poissons Ratio (y) = 0.07854 0.12746
# Poissons Ratio (z) = 0.09269 0.09787
#
# Static dielectric constant tensor:
#      x y z
#    x 3.496910 0.000000 -0.443950 
#    y 0.000000 4.302680 0.000000 
#    z -0.443950 0.000000 4.264890 
# 
# 
# High freq. dielectric constant tensor:
#      x y z
#    x 1.828180 0.000000 -0.030230 
#    y 0.000000 1.893370 0.000000 
#    z -0.030230 0.000000 1.892540 
# 
# From -- ./inp_files/59623.got.cif
#   From: 2010.06.25/outbox.cif.g09.slc.cpg/sg11_30_cif.got.tgz:59623.got - 2010.06.27 23:14:04.
