data_PCOD8069872
_publ_section_title
;
Structure prediction by ZEFSAII (Michael W. Deem and Ramdas Pophale) SiO2 
 PCOD8069872
Probable space group: P 21/M
;
_chemical_formula_sum "Si O2"
_cell_formula_units_Z 22
_cell_length_a 8.290505
_cell_length_b 14.283118
_cell_length_c 16.053752
_cell_angle_alpha 90.000000
_cell_angle_beta 37.269538
_cell_angle_gamma 90.000000
_cell_volume 1151.175681
_symmetry_space_group_name_H-M "P 21/M"
_symmetry_group_IT_number 11
_symmetry_cell_setting 'monoclinic'
loop_
_space_group_symop_operation_xyz
x,y,z
-x,1/2+y,-z
-x,-y,-z
x,1/2-y,z
loop_
_atom_site_type_symbol
_atom_site_label
_atom_site_fract_x
_atom_site_fract_y
_atom_site_fract_z
Si Si1 0.638134 0.250000 0.011858
Si Si2 0.213697 0.854243 0.502577
Si Si3 0.409026 0.750000 0.738185
Si Si4 0.449641 0.897779 0.236403
Si Si5 0.464829 0.250000 0.505508
Si Si6 0.095533 0.250000 0.951690
Si Si7 0.842803 0.250000 0.746599
Si Si8 0.369950 0.397083 0.231153
O O1 0.662171 0.250000 0.903380
O O2 0.928041 0.250000 0.935353
O O3 0.475064 0.342155 0.106871
O O4 0.136114 0.750000 0.500781
O O5 0.353635 0.911149 0.371020
O O6 0.417796 0.842738 0.496594
O O7 0.949467 0.907442 0.641315
O O8 0.437445 0.750000 0.628570
O O9 0.545485 0.842547 0.719955
O O10 0.095956 0.750000 0.889476
O O11 0.726858 0.842826 0.119226
O O12 0.223457 0.842997 0.278050
O O13 0.496850 0.999839 0.178188
O O14 0.150025 0.250000 0.643602
#
# Coordination Sequence:
#
# PCOD8069872 Si02
#       8
#     2   4   2   4   2   2   2   4
#     4  10  21  37  57  81 114 150 181 232 281 325
#     4  10  18  36  59  79 111 149 180 229 279 322
#     4  10  20  37  60  81 108 150 187 228 278 333
#     4  11  21  36  59  84 111 149 189 227 272 335
#     4  10  20  37  61  79 111 145 183 235 278 326
#     4   9  20  37  55  80 111 147 183 226 286 324
#     4  11  21  36  57  81 110 148 190 227 281 332
#     4  10  21  38  59  82 113 148 188 227 275 332
#
# _framework density 19.110897999999999
#
# number of rings (size 3 to 8) (size 9 to 14) (size 15 to 20)
#    0.545    1.455    3.636    2.727    0.000    6.545 
#    0.000    5.455    0.000    0.000    0.000    0.000 
#    0.000    0.000    0.000    0.000    0.000    0.000 
#
# Total GULP energy -272797.330295 kJ/mol
# GULP energy per Si atom -12399.878650 kJ/mol
# Density = 1.906740 g / cm^3
# Si number density = 19.110898 Si / 1000 Ang^3
#
#
#
# Elastic Constant Matrix: (Units=GPa)
#
#
# Indices 1 2 3 4 5 6 
#
# 1 103.9514 28.8634 61.3983 0.0000 8.6546 0.0000
# 2 28.8634 119.6343 25.0790 0.0000 -3.9282 0.0000
# 3 61.3983 25.0790 123.1573 0.0000 -2.4177 0.0000
# 4 0.0000 0.0000 0.0000 7.6277 0.0000 -1.3398
# 5 8.6546 -3.9282 -2.4177 0.0000 41.3238 0.0000
# 6 0.0000 0.0000 0.0000 -1.3398 0.0000 7.6253
#
#
#
# Elastic Compliance Matrix: (Units=1/GPa)
#
#
# Indices 1 2 3 4 5 6 
#
# 1 0.014619 -0.002199 -0.006913 0.000000 -0.003675 0.000000
# 2 -0.002199 0.009084 -0.000729 0.000000 0.001281 0.000000
# 3 -0.006913 -0.000729 0.011755 0.000000 0.002066 0.000000
# 4 0.000000 0.000000 0.000000 0.135277 0.000000 0.023769
# 5 -0.003675 0.001281 0.002066 0.000000 0.025212 0.000000
# 6 0.000000 0.000000 0.000000 0.023769 0.000000 0.135319
#
#
# Mechanical properties :
#
#
# Convention : Reuss Voigt Hill
#
# Bulk Modulus (GPa) = 63.37778 64.15829 63.76803
# Shear Modulus (GPa) = 14.03686 26.74216 20.38951
#
# Velocity S-wave (km/s) = 2.71310 3.74480 3.26989
# Velocity P-wave (km/s) = 6.56123 7.23481 6.90624
#
# Compressibility (1/GPa) = 0.01577840
#
# Stress axis : x y z
#
# Youngs Moduli (GPa) = 68.40286 110.08279 85.07144
#
# Poissons Ratio (x) = 0.24204 0.58807
# Poissons Ratio (y) = 0.15040 0.06198
# Poissons Ratio (z) = 0.47285 0.08020
#
# Static dielectric constant tensor:
#      x y z
#    x 3.381700 0.000000 -0.064130 
#    y 0.000000 3.284740 0.000000 
#    z -0.064130 0.000000 3.485970 
# 
# 
# High freq. dielectric constant tensor:
#      x y z
#    x 1.736160 0.000000 -0.005390 
#    y 0.000000 1.724030 0.000000 
#    z -0.005390 0.000000 1.753170 
# 
# From -- ./inp_files/31383.got.cif
#   From: 2010.06.25/outbox.cif.g09.slc.cpg/sg11_16_cif.got.tgz:31383.got - 2010.06.27 23:14:04.
