data_PCOD8069631
_publ_section_title
;
Structure prediction by ZEFSAII (Michael W. Deem and Ramdas Pophale) SiO2 
 PCOD8069631
Probable space group: P 21/M
;
_chemical_formula_sum "Si O2"
_cell_formula_units_Z 32
_cell_length_a 29.183030
_cell_length_b 9.220007
_cell_length_c 12.483902
_cell_angle_alpha 90.000000
_cell_angle_beta 30.536544
_cell_angle_gamma 90.000000
_cell_volume 1706.674759
_symmetry_space_group_name_H-M "P 21/M"
_symmetry_group_IT_number 11
_symmetry_cell_setting 'monoclinic'
loop_
_space_group_symop_operation_xyz
x,y,z
-x,1/2+y,-z
-x,-y,-z
x,1/2-y,z
loop_
_atom_site_type_symbol
_atom_site_label
_atom_site_fract_x
_atom_site_fract_y
_atom_site_fract_z
Si Si1 0.695152 0.920010 0.990745
Si Si2 0.198566 0.079487 0.787771
Si Si3 0.447056 0.588422 0.020037
Si Si4 0.020049 0.925419 0.073548
Si Si5 0.155889 0.088689 0.467414
Si Si6 0.514057 0.085168 0.297941
Si Si7 0.318316 0.081284 0.741800
Si Si8 0.285100 0.090865 0.393614
O O1 0.683166 0.750000 0.988987
O O2 0.723186 0.947787 0.057415
O O3 0.598734 0.991532 0.164232
O O4 0.774917 0.989828 0.755403
O O5 0.171998 0.250000 0.848862
O O6 0.248550 0.019677 0.794009
O O7 0.267741 0.051747 0.551605
O O8 0.111615 0.981609 0.941979
O O9 0.438062 0.750000 0.081245
O O10 0.347542 0.524171 0.208521
O O11 0.500000 0.500000 0.000000
O O12 0.497743 0.581472 0.805792
O O13 0.021262 0.750000 0.057054
O O14 0.944025 0.976489 0.314296
O O15 0.000000 0.000000 0.000000
O O16 0.145834 0.250000 0.441213
O O17 0.192365 0.089718 0.515398
O O18 0.529399 0.250000 0.307519
O O19 0.420351 0.016427 0.531333
O O20 0.329917 0.250000 0.692713
O O21 0.330861 0.250000 0.294962
#
# Coordination Sequence:
#
# PCOD8069631 Si02
#       8
#     4   4   4   4   4   4   4   4
#     4  10  19  35  58  80 103 140 185 222 256 313
#     4  10  20  37  57  79 109 145 179 218 268 323
#     4  11  22  33  48  74 109 145 180 219 266 319
#     4  11  21  36  57  83 110 140 176 219 270 325
#     4   9  18  33  54  79 106 135 170 214 268 316
#     4  10  20  35  53  78 108 140 177 222 268 310
#     4   9  19  35  56  78 105 143 183 217 261 317
#     4  10  18  33  54  74 105 143 173 211 267 321
#
# _framework density 18.749911999999998
#
# number of rings (size 3 to 8) (size 9 to 14) (size 15 to 20)
#    0.000    2.000    2.500    1.875    0.000    3.000 
#    0.000    3.125    0.000    0.000    0.000    0.000 
#    0.000    0.000    0.000    0.000    0.000    0.000 
#
# Total GULP energy -396586.726521 kJ/mol
# GULP energy per Si atom -12393.335204 kJ/mol
# Density = 1.870724 g / cm^3
# Si number density = 18.749912 Si / 1000 Ang^3
#
#
#
# Elastic Constant Matrix: (Units=GPa)
#
#
# Indices 1 2 3 4 5 6 
#
# 1 93.7371 25.8288 55.4392 0.0000 6.0567 0.0000
# 2 25.8288 63.5980 38.9903 0.0000 -3.1128 0.0000
# 3 55.4392 38.9903 125.7237 0.0000 -1.3967 0.0000
# 4 0.0000 0.0000 0.0000 25.8195 0.0000 -6.7507
# 5 6.0567 -3.1128 -1.3967 0.0000 28.6774 0.0000
# 6 0.0000 0.0000 0.0000 -6.7507 0.0000 25.0619
#
#
#
# Elastic Compliance Matrix: (Units=1/GPa)
#
#
# Indices 1 2 3 4 5 6 
#
# 1 0.015137 -0.002734 -0.005869 0.000000 -0.003780 0.000000
# 2 -0.002734 0.020004 -0.004970 0.000000 0.002507 0.000000
# 3 -0.005869 -0.004970 0.012097 0.000000 0.001289 0.000000
# 4 0.000000 0.000000 0.000000 0.041665 0.000000 0.011223
# 5 -0.003780 0.002507 0.001289 0.000000 0.036004 0.000000
# 6 0.000000 0.000000 0.000000 0.011223 0.000000 0.042924
#
#
# Mechanical properties :
#
#
# Convention : Reuss Voigt Hill
#
# Bulk Modulus (GPa) = 49.77175 58.17504 53.97339
# Shear Modulus (GPa) = 24.79240 26.76513 25.77876
#
# Velocity S-wave (km/s) = 3.64024 3.78230 3.71195
# Velocity P-wave (km/s) = 6.65366 7.08298 6.87167
#
# Compressibility (1/GPa) = 0.02009172
#
# Stress axis : x y z
#
# Youngs Moduli (GPa) = 66.06450 49.98979 82.66177
#
# Poissons Ratio (x) = 0.13670 0.48511
# Poissons Ratio (y) = 0.18065 0.41084
# Poissons Ratio (z) = 0.38771 0.24846
#
# Static dielectric constant tensor:
#      x y z
#    x 3.409780 0.000000 -0.007590 
#    y 0.000000 3.076170 0.000000 
#    z -0.007590 0.000000 3.876690 
# 
# 
# High freq. dielectric constant tensor:
#      x y z
#    x 1.723060 0.000000 0.002770 
#    y 0.000000 1.699140 0.000000 
#    z 0.002770 0.000000 1.736890 
# 
# From -- ./inp_files/38146.got.cif
#   From: 2010.06.25/outbox.cif.g09.slc.cpg/sg11_20_cif.got.tgz:38146.got - 2010.06.27 23:14:04.
