data_PCOD8069063
_publ_section_title
;
Structure prediction by ZEFSAII (Michael W. Deem and Ramdas Pophale) SiO2 
 PCOD8069063
Probable space group: P 21/M
;
_chemical_formula_sum "Si O2"
_cell_formula_units_Z 32
_cell_length_a 23.043650
_cell_length_b 9.196612
_cell_length_c 11.407749
_cell_angle_alpha 90.000000
_cell_angle_beta 50.761518
_cell_angle_gamma 90.000000
_cell_volume 1872.456025
_symmetry_space_group_name_H-M "P 21/M"
_symmetry_group_IT_number 11
_symmetry_cell_setting 'monoclinic'
loop_
_space_group_symop_operation_xyz
x,y,z
-x,1/2+y,-z
-x,-y,-z
x,1/2-y,z
loop_
_atom_site_type_symbol
_atom_site_label
_atom_site_fract_x
_atom_site_fract_y
_atom_site_fract_z
Si Si1 0.573723 0.578184 0.448438
Si Si2 0.073760 0.575231 0.452962
Si Si3 0.134680 0.590820 0.616053
Si Si4 0.355151 0.088962 0.404649
Si Si5 0.804726 0.589794 0.268518
Si Si6 0.221090 0.076530 0.178614
Si Si7 0.706267 0.087490 0.712034
Si Si8 0.273356 0.077889 0.854564
O O1 0.500000 0.500000 0.500000
O O2 0.563670 0.750000 0.447877
O O3 0.588431 0.535802 0.565610
O O4 0.643040 0.520766 0.280472
O O5 0.073700 0.750000 0.435235
O O6 0.079505 0.534122 0.583825
O O7 0.142844 0.505303 0.295260
O O8 0.000000 0.500000 0.500000
O O9 0.108900 0.750000 0.688658
O O10 0.132647 0.495425 0.736490
O O11 0.216991 0.595943 0.456596
O O12 0.378221 0.250000 0.331684
O O13 0.272043 0.096386 0.562076
O O14 0.357880 0.979742 0.290444
O O15 0.838554 0.750000 0.208133
O O16 0.786771 0.516405 0.164537
O O17 0.211476 0.250000 0.206380
O O18 0.283328 0.016958 0.189196
O O19 0.249580 0.031838 0.014003
O O20 0.681876 0.250000 0.782405
O O21 0.273856 0.250000 0.835811
#
# Coordination Sequence:
#
# PCOD8069063 Si02
#       8
#     4   4   4   4   4   4   4   4
#     4   9  17  30  47  69  96 123 154 191 231 277
#     4  10  20  33  48  69  96 122 152 190 229 271
#     4   8  15  26  40  62  90 114 139 180 228 265
#     4   8  14  25  42  63  87 116 150 187 227 272
#     4   8  13  24  43  64  85 112 148 185 219 261
#     4  10  18  30  49  69  92 124 155 184 226 275
#     4   9  16  26  41  64  92 116 146 191 232 266
#     4   8  16  30  47  68  94 123 153 186 226 273
#
# _framework density 17.089853000000002
#
# number of rings (size 3 to 8) (size 9 to 14) (size 15 to 20)
#    0.000    3.250    0.000    3.375    0.000    4.000 
#    0.000    4.375    0.000    1.500    0.000    0.000 
#    0.000    0.000    0.000    0.000    0.000    0.000 
#
# Total GULP energy -396509.278405 kJ/mol
# GULP energy per Si atom -12390.914950 kJ/mol
# Density = 1.705096 g / cm^3
# Si number density = 17.089853 Si / 1000 Ang^3
#
#
#
# Elastic Constant Matrix: (Units=GPa)
#
#
# Indices 1 2 3 4 5 6 
#
# 1 158.5943 68.5650 56.3806 0.0000 26.1265 0.0000
# 2 68.5650 87.2130 40.2565 0.0000 15.4239 0.0000
# 3 56.3806 40.2565 67.4636 0.0000 21.5556 0.0000
# 4 0.0000 0.0000 0.0000 13.8038 0.0000 3.0158
# 5 26.1265 15.4239 21.5556 0.0000 22.6501 0.0000
# 6 0.0000 0.0000 0.0000 3.0158 0.0000 32.1241
#
#
#
# Elastic Compliance Matrix: (Units=1/GPa)
#
#
# Indices 1 2 3 4 5 6 
#
# 1 0.011197 -0.005994 -0.004251 0.000000 -0.004788 0.000000
# 2 -0.005994 0.019138 -0.006403 0.000000 -0.000025 0.000000
# 3 -0.004251 -0.006403 0.027641 0.000000 -0.017042 0.000000
# 4 0.000000 0.000000 0.000000 0.073961 0.000000 -0.006943
# 5 -0.004788 -0.000025 -0.017042 0.000000 0.065909 0.000000
# 6 0.000000 0.000000 0.000000 -0.006943 0.000000 0.031781
#
#
# Mechanical properties :
#
#
# Convention : Reuss Voigt Hill
#
# Bulk Modulus (GPa) = 40.51662 71.51944 56.01803
# Shear Modulus (GPa) = 18.44007 23.58685 21.01346
#
# Velocity S-wave (km/s) = 3.28839 3.71909 3.51035
# Velocity P-wave (km/s) = 6.17879 7.77059 7.01996
#
# Compressibility (1/GPa) = 0.02468123
#
# Stress axis : x y z
#
# Youngs Moduli (GPa) = 89.31300 52.25147 36.17777
#
# Poissons Ratio (x) = 0.31317 0.15379
# Poissons Ratio (y) = 0.53530 0.23165
# Poissons Ratio (z) = 0.37966 0.33457
#
# Static dielectric constant tensor:
#      x y z
#    x 3.388870 0.000000 0.364390 
#    y 0.000000 3.345600 0.000000 
#    z 0.364390 0.000000 2.901380 
# 
# 
# High freq. dielectric constant tensor:
#      x y z
#    x 1.663860 0.000000 0.032340 
#    y 0.000000 1.654050 0.000000 
#    z 0.032340 0.000000 1.611980 
# 
# From -- ./inp_files/42422.got.cif
#   From: 2010.06.25/outbox.cif.g09.slc.cpg/sg11_22_cif.got.tgz:42422.got - 2010.06.27 23:14:04.
