data_PCOD8069937
_publ_section_title
;
Structure prediction by ZEFSAII (Michael W. Deem and Ramdas Pophale) SiO2 
 PCOD8069937
Probable space group: P 21/M
;
_chemical_formula_sum "Si O2"
_cell_formula_units_Z 32
_cell_length_a 15.455773
_cell_length_b 9.167911
_cell_length_c 16.387459
_cell_angle_alpha 90.000000
_cell_angle_beta 51.337172
_cell_angle_gamma 90.000000
_cell_volume 1813.144851
_symmetry_space_group_name_H-M "P 21/M"
_symmetry_group_IT_number 11
_symmetry_cell_setting 'monoclinic'
loop_
_space_group_symop_operation_xyz
x,y,z
-x,1/2+y,-z
-x,-y,-z
x,1/2-y,z
loop_
_atom_site_type_symbol
_atom_site_label
_atom_site_fract_x
_atom_site_fract_y
_atom_site_fract_z
Si Si1 0.152944 0.077600 0.565521
Si Si2 0.853813 0.920318 0.918050
Si Si3 0.543481 0.081255 0.358767
Si Si4 0.342140 0.579627 0.538780
Si Si5 0.261056 0.581592 0.866409
Si Si6 0.884044 0.080085 0.566883
Si Si7 0.945258 0.084082 0.103734
Si Si8 0.103604 0.584284 0.260534
O O1 0.173031 0.250000 0.547887
O O2 0.025366 0.038064 0.658032
O O3 0.227705 0.007466 0.592656
O O4 0.190248 0.001335 0.457629
O O5 0.828635 0.750000 0.929181
O O6 0.985815 0.958168 0.855359
O O7 0.828483 0.988156 0.844674
O O8 0.775065 0.985258 0.035229
O O9 0.506479 0.250000 0.381621
O O10 0.618617 0.046700 0.393048
O O11 0.614399 0.044443 0.235572
O O12 0.435163 0.980064 0.421200
O O13 0.321962 0.750000 0.534691
O O14 0.250496 0.750000 0.899122
O O15 0.186254 0.554177 0.827422
O O16 0.899062 0.250000 0.535070
O O17 0.835625 0.064959 0.687406
O O18 0.000000 0.000000 0.500000
O O19 0.972801 0.250000 0.070150
O O20 0.000000 0.000000 0.000000
O O21 0.110790 0.750000 0.226417
#
# Coordination Sequence:
#
# PCOD8069937 Si02
#       8
#     4   4   4   4   4   4   4   4
#     4  10  20  33  50  72  98 128 163 198 239 290
#     4  10  19  28  43  68  95 123 160 199 233 278
#     4   9  19  34  51  69  94 128 164 203 245 286
#     4  10  20  33  51  73  97 124 159 204 247 288
#     4   9  17  31  48  62  88 127 162 197 239 282
#     4   9  17  31  49  70  97 127 160 196 238 286
#     4   8  15  26  39  57  83 115 152 190 225 264
#     4   9  19  32  46  68  99 131 159 191 233 282
#
# _framework density 17.648893000000001
#
# number of rings (size 3 to 8) (size 9 to 14) (size 15 to 20)
#    0.000    2.750    0.000    2.250    1.750    4.500 
#    0.000    0.000    0.000    0.000    0.000    0.875 
#    0.000    0.000    0.000    0.000    0.000    0.000 
#
# Total GULP energy -396422.300288 kJ/mol
# GULP energy per Si atom -12388.196884 kJ/mol
# Density = 1.760872 g / cm^3
# Si number density = 17.648893 Si / 1000 Ang^3
#
#
#
# Elastic Constant Matrix: (Units=GPa)
#
#
# Indices 1 2 3 4 5 6 
#
# 1 27.5047 17.2948 8.8016 0.0000 4.1903 0.0000
# 2 17.2948 79.9709 35.8147 0.0000 6.7214 0.0000
# 3 8.8016 35.8147 78.7843 0.0000 6.1002 0.0000
# 4 0.0000 0.0000 0.0000 26.2377 0.0000 1.5671
# 5 4.1903 6.7214 6.1002 0.0000 20.8287 0.0000
# 6 0.0000 0.0000 0.0000 1.5671 0.0000 27.1589
#
#
#
# Elastic Compliance Matrix: (Units=1/GPa)
#
#
# Indices 1 2 3 4 5 6 
#
# 1 0.042756 -0.008570 -0.000439 0.000000 -0.005707 0.000000
# 2 -0.008570 0.017610 -0.006898 0.000000 -0.001938 0.000000
# 3 -0.000439 -0.006898 0.016063 0.000000 -0.002390 0.000000
# 4 0.000000 0.000000 0.000000 0.038245 0.000000 -0.002207
# 5 -0.005707 -0.001938 -0.002390 0.000000 0.050484 0.000000
# 6 0.000000 0.000000 0.000000 -0.002207 0.000000 0.036948
#
#
# Mechanical properties :
#
#
# Convention : Reuss Voigt Hill
#
# Bulk Modulus (GPa) = 22.41389 34.45356 28.43373
# Shear Modulus (GPa) = 20.09712 23.13498 21.61605
#
# Velocity S-wave (km/s) = 3.37815 3.62449 3.50349
# Velocity P-wave (km/s) = 5.28615 6.08933 5.70190
#
# Compressibility (1/GPa) = 0.04461518
#
# Stress axis : x y z
#
# Youngs Moduli (GPa) = 23.38834 56.78551 62.25620
#
# Poissons Ratio (x) = 0.48668 0.02731
# Poissons Ratio (y) = 0.20045 0.42943
# Poissons Ratio (z) = 0.01026 0.39170
#
# Static dielectric constant tensor:
#      x y z
#    x 3.165250 0.000000 0.477690 
#    y 0.000000 3.331780 0.000000 
#    z 0.477690 0.000000 3.133580 
# 
# 
# High freq. dielectric constant tensor:
#      x y z
#    x 1.648580 0.000000 0.014440 
#    y 0.000000 1.691960 0.000000 
#    z 0.014440 0.000000 1.666240 
# 
# From -- ./inp_files/51712.got.cif
#   From: 2010.06.25/outbox.cif.g09.slc.cpg/sg11_26_cif.got.tgz:51712.got - 2010.06.27 23:14:04.
