data_PCOD8069930
_publ_section_title
;
Structure prediction by ZEFSAII (Michael W. Deem and Ramdas Pophale) SiO2 
 PCOD8069930
Probable space group: P 21/M
;
_chemical_formula_sum "Si O2"
_cell_formula_units_Z 32
_cell_length_a 30.303566
_cell_length_b 9.212268
_cell_length_c 16.063576
_cell_angle_alpha 90.000000
_cell_angle_beta 150.978084
_cell_angle_gamma 90.000000
_cell_volume 2175.571279
_symmetry_space_group_name_H-M "P 21/M"
_symmetry_group_IT_number 11
_symmetry_cell_setting 'monoclinic'
loop_
_space_group_symop_operation_xyz
x,y,z
-x,1/2+y,-z
-x,-y,-z
x,1/2-y,z
loop_
_atom_site_type_symbol
_atom_site_label
_atom_site_fract_x
_atom_site_fract_y
_atom_site_fract_z
Si Si1 0.418551 0.916835 0.822852
Si Si2 0.638618 0.419805 0.745560
Si Si3 0.001742 0.582610 0.416795
Si Si4 0.462230 0.080567 0.557501
Si Si5 0.326661 0.914786 0.835226
Si Si6 0.170919 0.419747 0.667505
Si Si7 0.525205 0.918961 0.231805
Si Si8 0.800380 0.585641 0.092175
O O1 0.445771 0.750000 0.854262
O O2 0.333084 0.929168 0.744990
O O3 0.403010 0.991882 0.707255
O O4 0.500000 0.000000 0.000000
O O5 0.646656 0.250000 0.743617
O O6 0.615710 0.493953 0.619789
O O7 0.561391 0.459451 0.685395
O O8 0.734149 0.476415 0.936562
O O9 0.028915 0.750000 0.475418
O O10 0.899482 0.571400 0.211352
O O11 0.000000 0.500000 0.500000
O O12 0.078483 0.504066 0.487113
O O13 0.442304 0.250000 0.514088
O O14 0.459152 0.031505 0.647965
O O15 0.299801 0.750000 0.815519
O O16 0.251808 0.026858 0.742510
O O17 0.421999 0.955802 0.035880
O O18 0.155104 0.250000 0.627620
O O19 0.194492 0.456145 0.802025
O O20 0.545417 0.750000 0.252414
O O21 0.763895 0.750000 0.022917
#
# Coordination Sequence:
#
# PCOD8069930 Si02
#       8
#     4   4   4   4   4   4   4   4
#     4   9  17  28  41  58  81 108 138 172 207 244
#     4  10  19  29  43  61  80 107 141 174 206 239
#     4   9  17  29  43  59  81 108 137 169 205 244
#     4   9  18  31  43  58  83 110 137 172 210 244
#     4   9  17  28  41  59  84 111 138 169 206 245
#     4  10  19  28  41  62  84 109 141 172 204 243
#     4   9  17  29  44  60  80 110 143 172 208 248
#     4   9  18  30  42  58  81 109 138 168 205 244
#
# _framework density 14.708780000000001
#
# number of rings (size 3 to 8) (size 9 to 14) (size 15 to 20)
#    0.000    2.750    0.000    3.750    0.000    7.500 
#    0.000    0.000    0.000    0.000    0.000    0.000 
#    0.000    1.000    0.000    3.250    0.000    4.000 
#
# Total GULP energy -396661.156923 kJ/mol
# GULP energy per Si atom -12395.661154 kJ/mol
# Density = 1.467530 g / cm^3
# Si number density = 14.708780 Si / 1000 Ang^3
#
#
#
# Elastic Constant Matrix: (Units=GPa)
#
#
# Indices 1 2 3 4 5 6 
#
# 1 91.2689 50.7795 42.5459 0.0000 -7.0064 0.0000
# 2 50.7795 87.2477 43.3022 0.0000 1.1022 0.0000
# 3 42.5459 43.3022 65.8018 0.0000 -0.1354 0.0000
# 4 0.0000 0.0000 0.0000 24.4908 0.0000 1.6818
# 5 -7.0064 1.1022 -0.1354 0.0000 20.9495 0.0000
# 6 0.0000 0.0000 0.0000 1.6818 0.0000 27.9774
#
#
#
# Elastic Compliance Matrix: (Units=1/GPa)
#
#
# Indices 1 2 3 4 5 6 
#
# 1 0.019112 -0.007548 -0.007377 0.000000 0.006741 0.000000
# 2 -0.007548 0.020021 -0.008303 0.000000 -0.003631 0.000000
# 3 -0.007377 -0.008303 0.025427 0.000000 -0.001866 0.000000
# 4 0.000000 0.000000 0.000000 0.041001 0.000000 -0.002465
# 5 0.006741 -0.003631 -0.001866 0.000000 0.050167 0.000000
# 6 0.000000 0.000000 0.000000 -0.002465 0.000000 0.035891
#
#
# Mechanical properties :
#
#
# Convention : Reuss Voigt Hill
#
# Bulk Modulus (GPa) = 55.23055 57.50816 56.36935
# Shear Modulus (GPa) = 20.48268 21.86292 21.17280
#
# Velocity S-wave (km/s) = 3.73573 3.85955 3.79815
# Velocity P-wave (km/s) = 7.49923 7.68402 7.59219
#
# Compressibility (1/GPa) = 0.01810592
#
# Stress axis : x y z
#
# Youngs Moduli (GPa) = 52.32274 49.94769 39.32875
#
# Poissons Ratio (x) = 0.37698 0.29012
# Poissons Ratio (y) = 0.39491 0.32653
# Poissons Ratio (z) = 0.38598 0.41470
#
# Static dielectric constant tensor:
#      x y z
#    x 3.167560 0.000000 0.074160 
#    y 0.000000 3.010690 0.000000 
#    z 0.074160 0.000000 2.787800 
# 
# 
# High freq. dielectric constant tensor:
#      x y z
#    x 1.548990 0.000000 0.006080 
#    y 0.000000 1.577610 0.000000 
#    z 0.006080 0.000000 1.527320 
# 
# From -- ./inp_files/52949.got.cif
#   From: 2010.06.25/outbox.cif.g09.slc.cpg/sg11_27_cif.got.tgz:52949.got - 2010.06.27 23:14:04.
