data_PCOD8069415
_publ_section_title
;
Structure prediction by ZEFSAII (Michael W. Deem and Ramdas Pophale) SiO2 
 PCOD8069415
Probable space group: P 21/M
;
_chemical_formula_sum "Si O2"
_cell_formula_units_Z 24
_cell_length_a 24.706558
_cell_length_b 10.645540
_cell_length_c 17.569385
_cell_angle_alpha 90.000000
_cell_angle_beta 16.416873
_cell_angle_gamma 90.000000
_cell_volume 1306.006887
_symmetry_space_group_name_H-M "P 21/M"
_symmetry_group_IT_number 11
_symmetry_cell_setting 'monoclinic'
loop_
_space_group_symop_operation_xyz
x,y,z
-x,1/2+y,-z
-x,-y,-z
x,1/2-y,z
loop_
_atom_site_type_symbol
_atom_site_label
_atom_site_fract_x
_atom_site_fract_y
_atom_site_fract_z
Si Si1 0.885104 0.891244 0.613288
Si Si2 0.368412 0.494904 0.788972
Si Si3 0.725085 0.613689 0.236103
Si Si4 0.862332 0.101383 0.354668
Si Si5 0.472983 0.391404 0.806700
Si Si6 0.025824 0.390740 0.681020
O O1 0.958776 0.750000 0.536480
O O2 0.899366 0.911173 0.504713
O O3 0.663362 0.904987 0.936240
O O4 0.000000 0.000000 0.500000
O O5 0.583883 0.524216 0.471959
O O6 0.301627 0.387273 0.820027
O O7 0.376122 0.460901 0.866662
O O8 0.206602 0.602884 0.000510
O O9 0.674893 0.750000 0.334719
O O10 0.947204 0.581019 0.953466
O O11 0.845967 0.250000 0.402635
O O12 0.682099 0.057582 0.547263
O O13 0.871354 0.003372 0.412320
O O14 0.496623 0.250000 0.747183
O O15 0.082126 0.250000 0.634305
#
# Coordination Sequence:
#
# PCOD8069415 Si02
#       6
#     4   4   4   4   4   4
#     4  10  20  35  55  81 109 137 175 221 265 312
#     4  10  18  31  55  76 103 139 177 222 266 313
#     4   9  18  32  50  75 103 137 180 220 262 313
#     4   9  20  37  55  77 108 145 181 216 260 319
#     4  10  20  35  55  79 107 140 180 221 263 316
#     4  10  20  35  54  79 110 140 175 222 269 312
#
# _framework density 18.376626999999999
#
# number of rings (size 3 to 8) (size 9 to 14) (size 15 to 20)
#    0.000    2.333    1.667    1.000    0.000    2.667 
#    0.000    3.333    0.000    0.000    0.000    0.000 
#    0.000    0.000    0.000    0.000    0.000    0.000 
#
# Total GULP energy -297328.111248 kJ/mol
# GULP energy per Si atom -12388.671302 kJ/mol
# Density = 1.833480 g / cm^3
# Si number density = 18.376627 Si / 1000 Ang^3
#
#
#
# Elastic Constant Matrix: (Units=GPa)
#
#
# Indices 1 2 3 4 5 6 
#
# 1 56.9046 22.4639 25.5951 0.0000 -2.4910 0.0000
# 2 22.4639 77.2279 11.6909 0.0000 -7.1194 0.0000
# 3 25.5951 11.6909 86.2017 0.0000 -5.7132 0.0000
# 4 0.0000 0.0000 0.0000 22.1447 0.0000 -1.9091
# 5 -2.4910 -7.1194 -5.7132 0.0000 31.8846 0.0000
# 6 0.0000 0.0000 0.0000 -1.9091 0.0000 18.5676
#
#
#
# Elastic Compliance Matrix: (Units=1/GPa)
#
#
# Indices 1 2 3 4 5 6 
#
# 1 0.022464 -0.005689 -0.005937 0.000000 -0.000579 0.000000
# 2 -0.005689 0.014888 -0.000141 0.000000 0.002855 0.000000
# 3 -0.005937 -0.000141 0.013510 0.000000 0.001926 0.000000
# 4 0.000000 0.000000 0.000000 0.045561 0.000000 0.004685
# 5 -0.000579 0.002855 0.001926 0.000000 0.032300 0.000000
# 6 0.000000 0.000000 0.000000 0.004685 0.000000 0.054339
#
#
# Mechanical properties :
#
#
# Convention : Reuss Voigt Hill
#
# Bulk Modulus (GPa) = 36.59118 37.75934 37.17526
# Shear Modulus (GPa) = 23.17974 25.22501 24.20238
#
# Velocity S-wave (km/s) = 3.55543 3.70897 3.63301
# Velocity P-wave (km/s) = 6.06711 6.23972 6.15402
#
# Compressibility (1/GPa) = 0.02732899
#
# Stress axis : x y z
#
# Youngs Moduli (GPa) = 44.51559 67.16846 74.01821
#
# Poissons Ratio (x) = 0.38212 0.43944
# Poissons Ratio (y) = 0.25325 0.01042
# Poissons Ratio (z) = 0.26428 0.00946
#
# Static dielectric constant tensor:
#      x y z
#    x 3.208480 0.000000 -0.013810 
#    y 0.000000 3.461560 0.000000 
#    z -0.013810 0.000000 3.533400 
# 
# 
# High freq. dielectric constant tensor:
#      x y z
#    x 1.689720 0.000000 0.003960 
#    y 0.000000 1.708750 0.000000 
#    z 0.003960 0.000000 1.726730 
# 
# From -- ./inp_files/16923.got.cif
#   From: 2010.06.25/outbox.cif.g09.slc.cpg/sg11_9_cif.got.tgz:16923.got - 2010.06.27 23:14:04.
