data_PCOD8069226
_publ_section_title
;
Structure prediction by ZEFSAII (Michael W. Deem and Ramdas Pophale) SiO2 
 PCOD8069226
Probable space group: P 21/M
;
_chemical_formula_sum "Si O2"
_cell_formula_units_Z 32
_cell_length_a 12.070520
_cell_length_b 9.700834
_cell_length_c 15.684522
_cell_angle_alpha 90.000000
_cell_angle_beta 80.317882
_cell_angle_gamma 90.000000
_cell_volume 1810.405135
_symmetry_space_group_name_H-M "P 21/M"
_symmetry_group_IT_number 11
_symmetry_cell_setting 'monoclinic'
loop_
_space_group_symop_operation_xyz
x,y,z
-x,1/2+y,-z
-x,-y,-z
x,1/2-y,z
loop_
_atom_site_type_symbol
_atom_site_label
_atom_site_fract_x
_atom_site_fract_y
_atom_site_fract_z
Si Si1 0.559309 0.903060 0.262556
Si Si2 0.238980 0.909995 0.780311
Si Si3 0.596755 0.596465 0.455582
Si Si4 0.699330 0.409840 0.714996
Si Si5 0.021998 0.593281 0.916676
Si Si6 0.914018 0.093632 0.349156
Si Si7 0.767874 0.094461 0.516821
Si Si8 0.875205 0.910019 0.772515
O O1 0.569594 0.750000 0.220275
O O2 0.592229 0.894068 0.355919
O O3 0.430851 0.956778 0.271399
O O4 0.648401 0.006260 0.207503
O O5 0.273799 0.750000 0.770786
O O6 0.145570 0.937991 0.864101
O O7 0.188843 0.964955 0.695795
O O8 0.500000 0.500000 0.500000
O O9 0.587086 0.750000 0.496389
O O10 0.709116 0.526025 0.472782
O O11 0.708446 0.250000 0.738555
O O12 0.763655 0.438430 0.617094
O O13 0.761645 0.501049 0.777885
O O14 0.014554 0.750000 0.948399
O O15 0.926392 0.563791 0.858904
O O16 0.000000 0.500000 0.000000
O O17 0.925015 0.250000 0.313798
O O18 0.890599 0.087607 0.454436
O O19 0.035184 0.029934 0.309415
O O20 0.717256 0.250000 0.508878
O O21 0.844643 0.750000 0.761570
#
# Coordination Sequence:
#
# PCOD8069226 Si02
#       8
#     4   4   4   4   4   4   4   4
#     4  10  20  32  46  70 104 136 171 217 260 297
#     4   9  17  31  53  79 103 131 166 203 252 308
#     4  11  20  30  44  66  96 133 178 227 265 296
#     4  10  21  34  46  68 103 142 179 214 254 296
#     4   9  19  36  60  88 110 127 155 199 251 309
#     4   8  15  29  50  70  95 132 169 213 261 294
#     4  10  18  31  48  67  96 137 178 219 263 298
#     4   9  19  36  53  74 102 133 171 207 245 305
#
# _framework density 17.675602000000001
#
# number of rings (size 3 to 8) (size 9 to 14) (size 15 to 20)
#    0.000    2.500    2.500    1.875    0.000    3.000 
#    0.000    2.500    0.000    0.750    0.000    0.000 
#    0.000    0.000    0.000    0.000    0.000    0.000 
#
# Total GULP energy -396468.830920 kJ/mol
# GULP energy per Si atom -12389.650966 kJ/mol
# Density = 1.763537 g / cm^3
# Si number density = 17.675602 Si / 1000 Ang^3
#
#
#
# Elastic Constant Matrix: (Units=GPa)
#
#
# Indices 1 2 3 4 5 6 
#
# 1 94.0982 59.2549 38.9603 0.0000 5.8959 0.0000
# 2 59.2549 92.2059 43.2262 0.0000 1.7720 0.0000
# 3 38.9603 43.2262 71.0061 0.0000 -6.3737 0.0000
# 4 0.0000 0.0000 0.0000 26.5601 0.0000 0.1163
# 5 5.8959 1.7720 -6.3737 0.0000 17.3145 0.0000
# 6 0.0000 0.0000 0.0000 0.1163 0.0000 28.7336
#
#
#
# Elastic Compliance Matrix: (Units=1/GPa)
#
#
# Indices 1 2 3 4 5 6 
#
# 1 0.019578 -0.009903 -0.005399 0.000000 -0.007641 0.000000
# 2 -0.009903 0.020639 -0.007257 0.000000 -0.001411 0.000000
# 3 -0.005399 -0.007257 0.022437 0.000000 0.010840 0.000000
# 4 0.000000 0.000000 0.000000 0.037651 0.000000 -0.000152
# 5 -0.007641 -0.001411 0.010840 0.000000 0.064492 0.000000
# 6 0.000000 0.000000 0.000000 -0.000152 0.000000 0.034803
#
#
# Mechanical properties :
#
#
# Convention : Reuss Voigt Hill
#
# Bulk Modulus (GPa) = 57.03153 60.02142 58.52648
# Shear Modulus (GPa) = 19.95510 22.24622 21.10066
#
# Velocity S-wave (km/s) = 3.36365 3.55150 3.45885
# Velocity P-wave (km/s) = 6.88631 7.13081 7.00963
#
# Compressibility (1/GPa) = 0.01753416
#
# Stress axis : x y z
#
# Youngs Moduli (GPa) = 51.07869 48.45245 44.57010
#
# Poissons Ratio (x) = 0.47984 0.24063
# Poissons Ratio (y) = 0.50585 0.32345
# Poissons Ratio (z) = 0.27577 0.35162
#
# Static dielectric constant tensor:
#      x y z
#    x 3.314010 0.000000 -0.083620 
#    y 0.000000 3.238730 0.000000 
#    z -0.083620 0.000000 2.929880 
# 
# 
# High freq. dielectric constant tensor:
#      x y z
#    x 1.678780 0.000000 -0.010790 
#    y 0.000000 1.678090 0.000000 
#    z -0.010790 0.000000 1.648460 
# 
# From -- ./inp_files/49295.got.cif
#   From: 2010.06.25/outbox.cif.g09.slc.cpg/sg11_25_cif.got.tgz:49295.got - 2010.06.27 23:14:04.
