data_PCOD8069152
_publ_section_title
;
Structure prediction by ZEFSAII (Michael W. Deem and Ramdas Pophale) SiO2 
 PCOD8069152
Probable space group: P 21/M
;
_chemical_formula_sum "Si O2"
_cell_formula_units_Z 28
_cell_length_a 12.934644
_cell_length_b 8.765094
_cell_length_c 12.359937
_cell_angle_alpha 90.000000
_cell_angle_beta 112.282232
_cell_angle_gamma 90.000000
_cell_volume 1296.649846
_symmetry_space_group_name_H-M "P 21/M"
_symmetry_group_IT_number 11
_symmetry_cell_setting 'monoclinic'
loop_
_space_group_symop_operation_xyz
x,y,z
-x,1/2+y,-z
-x,-y,-z
x,1/2-y,z
loop_
_atom_site_type_symbol
_atom_site_label
_atom_site_fract_x
_atom_site_fract_y
_atom_site_fract_z
Si Si1 0.605943 0.570370 0.283980
Si Si2 0.302722 0.571310 0.480058
Si Si3 0.011989 0.585310 0.804689
Si Si4 0.910126 0.583492 0.533066
Si Si5 0.251068 0.928750 0.842769
Si Si6 0.221683 0.431080 0.230310
Si Si7 0.365249 0.926072 0.107453
O O1 0.617387 0.750000 0.300329
O O2 0.601263 0.498327 0.403561
O O3 0.708292 0.509974 0.250615
O O4 0.491077 0.521295 0.180828
O O5 0.321198 0.750000 0.473780
O O6 0.192678 0.531807 0.504216
O O7 0.296167 0.498373 0.358162
O O8 0.037408 0.750000 0.870024
O O9 0.131583 0.499524 0.837805
O O10 0.959803 0.613986 0.668383
O O11 0.907795 0.503134 0.826576
O O12 0.875237 0.750000 0.470531
O O13 0.000000 0.500000 0.500000
O O14 0.234150 0.750000 0.809936
O O15 0.342587 0.955827 0.972158
O O16 0.216419 0.250000 0.244282
O O17 0.278941 0.473232 0.141100
O O18 0.346708 0.750000 0.131510
#
# Coordination Sequence:
#
# PCOD8069152 Si02
#       7
#     4   4   4   4   4   4   4
#     4  11  23  39  58  85 119 152 194 244 293 347
#     4  11  22  37  58  83 113 151 194 242 297 352
#     4   8  17  33  54  81 113 147 183 229 281 335
#     4  10  18  30  50  80 117 154 191 233 286 347
#     4  10  20  38  62  87 117 153 194 237 287 346
#     4  10  21  39  61  86 117 152 192 238 290 352
#     4  10  23  40  59  84 117 156 195 241 290 342
#
# _framework density 21.594110000000001
#
# number of rings (size 3 to 8) (size 9 to 14) (size 15 to 20)
#    0.000    2.000    0.000    4.714    0.000    4.000 
#    0.000    3.571    0.000    0.000    0.000    0.000 
#    0.000    0.000    0.000    0.000    0.000    0.000 
#
# Total GULP energy -346955.851746 kJ/mol
# GULP energy per Si atom -12391.280419 kJ/mol
# Density = 2.154496 g / cm^3
# Si number density = 21.594110 Si / 1000 Ang^3
#
#
#
# Elastic Constant Matrix: (Units=GPa)
#
#
# Indices 1 2 3 4 5 6 
#
# 1 76.3496 13.6828 -0.4517 0.0000 2.5974 0.0000
# 2 13.6828 73.0130 10.7775 0.0000 -3.4979 0.0000
# 3 -0.4517 10.7775 50.9274 0.0000 15.0077 0.0000
# 4 0.0000 0.0000 0.0000 25.8803 0.0000 -5.0688
# 5 2.5974 -3.4979 15.0077 0.0000 36.2222 0.0000
# 6 0.0000 0.0000 0.0000 -5.0688 0.0000 24.6740
#
#
#
# Elastic Compliance Matrix: (Units=1/GPa)
#
#
# Indices 1 2 3 4 5 6 
#
# 1 0.013672 -0.002830 0.001241 0.000000 -0.001768 0.000000
# 2 -0.002830 0.015009 -0.004201 0.000000 0.003393 0.000000
# 3 0.001241 -0.004201 0.023558 0.000000 -0.010255 0.000000
# 4 0.000000 0.000000 0.000000 0.040259 0.000000 0.008270
# 5 -0.001768 0.003393 -0.010255 0.000000 0.032311 0.000000
# 6 0.000000 0.000000 0.000000 0.008270 0.000000 0.042228
#
#
# Mechanical properties :
#
#
# Convention : Reuss Voigt Hill
#
# Bulk Modulus (GPa) = 24.59475 27.58970 26.09222
# Shear Modulus (GPa) = 26.01850 29.10739 27.56294
#
# Velocity S-wave (km/s) = 3.47492 3.67540 3.57656
# Velocity P-wave (km/s) = 5.24541 5.55119 5.40046
#
# Compressibility (1/GPa) = 0.04065909
#
# Stress axis : x y z
#
# Youngs Moduli (GPa) = 73.14038 66.62543 42.44829
#
# Poissons Ratio (x) = 0.18856 -0.05269
# Poissons Ratio (y) = 0.20700 0.17834
# Poissons Ratio (z) = -0.09078 0.27992
#
# Static dielectric constant tensor:
#      x y z
#    x 3.744110 0.000000 0.397940 
#    y 0.000000 3.754800 0.000000 
#    z 0.397940 0.000000 3.796420 
# 
# 
# High freq. dielectric constant tensor:
#      x y z
#    x 1.850700 0.000000 0.007610 
#    y 0.000000 1.827500 0.000000 
#    z 0.007610 0.000000 1.850530 
# 
# From -- ./inp_files/49503.got.cif
#   From: 2010.06.25/outbox.cif.g09.slc.cpg/sg11_25_cif.got.tgz:49503.got - 2010.06.27 23:14:04.
