data_PCOD8069281
_publ_section_title
;
Structure prediction by ZEFSAII (Michael W. Deem and Ramdas Pophale) SiO2 
 PCOD8069281
Probable space group: P 21/M
;
_chemical_formula_sum "Si O2"
_cell_formula_units_Z 32
_cell_length_a 29.036939
_cell_length_b 9.309070
_cell_length_c 20.130598
_cell_angle_alpha 90.000000
_cell_angle_beta 20.042489
_cell_angle_gamma 90.000000
_cell_volume 1864.873274
_symmetry_space_group_name_H-M "P 21/M"
_symmetry_group_IT_number 11
_symmetry_cell_setting 'monoclinic'
loop_
_space_group_symop_operation_xyz
x,y,z
-x,1/2+y,-z
-x,-y,-z
x,1/2-y,z
loop_
_atom_site_type_symbol
_atom_site_label
_atom_site_fract_x
_atom_site_fract_y
_atom_site_fract_z
Si Si1 0.894572 0.918133 0.478768
Si Si2 0.190038 0.079868 0.546677
Si Si3 0.865560 0.581473 0.664083
Si Si4 0.865560 0.418526 0.164082
Si Si5 0.190038 0.579867 0.046678
Si Si6 0.349993 0.418796 0.935574
Si Si7 0.894573 0.418133 0.978767
Si Si8 0.349993 0.581204 0.435574
O O1 0.908837 0.750000 0.449515
O O2 0.805963 0.971836 0.536185
O O3 0.825432 0.959281 0.642390
O O4 0.047893 0.975685 0.269253
O O5 0.211068 0.250000 0.526376
O O6 0.047894 0.024315 0.769252
O O7 0.308696 0.999688 0.424407
O O8 0.894801 0.750000 0.630753
O O9 0.744471 0.532579 0.875323
O O10 0.000000 0.500000 0.500000
O O11 0.894801 0.250000 0.130752
O O12 0.744471 0.467421 0.375323
O O13 0.825433 0.459282 0.142389
O O14 0.000000 0.500000 0.000000
O O15 0.211070 0.750000 0.026373
O O16 0.308696 0.499687 0.924407
O O17 0.194037 0.528164 0.963816
O O18 0.339971 0.250000 0.936056
O O19 0.500000 0.466412 0.749999
O O20 0.908838 0.250000 0.949514
O O21 0.339971 0.750000 0.436055
#
# Coordination Sequence:
#
# PCOD8069281 Si02
#       8
#     4   4   4   4   4   4   4   4
#     4   8  15  28  49  74  95 118 155 204 244 272
#     4   9  16  30  51  72  94 122 161 201 236 278
#     4  10  18  31  51  72  95 124 161 200 235 278
#     4  10  18  31  51  72  95 124 161 200 235 278
#     4   9  16  30  51  72  94 122 161 201 236 278
#     4  10  21  34  47  69 103 135 156 186 241 295
#     4   8  15  28  49  74  95 118 155 204 244 272
#     4  10  21  34  47  69 103 135 156 186 241 295
#
# _framework density 17.159343
#
# number of rings (size 3 to 8) (size 9 to 14) (size 15 to 20)
#    0.000    2.750    2.500    1.500    0.000    0.500 
#    0.000    5.000    0.000    0.000    0.000    0.000 
#    0.000    0.000    0.000    0.000    0.000    0.000 
#
# Total GULP energy -396618.592604 kJ/mol
# GULP energy per Si atom -12394.331019 kJ/mol
# Density = 1.712029 g / cm^3
# Si number density = 17.159343 Si / 1000 Ang^3
#
#
#
# Elastic Constant Matrix: (Units=GPa)
#
#
# Indices 1 2 3 4 5 6 
#
# 1 166.1591 42.8261 74.0897 0.0000 -7.7358 0.0000
# 2 42.8261 28.7924 30.8024 0.0000 -6.2346 0.0000
# 3 74.0897 30.8024 106.2169 0.0000 -6.6599 0.0000
# 4 0.0000 0.0000 0.0000 18.4402 0.0000 -5.3411
# 5 -7.7358 -6.2346 -6.6599 0.0000 29.3377 0.0000
# 6 0.0000 0.0000 0.0000 -5.3411 0.0000 27.8903
#
#
#
# Elastic Compliance Matrix: (Units=1/GPa)
#
#
# Indices 1 2 3 4 5 6 
#
# 1 0.010933 -0.011878 -0.004219 0.000000 -0.000599 0.000000
# 2 -0.011878 0.064935 -0.010019 0.000000 0.008393 0.000000
# 3 -0.004219 -0.010019 0.015278 0.000000 0.000226 0.000000
# 4 0.000000 0.000000 0.000000 0.057414 0.000000 0.010995
# 5 -0.000599 0.008393 0.000226 0.000000 0.035763 0.000000
# 6 0.000000 0.000000 0.000000 0.010995 0.000000 0.037960
#
#
# Mechanical properties :
#
#
# Convention : Reuss Voigt Hill
#
# Bulk Modulus (GPa) = 25.69861 66.28943 45.99402
# Shear Modulus (GPa) = 17.39205 25.36363 21.37784
#
# Velocity S-wave (km/s) = 3.18710 3.84881 3.53348
# Velocity P-wave (km/s) = 5.34345 7.64635 6.59618
#
# Compressibility (1/GPa) = 0.03891261
#
# Stress axis : x y z
#
# Youngs Moduli (GPa) = 91.46367 15.39995 65.45569
#
# Poissons Ratio (x) = 0.18292 0.27618
# Poissons Ratio (y) = 1.08643 0.65582
# Poissons Ratio (z) = 0.38591 0.15430
#
# Static dielectric constant tensor:
#      x y z
#    x 3.755780 0.000000 0.259030 
#    y 0.000000 2.904330 0.000000 
#    z 0.259030 0.000000 3.108460 
# 
# 
# High freq. dielectric constant tensor:
#      x y z
#    x 1.680940 0.000000 0.010380 
#    y 0.000000 1.633290 0.000000 
#    z 0.010380 0.000000 1.636050 
# 
# From -- ./inp_files/27493.got.cif
#   From: 2010.06.25/outbox.cif.g09.slc.cpg/sg11_14_cif.got.tgz:27493.got - 2010.06.27 23:14:04.
