data_PCOD8069049
_publ_section_title
;
Structure prediction by ZEFSAII (Michael W. Deem and Ramdas Pophale) SiO2 
 PCOD8069049
Probable space group: P 21/M
;
_chemical_formula_sum "Si O2"
_cell_formula_units_Z 28
_cell_length_a 15.862251
_cell_length_b 9.358978
_cell_length_c 20.742759
_cell_angle_alpha 90.000000
_cell_angle_beta 27.937078
_cell_angle_gamma 90.000000
_cell_volume 1442.682860
_symmetry_space_group_name_H-M "P 21/M"
_symmetry_group_IT_number 11
_symmetry_cell_setting 'monoclinic'
loop_
_space_group_symop_operation_xyz
x,y,z
-x,1/2+y,-z
-x,-y,-z
x,1/2-y,z
loop_
_atom_site_type_symbol
_atom_site_label
_atom_site_fract_x
_atom_site_fract_y
_atom_site_fract_z
Si Si1 0.898689 0.582575 0.188478
Si Si2 0.509717 0.416173 0.771902
Si Si3 0.027458 0.588870 0.299186
Si Si4 0.626796 0.916928 0.271581
Si Si5 0.326820 0.411594 0.542375
Si Si6 0.929956 0.418179 0.485470
Si Si7 0.758841 0.082086 0.971742
O O1 0.911148 0.750000 0.194686
O O2 0.829264 0.549939 0.162384
O O3 0.750465 0.523427 0.338804
O O4 0.096376 0.522804 0.072571
O O5 0.478310 0.250000 0.805954
O O6 0.400216 0.471723 0.782834
O O7 0.718559 0.451107 0.621151
O O8 0.428687 0.501465 0.887655
O O9 0.069853 0.750000 0.294738
O O10 0.827595 0.582600 0.406821
O O11 0.039697 0.478751 0.350102
O O12 0.171676 0.544174 0.146861
O O13 0.584292 0.750000 0.302778
O O14 0.489614 0.989642 0.412481
O O15 0.397951 0.250000 0.502238
O O16 0.968322 0.250000 0.465576
O O17 0.000000 0.500000 0.500000
O O18 0.725133 0.250000 0.001536
#
# Coordination Sequence:
#
# PCOD8069049 Si02
#       7
#     4   4   4   4   4   4   4
#     4   8  16  30  48  73 107 147 186 227 267 310
#     4  10  22  37  53  80 114 145 179 225 276 325
#     4   9  18  35  58  83 111 143 181 226 272 321
#     4  10  18  30  48  72 109 148 183 226 275 315
#     4   9  16  28  48  75 106 140 183 227 268 316
#     4  11  23  40  62  88 113 138 175 221 275 333
#     4   9  19  36  57  80 110 151 192 223 262 319
#
# _framework density 19.408283999999998
#
# number of rings (size 3 to 8) (size 9 to 14) (size 15 to 20)
#    0.000    2.571    1.429    2.571    0.000    2.857 
#    0.000    3.571    0.000    0.000    0.000    0.000 
#    0.000    0.000    0.000    0.000    0.000    0.000 
#
# Total GULP energy -347034.031361 kJ/mol
# GULP energy per Si atom -12394.072549 kJ/mol
# Density = 1.936411 g / cm^3
# Si number density = 19.408284 Si / 1000 Ang^3
#
#
#
# Elastic Constant Matrix: (Units=GPa)
#
#
# Indices 1 2 3 4 5 6 
#
# 1 90.5784 43.1009 29.2917 0.0000 21.8495 0.0000
# 2 43.1009 61.3885 43.4544 0.0000 8.5409 0.0000
# 3 29.2917 43.4544 89.9441 0.0000 9.5994 0.0000
# 4 0.0000 0.0000 0.0000 34.1343 0.0000 2.9727
# 5 21.8495 8.5409 9.5994 0.0000 12.2610 0.0000
# 6 0.0000 0.0000 0.0000 2.9727 0.0000 24.0272
#
#
#
# Elastic Compliance Matrix: (Units=1/GPa)
#
#
# Indices 1 2 3 4 5 6 
#
# 1 0.027074 -0.015566 0.002941 0.000000 -0.039706 0.000000
# 2 -0.015566 0.034565 -0.013117 0.000000 0.013931 0.000000
# 3 0.002941 -0.013117 0.017548 0.000000 -0.009843 0.000000
# 4 0.000000 0.000000 0.000000 0.029615 0.000000 -0.003664
# 5 -0.039706 0.013931 -0.009843 0.000000 0.150319 0.000000
# 6 0.000000 0.000000 0.000000 -0.003664 0.000000 0.042073
#
#
# Mechanical properties :
#
#
# Convention : Reuss Voigt Hill
#
# Bulk Modulus (GPa) = 36.09708 52.62279 44.35994
# Shear Modulus (GPa) = 13.81547 22.48877 18.15212
#
# Velocity S-wave (km/s) = 2.67092 3.40769 3.06155
# Velocity P-wave (km/s) = 5.30574 6.53112 5.95006
#
# Compressibility (1/GPa) = 0.02770307
#
# Stress axis : x y z
#
# Youngs Moduli (GPa) = 36.93562 28.93059 56.98726
#
# Poissons Ratio (x) = 0.45034 -0.16760
# Poissons Ratio (y) = 0.57495 0.74750
# Poissons Ratio (z) = -0.10863 0.37948
#
# Static dielectric constant tensor:
#      x y z
#    x 3.570180 0.000000 0.048260 
#    y 0.000000 3.349230 0.000000 
#    z 0.048260 0.000000 3.405970 
# 
# 
# High freq. dielectric constant tensor:
#      x y z
#    x 1.748310 0.000000 0.007290 
#    y 0.000000 1.736620 0.000000 
#    z 0.007290 0.000000 1.748010 
# 
# From -- ./inp_files/65978.got.cif
#   From: 2010.06.25/outbox.cif.g09.slc.cpg/sg11_33_cif.got.tgz:65978.got - 2010.06.27 23:14:04.
