data_PCOD8069474
_publ_section_title
;
Structure prediction by ZEFSAII (Michael W. Deem and Ramdas Pophale) SiO2 
 PCOD8069474
Probable space group: P 21/M
;
_chemical_formula_sum "Si O2"
_cell_formula_units_Z 32
_cell_length_a 11.935190
_cell_length_b 8.961004
_cell_length_c 21.471189
_cell_angle_alpha 90.000000
_cell_angle_beta 133.269086
_cell_angle_gamma 90.000000
_cell_volume 1672.085938
_symmetry_space_group_name_H-M "P 21/M"
_symmetry_group_IT_number 11
_symmetry_cell_setting 'monoclinic'
loop_
_space_group_symop_operation_xyz
x,y,z
-x,1/2+y,-z
-x,-y,-z
x,1/2-y,z
loop_
_atom_site_type_symbol
_atom_site_label
_atom_site_fract_x
_atom_site_fract_y
_atom_site_fract_z
Si Si1 0.775336 0.578035 0.935108
Si Si2 0.976956 0.922165 0.892938
Si Si3 0.083440 0.575715 0.259022
Si Si4 0.854866 0.576934 0.276633
Si Si5 0.567887 0.073865 0.223360
Si Si6 0.593316 0.074268 0.372214
Si Si7 0.609486 0.927300 0.592653
Si Si8 0.926067 0.074233 0.530778
O O1 0.797801 0.750000 0.963267
O O2 0.842956 0.551657 0.892082
O O3 0.597715 0.530103 0.867375
O O4 0.859999 0.474957 0.017552
O O5 0.989495 0.750000 0.878126
O O6 0.933304 0.018673 0.816997
O O7 0.123969 0.750000 0.274609
O O8 0.218938 0.490947 0.347427
O O9 0.922747 0.545832 0.233839
O O10 0.819566 0.750000 0.273720
O O11 0.696181 0.489896 0.225831
O O12 0.984381 0.519297 0.374118
O O13 0.587872 0.250000 0.233538
O O14 0.583048 0.003911 0.298854
O O15 0.591716 0.250000 0.362937
O O16 0.451282 0.026287 0.361603
O O17 0.748641 0.022192 0.466525
O O18 0.609297 0.750000 0.583278
O O19 0.500000 0.000000 0.500000
O O20 0.937574 0.250000 0.527306
O O21 0.000000 0.000000 0.500000
#
# Coordination Sequence:
#
# PCOD8069474 Si02
#       8
#     4   4   4   4   4   4   4   4
#     4   9  19  36  59  88 119 145 176 226 287 339
#     4  10  20  37  62  89 114 145 185 227 277 337
#     4  11  23  40  59  80 113 154 191 230 281 333
#     4  10  22  37  53  77 112 150 187 233 282 329
#     4  10  19  34  57  82 108 143 184 226 277 335
#     4   9  18  33  54  78 109 145 179 226 285 332
#     4  11  22  38  58  82 114 150 189 232 280 334
#     4  10  18  32  52  74 104 142 182 223 270 320
#
# _framework density 19.137771999999998
#
# number of rings (size 3 to 8) (size 9 to 14) (size 15 to 20)
#    0.000    2.000    1.250    2.625    0.000    6.000 
#    0.000    5.625    0.000    0.000    0.000    0.000 
#    0.000    0.000    0.000    0.000    0.000    0.000 
#
# Total GULP energy -396827.576067 kJ/mol
# GULP energy per Si atom -12400.861752 kJ/mol
# Density = 1.909421 g / cm^3
# Si number density = 19.137772 Si / 1000 Ang^3
#
#
#
# Elastic Constant Matrix: (Units=GPa)
#
#
# Indices 1 2 3 4 5 6 
#
# 1 101.1567 43.9170 50.6645 0.0000 18.7699 0.0000
# 2 43.9170 65.5648 41.3070 0.0000 5.5314 0.0000
# 3 50.6645 41.3070 93.0011 0.0000 10.7556 0.0000
# 4 0.0000 0.0000 0.0000 31.6470 0.0000 -0.1628
# 5 18.7699 5.5314 10.7556 0.0000 32.2819 0.0000
# 6 0.0000 0.0000 0.0000 -0.1628 0.0000 31.4578
#
#
#
# Elastic Compliance Matrix: (Units=1/GPa)
#
#
# Indices 1 2 3 4 5 6 
#
# 1 0.017020 -0.007609 -0.005095 0.000000 -0.006895 0.000000
# 2 -0.007609 0.024588 -0.007073 0.000000 0.002567 0.000000
# 3 -0.005095 -0.007073 0.016836 0.000000 -0.001435 0.000000
# 4 0.000000 0.000000 0.000000 0.031599 0.000000 0.000164
# 5 -0.006895 0.002567 -0.001435 0.000000 0.035024 0.000000
# 6 0.000000 0.000000 0.000000 0.000164 0.000000 0.031789
#
#
# Mechanical properties :
#
#
# Convention : Reuss Voigt Hill
#
# Bulk Modulus (GPa) = 52.93737 59.05550 55.99643
# Shear Modulus (GPa) = 24.66604 27.33295 25.99949
#
# Velocity S-wave (km/s) = 3.59397 3.78328 3.68984
# Velocity P-wave (km/s) = 6.70399 7.07173 6.89031
#
# Compressibility (1/GPa) = 0.01889025
#
# Stress axis : x y z
#
# Youngs Moduli (GPa) = 58.75298 40.67019 59.39768
#
# Poissons Ratio (x) = 0.30945 0.30265
# Poissons Ratio (y) = 0.44704 0.42010
# Poissons Ratio (z) = 0.29937 0.28765
#
# Static dielectric constant tensor:
#      x y z
#    x 3.549390 0.000000 0.028090 
#    y 0.000000 3.414690 0.000000 
#    z 0.028090 0.000000 3.413790 
# 
# 
# High freq. dielectric constant tensor:
#      x y z
#    x 1.747550 0.000000 0.005200 
#    y 0.000000 1.730690 0.000000 
#    z 0.005200 0.000000 1.743530 
# 
# From -- ./inp_files/64463.got.cif
#   From: 2010.06.25/outbox.cif.g09.slc.cpg/sg11_33_cif.got.tgz:64463.got - 2010.06.27 23:14:04.
