data_PCOD8069230
_publ_section_title
;
Structure prediction by ZEFSAII (Michael W. Deem and Ramdas Pophale) SiO2 
 PCOD8069230
Probable space group: P 21/M
;
_chemical_formula_sum "Si O2"
_cell_formula_units_Z 32
_cell_length_a 21.280526
_cell_length_b 8.803161
_cell_length_c 12.496066
_cell_angle_alpha 90.000000
_cell_angle_beta 127.847762
_cell_angle_gamma 90.000000
_cell_volume 1848.525952
_symmetry_space_group_name_H-M "P 21/M"
_symmetry_group_IT_number 11
_symmetry_cell_setting 'monoclinic'
loop_
_space_group_symop_operation_xyz
x,y,z
-x,1/2+y,-z
-x,-y,-z
x,1/2-y,z
loop_
_atom_site_type_symbol
_atom_site_label
_atom_site_fract_x
_atom_site_fract_y
_atom_site_fract_z
Si Si1 0.832319 0.930129 0.205311
Si Si2 0.575499 0.572004 0.707928
Si Si3 0.162820 0.072395 0.546798
Si Si4 0.010057 0.928506 0.626019
Si Si5 0.671719 0.073929 0.993629
Si Si6 0.582781 0.426507 0.117376
Si Si7 0.681801 0.930502 0.404973
Si Si8 0.606124 0.072220 0.523410
O O1 0.829146 0.750000 0.192548
O O2 0.829817 0.992347 0.324828
O O3 0.914857 0.990761 0.237708
O O4 0.758319 0.001457 0.064698
O O5 0.590408 0.750000 0.714421
O O6 0.608265 0.510225 0.853397
O O7 0.482525 0.531005 0.607788
O O8 0.621037 0.491380 0.657701
O O9 0.176690 0.250000 0.572368
O O10 0.232048 0.005629 0.543595
O O11 0.075076 0.039016 0.404294
O O12 0.026418 0.750000 0.634002
O O13 0.000000 0.000000 0.500000
O O14 0.673719 0.250000 0.964928
O O15 0.646098 0.047690 0.089171
O O16 0.569485 0.250000 0.128418
O O17 0.613705 0.507201 0.256068
O O18 0.500000 0.500000 0.000000
O O19 0.677892 0.750000 0.401535
O O20 0.668524 0.992142 0.510050
O O21 0.622306 0.250000 0.540194
#
# Coordination Sequence:
#
# PCOD8069230 Si02
#       8
#     4   4   4   4   4   4   4   4
#     4  10  18  31  48  70 100 135 170 206 250 298
#     4  10  21  37  56  74  96 130 170 214 260 303
#     4   8  16  29  46  69  99 134 167 202 244 293
#     4   9  16  28  45  68  97 132 170 205 246 293
#     4  11  22  34  50  74 102 133 169 211 254 301
#     4  11  23  35  48  70 100 136 172 205 249 302
#     4  11  20  33  52  74 102 136 170 206 250 299
#     4  10  21  37  55  76 100 128 168 216 259 299
#
# _framework density 17.31109
#
# number of rings (size 3 to 8) (size 9 to 14) (size 15 to 20)
#    0.000    2.000    1.250    4.125    0.000    5.000 
#    0.000    1.875    0.000    0.000    0.000    0.875 
#    0.000    0.000    0.000    0.000    0.000    0.000 
#
# Total GULP energy -396764.945059 kJ/mol
# GULP energy per Si atom -12398.904533 kJ/mol
# Density = 1.727169 g / cm^3
# Si number density = 17.311090 Si / 1000 Ang^3
#
#
#
# Elastic Constant Matrix: (Units=GPa)
#
#
# Indices 1 2 3 4 5 6 
#
# 1 84.2004 34.0316 14.4871 0.0000 8.1898 0.0000
# 2 34.0316 70.3475 19.2709 0.0000 7.6794 0.0000
# 3 14.4871 19.2709 28.2926 0.0000 4.4848 0.0000
# 4 0.0000 0.0000 0.0000 29.9421 0.0000 1.1201
# 5 8.1898 7.6794 4.4848 0.0000 29.6936 0.0000
# 6 0.0000 0.0000 0.0000 1.1201 0.0000 26.8093
#
#
#
# Elastic Compliance Matrix: (Units=1/GPa)
#
#
# Indices 1 2 3 4 5 6 
#
# 1 0.015143 -0.006226 -0.003183 0.000000 -0.002086 0.000000
# 2 -0.006226 0.020264 -0.010303 0.000000 -0.001967 0.000000
# 3 -0.003183 -0.010303 0.044496 0.000000 -0.003178 0.000000
# 4 0.000000 0.000000 0.000000 0.033450 0.000000 -0.001397
# 5 -0.002086 -0.001967 -0.003178 0.000000 0.035241 0.000000
# 6 0.000000 0.000000 0.000000 -0.001397 0.000000 0.037359
#
#
# Mechanical properties :
#
#
# Convention : Reuss Voigt Hill
#
# Bulk Modulus (GPa) = 24.70326 35.37997 30.04161
# Shear Modulus (GPa) = 20.93190 24.95907 22.94549
#
# Velocity S-wave (km/s) = 3.48107 3.80122 3.64466
# Velocity P-wave (km/s) = 5.51891 6.30459 5.92478
#
# Compressibility (1/GPa) = 0.04048049
#
# Stress axis : x y z
#
# Youngs Moduli (GPa) = 66.03540 49.34800 22.47413
#
# Poissons Ratio (x) = 0.30726 0.07152
# Poissons Ratio (y) = 0.41116 0.23154
# Poissons Ratio (z) = 0.21016 0.50841
#
# Static dielectric constant tensor:
#      x y z
#    x 3.527850 0.000000 0.261140 
#    y 0.000000 3.267780 0.000000 
#    z 0.261140 0.000000 3.078440 
# 
# 
# High freq. dielectric constant tensor:
#      x y z
#    x 1.662630 0.000000 0.021350 
#    y 0.000000 1.678030 0.000000 
#    z 0.021350 0.000000 1.639630 
# 
# From -- ./inp_files/42835.got.cif
#   From: 2010.06.25/outbox.cif.g09.slc.cpg/sg11_22_cif.got.tgz:42835.got - 2010.06.27 23:14:04.
