data_PCOD8069645
_publ_section_title
;
Structure prediction by ZEFSAII (Michael W. Deem and Ramdas Pophale) SiO2 
 PCOD8069645
Probable space group: P 21/M
;
_chemical_formula_sum "Si O2"
_cell_formula_units_Z 32
_cell_length_a 19.918901
_cell_length_b 9.025061
_cell_length_c 20.293781
_cell_angle_alpha 90.000000
_cell_angle_beta 29.677608
_cell_angle_gamma 90.000000
_cell_volume 1806.293083
_symmetry_space_group_name_H-M "P 21/M"
_symmetry_group_IT_number 11
_symmetry_cell_setting 'monoclinic'
loop_
_space_group_symop_operation_xyz
x,y,z
-x,1/2+y,-z
-x,-y,-z
x,1/2-y,z
loop_
_atom_site_type_symbol
_atom_site_label
_atom_site_fract_x
_atom_site_fract_y
_atom_site_fract_z
Si Si1 0.138688 0.423282 0.363119
Si Si2 0.383970 0.927178 0.910284
Si Si3 0.096370 0.421553 0.774778
Si Si4 0.824381 0.575108 0.818257
Si Si5 0.794744 0.422878 0.055004
Si Si6 0.098818 0.076901 0.625016
Si Si7 0.312448 0.074820 0.336303
Si Si8 0.139248 0.576669 0.861840
O O1 0.112706 0.250000 0.392341
O O2 0.184501 0.466947 0.251036
O O3 0.255440 0.476303 0.314043
O O4 0.000000 0.500000 0.500000
O O5 0.379567 0.750000 0.920083
O O6 0.319726 0.987346 0.896193
O O7 0.537010 0.989680 0.782522
O O8 0.303312 0.996282 0.039837
O O9 0.099284 0.250000 0.791920
O O10 0.153374 0.448091 0.652853
O O11 0.189895 0.507059 0.749216
O O12 0.942961 0.486500 0.909482
O O13 0.817434 0.750000 0.835898
O O14 0.962496 0.514479 0.731235
O O15 0.801794 0.250000 0.035045
O O16 0.759271 0.454517 0.162597
O O17 0.066347 0.250000 0.640284
O O18 0.213700 0.014821 0.478050
O O19 0.318655 0.250000 0.336638
O O20 0.116246 0.750000 0.871989
O O21 0.000000 0.500000 0.000000
#
# Coordination Sequence:
#
# PCOD8069645 Si02
#       8
#     4   4   4   4   4   4   4   4
#     4  10  20  35  54  77 104 132 169 214 254 304
#     4  10  19  35  55  75 101 137 174 212 252 301
#     4   9  16  27  45  71  98 125 164 211 252 297
#     4  11  22  33  50  79 107 133 167 211 259 308
#     4   8  14  26  45  68  94 127 166 202 243 293
#     4  10  18  33  55  76 100 133 174 216 251 300
#     4   9  19  34  56  79  98 130 179 216 249 301
#     4   9  16  26  41  66  98 130 163 204 252 299
#
# _framework density 17.71584
#
# number of rings (size 3 to 8) (size 9 to 14) (size 15 to 20)
#    0.000    2.500    2.500    1.500    0.000    1.500 
#    0.000    1.875    0.000    0.750    0.000    0.000 
#    0.000    0.000    0.000    0.000    0.000    0.500 
#
# Total GULP energy -396608.163104 kJ/mol
# GULP energy per Si atom -12394.005097 kJ/mol
# Density = 1.767552 g / cm^3
# Si number density = 17.715840 Si / 1000 Ang^3
#
#
#
# Elastic Constant Matrix: (Units=GPa)
#
#
# Indices 1 2 3 4 5 6 
#
# 1 141.1083 35.6020 52.8663 0.0000 18.1314 0.0000
# 2 35.6020 43.0209 23.3319 0.0000 6.8730 0.0000
# 3 52.8663 23.3319 90.7566 0.0000 2.4695 0.0000
# 4 0.0000 0.0000 0.0000 15.1690 0.0000 6.7564
# 5 18.1314 6.8730 2.4695 0.0000 29.5131 0.0000
# 6 0.0000 0.0000 0.0000 6.7564 0.0000 23.4129
#
#
#
# Elastic Compliance Matrix: (Units=1/GPa)
#
#
# Indices 1 2 3 4 5 6 
#
# 1 0.010954 -0.005669 -0.004787 0.000000 -0.005009 0.000000
# 2 -0.005669 0.030944 -0.004562 0.000000 -0.003342 0.000000
# 3 -0.004787 -0.004562 0.014905 0.000000 0.002756 0.000000
# 4 0.000000 0.000000 0.000000 0.075647 0.000000 -0.021830
# 5 -0.005009 -0.003342 0.002756 0.000000 0.037508 0.000000
# 6 0.000000 0.000000 0.000000 -0.021830 0.000000 0.049011
#
#
# Mechanical properties :
#
#
# Convention : Reuss Voigt Hill
#
# Bulk Modulus (GPa) = 37.35977 55.38735 46.37356
# Shear Modulus (GPa) = 19.38531 24.49136 21.93834
#
# Velocity S-wave (km/s) = 3.31151 3.72217 3.52283
# Velocity P-wave (km/s) = 5.97960 7.05726 6.54066
#
# Compressibility (1/GPa) = 0.02676676
#
# Stress axis : x y z
#
# Youngs Moduli (GPa) = 91.28987 32.31682 67.09181
#
# Poissons Ratio (x) = 0.18319 0.32119
# Poissons Ratio (y) = 0.51748 0.30608
# Poissons Ratio (z) = 0.43703 0.14743
#
# Static dielectric constant tensor:
#      x y z
#    x 3.913130 0.000000 0.080950 
#    y 0.000000 3.122710 0.000000 
#    z 0.080950 0.000000 3.827650 
# 
# 
# High freq. dielectric constant tensor:
#      x y z
#    x 1.701720 0.000000 0.022420 
#    y 0.000000 1.660130 0.000000 
#    z 0.022420 0.000000 1.655640 
# 
# From -- ./inp_files/66431.got.cif
#   From: 2010.06.25/outbox.cif.g09.slc.cpg/sg11_34_cif.got.tgz:66431.got - 2010.06.27 23:14:04.
