data_PCOD8069641
_publ_section_title
;
Structure prediction by ZEFSAII (Michael W. Deem and Ramdas Pophale) SiO2 
 PCOD8069641
Probable space group: P 21/M
;
_chemical_formula_sum "Si O2"
_cell_formula_units_Z 28
_cell_length_a 28.556569
_cell_length_b 8.936836
_cell_length_c 9.630280
_cell_angle_alpha 90.000000
_cell_angle_beta 38.539754
_cell_angle_gamma 90.000000
_cell_volume 1531.287900
_symmetry_space_group_name_H-M "P 21/M"
_symmetry_group_IT_number 11
_symmetry_cell_setting 'monoclinic'
loop_
_space_group_symop_operation_xyz
x,y,z
-x,1/2+y,-z
-x,-y,-z
x,1/2-y,z
loop_
_atom_site_type_symbol
_atom_site_label
_atom_site_fract_x
_atom_site_fract_y
_atom_site_fract_z
Si Si1 0.804475 0.574534 0.781453
Si Si2 0.706357 0.071832 0.226864
Si Si3 0.903579 0.574137 0.106881
Si Si4 0.579056 0.078614 0.311428
Si Si5 0.264667 0.071632 0.555182
Si Si6 0.046464 0.422829 0.707251
Si Si7 0.302141 0.925196 0.189649
O O1 0.785298 0.750000 0.835481
O O2 0.893747 0.548488 0.554266
O O3 0.763265 0.506571 0.743616
O O4 0.780574 0.491453 0.977947
O O5 0.713214 0.250000 0.222833
O O6 0.634219 0.020456 0.304848
O O7 0.697156 0.995852 0.396936
O O8 0.906690 0.750000 0.087422
O O9 0.821929 0.517560 0.248143
O O10 0.917588 0.518633 0.231578
O O11 0.968461 0.507881 0.856289
O O12 0.562410 0.250000 0.376675
O O13 0.500000 0.000000 0.500000
O O14 0.618254 0.051532 0.071882
O O15 0.272504 0.250000 0.534319
O O16 0.309525 0.001775 0.322052
O O17 0.026526 0.250000 0.767680
O O18 0.282371 0.750000 0.247700
#
# Coordination Sequence:
#
# PCOD8069641 Si02
#       7
#     4   4   4   4   4   4   4
#     4  10  18  33  54  78 106 140 185 230 267 318
#     4  10  22  38  55  81 112 142 177 220 270 322
#     4   9  18  31  47  73 106 137 177 227 270 314
#     4   9  20  38  60  85 111 137 173 215 259 314
#     4  11  21  36  55  80 110 144 184 224 269 321
#     4   9  17  30  48  74 104 136 179 228 271 313
#     4  10  20  34  55  83 111 142 178 221 265 314
#
# _framework density 18.285261999999999
#
# number of rings (size 3 to 8) (size 9 to 14) (size 15 to 20)
#    0.000    2.286    1.429    2.571    0.000    5.714 
#    0.000    1.429    0.000    0.000    0.000    0.000 
#    0.000    0.000    0.000    0.000    0.000    0.000 
#
# Total GULP energy -347198.770916 kJ/mol
# GULP energy per Si atom -12399.956104 kJ/mol
# Density = 1.824364 g / cm^3
# Si number density = 18.285262 Si / 1000 Ang^3
#
#
#
# Elastic Constant Matrix: (Units=GPa)
#
#
# Indices 1 2 3 4 5 6 
#
# 1 80.8458 37.9310 54.1359 0.0000 10.1414 0.0000
# 2 37.9310 74.2320 48.2289 0.0000 0.3828 0.0000
# 3 54.1359 48.2289 103.5811 0.0000 0.8128 0.0000
# 4 0.0000 0.0000 0.0000 37.7030 0.0000 0.0797
# 5 10.1414 0.3828 0.8128 0.0000 34.1236 0.0000
# 6 0.0000 0.0000 0.0000 0.0797 0.0000 29.5254
#
#
#
# Elastic Compliance Matrix: (Units=1/GPa)
#
#
# Indices 1 2 3 4 5 6 
#
# 1 0.021432 -0.005267 -0.008701 0.000000 -0.006103 0.000000
# 2 -0.005267 0.020608 -0.006855 0.000000 0.001497 0.000000
# 3 -0.008701 -0.006855 0.017376 0.000000 0.002249 0.000000
# 4 0.000000 0.000000 0.000000 0.026523 0.000000 -0.000072
# 5 -0.006103 0.001497 0.002249 0.000000 0.031049 0.000000
# 6 0.000000 0.000000 0.000000 -0.000072 0.000000 0.033869
#
#
# Mechanical properties :
#
#
# Convention : Reuss Voigt Hill
#
# Bulk Modulus (GPa) = 56.27087 59.91672 58.09380
# Shear Modulus (GPa) = 25.19817 28.16127 26.67972
#
# Velocity S-wave (km/s) = 3.71625 3.92868 3.82394
# Velocity P-wave (km/s) = 7.01817 7.30878 7.16495
#
# Compressibility (1/GPa) = 0.01777119
#
# Stress axis : x y z
#
# Youngs Moduli (GPa) = 46.65820 48.52428 57.55085
#
# Poissons Ratio (x) = 0.25557 0.50077
# Poissons Ratio (y) = 0.24574 0.39449
# Poissons Ratio (z) = 0.40599 0.33262
#
# Static dielectric constant tensor:
#      x y z
#    x 3.221490 0.000000 0.004650 
#    y 0.000000 3.380890 0.000000 
#    z 0.004650 0.000000 3.454090 
# 
# 
# High freq. dielectric constant tensor:
#      x y z
#    x 1.681370 0.000000 0.001390 
#    y 0.000000 1.716040 0.000000 
#    z 0.001390 0.000000 1.711510 
# 
# From -- ./inp_files/28224.got.cif
#   From: 2010.06.25/outbox.cif.g09.slc.cpg/sg11_15_cif.got.tgz:28224.got - 2010.06.27 23:14:04.
