data_PCOD8069402
_publ_section_title
;
Structure prediction by ZEFSAII (Michael W. Deem and Ramdas Pophale) SiO2 
 PCOD8069402
Probable space group: P 21/M
;
_chemical_formula_sum "Si O2"
_cell_formula_units_Z 32
_cell_length_a 14.588183
_cell_length_b 9.498143
_cell_length_c 14.256170
_cell_angle_alpha 90.000000
_cell_angle_beta 121.332303
_cell_angle_gamma 90.000000
_cell_volume 1687.271408
_symmetry_space_group_name_H-M "P 21/M"
_symmetry_group_IT_number 11
_symmetry_cell_setting 'monoclinic'
loop_
_space_group_symop_operation_xyz
x,y,z
-x,1/2+y,-z
-x,-y,-z
x,1/2-y,z
loop_
_atom_site_type_symbol
_atom_site_label
_atom_site_fract_x
_atom_site_fract_y
_atom_site_fract_z
Si Si1 0.333624 0.416221 0.659420
Si Si2 0.406792 0.415478 0.900102
Si Si3 0.901863 0.905171 0.475698
Si Si4 0.010015 0.094744 0.280854
Si Si5 0.104479 0.413802 0.026781
Si Si6 0.198921 0.413569 0.264902
Si Si7 0.821866 0.914422 0.139130
Si Si8 0.400379 0.418452 0.488978
O O1 0.319310 0.250000 0.645486
O O2 0.403538 0.458636 0.787898
O O3 0.212867 0.476696 0.609626
O O4 0.386621 0.468070 0.590271
O O5 0.428840 0.250000 0.923023
O O6 0.296550 0.459222 0.892449
O O7 0.500000 0.500000 0.000000
O O8 0.912287 0.750000 0.434190
O O9 0.907466 0.890863 0.590103
O O10 0.000000 0.000000 0.500000
O O11 0.965719 0.250000 0.229427
O O12 0.083910 0.024822 0.238870
O O13 0.908640 0.994791 0.250050
O O14 0.071972 0.250000 0.006987
O O15 0.200207 0.440463 0.153690
O O16 0.155608 0.462552 0.955641
O O17 0.000000 0.500000 0.000000
O O18 0.196695 0.250000 0.289490
O O19 0.301368 0.476475 0.373224
O O20 0.838766 0.750000 0.163612
O O21 0.500000 0.500000 0.500000
O O22 0.416457 0.250000 0.489437
#
# Coordination Sequence:
#
# PCOD8069402 Si02
#       8
#     4   4   4   4   4   4   4   4
#     4   9  18  36  59  78 106 147 181 213 270 338
#     4  10  22  40  59  79 107 145 186 228 273 321
#     4  10  19  32  53  81 109 141 178 214 262 323
#     4  10  18  31  54  80 106 141 180 215 259 326
#     4  10  19  32  52  78 109 146 182 219 269 326
#     4   9  17  32  53  75 104 142 178 215 263 319
#     4  10  21  35  53  81 113 144 180 226 277 319
#     4  10  20  37  59  82 108 143 185 226 270 323
#
# _framework density 18.965533000000001
#
# number of rings (size 3 to 8) (size 9 to 14) (size 15 to 20)
#    0.000    2.250    2.500    0.750    0.000    3.000 
#    0.000    4.375    0.000    0.000    0.000    0.000 
#    0.000    0.000    0.000    0.000    0.000    0.000 
#
# Total GULP energy -396594.692471 kJ/mol
# GULP energy per Si atom -12393.584140 kJ/mol
# Density = 1.892237 g / cm^3
# Si number density = 18.965533 Si / 1000 Ang^3
#
#
#
# Elastic Constant Matrix: (Units=GPa)
#
#
# Indices 1 2 3 4 5 6 
#
# 1 120.9886 38.2682 55.1179 0.0000 10.4043 0.0000
# 2 38.2682 41.8430 29.6109 0.0000 9.7032 0.0000
# 3 55.1179 29.6109 130.5819 0.0000 8.7441 0.0000
# 4 0.0000 0.0000 0.0000 25.0897 0.0000 5.1386
# 5 10.4043 9.7032 8.7441 0.0000 33.7454 0.0000
# 6 0.0000 0.0000 0.0000 5.1386 0.0000 32.1888
#
#
#
# Elastic Compliance Matrix: (Units=1/GPa)
#
#
# Indices 1 2 3 4 5 6 
#
# 1 0.012693 -0.009218 -0.003239 0.000000 -0.000424 0.000000
# 2 -0.009218 0.036697 -0.003983 0.000000 -0.006678 0.000000
# 3 -0.003239 -0.003983 0.009958 0.000000 -0.000436 0.000000
# 4 0.000000 0.000000 0.000000 0.041204 0.000000 -0.006578
# 5 -0.000424 -0.006678 -0.000436 0.000000 0.031797 0.000000
# 6 0.000000 0.000000 0.000000 -0.006578 0.000000 0.032117
#
#
# Mechanical properties :
#
#
# Convention : Reuss Voigt Hill
#
# Bulk Modulus (GPa) = 37.78357 59.93417 48.85887
# Shear Modulus (GPa) = 24.25200 29.56589 26.90894
#
# Velocity S-wave (km/s) = 3.57983 3.95261 3.77083
# Velocity P-wave (km/s) = 6.08707 7.24576 6.69154
#
# Compressibility (1/GPa) = 0.02646653
#
# Stress axis : x y z
#
# Youngs Moduli (GPa) = 78.78447 27.25028 100.42552
#
# Poissons Ratio (x) = 0.25120 0.32527
# Poissons Ratio (y) = 0.72625 0.40003
# Poissons Ratio (z) = 0.25517 0.10855
#
# Static dielectric constant tensor:
#      x y z
#    x 3.468100 0.000000 -0.200970 
#    y 0.000000 3.147090 0.000000 
#    z -0.200970 0.000000 3.842160 
# 
# 
# High freq. dielectric constant tensor:
#      x y z
#    x 1.733550 0.000000 -0.010590 
#    y 0.000000 1.701010 0.000000 
#    z -0.010590 0.000000 1.753510 
# 
# From -- ./inp_files/51747.got.cif
#   From: 2010.06.25/outbox.cif.g09.slc.cpg/sg11_26_cif.got.tgz:51747.got - 2010.06.27 23:14:04.
