data_PCOD8069987
_publ_section_title
;
Structure prediction by ZEFSAII (Michael W. Deem and Ramdas Pophale) SiO2 
 PCOD8069987
Probable space group: P 21/M
;
_chemical_formula_sum "Si O2"
_cell_formula_units_Z 28
_cell_length_a 15.050451
_cell_length_b 9.194705
_cell_length_c 18.690014
_cell_angle_alpha 90.000000
_cell_angle_beta 138.636682
_cell_angle_gamma 90.000000
_cell_volume 1709.179489
_symmetry_space_group_name_H-M "P 21/M"
_symmetry_group_IT_number 11
_symmetry_cell_setting 'monoclinic'
loop_
_space_group_symop_operation_xyz
x,y,z
-x,1/2+y,-z
-x,-y,-z
x,1/2-y,z
loop_
_atom_site_type_symbol
_atom_site_label
_atom_site_fract_x
_atom_site_fract_y
_atom_site_fract_z
Si Si1 0.023073 0.085648 0.622544
Si Si2 0.384372 0.418585 0.642021
Si Si3 0.690757 0.419219 0.808542
Si Si4 0.795820 0.085989 0.365263
Si Si5 0.842549 0.084270 0.755029
Si Si6 0.085659 0.417493 0.993391
Si Si7 0.834424 0.919909 0.607767
O O1 0.061554 0.250000 0.667622
O O2 0.913545 0.085621 0.494206
O O3 0.156303 0.002751 0.675680
O O4 0.964964 0.002661 0.656299
O O5 0.372167 0.250000 0.655356
O O6 0.535596 0.464912 0.715280
O O7 0.335372 0.510062 0.680748
O O8 0.295629 0.454011 0.518832
O O9 0.711121 0.250000 0.837047
O O10 0.751921 0.459994 0.768329
O O11 0.767174 0.507680 0.918166
O O12 0.759345 0.250000 0.320292
O O13 0.810750 0.250000 0.713120
O O14 0.002451 0.067992 0.869029
O O15 0.801931 0.976826 0.667089
O O16 0.100955 0.250000 0.024688
O O17 0.000000 0.500000 0.000000
O O18 0.867474 0.750000 0.629692
#
# Coordination Sequence:
#
# PCOD8069987 Si02
#       7
#     4   4   4   4   4   4   4
#     4   9  16  27  43  61  85 117 148 182 224 263
#     4   9  18  31  44  63  93 124 151 181 221 265
#     4   9  18  32  48  65  89 120 152 187 224 263
#     4   9  16  26  42  64  87 113 148 186 220 259
#     4   9  18  31  45  63  89 119 149 185 227 264
#     4   9  17  30  48  67  86 110 146 191 231 265
#     4  10  19  29  43  65  92 121 153 185 217 263
#
# _framework density 16.38213
#
# number of rings (size 3 to 8) (size 9 to 14) (size 15 to 20)
#    0.000    2.857    0.000    2.571    0.000    8.000 
#    0.000    0.000    0.000    0.000    0.000    1.000 
#    0.000    0.000    0.000    0.000    0.000    0.000 
#
# Total GULP energy -347118.305396 kJ/mol
# GULP energy per Si atom -12397.082336 kJ/mol
# Density = 1.634484 g / cm^3
# Si number density = 16.382130 Si / 1000 Ang^3
#
#
#
# Elastic Constant Matrix: (Units=GPa)
#
#
# Indices 1 2 3 4 5 6 
#
# 1 100.6203 53.9345 43.4340 0.0000 20.6585 0.0000
# 2 53.9345 102.2267 39.4940 0.0000 14.9368 0.0000
# 3 43.4340 39.4940 56.4023 0.0000 17.9098 0.0000
# 4 0.0000 0.0000 0.0000 24.4840 0.0000 -1.2967
# 5 20.6585 14.9368 17.9098 0.0000 8.8438 0.0000
# 6 0.0000 0.0000 0.0000 -1.2967 0.0000 30.5715
#
#
#
# Elastic Compliance Matrix: (Units=1/GPa)
#
#
# Indices 1 2 3 4 5 6 
#
# 1 0.020996 -0.005284 0.000760 0.000000 -0.041659 0.000000
# 2 -0.005284 0.015075 -0.006503 0.000000 0.000052 0.000000
# 3 0.000760 -0.006503 0.052596 0.000000 -0.097306 0.000000
# 4 0.000000 0.000000 0.000000 0.040935 0.000000 0.001736
# 5 -0.041659 0.000052 -0.097306 0.000000 0.407358 0.000000
# 6 0.000000 0.000000 0.000000 0.001736 0.000000 0.032784
#
#
# Mechanical properties :
#
#
# Convention : Reuss Voigt Hill
#
# Bulk Modulus (GPa) = 15.01205 59.21937 37.11571
# Shear Modulus (GPa) = 8.14329 20.93897 14.54113
#
# Velocity S-wave (km/s) = 2.23196 3.57901 2.98253
# Velocity P-wave (km/s) = 3.97816 7.30112 5.87929
#
# Compressibility (1/GPa) = 0.06661314
#
# Stress axis : x y z
#
# Youngs Moduli (GPa) = 47.62881 66.33604 19.01270
#
# Poissons Ratio (x) = 0.35051 -0.01445
# Poissons Ratio (y) = 0.25166 0.12364
# Poissons Ratio (z) = -0.03620 0.43139
#
# Static dielectric constant tensor:
#      x y z
#    x 3.048820 0.000000 0.191860 
#    y 0.000000 3.276780 0.000000 
#    z 0.191860 0.000000 3.148620 
# 
# 
# High freq. dielectric constant tensor:
#      x y z
#    x 1.617210 0.000000 0.008380 
#    y 0.000000 1.644220 0.000000 
#    z 0.008380 0.000000 1.591880 
# 
# From -- ./inp_files/42309.got.cif
#   From: 2010.06.25/outbox.cif.g09.slc.cpg/sg11_22_cif.got.tgz:42309.got - 2010.06.27 23:14:04.
