data_PCOD8069208
_publ_section_title
;
Structure prediction by ZEFSAII (Michael W. Deem and Ramdas Pophale) SiO2 
 PCOD8069208
Probable space group: P 21/M
;
_chemical_formula_sum "Si O2"
_cell_formula_units_Z 24
_cell_length_a 8.916667
_cell_length_b 17.603553
_cell_length_c 15.493400
_cell_angle_alpha 90.000000
_cell_angle_beta 34.705881
_cell_angle_gamma 90.000000
_cell_volume 1384.648523
_symmetry_space_group_name_H-M "P 21/M"
_symmetry_group_IT_number 11
_symmetry_cell_setting 'monoclinic'
loop_
_space_group_symop_operation_xyz
x,y,z
-x,1/2+y,-z
-x,-y,-z
x,1/2-y,z
loop_
_atom_site_type_symbol
_atom_site_label
_atom_site_fract_x
_atom_site_fract_y
_atom_site_fract_z
Si Si1 0.415930 0.074572 0.590095
Si Si2 0.094436 0.161005 0.606363
Si Si3 0.715534 0.969214 0.155364
Si Si4 0.438731 0.667039 0.221092
Si Si5 0.136343 0.834716 0.545108
Si Si6 0.214241 0.066280 0.386669
O O1 0.190833 0.122982 0.649194
O O2 0.300696 0.052728 0.737127
O O3 0.677352 0.126169 0.472614
O O4 0.500000 0.000000 0.500000
O O5 0.168920 0.250000 0.568148
O O6 0.239567 0.118427 0.459297
O O7 0.777485 0.149984 0.750873
O O8 0.666841 0.895846 0.116929
O O9 0.499315 0.031917 0.232943
O O10 0.000000 0.000000 0.000000
O O11 0.568770 0.750000 0.144811
O O12 0.280500 0.666204 0.385234
O O13 0.064908 0.750000 0.610328
O O14 0.869480 0.883384 0.657064
O O15 0.000000 0.000000 0.500000
#
# Coordination Sequence:
#
# PCOD8069208 Si02
#       6
#     4   4   4   4   4   4
#     4  11  19  32  54  82 110 135 177 228 268 311
#     4  10  18  30  55  84 105 136 185 233 267 307
#     4  11  22  35  54  82 110 142 181 220 273 321
#     4   8  16  32  53  74 102 143 184 217 259 322
#     4   9  17  29  51  78 103 136 179 223 261 308
#     4  11  16  33  55  78 103 138 186 221 258 316
#
# _framework density 17.332917999999999
#
# number of rings (size 3 to 8) (size 9 to 14) (size 15 to 20)
#    0.000    2.000    6.667    2.000    0.000    0.667 
#    0.000    2.500    0.000    0.000    0.000    0.000 
#    0.000    0.000    0.000    0.000    0.000    0.000 
#
# Total GULP energy -297517.585531 kJ/mol
# GULP energy per Si atom -12396.566064 kJ/mol
# Density = 1.729347 g / cm^3
# Si number density = 17.332918 Si / 1000 Ang^3
#
#
#
# Elastic Constant Matrix: (Units=GPa)
#
#
# Indices 1 2 3 4 5 6 
#
# 1 119.9997 74.3259 35.4229 0.0000 -26.3704 0.0000
# 2 74.3259 164.4576 58.2450 0.0000 -27.1080 0.0000
# 3 35.4229 58.2450 80.1954 0.0000 -27.7027 0.0000
# 4 0.0000 0.0000 0.0000 20.0958 0.0000 -10.0333
# 5 -26.3704 -27.1080 -27.7027 0.0000 24.2047 0.0000
# 6 0.0000 0.0000 0.0000 -10.0333 0.0000 38.6534
#
#
#
# Elastic Compliance Matrix: (Units=1/GPa)
#
#
# Indices 1 2 3 4 5 6 
#
# 1 0.013164 -0.004637 0.001180 0.000000 0.010500 0.000000
# 2 -0.004637 0.010049 -0.005140 0.000000 0.000320 0.000000
# 3 0.001180 -0.005140 0.023381 0.000000 0.022289 0.000000
# 4 0.000000 0.000000 0.000000 0.057171 0.000000 0.014840
# 5 0.010500 0.000320 0.022289 0.000000 0.078622 0.000000
# 6 0.000000 0.000000 0.000000 0.014840 0.000000 0.029723
#
#
# Mechanical properties :
#
#
# Convention : Reuss Voigt Hill
#
# Bulk Modulus (GPa) = 34.01270 77.84893 55.93081
# Shear Modulus (GPa) = 20.91139 29.70140 25.30639
#
# Velocity S-wave (km/s) = 3.47717 4.14404 3.82517
# Velocity P-wave (km/s) = 5.98220 8.24068 7.20054
#
# Compressibility (1/GPa) = 0.02940079
#
# Stress axis : x y z
#
# Youngs Moduli (GPa) = 75.96285 99.50895 42.76988
#
# Poissons Ratio (x) = 0.46140 -0.05046
# Poissons Ratio (y) = 0.35222 0.21984
# Poissons Ratio (z) = -0.08962 0.51148
#
# Static dielectric constant tensor:
#      x y z
#    x 3.514610 0.000000 -0.329240 
#    y 0.000000 4.049820 0.000000 
#    z -0.329240 0.000000 2.711110 
# 
# 
# High freq. dielectric constant tensor:
#      x y z
#    x 1.678760 0.000000 -0.031910 
#    y 0.000000 1.695910 0.000000 
#    z -0.031910 0.000000 1.600800 
# 
# From -- ./inp_files/18203.got.cif
#   From: 2010.06.25/outbox.cif.g09.slc.cpg/sg11_10_cif.got.tgz:18203.got - 2010.06.27 23:14:04.
