data_PCOD8069602
_publ_section_title
;
Structure prediction by ZEFSAII (Michael W. Deem and Ramdas Pophale) SiO2 
 PCOD8069602
Probable space group: P 21/M
;
_chemical_formula_sum "Si O2"
_cell_formula_units_Z 24
_cell_length_a 9.874811
_cell_length_b 13.764986
_cell_length_c 9.905193
_cell_angle_alpha 90.000000
_cell_angle_beta 108.733214
_cell_angle_gamma 90.000000
_cell_volume 1275.054104
_symmetry_space_group_name_H-M "P 21/M"
_symmetry_group_IT_number 11
_symmetry_cell_setting 'monoclinic'
loop_
_space_group_symop_operation_xyz
x,y,z
-x,1/2+y,-z
-x,-y,-z
x,1/2-y,z
loop_
_atom_site_type_symbol
_atom_site_label
_atom_site_fract_x
_atom_site_fract_y
_atom_site_fract_z
Si Si1 0.789819 0.520458 0.190081
Si Si2 0.896005 0.861433 0.468339
Si Si3 0.891058 0.534797 0.741824
Si Si4 0.605437 0.139607 0.253893
Si Si5 0.717177 0.863134 0.911211
Si Si6 0.800781 0.359474 0.559249
O O1 0.801682 0.574956 0.336792
O O2 0.684722 0.429138 0.172445
O O3 0.941723 0.484252 0.183632
O O4 0.720723 0.595142 0.062935
O O5 0.853495 0.750000 0.434705
O O6 0.861522 0.892156 0.609145
O O7 0.063719 0.880251 0.494901
O O8 0.833998 0.581782 0.859531
O O9 0.807518 0.433234 0.686996
O O10 0.637279 0.250000 0.217889
O O11 0.437630 0.117950 0.202565
O O12 0.660240 0.123203 0.424425
O O13 0.756256 0.750000 0.929205
O O14 0.806082 0.250000 0.619346
#
# Coordination Sequence:
#
# PCOD8069602 Si02
#       6
#     4   4   4   4   4   4
#     4  11  20  39  58  83 105 149 190 226 263 325
#     4  10  18  32  59  85 110 139 186 234 269 316
#     4  11  20  36  58  85 109 142 183 231 280 317
#     4  10  20  37  59  81 109 150 185 221 269 329
#     4  11  25  38  53  81 120 148 175 223 286 329
#     4   9  17  33  57  84 108 141 187 230 269 319
#
# _framework density 18.822731000000001
#
# number of rings (size 3 to 8) (size 9 to 14) (size 15 to 20)
#    0.000    1.667    3.333    3.000    0.000    2.000 
#    0.000    0.833    0.000    1.000    0.000    0.000 
#    0.000    0.000    0.000    0.000    0.000    0.000 
#
# Total GULP energy -297709.484591 kJ/mol
# GULP energy per Si atom -12404.561858 kJ/mol
# Density = 1.877989 g / cm^3
# Si number density = 18.822731 Si / 1000 Ang^3
#
#
#
# Elastic Constant Matrix: (Units=GPa)
#
#
# Indices 1 2 3 4 5 6 
#
# 1 48.8710 33.5066 6.3451 0.0000 8.3195 0.0000
# 2 33.5066 112.3625 21.8048 0.0000 -1.0197 0.0000
# 3 6.3451 21.8048 43.1209 0.0000 -2.3576 0.0000
# 4 0.0000 0.0000 0.0000 35.2752 0.0000 1.4618
# 5 8.3195 -1.0197 -2.3576 0.0000 17.0998 0.0000
# 6 0.0000 0.0000 0.0000 1.4618 0.0000 22.2639
#
#
#
# Elastic Compliance Matrix: (Units=1/GPa)
#
#
# Indices 1 2 3 4 5 6 
#
# 1 0.028981 -0.008640 -0.000700 0.000000 -0.014712 0.000000
# 2 -0.008640 0.012444 -0.004787 0.000000 0.004286 0.000000
# 3 -0.000700 -0.004787 0.025912 0.000000 0.003628 0.000000
# 4 0.000000 0.000000 0.000000 0.028426 0.000000 -0.001866
# 5 -0.014712 0.004286 0.003628 0.000000 0.066394 0.000000
# 6 0.000000 0.000000 0.000000 -0.001866 0.000000 0.045038
#
#
# Mechanical properties :
#
#
# Convention : Reuss Voigt Hill
#
# Bulk Modulus (GPa) = 25.58581 36.40748 30.99665
# Shear Modulus (GPa) = 20.12262 24.44097 22.28179
#
# Velocity S-wave (km/s) = 3.27319 3.60735 3.44433
# Velocity P-wave (km/s) = 5.28277 6.06094 5.68518
#
# Compressibility (1/GPa) = 0.03908416
#
# Stress axis : x y z
#
# Youngs Moduli (GPa) = 34.50544 80.36011 38.59142
#
# Poissons Ratio (x) = 0.69430 0.02701
# Poissons Ratio (y) = 0.29812 0.18473
# Poissons Ratio (z) = 0.02415 0.38467
#
# Static dielectric constant tensor:
#      x y z
#    x 3.226670 0.000000 0.223330 
#    y 0.000000 3.696310 0.000000 
#    z 0.223330 0.000000 3.283900 
# 
# 
# High freq. dielectric constant tensor:
#      x y z
#    x 1.709010 0.000000 0.019290 
#    y 0.000000 1.751040 0.000000 
#    z 0.019290 0.000000 1.720780 
# 
# From -- ./inp_files/12441.got.cif
#   From: 2010.06.25/outbox.cif.g09.slc.cpg/sg11_7_cif.got.tgz:12441.got - 2010.06.27 23:14:04.
