data_PCOD8069990
_publ_section_title
;
Structure prediction by ZEFSAII (Michael W. Deem and Ramdas Pophale) SiO2 
 PCOD8069990
Probable space group: P 21/M
;
_chemical_formula_sum "Si O2"
_cell_formula_units_Z 28
_cell_length_a 12.408778
_cell_length_b 13.309129
_cell_length_c 20.825023
_cell_angle_alpha 90.000000
_cell_angle_beta 30.030511
_cell_angle_gamma 90.000000
_cell_volume 1721.212406
_symmetry_space_group_name_H-M "P 21/M"
_symmetry_group_IT_number 11
_symmetry_cell_setting 'monoclinic'
loop_
_space_group_symop_operation_xyz
x,y,z
-x,1/2+y,-z
-x,-y,-z
x,1/2-y,z
loop_
_atom_site_type_symbol
_atom_site_label
_atom_site_fract_x
_atom_site_fract_y
_atom_site_fract_z
Si Si1 0.143757 0.980524 0.521217
Si Si2 0.632314 0.634878 0.399441
Si Si3 0.026070 0.867001 0.849349
Si Si4 0.361907 0.481121 0.730628
Si Si5 0.169669 0.946379 0.648650
Si Si6 0.646996 0.865553 0.138038
Si Si7 0.155417 0.634823 0.387863
O O1 0.390753 0.017724 0.394884
O O2 0.992489 0.074819 0.585217
O O3 0.077793 0.932901 0.624165
O O4 0.109363 0.895375 0.485335
O O5 0.698801 0.750000 0.376068
O O6 0.662284 0.606592 0.309448
O O7 0.785655 0.565035 0.363807
O O8 0.386663 0.617601 0.547577
O O9 0.080193 0.750000 0.824629
O O10 0.218029 0.923333 0.787270
O O11 0.002917 0.904434 0.787568
O O12 0.799101 0.891900 0.999781
O O13 0.285656 0.436074 0.837561
O O14 0.672198 0.750000 0.146862
O O15 0.402983 0.887097 0.242192
O O16 0.093812 0.750000 0.411717
#
# Coordination Sequence:
#
# PCOD8069990 Si02
#       7
#     4   4   4   4   4   4   4
#     4   9  18  31  46  67  88 109 143 181 222 260
#     4   9  16  27  43  64  91 119 146 176 213 261
#     4  10  19  29  43  66  94 120 145 173 212 264
#     4   9  17  29  46  67  90 115 145 182 219 255
#     4   9  18  28  41  65  92 117 143 175 219 262
#     4   9  17  30  47  65  87 118 151 180 211 251
#     4   9  18  32  49  66  84 110 147 186 217 252
#
# _framework density 16.267603000000001
#
# number of rings (size 3 to 8) (size 9 to 14) (size 15 to 20)
#    0.000    2.857    0.000    2.143    0.000    5.143 
#    0.000    0.714    0.000    0.000    0.000    0.000 
#    0.000    0.000    0.000    0.000    0.000    0.000 
#
# Total GULP energy -347184.883977 kJ/mol
# GULP energy per Si atom -12399.460142 kJ/mol
# Density = 1.623058 g / cm^3
# Si number density = 16.267603 Si / 1000 Ang^3
#
#
#
# Elastic Constant Matrix: (Units=GPa)
#
#
# Indices 1 2 3 4 5 6 
#
# 1 76.1802 23.5899 48.6835 0.0000 14.2193 0.0000
# 2 23.5899 88.4485 44.4878 0.0000 4.3341 0.0000
# 3 48.6835 44.4878 94.5891 0.0000 21.9084 0.0000
# 4 0.0000 0.0000 0.0000 21.8805 0.0000 -0.6110
# 5 14.2193 4.3341 21.9084 0.0000 25.6793 0.0000
# 6 0.0000 0.0000 0.0000 -0.6110 0.0000 18.7239
#
#
#
# Elastic Compliance Matrix: (Units=1/GPa)
#
#
# Indices 1 2 3 4 5 6 
#
# 1 0.019737 -0.000464 -0.009256 0.000000 -0.002954 0.000000
# 2 -0.000464 0.015210 -0.007951 0.000000 0.004473 0.000000
# 3 -0.009256 -0.007951 0.021906 0.000000 -0.012222 0.000000
# 4 0.000000 0.000000 0.000000 0.045745 0.000000 0.001493
# 5 -0.002954 0.004473 -0.012222 0.000000 0.050250 0.000000
# 6 0.000000 0.000000 0.000000 0.001493 0.000000 0.053457
#
#
# Mechanical properties :
#
#
# Convention : Reuss Voigt Hill
#
# Bulk Modulus (GPa) = 46.48638 54.74891 50.61764
# Shear Modulus (GPa) = 20.09523 22.75384 21.42453
#
# Velocity S-wave (km/s) = 3.51848 3.74401 3.63299
# Velocity P-wave (km/s) = 6.71896 7.24005 6.98437
#
# Compressibility (1/GPa) = 0.02151168
#
# Stress axis : x y z
#
# Youngs Moduli (GPa) = 50.66680 65.74785 45.64888
#
# Poissons Ratio (x) = 0.03048 0.42253
# Poissons Ratio (y) = 0.02349 0.36295
# Poissons Ratio (z) = 0.46897 0.52275
#
# Static dielectric constant tensor:
#      x y z
#    x 3.034850 0.000000 0.169550 
#    y 0.000000 2.974660 0.000000 
#    z 0.169550 0.000000 3.095530 
# 
# 
# High freq. dielectric constant tensor:
#      x y z
#    x 1.616070 0.000000 0.018630 
#    y 0.000000 1.622350 0.000000 
#    z 0.018630 0.000000 1.615670 
# 
# From -- ./inp_files/31651.got.cif
#   From: 2010.06.25/outbox.cif.g09.slc.cpg/sg11_16_cif.got.tgz:31651.got - 2010.06.27 23:14:04.
