data_PCOD8069633
_publ_section_title
;
Structure prediction by ZEFSAII (Michael W. Deem and Ramdas Pophale) SiO2 
 PCOD8069633
Probable space group: P 21/M
;
_chemical_formula_sum "Si O2"
_cell_formula_units_Z 24
_cell_length_a 10.199272
_cell_length_b 12.983519
_cell_length_c 11.330744
_cell_angle_alpha 90.000000
_cell_angle_beta 113.966267
_cell_angle_gamma 90.000000
_cell_volume 1371.083590
_symmetry_space_group_name_H-M "P 21/M"
_symmetry_group_IT_number 11
_symmetry_cell_setting 'monoclinic'
loop_
_space_group_symop_operation_xyz
x,y,z
-x,1/2+y,-z
-x,-y,-z
x,1/2-y,z
loop_
_atom_site_type_symbol
_atom_site_label
_atom_site_fract_x
_atom_site_fract_y
_atom_site_fract_z
Si Si1 0.770096 0.492497 0.415775
Si Si2 0.047921 0.865266 0.119139
Si Si3 0.988852 0.629865 0.367813
Si Si4 0.795437 0.563476 0.872732
Si Si5 0.496869 0.632943 0.731322
Si Si6 0.696866 0.635141 0.601669
O O1 0.846335 0.568434 0.351999
O O2 0.645433 0.433276 0.299561
O O3 0.699373 0.557436 0.494747
O O4 0.878327 0.407075 0.504665
O O5 0.110042 0.750000 0.130718
O O6 0.019654 0.894546 0.243672
O O7 0.165402 0.942379 0.106988
O O8 0.898454 0.871899 0.994939
O O9 0.963904 0.750000 0.382264
O O10 0.630238 0.582261 0.853161
O O11 0.814715 0.604221 0.744758
O O12 0.471890 0.750000 0.765577
O O13 0.539836 0.632077 0.607201
O O14 0.731608 0.750000 0.568178
#
# Coordination Sequence:
#
# PCOD8069633 Si02
#       6
#     4   4   4   4   4   4
#     4  11  19  32  49  71 103 129 167 203 239 301
#     4  10  18  33  54  75 101 131 164 201 244 293
#     4  10  21  33  48  71  99 135 165 200 248 291
#     4   9  18  33  53  76  98 127 163 206 244 290
#     4   9  18  32  51  73  97 129 164 203 251 293
#     4   9  17  30  49  75  98 125 159 202 251 291
#
# _framework density 17.504401999999999
#
# number of rings (size 3 to 8) (size 9 to 14) (size 15 to 20)
#    1.000    1.333    1.667    2.500    0.000    0.000 
#    0.000    2.500    0.000    0.000    0.000    0.000 
#    0.000    0.000    0.000    0.000    0.000    0.000 
#
# Total GULP energy -297454.418447 kJ/mol
# GULP energy per Si atom -12393.934102 kJ/mol
# Density = 1.746456 g / cm^3
# Si number density = 17.504402 Si / 1000 Ang^3
#
#
#
# Elastic Constant Matrix: (Units=GPa)
#
#
# Indices 1 2 3 4 5 6 
#
# 1 63.3662 49.5822 15.1408 0.0000 25.7611 0.0000
# 2 49.5822 120.9369 28.8841 0.0000 16.3521 0.0000
# 3 15.1408 28.8841 48.4368 0.0000 17.7438 0.0000
# 4 0.0000 0.0000 0.0000 -111.5674 0.0000 -6.1164
# 5 25.7611 16.3521 17.7438 0.0000 27.0139 0.0000
# 6 0.0000 0.0000 0.0000 -6.1164 0.0000 26.6044
#
#
#
# Elastic Compliance Matrix: (Units=1/GPa)
#
#
# Indices 1 2 3 4 5 6 
#
# 1 0.037305 -0.012741 0.008090 0.000000 -0.033177 0.000000
# 2 -0.012741 0.014147 -0.007595 0.000000 0.008575 0.000000
# 3 0.008090 -0.007595 0.031325 0.000000 -0.023693 0.000000
# 4 0.000000 0.000000 0.000000 -0.008852 0.000000 -0.002035
# 5 -0.033177 0.008575 -0.023693 0.000000 0.079028 0.000000
# 6 0.000000 0.000000 0.000000 -0.002035 0.000000 0.037120
#
#
# Mechanical properties :
#
#
# Convention : Reuss Voigt Hill
#
# Bulk Modulus (GPa) = 17.15677 46.66156 31.90917
# Shear Modulus (GPa) = 21.36813 -2.31430 9.52691
#
# Velocity S-wave (km/s) = 3.49768 -1.15109 2.33546
# Velocity P-wave (km/s) = 5.11218 4.99482 5.05384
#
# Compressibility (1/GPa) = 0.05828602
#
# Stress axis : x y z
#
# Youngs Moduli (GPa) = 26.80571 70.68747 31.92343
#
# Poissons Ratio (x) = 0.90062 -0.25826
# Poissons Ratio (y) = 0.34153 0.24245
# Poissons Ratio (z) = -0.21686 0.53685
#
# Static dielectric constant tensor:
#      x y z
#    x 2.994030 0.000000 0.076150 
#    y 0.000000 3.298080 0.000000 
#    z 0.076150 0.000000 3.034130 
# 
# 
# High freq. dielectric constant tensor:
#      x y z
#    x 1.648590 0.000000 0.012790 
#    y 0.000000 1.693770 0.000000 
#    z 0.012790 0.000000 1.656530 
# 
# From -- ./inp_files/34464.got.cif
#   From: 2010.06.25/outbox.cif.g09.slc.cpg/sg11_18_cif.got.tgz:34464.got - 2010.06.27 23:14:04.
