data_PCOD8069215
_publ_section_title
;
Structure prediction by ZEFSAII (Michael W. Deem and Ramdas Pophale) SiO2 
 PCOD8069215
Probable space group: P 21/M
;
_chemical_formula_sum "Si O2"
_cell_formula_units_Z 32
_cell_length_a 24.872282
_cell_length_b 8.661362
_cell_length_c 12.055017
_cell_angle_alpha 90.000000
_cell_angle_beta 49.386316
_cell_angle_gamma 90.000000
_cell_volume 1971.413453
_symmetry_space_group_name_H-M "P 21/M"
_symmetry_group_IT_number 11
_symmetry_cell_setting 'monoclinic'
loop_
_space_group_symop_operation_xyz
x,y,z
-x,1/2+y,-z
-x,-y,-z
x,1/2-y,z
loop_
_atom_site_type_symbol
_atom_site_label
_atom_site_fract_x
_atom_site_fract_y
_atom_site_fract_z
Si Si1 0.160062 0.421815 0.869422
Si Si2 0.011789 0.434630 0.105057
Si Si3 0.493675 0.570453 0.834241
Si Si4 0.126070 0.077059 0.655962
Si Si5 0.730289 0.068457 0.571259
Si Si6 0.455496 0.931957 0.460191
Si Si7 0.389571 0.429995 0.137378
Si Si8 0.692661 0.934830 0.387589
O O1 0.170923 0.250000 0.899046
O O2 0.138379 0.422040 0.770109
O O3 0.237727 0.501762 0.772905
O O4 0.092736 0.490979 0.029104
O O5 0.007583 0.250000 0.108674
O O6 0.951094 0.501807 0.267798
O O7 0.000000 0.500000 0.000000
O O8 0.485206 0.750000 0.817913
O O9 0.508137 0.478437 0.703108
O O10 0.558180 0.539196 0.830421
O O11 0.421330 0.506100 0.983954
O O12 0.127340 0.250000 0.605781
O O13 0.188265 0.978296 0.515106
O O14 0.724465 0.250000 0.561455
O O15 0.684697 0.013904 0.738129
O O16 0.697283 0.984114 0.509061
O O17 0.452537 0.750000 0.473892
O O18 0.500000 0.000000 0.500000
O O19 0.376243 0.997364 0.577533
O O20 0.376985 0.250000 0.133329
O O21 0.690302 0.750000 0.388802
#
# Coordination Sequence:
#
# PCOD8069215 Si02
#       8
#     4   4   4   4   4   4   4   4
#     4   7  13  23  37  53  74 104 138 177 218 258
#     4   9  14  22  34  51  74 105 142 177 214 259
#     4  10  20  34  51  70  92 117 149 188 231 276
#     4   9  16  25  35  51  78 111 145 182 220 259
#     4  11  19  27  42  64  88 117 151 187 225 269
#     4  12  24  37  52  69  91 120 154 192 235 279
#     4  10  19  31  49  69  94 121 148 187 231 273
#     4  10  18  31  46  63  86 113 147 187 229 273
#
# _framework density 16.232008
#
# number of rings (size 3 to 8) (size 9 to 14) (size 15 to 20)
#    0.000    2.250    1.250    5.625    0.000    1.000 
#    0.000    1.875    0.000    0.000    0.000    0.000 
#    0.000    0.000    0.000    1.125    0.000   14.375 
#
# Total GULP energy -396491.918462 kJ/mol
# GULP energy per Si atom -12390.372452 kJ/mol
# Density = 1.619506 g / cm^3
# Si number density = 16.232008 Si / 1000 Ang^3
#
#
#
# Elastic Constant Matrix: (Units=GPa)
#
#
# Indices 1 2 3 4 5 6 
#
# 1 64.3017 31.3713 56.4839 0.0000 -28.8235 0.0000
# 2 31.3713 101.2018 40.7018 0.0000 -17.9110 0.0000
# 3 56.4839 40.7018 99.5674 0.0000 -46.9471 0.0000
# 4 0.0000 0.0000 0.0000 28.2143 0.0000 -6.1917
# 5 -28.8235 -17.9110 -46.9471 0.0000 30.3397 0.0000
# 6 0.0000 0.0000 0.0000 -6.1917 0.0000 18.3582
#
#
#
# Elastic Compliance Matrix: (Units=1/GPa)
#
#
# Indices 1 2 3 4 5 6 
#
# 1 0.032476 -0.003320 -0.012733 0.000000 0.009191 0.000000
# 2 -0.003320 0.012193 -0.004416 0.000000 -0.002789 0.000000
# 3 -0.012733 -0.004416 0.044894 0.000000 0.054765 0.000000
# 4 0.000000 0.000000 0.000000 0.038276 0.000000 0.012909
# 5 0.009191 -0.002789 0.054765 0.000000 0.124787 0.000000
# 6 0.000000 0.000000 0.000000 0.012909 0.000000 0.058825
#
#
# Mechanical properties :
#
#
# Convention : Reuss Voigt Hill
#
# Bulk Modulus (GPa) = 20.56537 58.02054 39.29296
# Shear Modulus (GPa) = 13.56496 24.48336 19.02416
#
# Velocity S-wave (km/s) = 2.89397 3.88795 3.42718
# Velocity P-wave (km/s) = 4.88507 7.48178 6.31826
#
# Compressibility (1/GPa) = 0.04862542
#
# Stress axis : x y z
#
# Youngs Moduli (GPa) = 30.79226 82.01581 22.27462
#
# Poissons Ratio (x) = 0.27226 0.28362
# Poissons Ratio (y) = 0.10222 0.09837
# Poissons Ratio (z) = 0.39207 0.36221
#
# Static dielectric constant tensor:
#      x y z
#    x 2.911540 0.000000 -0.637440 
#    y 0.000000 3.200470 0.000000 
#    z -0.637440 0.000000 3.370960 
# 
# 
# High freq. dielectric constant tensor:
#      x y z
#    x 1.567820 0.000000 -0.054540 
#    y 0.000000 1.633560 0.000000 
#    z -0.054540 0.000000 1.621980 
# 
# From -- ./inp_files/43773.got.cif
#   From: 2010.06.25/outbox.cif.g09.slc.cpg/sg11_22_cif.got.tgz:43773.got - 2010.06.27 23:14:04.
