data_PCOD8069986
_publ_section_title
;
Structure prediction by ZEFSAII (Michael W. Deem and Ramdas Pophale) SiO2 
 PCOD8069986
Probable space group: P 21/M
;
_chemical_formula_sum "Si O2"
_cell_formula_units_Z 28
_cell_length_a 15.158216
_cell_length_b 8.963123
_cell_length_c 20.432914
_cell_angle_alpha 90.000000
_cell_angle_beta 37.585917
_cell_angle_gamma 90.000000
_cell_volume 1693.293646
_symmetry_space_group_name_H-M "P 21/M"
_symmetry_group_IT_number 11
_symmetry_cell_setting 'monoclinic'
loop_
_space_group_symop_operation_xyz
x,y,z
-x,1/2+y,-z
-x,-y,-z
x,1/2-y,z
loop_
_atom_site_type_symbol
_atom_site_label
_atom_site_fract_x
_atom_site_fract_y
_atom_site_fract_z
Si Si1 0.905943 0.924865 0.350477
Si Si2 0.326076 0.072591 0.761519
Si Si3 0.877395 0.424513 0.029580
Si Si4 0.622282 0.575502 0.598929
Si Si5 0.088786 0.423373 0.798203
Si Si6 0.931292 0.582356 0.636292
Si Si7 0.778987 0.418062 0.618052
O O1 0.940146 0.750000 0.331516
O O2 0.750197 0.959133 0.473046
O O3 0.907207 0.994290 0.276551
O O4 0.033534 0.004362 0.315601
O O5 0.329464 0.250000 0.764658
O O6 0.217464 0.013308 0.768609
O O7 0.483433 0.009587 0.652323
O O8 0.273144 0.005213 0.862963
O O9 0.866172 0.250000 0.052399
O O10 0.929272 0.449909 0.923897
O O11 0.000000 0.500000 0.000000
O O12 0.590334 0.750000 0.623860
O O13 0.660497 0.513091 0.648277
O O14 0.121292 0.250000 0.771368
O O15 0.877306 0.750000 0.681178
O O16 0.072427 0.582517 0.508636
O O17 0.803976 0.492852 0.674203
O O18 0.721234 0.250000 0.661814
#
# Coordination Sequence:
#
# PCOD8069986 Si02
#       7
#     4   4   4   4   4   4   4
#     4   9  17  30  45  63  90 122 152 179 216 267
#     4  10  19  31  46  64  89 120 153 188 224 262
#     4   9  16  29  48  67  86 110 146 190 230 263
#     4  10  19  29  43  65  92 120 150 184 220 263
#     4   8  16  30  47  65  87 117 150 185 222 261
#     4   9  16  26  41  63  88 113 145 184 221 256
#     4   9  16  27  43  61  84 116 149 181 219 261
#
# _framework density 16.535820999999999
#
# number of rings (size 3 to 8) (size 9 to 14) (size 15 to 20)
#    0.000    2.857    0.000    3.000    0.000    4.571 
#    0.000    4.286    0.000    0.000    0.000    1.000 
#    0.000    0.000    0.000    0.000    0.000    0.000 
#
# Total GULP energy -347049.395379 kJ/mol
# GULP energy per Si atom -12394.621264 kJ/mol
# Density = 1.649818 g / cm^3
# Si number density = 16.535821 Si / 1000 Ang^3
#
#
#
# Elastic Constant Matrix: (Units=GPa)
#
#
# Indices 1 2 3 4 5 6 
#
# 1 92.4759 37.2722 44.5268 0.0000 27.4008 0.0000
# 2 37.2722 90.9366 35.2841 0.0000 12.2711 0.0000
# 3 44.5268 35.2841 63.7694 0.0000 19.0835 0.0000
# 4 0.0000 0.0000 0.0000 20.0815 0.0000 -3.9215
# 5 27.4008 12.2711 19.0835 0.0000 13.0381 0.0000
# 6 0.0000 0.0000 0.0000 -3.9215 0.0000 28.0053
#
#
#
# Elastic Compliance Matrix: (Units=1/GPa)
#
#
# Indices 1 2 3 4 5 6 
#
# 1 0.030198 -0.003974 -0.001804 0.000000 -0.057082 0.000000
# 2 -0.003974 0.014605 -0.006569 0.000000 0.004222 0.000000
# 3 -0.001804 -0.006569 0.031302 0.000000 -0.035842 0.000000
# 4 0.000000 0.000000 0.000000 0.051197 0.000000 0.007169
# 5 -0.057082 0.004222 -0.035842 0.000000 0.245148 0.000000
# 6 0.000000 0.000000 0.000000 0.007169 0.000000 0.036711
#
#
# Mechanical properties :
#
#
# Convention : Reuss Voigt Hill
#
# Bulk Modulus (GPa) = 19.45195 53.48313 36.46754
# Shear Modulus (GPa) = 11.08664 20.89825 15.99244
#
# Velocity S-wave (km/s) = 2.59214 3.55888 3.11326
# Velocity P-wave (km/s) = 4.55499 7.02150 5.91817
#
# Compressibility (1/GPa) = 0.05140873
#
# Stress axis : x y z
#
# Youngs Moduli (GPa) = 33.11510 68.47016 31.94681
#
# Poissons Ratio (x) = 0.27213 0.05763
# Poissons Ratio (y) = 0.13161 0.20987
# Poissons Ratio (z) = 0.05974 0.44981
#
# Static dielectric constant tensor:
#      x y z
#    x 3.146530 0.000000 0.188500 
#    y 0.000000 3.202480 0.000000 
#    z 0.188500 0.000000 3.130960 
# 
# 
# High freq. dielectric constant tensor:
#      x y z
#    x 1.623230 0.000000 0.008730 
#    y 0.000000 1.641490 0.000000 
#    z 0.008730 0.000000 1.602960 
# 
# From -- ./inp_files/42392.got.cif
#   From: 2010.06.25/outbox.cif.g09.slc.cpg/sg11_22_cif.got.tgz:42392.got - 2010.06.27 23:14:04.
