data_PCOD8069046
_publ_section_title
;
Structure prediction by ZEFSAII (Michael W. Deem and Ramdas Pophale) SiO2 
 PCOD8069046
Probable space group: P 21/M
;
_chemical_formula_sum "Si O2"
_cell_formula_units_Z 24
_cell_length_a 15.140285
_cell_length_b 9.030077
_cell_length_c 16.536122
_cell_angle_alpha 90.000000
_cell_angle_beta 142.605414
_cell_angle_gamma 90.000000
_cell_volume 1372.976185
_symmetry_space_group_name_H-M "P 21/M"
_symmetry_group_IT_number 11
_symmetry_cell_setting 'monoclinic'
loop_
_space_group_symop_operation_xyz
x,y,z
-x,1/2+y,-z
-x,-y,-z
x,1/2-y,z
loop_
_atom_site_type_symbol
_atom_site_label
_atom_site_fract_x
_atom_site_fract_y
_atom_site_fract_z
Si Si1 0.599121 0.923596 0.137665
Si Si2 0.142247 0.077139 0.406055
Si Si3 0.066532 0.074531 0.627117
Si Si4 0.280199 0.582717 0.364260
Si Si5 0.413868 0.083543 0.322853
Si Si6 0.444524 0.078504 0.712920
O O1 0.579588 0.750000 0.114864
O O2 0.765255 0.969389 0.244445
O O3 0.547781 0.975411 0.189161
O O4 0.500000 0.000000 0.000000
O O5 0.104608 0.250000 0.372407
O O6 0.282079 0.048549 0.563485
O O7 0.167140 0.013028 0.334440
O O8 0.008266 0.989276 0.347140
O O9 0.043484 0.250000 0.604123
O O10 0.000000 0.000000 0.500000
O O11 0.222032 0.750000 0.312524
O O12 0.435161 0.581570 0.520073
O O13 0.294630 0.509522 0.286204
O O14 0.355597 0.250000 0.270012
O O15 0.436376 0.012733 0.250956
O O16 0.483734 0.250000 0.731516
#
# Coordination Sequence:
#
# PCOD8069046 Si02
#       6
#     4   4   4   4   4   4
#     4  10  22  38  53  74 103 136 174 216 258 303
#     4  10  18  30  48  72 101 132 167 210 255 301
#     4  11  21  35  53  76 103 134 173 214 258 308
#     4   9  16  26  40  64  97 132 164 201 251 301
#     4   9  16  25  40  65  94 128 167 204 247 300
#     4   9  17  31  47  67  98 132 166 208 254 300
#
# _framework density 17.480274000000001
#
# number of rings (size 3 to 8) (size 9 to 14) (size 15 to 20)
#    0.000    2.333    1.667    2.000    0.000    6.667 
#    0.000    0.000    0.000    0.000    0.000    1.167 
#    0.000    0.000    0.000    0.000    0.000    0.000 
#
# Total GULP energy -297619.534878 kJ/mol
# GULP energy per Si atom -12400.813953 kJ/mol
# Density = 1.744049 g / cm^3
# Si number density = 17.480274 Si / 1000 Ang^3
#
#
#
# Elastic Constant Matrix: (Units=GPa)
#
#
# Indices 1 2 3 4 5 6 
#
# 1 163.6436 74.1913 58.8240 0.0000 -22.5159 0.0000
# 2 74.1913 109.2719 44.3792 0.0000 -7.0368 0.0000
# 3 58.8240 44.3792 64.9316 0.0000 -7.7269 0.0000
# 4 0.0000 0.0000 0.0000 21.1613 0.0000 -4.8267
# 5 -22.5159 -7.0368 -7.7269 0.0000 18.7533 0.0000
# 6 0.0000 0.0000 0.0000 -4.8267 0.0000 39.2485
#
#
#
# Elastic Compliance Matrix: (Units=1/GPa)
#
#
# Indices 1 2 3 4 5 6 
#
# 1 0.011979 -0.004937 -0.006296 0.000000 0.009936 0.000000
# 2 -0.004937 0.014730 -0.005934 0.000000 -0.002845 0.000000
# 3 -0.006296 -0.005934 0.025233 0.000000 0.000611 0.000000
# 4 0.000000 0.000000 0.000000 0.048620 0.000000 0.005979
# 5 0.009936 -0.002845 0.000611 0.000000 0.064438 0.000000
# 6 0.000000 0.000000 0.000000 0.005979 0.000000 0.026214
#
#
# Mechanical properties :
#
#
# Convention : Reuss Voigt Hill
#
# Bulk Modulus (GPa) = 56.78826 76.95957 66.87392
# Shear Modulus (GPa) = 21.60600 26.52945 24.06773
#
# Velocity S-wave (km/s) = 3.51952 3.89997 3.71462
# Velocity P-wave (km/s) = 7.00526 8.02507 7.53244
#
# Compressibility (1/GPa) = 0.01760927
#
# Stress axis : x y z
#
# Youngs Moduli (GPa) = 83.47753 67.88875 39.63058
#
# Poissons Ratio (x) = 0.33514 0.24952
# Poissons Ratio (y) = 0.41209 0.23517
# Poissons Ratio (z) = 0.52558 0.40285
#
# Static dielectric constant tensor:
#      x y z
#    x 3.987960 0.000000 0.040950 
#    y 0.000000 3.579790 0.000000 
#    z 0.040950 0.000000 2.713450 
# 
# 
# High freq. dielectric constant tensor:
#      x y z
#    x 1.693830 0.000000 -0.018080 
#    y 0.000000 1.688040 0.000000 
#    z -0.018080 0.000000 1.610960 
# 
# From -- ./inp_files/20355.got.cif
#   From: 2010.06.25/outbox.cif.g09.slc.cpg/sg11_11_cif.got.tgz:20355.got - 2010.06.27 23:14:04.
