data_PCOD8069118
_publ_section_title
;
Structure prediction by ZEFSAII (Michael W. Deem and Ramdas Pophale) SiO2 
 PCOD8069118
Probable space group: P 21/M
;
_chemical_formula_sum "Si O2"
_cell_formula_units_Z 32
_cell_length_a 15.715774
_cell_length_b 8.569291
_cell_length_c 15.696003
_cell_angle_alpha 90.000000
_cell_angle_beta 56.168390
_cell_angle_gamma 90.000000
_cell_volume 1755.909596
_symmetry_space_group_name_H-M "P 21/M"
_symmetry_group_IT_number 11
_symmetry_cell_setting 'monoclinic'
loop_
_space_group_symop_operation_xyz
x,y,z
-x,1/2+y,-z
-x,-y,-z
x,1/2-y,z
loop_
_atom_site_type_symbol
_atom_site_label
_atom_site_fract_x
_atom_site_fract_y
_atom_site_fract_z
Si Si1 0.774385 0.933290 0.067809
Si Si2 0.298982 0.066481 0.632121
Si Si3 0.148377 0.933635 0.454833
Si Si4 0.879230 0.067953 0.171717
Si Si5 0.419342 0.065864 0.728477
Si Si6 0.037040 0.934228 0.350643
Si Si7 0.077802 0.933190 0.138972
Si Si8 0.643925 0.434282 0.578897
O O1 0.776873 0.750000 0.047416
O O2 0.658924 0.993653 0.154593
O O3 0.847252 0.968704 0.107347
O O4 0.811870 0.026018 0.963205
O O5 0.277946 0.250000 0.649600
O O6 0.380844 0.009017 0.657197
O O7 0.191952 0.977880 0.708295
O O8 0.342488 0.023057 0.516696
O O9 0.134176 0.750000 0.467247
O O10 0.113919 0.997967 0.381331
O O11 0.266011 0.981957 0.405999
O O12 0.077715 0.005759 0.568212
O O13 0.869989 0.250000 0.155648
O O14 0.995170 0.026914 0.130131
O O15 0.415310 0.250000 0.731795
O O16 0.535766 0.008802 0.679698
O O17 0.034649 0.750000 0.353502
O O18 0.076348 0.993708 0.237270
O O19 0.055185 0.750000 0.146473
O O20 0.643745 0.250000 0.560913
#
# Coordination Sequence:
#
# PCOD8069118 Si02
#       8
#     4   4   4   4   4   4   4   4
#     4  10  20  35  51  69  96 128 163 199 237 279
#     4  10  19  31  46  69 102 133 161 193 235 284
#     4   9  18  32  51  74  97 122 154 193 236 284
#     4  11  21  33  49  71  99 129 162 197 236 281
#     4   8  17  32  48  67  94 128 162 199 237 277
#     4   9  19  34  50  70  98 127 153 188 237 288
#     4  11  21  33  50  71  96 127 162 197 238 286
#     4  10  18  30  50  73  95 123 163 202 239 283
#
# _framework density 18.224173
#
# number of rings (size 3 to 8) (size 9 to 14) (size 15 to 20)
#    0.000    2.250    0.000    4.500    0.000    3.500 
#    0.000    3.125    0.000    0.750    0.000    0.000 
#    0.000    0.000    0.000    0.000    0.000    0.625 
#
# Total GULP energy -396761.851267 kJ/mol
# GULP energy per Si atom -12398.807852 kJ/mol
# Density = 1.818269 g / cm^3
# Si number density = 18.224173 Si / 1000 Ang^3
#
#
#
# Elastic Constant Matrix: (Units=GPa)
#
#
# Indices 1 2 3 4 5 6 
#
# 1 87.6103 11.3125 54.5663 0.0000 -13.4817 0.0000
# 2 11.3125 34.6077 13.5817 0.0000 -1.0363 0.0000
# 3 54.5663 13.5817 134.5504 0.0000 -8.1716 0.0000
# 4 0.0000 0.0000 0.0000 26.6479 0.0000 -2.3098
# 5 -13.4817 -1.0363 -8.1716 0.0000 22.8751 0.0000
# 6 0.0000 0.0000 0.0000 -2.3098 0.0000 16.7180
#
#
#
# Elastic Compliance Matrix: (Units=1/GPa)
#
#
# Indices 1 2 3 4 5 6 
#
# 1 0.016700 -0.002868 -0.006024 0.000000 0.007560 0.000000
# 2 -0.002868 0.030582 -0.001985 0.000000 -0.001014 0.000000
# 3 -0.006024 -0.001985 0.010073 0.000000 -0.000042 0.000000
# 4 0.000000 0.000000 0.000000 0.037981 0.000000 0.005248
# 5 0.007560 -0.001014 -0.000042 0.000000 0.048110 0.000000
# 6 0.000000 0.000000 0.000000 0.005248 0.000000 0.060541
#
#
# Mechanical properties :
#
#
# Convention : Reuss Voigt Hill
#
# Bulk Modulus (GPa) = 28.09036 46.18771 37.13903
# Shear Modulus (GPa) = 21.04302 25.06873 23.05588
#
# Velocity S-wave (km/s) = 3.40174 3.71290 3.56072
# Velocity P-wave (km/s) = 5.55665 6.61665 6.10968
#
# Compressibility (1/GPa) = 0.03559941
#
# Stress axis : x y z
#
# Youngs Moduli (GPa) = 59.88108 32.69934 99.27590
#
# Poissons Ratio (x) = 0.09379 0.59802
# Poissons Ratio (y) = 0.17176 0.19709
# Poissons Ratio (z) = 0.36071 0.06492
#
# Static dielectric constant tensor:
#      x y z
#    x 3.550770 0.000000 -0.163460 
#    y 0.000000 3.212010 0.000000 
#    z -0.163460 0.000000 3.611070 
# 
# 
# High freq. dielectric constant tensor:
#      x y z
#    x 1.687220 0.000000 -0.012480 
#    y 0.000000 1.697100 0.000000 
#    z -0.012480 0.000000 1.704900 
# 
# From -- ./inp_files/51706.got.cif
#   From: 2010.06.25/outbox.cif.g09.slc.cpg/sg11_26_cif.got.tgz:51706.got - 2010.06.27 23:14:04.
