data_PCOD8069700
_publ_section_title
;
Structure prediction by ZEFSAII (Michael W. Deem and Ramdas Pophale) SiO2 
 PCOD8069700
Probable space group: P 21/M
;
_chemical_formula_sum "Si O2"
_cell_formula_units_Z 32
_cell_length_a 11.788343
_cell_length_b 18.729035
_cell_length_c 9.668462
_cell_angle_alpha 90.000000
_cell_angle_beta 51.848292
_cell_angle_gamma 90.000000
_cell_volume 1678.637140
_symmetry_space_group_name_H-M "P 21/M"
_symmetry_group_IT_number 11
_symmetry_cell_setting 'monoclinic'
loop_
_space_group_symop_operation_xyz
x,y,z
-x,1/2+y,-z
-x,-y,-z
x,1/2-y,z
loop_
_atom_site_type_symbol
_atom_site_label
_atom_site_fract_x
_atom_site_fract_y
_atom_site_fract_z
Si Si1 0.265740 0.331342 0.795983
Si Si2 0.280986 0.169310 0.459617
Si Si3 0.037086 0.668012 0.326552
Si Si4 0.475208 0.566838 0.702807
Si Si5 0.988260 0.911867 0.875160
Si Si6 0.843768 0.441528 0.982536
Si Si7 0.173494 0.666958 0.514908
Si Si8 0.548143 0.409301 0.592856
O O1 0.295859 0.250000 0.813568
O O2 0.253902 0.342596 0.641901
O O3 0.394969 0.378963 0.758809
O O4 0.117739 0.355838 0.974634
O O5 0.327706 0.250000 0.390033
O O6 0.410304 0.119036 0.307407
O O7 0.127960 0.149618 0.504216
O O8 0.042617 0.750000 0.270679
O O9 0.089607 0.620226 0.160626
O O10 0.139205 0.655568 0.380091
O O11 0.557683 0.491976 0.626265
O O12 0.434148 0.599943 0.585040
O O13 0.329655 0.560268 0.901643
O O14 0.056064 0.875594 0.690733
O O15 0.904279 0.982305 0.886861
O O16 0.114418 0.931774 0.888090
O O17 0.170143 0.750000 0.559393
O O18 0.330943 0.635467 0.420660
#
# Coordination Sequence:
#
# PCOD8069700 Si02
#       8
#     4   4   4   4   4   4   4   4
#     4  10  18  33  57  85 116 150 192 243 294 343
#     4   9  19  35  57  84 113 154 198 237 294 351
#     4  10  23  42  61  83 121 161 195 242 299 357
#     4  10  20  35  59  88 121 150 188 250 291 343
#     4  11  22  36  60  91 120 150 195 251 291 346
#     4  11  22  38  60  90 120 152 199 243 296 349
#     4  11  24  41  60  88 121 157 198 242 296 354
#     4  10  20  36  57  88 121 153 188 240 298 346
#
# _framework density 19.063084
#
# number of rings (size 3 to 8) (size 9 to 14) (size 15 to 20)
#    0.000    1.750    3.750    0.750    1.750    2.000 
#    0.000    1.875    0.000    3.000    0.000    0.000 
#    0.000    0.000    0.000    0.000    0.000    0.000 
#
# Total GULP energy -396890.571469 kJ/mol
# GULP energy per Si atom -12402.830358 kJ/mol
# Density = 1.901970 g / cm^3
# Si number density = 19.063084 Si / 1000 Ang^3
#
#
#
# Elastic Constant Matrix: (Units=GPa)
#
#
# Indices 1 2 3 4 5 6 
#
# 1 77.1861 30.0531 10.7919 0.0000 -9.3876 0.0000
# 2 30.0531 87.6963 19.1127 0.0000 3.5795 0.0000
# 3 10.7919 19.1127 45.8651 0.0000 -12.2494 0.0000
# 4 0.0000 0.0000 0.0000 29.8065 0.0000 -8.5233
# 5 -9.3876 3.5795 -12.2494 0.0000 22.3210 0.0000
# 6 0.0000 0.0000 0.0000 -8.5233 0.0000 32.1182
#
#
#
# Elastic Compliance Matrix: (Units=1/GPa)
#
#
# Indices 1 2 3 4 5 6 
#
# 1 0.016210 -0.006102 0.000950 0.000000 0.008317 0.000000
# 2 -0.006102 0.015494 -0.007464 0.000000 -0.009147 0.000000
# 3 0.000950 -0.007464 0.029430 0.000000 0.017747 0.000000
# 4 0.000000 0.000000 0.000000 0.036305 0.000000 0.009634
# 5 0.008317 -0.009147 0.017747 0.000000 0.059505 0.000000
# 6 0.000000 0.000000 0.000000 0.009634 0.000000 0.033692
#
#
# Mechanical properties :
#
#
# Convention : Reuss Voigt Hill
#
# Bulk Modulus (GPa) = 27.85323 36.74033 32.29678
# Shear Modulus (GPa) = 21.94583 26.90180 24.42382
#
# Velocity S-wave (km/s) = 3.39665 3.76067 3.58328
# Velocity P-wave (km/s) = 5.47958 6.17833 5.83941
#
# Compressibility (1/GPa) = 0.03590248
#
# Stress axis : x y z
#
# Youngs Moduli (GPa) = 61.68951 64.54105 33.97936
#
# Poissons Ratio (x) = 0.39381 -0.03227
# Poissons Ratio (y) = 0.37641 0.25362
# Poissons Ratio (z) = -0.05859 0.48172
#
# Static dielectric constant tensor:
#      x y z
#    x 3.514760 0.000000 -0.234690 
#    y 0.000000 3.629010 0.000000 
#    z -0.234690 0.000000 3.193340 
# 
# 
# High freq. dielectric constant tensor:
#      x y z
#    x 1.737300 0.000000 -0.026590 
#    y 0.000000 1.755300 0.000000 
#    z -0.026590 0.000000 1.716830 
# 
# From -- ./inp_files/19389.got.cif
#   From: 2010.06.25/outbox.cif.g09.slc.cpg/sg11_10_cif.got.tgz:19389.got - 2010.06.27 23:14:04.
