data_PCOD8069395
_publ_section_title
;
Structure prediction by ZEFSAII (Michael W. Deem and Ramdas Pophale) SiO2 
 PCOD8069395
Probable space group: P 21/M
;
_chemical_formula_sum "Si O2"
_cell_formula_units_Z 32
_cell_length_a 11.537060
_cell_length_b 22.675057
_cell_length_c 11.965967
_cell_angle_alpha 90.000000
_cell_angle_beta 146.135469
_cell_angle_gamma 90.000000
_cell_volume 1744.322372
_symmetry_space_group_name_H-M "P 21/M"
_symmetry_group_IT_number 11
_symmetry_cell_setting 'monoclinic'
loop_
_space_group_symop_operation_xyz
x,y,z
-x,1/2+y,-z
-x,-y,-z
x,1/2-y,z
loop_
_atom_site_type_symbol
_atom_site_label
_atom_site_fract_x
_atom_site_fract_y
_atom_site_fract_z
Si Si1 0.471652 0.583977 0.913672
Si Si2 0.320694 0.042423 0.711561
Si Si3 0.705611 0.463364 0.891129
Si Si4 0.488140 0.683336 0.526303
Si Si5 0.070983 0.914291 0.717790
Si Si6 0.892320 0.816077 0.718172
Si Si7 0.896864 0.133630 0.899302
Si Si8 0.322966 0.101352 0.143098
O O1 0.393337 0.522748 0.800374
O O2 0.262593 0.612218 0.798822
O O3 0.583443 0.619174 0.903090
O O4 0.647305 0.580282 0.150317
O O5 0.477448 0.063242 0.737919
O O6 0.082348 0.045916 0.480920
O O7 0.798842 0.428946 0.859381
O O8 0.684680 0.531490 0.840107
O O9 0.850197 0.455717 0.117503
O O10 0.504509 0.750000 0.588791
O O11 0.652822 0.675201 0.558632
O O12 0.261890 0.673720 0.295114
O O13 0.526014 0.633787 0.649457
O O14 0.941292 0.858324 0.654415
O O15 0.938340 0.750000 0.715011
O O16 0.038529 0.830319 0.939945
O O17 0.088942 0.124555 0.969248
#
# Coordination Sequence:
#
# PCOD8069395 Si02
#       8
#     4   4   4   4   4   4   4   4
#     4   9  19  32  47  74 103 133 169 200 244 302
#     4   9  17  31  51  73 102 133 166 206 246 298
#     4   9  19  32  49  81 108 127 163 207 259 306
#     4  10  21  36  54  73  94 132 177 207 244 297
#     4  10  18  31  54  76 101 135 167 206 254 302
#     4   9  19  35  53  75 100 124 162 215 258 296
#     4  10  19  33  54  76 102 134 165 205 253 304
#     4  10  21  34  49  74 108 136 165 207 248 296
#
# _framework density 18.345233
#
# number of rings (size 3 to 8) (size 9 to 14) (size 15 to 20)
#    0.000    2.500    0.000    2.625    0.000    4.000 
#    0.000    0.625    0.000    0.750    0.000    0.000 
#    0.000    0.000    0.000    0.000    0.000    0.000 
#
# Total GULP energy -396672.429164 kJ/mol
# GULP energy per Si atom -12396.013411 kJ/mol
# Density = 1.830348 g / cm^3
# Si number density = 18.345233 Si / 1000 Ang^3
#
#
#
# Elastic Constant Matrix: (Units=GPa)
#
#
# Indices 1 2 3 4 5 6 
#
# 1 105.7494 27.0539 30.2943 0.0000 2.7964 0.0000
# 2 27.0539 66.5922 24.6143 0.0000 -5.7323 0.0000
# 3 30.2943 24.6143 84.5502 0.0000 5.6188 0.0000
# 4 0.0000 0.0000 0.0000 16.9777 0.0000 3.4096
# 5 2.7964 -5.7323 5.6188 0.0000 15.4099 0.0000
# 6 0.0000 0.0000 0.0000 3.4096 0.0000 18.3230
#
#
#
# Elastic Compliance Matrix: (Units=1/GPa)
#
#
# Indices 1 2 3 4 5 6 
#
# 1 0.011281 -0.003763 -0.002785 0.000000 -0.002431 0.000000
# 2 -0.003763 0.019171 -0.004870 0.000000 0.009590 0.000000
# 3 -0.002785 -0.004870 0.014686 0.000000 -0.006661 0.000000
# 4 0.000000 0.000000 0.000000 0.061187 0.000000 -0.011386
# 5 -0.002431 0.009590 -0.006661 0.000000 0.071331 0.000000
# 6 0.000000 0.000000 0.000000 -0.011386 0.000000 0.056695
#
#
# Mechanical properties :
#
#
# Convention : Reuss Voigt Hill
#
# Bulk Modulus (GPa) = 44.83961 46.75739 45.79850
# Shear Modulus (GPa) = 18.89494 21.80409 20.34951
#
# Velocity S-wave (km/s) = 3.21279 3.45126 3.33416
# Velocity P-wave (km/s) = 6.18529 6.43618 6.31198
#
# Compressibility (1/GPa) = 0.02230171
#
# Stress axis : x y z
#
# Youngs Moduli (GPa) = 88.64372 52.16161 68.09396
#
# Poissons Ratio (x) = 0.19628 0.18964
# Poissons Ratio (y) = 0.33357 0.33163
# Poissons Ratio (z) = 0.24687 0.25403
#
# Static dielectric constant tensor:
#      x y z
#    x 3.728990 0.000000 0.171280 
#    y 0.000000 3.159350 0.000000 
#    z 0.171280 0.000000 3.309100 
# 
# 
# High freq. dielectric constant tensor:
#      x y z
#    x 1.716880 0.000000 0.013120 
#    y 0.000000 1.684480 0.000000 
#    z 0.013120 0.000000 1.710860 
# 
# From -- ./inp_files/5496.got.cif
#   From: 2010.06.25/outbox.cif.g09.slc.cpg/sg11_3_cif.got.tgz:5496.got - 2010.06.27 23:14:04.
