data_PCOD8069853
_publ_section_title
;
Structure prediction by ZEFSAII (Michael W. Deem and Ramdas Pophale) SiO2 
 PCOD8069853
Probable space group: P 21/M
;
_chemical_formula_sum "Si O2"
_cell_formula_units_Z 28
_cell_length_a 14.575592
_cell_length_b 17.005498
_cell_length_c 9.034886
_cell_angle_alpha 90.000000
_cell_angle_beta 40.659931
_cell_angle_gamma 90.000000
_cell_volume 1459.143543
_symmetry_space_group_name_H-M "P 21/M"
_symmetry_group_IT_number 11
_symmetry_cell_setting 'monoclinic'
loop_
_space_group_symop_operation_xyz
x,y,z
-x,1/2+y,-z
-x,-y,-z
x,1/2-y,z
loop_
_atom_site_type_symbol
_atom_site_label
_atom_site_fract_x
_atom_site_fract_y
_atom_site_fract_z
Si Si1 0.487348 0.577203 0.914206
Si Si2 0.167175 0.430805 0.866451
Si Si3 0.138185 0.566211 0.673108
Si Si4 0.218278 0.158035 0.519656
Si Si5 0.131774 0.459599 0.415741
Si Si6 0.607131 0.340268 0.700911
Si Si7 0.635745 0.951908 0.108570
O O1 0.634573 0.616131 0.694437
O O2 0.412852 0.543754 0.855310
O O3 0.500000 0.500000 0.000000
O O4 0.396781 0.641062 0.117365
O O5 0.158768 0.513893 0.793779
O O6 0.180279 0.358318 0.736707
O O7 0.303189 0.437557 0.803743
O O8 0.027484 0.413236 0.135180
O O9 0.192612 0.521719 0.459657
O O10 0.238098 0.642604 0.557648
O O11 0.225906 0.250000 0.480212
O O12 0.100534 0.119187 0.552997
O O13 0.000000 0.500000 0.500000
O O14 0.245439 0.433381 0.157479
O O15 0.571212 0.250000 0.717505
O O16 0.492336 0.391792 0.754438
#
# Coordination Sequence:
#
# PCOD8069853 Si02
#       7
#     4   4   4   4   4   4   4
#     4  10  18  35  61  87 111 152 208 252 294 351
#     4  10  22  38  61  89 117 160 204 243 295 364
#     4  10  21  39  60  87 118 157 202 249 297 359
#     4  11  23  39  59  88 129 163 194 247 316 369
#     4  11  19  36  65  89 112 153 211 253 287 349
#     4  11  22  36  58  89 123 155 196 255 316 355
#     4  11  20  36  64  91 114 152 208 257 287 356
#
# _framework density 19.189339
#
# number of rings (size 3 to 8) (size 9 to 14) (size 15 to 20)
#    0.000    1.429    5.714    3.000    0.000    3.429 
#    0.000    0.714    0.000    0.857    0.000    0.000 
#    0.000    0.000    0.000    0.000    0.000    0.000 
#
# Total GULP energy -346970.959687 kJ/mol
# GULP energy per Si atom -12391.819989 kJ/mol
# Density = 1.914566 g / cm^3
# Si number density = 19.189339 Si / 1000 Ang^3
#
#
#
# Elastic Constant Matrix: (Units=GPa)
#
#
# Indices 1 2 3 4 5 6 
#
# 1 121.8144 54.9123 26.3762 0.0000 -1.7677 0.0000
# 2 54.9123 107.2203 31.7146 0.0000 -7.1238 0.0000
# 3 26.3762 31.7146 80.1000 0.0000 -7.1118 0.0000
# 4 0.0000 0.0000 0.0000 22.7955 0.0000 -0.5316
# 5 -1.7677 -7.1238 -7.1118 0.0000 27.6920 0.0000
# 6 0.0000 0.0000 0.0000 -0.5316 0.0000 16.1767
#
#
#
# Elastic Compliance Matrix: (Units=1/GPa)
#
#
# Indices 1 2 3 4 5 6 
#
# 1 0.010871 -0.005155 -0.001632 0.000000 -0.001051 0.000000
# 2 -0.005155 0.013085 -0.003289 0.000000 0.002192 0.000000
# 3 -0.001632 -0.003289 0.014572 0.000000 0.002792 0.000000
# 4 0.000000 0.000000 0.000000 0.043902 0.000000 0.001443
# 5 -0.001051 0.002192 0.002792 0.000000 0.037325 0.000000
# 6 0.000000 0.000000 0.000000 0.001443 0.000000 0.061865
#
#
# Mechanical properties :
#
#
# Convention : Reuss Voigt Hill
#
# Bulk Modulus (GPa) = 54.41660 59.46009 56.93834
# Shear Modulus (GPa) = 24.05042 26.40829 25.22936
#
# Velocity S-wave (km/s) = 3.54407 3.71374 3.62989
# Velocity P-wave (km/s) = 6.72060 7.03153 6.87782
#
# Compressibility (1/GPa) = 0.01837675
#
# Stress axis : x y z
#
# Youngs Moduli (GPa) = 91.98805 76.42372 68.62517
#
# Poissons Ratio (x) = 0.39393 0.11201
# Poissons Ratio (y) = 0.47416 0.22570
# Poissons Ratio (z) = 0.15014 0.25134
#
# Static dielectric constant tensor:
#      x y z
#    x 3.865900 0.000000 -0.046930 
#    y 0.000000 3.428900 0.000000 
#    z -0.046930 0.000000 3.694640 
# 
# 
# High freq. dielectric constant tensor:
#      x y z
#    x 1.736960 0.000000 -0.000430 
#    y 0.000000 1.719250 0.000000 
#    z -0.000430 0.000000 1.758110 
# 
# From -- ./inp_files/22702.got.cif
#   From: 2010.06.25/outbox.cif.g09.slc.cpg/sg11_12_cif.got.tgz:22702.got - 2010.06.27 23:14:04.
