data_PCOD8069222
_publ_section_title
;
Structure prediction by ZEFSAII (Michael W. Deem and Ramdas Pophale) SiO2 
 PCOD8069222
Probable space group: P 21/M
;
_chemical_formula_sum "Si O2"
_cell_formula_units_Z 32
_cell_length_a 15.704964
_cell_length_b 9.316414
_cell_length_c 21.538303
_cell_angle_alpha 90.000000
_cell_angle_beta 34.323034
_cell_angle_gamma 90.000000
_cell_volume 1776.916576
_symmetry_space_group_name_H-M "P 21/M"
_symmetry_group_IT_number 11
_symmetry_cell_setting 'monoclinic'
loop_
_space_group_symop_operation_xyz
x,y,z
-x,1/2+y,-z
-x,-y,-z
x,1/2-y,z
loop_
_atom_site_type_symbol
_atom_site_label
_atom_site_fract_x
_atom_site_fract_y
_atom_site_fract_z
Si Si1 0.014105 0.919378 0.190916
Si Si2 0.251972 0.412929 0.738010
Si Si3 0.859235 0.583359 0.404626
Si Si4 0.699939 0.410383 0.054366
Si Si5 0.436420 0.581318 0.270432
Si Si6 0.569064 0.409933 0.583476
Si Si7 0.854307 0.406794 0.092189
Si Si8 0.127657 0.420875 0.461502
O O1 0.024162 0.750000 0.177402
O O2 0.863963 0.972778 0.243921
O O3 0.989173 0.966829 0.277658
O O4 0.174541 0.979413 0.068647
O O5 0.205499 0.250000 0.783842
O O6 0.432046 0.418918 0.615430
O O7 0.255803 0.515188 0.794722
O O8 0.829142 0.750000 0.413782
O O9 0.700537 0.513592 0.481683
O O10 0.909663 0.546207 0.443855
O O11 0.645867 0.250000 0.065105
O O12 0.560515 0.519030 0.147346
O O13 0.780918 0.391507 0.070270
O O14 0.413667 0.750000 0.269565
O O15 0.483322 0.554633 0.313861
O O16 0.284819 0.492547 0.347493
O O17 0.637077 0.250000 0.542953
O O18 0.895720 0.250000 0.093371
O O19 0.000000 0.500000 0.000000
O O20 0.131505 0.250000 0.446045
O O21 0.000000 0.500000 0.500000
#
# Coordination Sequence:
#
# PCOD8069222 Si02
#       8
#     4   4   4   4   4   4   4   4
#     4   9  18  33  50  69  99 142 181 212 253 301
#     4  10  18  31  47  67  97 138 180 220 262 299
#     4   9  19  35  54  74 100 134 171 207 249 311
#     4  10  19  31  49  71 100 138 176 213 255 300
#     4  10  19  32  52  79 109 135 164 208 258 301
#     4   9  18  30  47  70 100 135 171 217 263 295
#     4  11  20  29  44  67  96 134 180 228 265 294
#     4  10  20  36  60  87 108 128 159 201 253 309
#
# _framework density 18.008724000000001
#
# number of rings (size 3 to 8) (size 9 to 14) (size 15 to 20)
#    0.000    2.250    2.500    1.125    0.000    2.500 
#    0.000    1.250    0.000    0.750    0.000    0.000 
#    0.000    0.000    0.000    0.000    0.000    0.000 
#
# Total GULP energy -396452.275688 kJ/mol
# GULP energy per Si atom -12389.133615 kJ/mol
# Density = 1.796774 g / cm^3
# Si number density = 18.008724 Si / 1000 Ang^3
#
#
#
# Elastic Constant Matrix: (Units=GPa)
#
#
# Indices 1 2 3 4 5 6 
#
# 1 68.4891 35.0100 56.1583 0.0000 -11.1740 0.0000
# 2 35.0100 84.0650 51.9247 0.0000 -5.4859 0.0000
# 3 56.1583 51.9247 137.5827 0.0000 4.2992 0.0000
# 4 0.0000 0.0000 0.0000 26.1351 0.0000 -6.0245
# 5 -11.1740 -5.4859 4.2992 0.0000 24.5080 0.0000
# 6 0.0000 0.0000 0.0000 -6.0245 0.0000 19.2671
#
#
#
# Elastic Compliance Matrix: (Units=1/GPa)
#
#
# Indices 1 2 3 4 5 6 
#
# 1 0.026960 -0.004340 -0.009774 0.000000 0.013035 0.000000
# 2 -0.004340 0.016726 -0.004621 0.000000 0.002576 0.000000
# 3 -0.009774 -0.004621 0.013246 0.000000 -0.007814 0.000000
# 4 0.000000 0.000000 0.000000 0.041235 0.000000 0.012893
# 5 0.013035 0.002576 -0.007814 0.000000 0.048693 0.000000
# 6 0.000000 0.000000 0.000000 0.012893 0.000000 0.055933
#
#
# Mechanical properties :
#
#
# Convention : Reuss Voigt Hill
#
# Bulk Modulus (GPa) = 51.38412 64.03585 57.70998
# Shear Modulus (GPa) = 20.26326 23.78496 22.02411
#
# Velocity S-wave (km/s) = 3.35803 3.63815 3.50089
# Velocity P-wave (km/s) = 6.60530 7.29956 6.96109
#
# Compressibility (1/GPa) = 0.01946126
#
# Stress axis : x y z
#
# Youngs Moduli (GPa) = 37.09139 59.78849 75.49378
#
# Poissons Ratio (x) = 0.25950 0.73787
# Poissons Ratio (y) = 0.16099 0.34887
# Poissons Ratio (z) = 0.36253 0.27630
#
# Static dielectric constant tensor:
#      x y z
#    x 3.051620 0.000000 0.029670 
#    y 0.000000 3.295160 0.000000 
#    z 0.029670 0.000000 3.498540 
# 
# 
# High freq. dielectric constant tensor:
#      x y z
#    x 1.659730 0.000000 -0.005530 
#    y 0.000000 1.693650 0.000000 
#    z -0.005530 0.000000 1.697480 
# 
# From -- ./inp_files/61791.got.cif
#   From: 2010.06.25/outbox.cif.g09.slc.cpg/sg11_31_cif.got.tgz:61791.got - 2010.06.27 23:14:04.
