data_PCOD8069977
_publ_section_title
;
Structure prediction by ZEFSAII (Michael W. Deem and Ramdas Pophale) SiO2 
 PCOD8069977
Probable space group: P 21/M
;
_chemical_formula_sum "Si O2"
_cell_formula_units_Z 24
_cell_length_a 26.673807
_cell_length_b 8.896067
_cell_length_c 11.431573
_cell_angle_alpha 90.000000
_cell_angle_beta 149.741840
_cell_angle_gamma 90.000000
_cell_volume 1366.881341
_symmetry_space_group_name_H-M "P 21/M"
_symmetry_group_IT_number 11
_symmetry_cell_setting 'monoclinic'
loop_
_space_group_symop_operation_xyz
x,y,z
-x,1/2+y,-z
-x,-y,-z
x,1/2-y,z
loop_
_atom_site_type_symbol
_atom_site_label
_atom_site_fract_x
_atom_site_fract_y
_atom_site_fract_z
Si Si1 0.398689 0.926353 0.927378
Si Si2 0.399778 0.084011 0.284119
Si Si3 0.396237 0.573760 0.654399
Si Si4 0.740406 0.913973 0.793111
Si Si5 0.749338 0.425069 0.175597
Si Si6 0.892870 0.929002 0.296536
O O1 0.417051 0.750000 0.978595
O O2 0.380858 0.974350 0.757918
O O3 0.297516 0.973428 0.793076
O O4 0.498920 0.004757 0.179964
O O5 0.408163 0.250000 0.240010
O O6 0.356377 0.109460 0.324119
O O7 0.500000 0.000000 0.500000
O O8 0.335892 0.963265 0.086761
O O9 0.404206 0.750000 0.653595
O O10 0.295885 0.519725 0.385815
O O11 0.773530 0.750000 0.810297
O O12 0.828574 0.981980 0.053179
O O13 0.776843 0.250000 0.228770
O O14 0.846578 0.516643 0.327901
O O15 0.897114 0.750000 0.308907
O O16 0.000000 0.000000 0.500000
#
# Coordination Sequence:
#
# PCOD8069977 Si02
#       6
#     4   4   4   4   4   4
#     4   9  19  33  47  69 103 138 168 201 241 281
#     4  10  19  29  42  65  97 128 160 198 241 290
#     4  10  19  30  48  73 100 134 173 205 233 278
#     4   9  19  33  47  67  97 128 156 195 245 291
#     4  10  19  32  50  70  96 129 162 199 245 293
#     4  10  21  37  56  77  99 123 157 202 253 303
#
# _framework density 17.558216999999999
#
# number of rings (size 3 to 8) (size 9 to 14) (size 15 to 20)
#    0.000    2.333    0.000    4.000    0.000   10.000 
#    0.000    0.000    0.000    1.000    0.000    0.000 
#    0.000    0.000    0.000    0.000    0.000    0.000 
#
# Total GULP energy -297324.157207 kJ/mol
# GULP energy per Si atom -12388.506550 kJ/mol
# Density = 1.751825 g / cm^3
# Si number density = 17.558217 Si / 1000 Ang^3
#
#
#
# Elastic Constant Matrix: (Units=GPa)
#
#
# Indices 1 2 3 4 5 6 
#
# 1 94.2225 38.4520 52.8777 0.0000 14.0246 0.0000
# 2 38.4520 67.0424 39.9992 0.0000 3.9197 0.0000
# 3 52.8777 39.9992 105.0376 0.0000 13.6210 0.0000
# 4 0.0000 0.0000 0.0000 27.9056 0.0000 0.1957
# 5 14.0246 3.9197 13.6210 0.0000 29.3793 0.0000
# 6 0.0000 0.0000 0.0000 0.1957 0.0000 26.2378
#
#
#
# Elastic Compliance Matrix: (Units=1/GPa)
#
#
# Indices 1 2 3 4 5 6 
#
# 1 0.016942 -0.006104 -0.005598 0.000000 -0.004678 0.000000
# 2 -0.006104 0.021522 -0.005457 0.000000 0.002572 0.000000
# 3 -0.005598 -0.005457 0.014869 0.000000 -0.003494 0.000000
# 4 0.000000 0.000000 0.000000 0.035837 0.000000 -0.000267
# 5 -0.004678 0.002572 -0.003494 0.000000 0.037547 0.000000
# 6 0.000000 0.000000 0.000000 -0.000267 0.000000 0.038115
#
#
# Mechanical properties :
#
#
# Convention : Reuss Voigt Hill
#
# Bulk Modulus (GPa) = 52.58477 58.77338 55.67907
# Shear Modulus (GPa) = 24.33240 25.70277 25.01759
#
# Velocity S-wave (km/s) = 3.72669 3.83019 3.77880
# Velocity P-wave (km/s) = 6.96645 7.28743 7.12875
#
# Compressibility (1/GPa) = 0.01901691
#
# Stress axis : x y z
#
# Youngs Moduli (GPa) = 59.02537 46.46449 67.25205
#
# Poissons Ratio (x) = 0.28360 0.37647
# Poissons Ratio (y) = 0.36027 0.36697
# Poissons Ratio (z) = 0.33042 0.25354
#
# Static dielectric constant tensor:
#      x y z
#    x 3.363100 0.000000 -0.067480 
#    y 0.000000 3.330380 0.000000 
#    z -0.067480 0.000000 3.117030 
# 
# 
# High freq. dielectric constant tensor:
#      x y z
#    x 1.667720 0.000000 -0.001240 
#    y 0.000000 1.688780 0.000000 
#    z -0.001240 0.000000 1.655200 
# 
# From -- ./inp_files/40491.got.cif
#   From: 2010.06.25/outbox.cif.g09.slc.cpg/sg11_21_cif.got.tgz:40491.got - 2010.06.27 23:14:04.
