data_PCOD8069370
_publ_section_title
;
Structure prediction by ZEFSAII (Michael W. Deem and Ramdas Pophale) SiO2 
 PCOD8069370
Probable space group: P 21/M
;
_chemical_formula_sum "Si O2"
_cell_formula_units_Z 28
_cell_length_a 21.451494
_cell_length_b 9.204211
_cell_length_c 19.743952
_cell_angle_alpha 90.000000
_cell_angle_beta 157.955163
_cell_angle_gamma 90.000000
_cell_volume 1463.166829
_symmetry_space_group_name_H-M "P 21/M"
_symmetry_group_IT_number 11
_symmetry_cell_setting 'monoclinic'
loop_
_space_group_symop_operation_xyz
x,y,z
-x,1/2+y,-z
-x,-y,-z
x,1/2-y,z
loop_
_atom_site_type_symbol
_atom_site_label
_atom_site_fract_x
_atom_site_fract_y
_atom_site_fract_z
Si Si1 0.812865 0.914224 0.604961
Si Si2 0.676607 0.577020 0.331031
Si Si3 0.691047 0.077810 0.031682
Si Si4 0.006767 0.076420 0.435270
Si Si5 0.190682 0.914496 0.990966
Si Si6 0.663845 0.579762 0.590647
Si Si7 0.319746 0.419295 0.243650
O O1 0.749958 0.750000 0.546686
O O2 0.711345 0.989050 0.441241
O O3 0.780592 0.979913 0.647388
O O4 0.003469 0.921860 0.776165
O O5 0.687916 0.750000 0.345827
O O6 0.820518 0.522464 0.425180
O O7 0.489577 0.527780 0.120526
O O8 0.705405 0.250000 0.045597
O O9 0.701687 0.025170 0.963900
O O10 0.844943 0.018190 0.230995
O O11 0.002804 0.250000 0.439304
O O12 0.000000 0.000000 0.500000
O O13 0.242229 0.750000 0.061974
O O14 0.200578 0.011962 0.067674
O O15 0.621232 0.750000 0.542760
O O16 0.497962 0.489798 0.415469
O O17 0.749481 0.549010 0.750003
O O18 0.334003 0.250000 0.243316
#
# Coordination Sequence:
#
# PCOD8069370 Si02
#       7
#     4   4   4   4   4   4   4
#     4   9  16  29  52  78  98 124 173 226 258 294
#     4   9  16  29  52  79 104 130 168 217 255 290
#     4   9  17  31  54  80 103 132 173 215 251 295
#     4  10  20  35  54  79 107 134 167 206 252 305
#     4  10  18  31  53  77  99 129 173 219 259 305
#     4   9  18  33  51  70  96 134 178 220 260 304
#     4  10  20  32  46  70 104 137 171 214 264 314
#
# _framework density 19.136572000000001
#
# number of rings (size 3 to 8) (size 9 to 14) (size 15 to 20)
#    0.000    2.571    1.429    1.286    0.000    4.000 
#    0.000    1.429    0.000    3.429    0.000    0.000 
#    0.000    0.000    0.000    0.000    0.000    0.000 
#
# Total GULP energy -346918.883899 kJ/mol
# GULP energy per Si atom -12389.960139 kJ/mol
# Density = 1.909302 g / cm^3
# Si number density = 19.136572 Si / 1000 Ang^3
#
#
#
# Elastic Constant Matrix: (Units=GPa)
#
#
# Indices 1 2 3 4 5 6 
#
# 1 158.0986 24.2407 70.1471 0.0000 1.5462 0.0000
# 2 24.2407 29.3435 17.3198 0.0000 -4.3573 0.0000
# 3 70.1471 17.3198 109.1925 0.0000 1.4930 0.0000
# 4 0.0000 0.0000 0.0000 17.3247 0.0000 -7.2251
# 5 1.5462 -4.3573 1.4930 0.0000 31.6786 0.0000
# 6 0.0000 0.0000 0.0000 -7.2251 0.0000 23.4591
#
#
#
# Elastic Compliance Matrix: (Units=1/GPa)
#
#
# Indices 1 2 3 4 5 6 
#
# 1 0.009407 -0.004789 -0.005272 0.000000 -0.000869 0.000000
# 2 -0.004789 0.041004 -0.003510 0.000000 0.006039 0.000000
# 3 -0.005272 -0.003510 0.013113 0.000000 -0.000844 0.000000
# 4 0.000000 0.000000 0.000000 0.066227 0.000000 0.020397
# 5 -0.000869 0.006039 -0.000844 0.000000 0.032480 0.000000
# 6 0.000000 0.000000 0.000000 0.020397 0.000000 0.048909
#
#
# Mechanical properties :
#
#
# Convention : Reuss Voigt Hill
#
# Bulk Modulus (GPa) = 27.48564 57.78330 42.63447
# Shear Modulus (GPa) = 19.96737 26.82096 23.39416
#
# Velocity S-wave (km/s) = 3.23370 3.74780 3.50020
# Velocity P-wave (km/s) = 5.32320 6.99920 6.21793
#
# Compressibility (1/GPa) = 0.03638264
#
# Stress axis : x y z
#
# Youngs Moduli (GPa) = 106.30493 24.38812 76.25973
#
# Poissons Ratio (x) = 0.11678 0.40202
# Poissons Ratio (y) = 0.50905 0.26768
# Poissons Ratio (z) = 0.56041 0.08561
#
# Static dielectric constant tensor:
#      x y z
#    x 3.769330 0.000000 -0.026840 
#    y 0.000000 3.043000 0.000000 
#    z -0.026840 0.000000 3.553740 
# 
# 
# High freq. dielectric constant tensor:
#      x y z
#    x 1.757290 0.000000 -0.001940 
#    y 0.000000 1.683910 0.000000 
#    z -0.001940 0.000000 1.746230 
# 
# From -- ./inp_files/66727.got.cif
#   From: 2010.06.25/outbox.cif.g09.slc.cpg/sg11_34_cif.got.tgz:66727.got - 2010.06.27 23:14:04.
