data_PCOD8069228
_publ_section_title
;
Structure prediction by ZEFSAII (Michael W. Deem and Ramdas Pophale) SiO2 
 PCOD8069228
Probable space group: P 21/M
;
_chemical_formula_sum "Si O2"
_cell_formula_units_Z 28
_cell_length_a 12.605604
_cell_length_b 9.159191
_cell_length_c 15.124674
_cell_angle_alpha 90.000000
_cell_angle_beta 73.982979
_cell_angle_gamma 90.000000
_cell_volume 1678.461636
_symmetry_space_group_name_H-M "P 21/M"
_symmetry_group_IT_number 11
_symmetry_cell_setting 'monoclinic'
loop_
_space_group_symop_operation_xyz
x,y,z
-x,1/2+y,-z
-x,-y,-z
x,1/2-y,z
loop_
_atom_site_type_symbol
_atom_site_label
_atom_site_fract_x
_atom_site_fract_y
_atom_site_fract_z
Si Si1 0.127632 0.420671 0.112006
Si Si2 0.855854 0.919255 0.598691
Si Si3 0.692156 0.918435 0.781762
Si Si4 0.930131 0.919963 0.395143
Si Si5 0.251870 0.422663 0.910709
Si Si6 0.902249 0.921828 0.207098
Si Si7 0.491737 0.423721 0.907566
O O1 0.100789 0.250000 0.112634
O O2 0.212000 0.455080 0.171097
O O3 0.015031 0.504713 0.152335
O O4 0.181504 0.482181 0.009584
O O5 0.884476 0.750000 0.603011
O O6 0.739132 0.953125 0.672649
O O7 0.851440 0.965084 0.495899
O O8 0.952688 0.001960 0.626854
O O9 0.654746 0.750000 0.799835
O O10 0.588949 0.023469 0.821076
O O11 0.956576 0.750000 0.392465
O O12 0.872028 0.962097 0.315764
O O13 0.250735 0.250000 0.915498
O O14 0.197432 0.479397 0.831882
O O15 0.378033 0.475882 0.887991
O O16 0.918314 0.750000 0.191267
O O17 0.497146 0.250000 0.919294
O O18 0.500000 0.500000 0.000000
#
# Coordination Sequence:
#
# PCOD8069228 Si02
#       7
#     4   4   4   4   4   4   4
#     4  10  18  31  48  68  98 131 157 185 235 289
#     4   9  17  30  47  68  97 128 153 189 242 284
#     4  10  19  32  50  71  98 129 158 194 240 283
#     4   9  17  28  46  72  96 121 158 195 230 282
#     4   9  19  34  48  65  95 130 158 192 237 283
#     4  10  19  31  48  71  98 125 158 195 232 281
#     4  11  21  35  53  71  94 126 164 202 239 277
#
# _framework density 16.681943
#
# number of rings (size 3 to 8) (size 9 to 14) (size 15 to 20)
#    0.000    2.286    2.857    0.857    0.000    1.143 
#    0.000    1.429    0.000    0.857    0.000    0.000 
#    0.000    0.000    0.000    0.000    0.000    0.143 
#
# Total GULP energy -347109.051951 kJ/mol
# GULP energy per Si atom -12396.751855 kJ/mol
# Density = 1.664397 g / cm^3
# Si number density = 16.681943 Si / 1000 Ang^3
#
#
#
# Elastic Constant Matrix: (Units=GPa)
#
#
# Indices 1 2 3 4 5 6 
#
# 1 123.3838 39.5754 76.4768 0.0000 2.3424 0.0000
# 2 39.5754 38.0472 36.6034 0.0000 -0.8793 0.0000
# 3 76.4768 36.6034 139.2915 0.0000 0.4483 0.0000
# 4 0.0000 0.0000 0.0000 21.2192 0.0000 -6.8500
# 5 2.3424 -0.8793 0.4483 0.0000 22.3779 0.0000
# 6 0.0000 0.0000 0.0000 -6.8500 0.0000 21.9221
#
#
#
# Elastic Compliance Matrix: (Units=1/GPa)
#
#
# Indices 1 2 3 4 5 6 
#
# 1 0.014770 -0.010185 -0.005427 0.000000 -0.001838 0.000000
# 2 -0.010185 0.042254 -0.005521 0.000000 0.002837 0.000000
# 3 -0.005427 -0.005521 0.011609 0.000000 0.000119 0.000000
# 4 0.000000 0.000000 0.000000 0.052414 0.000000 0.016378
# 5 -0.001838 0.002837 0.000119 0.000000 0.044988 0.000000
# 6 0.000000 0.000000 0.000000 0.016378 0.000000 0.050734
#
#
# Mechanical properties :
#
#
# Convention : Reuss Voigt Hill
#
# Bulk Modulus (GPa) = 37.92493 67.33709 52.63101
# Shear Modulus (GPa) = 18.66889 22.97498 20.82193
#
# Velocity S-wave (km/s) = 3.34894 3.71514 3.53678
# Velocity P-wave (km/s) = 6.14307 7.67176 6.94958
#
# Compressibility (1/GPa) = 0.02636788
#
# Stress axis : x y z
#
# Youngs Moduli (GPa) = 67.70270 23.66638 86.13725
#
# Poissons Ratio (x) = 0.24104 0.46749
# Poissons Ratio (y) = 0.68954 0.47555
# Poissons Ratio (z) = 0.36744 0.13066
#
# Static dielectric constant tensor:
#      x y z
#    x 3.194640 0.000000 0.088670 
#    y 0.000000 3.115810 0.000000 
#    z 0.088670 0.000000 3.560600 
# 
# 
# High freq. dielectric constant tensor:
#      x y z
#    x 1.620600 0.000000 0.000510 
#    y 0.000000 1.630590 0.000000 
#    z 0.000510 0.000000 1.653940 
# 
# From -- ./inp_files/42340.got.cif
#   From: 2010.06.25/outbox.cif.g09.slc.cpg/sg11_22_cif.got.tgz:42340.got - 2010.06.27 23:14:04.
