data_PCOD8069834
_publ_section_title
;
Structure prediction by ZEFSAII (Michael W. Deem and Ramdas Pophale) SiO2 
 PCOD8069834
Probable space group: P 21/M
;
_chemical_formula_sum "Si O2"
_cell_formula_units_Z 28
_cell_length_a 10.353201
_cell_length_b 14.346232
_cell_length_c 11.503961
_cell_angle_alpha 90.000000
_cell_angle_beta 55.363022
_cell_angle_gamma 90.000000
_cell_volume 1405.847442
_symmetry_space_group_name_H-M "P 21/M"
_symmetry_group_IT_number 11
_symmetry_cell_setting 'monoclinic'
loop_
_space_group_symop_operation_xyz
x,y,z
-x,1/2+y,-z
-x,-y,-z
x,1/2-y,z
loop_
_atom_site_type_symbol
_atom_site_label
_atom_site_fract_x
_atom_site_fract_y
_atom_site_fract_z
Si Si1 0.748773 0.903466 0.253382
Si Si2 0.699234 0.003237 0.044802
Si Si3 0.485598 0.892513 0.540290
Si Si4 0.179357 0.143071 0.199046
Si Si5 0.447404 0.355417 0.226409
Si Si6 0.860627 0.087421 0.286377
Si Si7 0.064344 0.850842 0.005839
O O1 0.673163 0.961883 0.186483
O O2 0.612133 0.843684 0.388661
O O3 0.825259 0.977524 0.304875
O O4 0.885158 0.836813 0.138007
O O5 0.550159 0.070610 0.099314
O O6 0.851720 0.069991 0.961636
O O7 0.722676 0.921681 0.940216
O O8 0.536261 0.872122 0.645292
O O9 0.305958 0.858130 0.609081
O O10 0.500000 0.000000 0.500000
O O11 0.187015 0.250000 0.150513
O O12 0.266102 0.132554 0.279129
O O13 0.996427 0.112749 0.310364
O O14 0.503658 0.250000 0.168984
O O15 0.939583 0.118480 0.125358
O O16 0.147868 0.750000 0.976500
#
# Coordination Sequence:
#
# PCOD8069834 Si02
#       7
#     4   4   4   4   4   4   4
#     4  10  19  34  59  86 118 147 196 247 302 348
#     4  11  19  37  60  85 120 157 201 243 300 354
#     4  10  20  38  61  84 117 150 199 247 293 354
#     4  11  23  37  58  88 121 159 204 249 297 353
#     4  11  23  38  59  89 122 160 202 243 295 362
#     4  10  18  35  57  84 114 152 197 245 294 351
#     4  11  19  31  57  89 117 149 197 251 295 346
#
# _framework density 19.916812
#
# number of rings (size 3 to 8) (size 9 to 14) (size 15 to 20)
#    0.000    1.429    7.143    2.143    0.000    1.143 
#    0.000    2.857    0.000    0.000    0.000    0.000 
#    0.000    0.000    0.000    0.000    0.000    0.000 
#
# Total GULP energy -346886.267474 kJ/mol
# GULP energy per Si atom -12388.795267 kJ/mol
# Density = 1.987148 g / cm^3
# Si number density = 19.916812 Si / 1000 Ang^3
#
#
#
# Elastic Constant Matrix: (Units=GPa)
#
#
# Indices 1 2 3 4 5 6 
#
# 1 154.3589 33.7470 52.1507 0.0000 -21.9485 0.0000
# 2 33.7470 91.5579 10.4859 0.0000 1.4278 0.0000
# 3 52.1507 10.4859 98.4032 0.0000 -36.1556 0.0000
# 4 0.0000 0.0000 0.0000 -1.5941 0.0000 8.7436
# 5 -21.9485 1.4278 -36.1556 0.0000 27.4369 0.0000
# 6 0.0000 0.0000 0.0000 8.7436 0.0000 19.2355
#
#
#
# Elastic Compliance Matrix: (Units=1/GPa)
#
#
# Indices 1 2 3 4 5 6 
#
# 1 0.008583 -0.002836 -0.003237 0.000000 0.002748 0.000000
# 2 -0.002836 0.012240 -0.001685 0.000000 -0.005125 0.000000
# 3 -0.003237 -0.001685 0.021593 0.000000 0.025953 0.000000
# 4 0.000000 0.000000 0.000000 -0.179580 0.000000 0.081629
# 5 0.002748 -0.005125 0.025953 0.000000 0.073113 0.000000
# 6 0.000000 0.000000 0.000000 0.081629 0.000000 0.014882
#
#
# Mechanical properties :
#
#
# Convention : Reuss Voigt Hill
#
# Bulk Modulus (GPa) = 37.17243 59.67635 48.42439
# Shear Modulus (GPa) = -202.52729 25.54475 -88.49127
#
# Velocity S-wave (km/s) = -10.09492 3.58519 -6.67285
# Velocity P-wave (km/s) = 10.82461 6.86775 5.91634
#
# Compressibility (1/GPa) = 0.02690166
#
# Stress axis : x y z
#
# Youngs Moduli (GPa) = 116.51452 81.69866 46.31161
#
# Poissons Ratio (x) = 0.23167 0.14989
# Poissons Ratio (y) = 0.33039 0.07802
# Poissons Ratio (z) = 0.37711 0.13764
#
# Static dielectric constant tensor:
#      x y z
#    x 3.823710 0.000000 -0.457530 
#    y 0.000000 4.059050 0.000000 
#    z -0.457530 0.000000 3.906760 
# 
# 
# High freq. dielectric constant tensor:
#      x y z
#    x 1.769450 0.000000 -0.029140 
#    y 0.000000 1.781060 0.000000 
#    z -0.029140 0.000000 1.752680 
# 
# From -- ./inp_files/31792.got.cif
#   From: 2010.06.25/outbox.cif.g09.slc.cpg/sg11_16_cif.got.tgz:31792.got - 2010.06.27 23:14:04.
