data_PCOD8069181
_publ_section_title
;
Structure prediction by ZEFSAII (Michael W. Deem and Ramdas Pophale) SiO2 
 PCOD8069181
Probable space group: P 21/M
;
_chemical_formula_sum "Si O2"
_cell_formula_units_Z 32
_cell_length_a 23.806243
_cell_length_b 8.787132
_cell_length_c 11.828043
_cell_angle_alpha 90.000000
_cell_angle_beta 135.198832
_cell_angle_gamma 90.000000
_cell_volume 1743.506404
_symmetry_space_group_name_H-M "P 21/M"
_symmetry_group_IT_number 11
_symmetry_cell_setting 'monoclinic'
loop_
_space_group_symop_operation_xyz
x,y,z
-x,1/2+y,-z
-x,-y,-z
x,1/2-y,z
loop_
_atom_site_type_symbol
_atom_site_label
_atom_site_fract_x
_atom_site_fract_y
_atom_site_fract_z
Si Si1 0.178577 0.070664 0.802509
Si Si2 0.926695 0.928911 0.959177
Si Si3 0.515394 0.068774 0.644765
Si Si4 0.032698 0.430519 0.736626
Si Si5 0.206254 0.925137 0.373053
Si Si6 0.359016 0.573476 0.453660
Si Si7 0.853202 0.430029 0.469762
Si Si8 0.673547 0.569471 0.833022
O O1 0.179071 0.250000 0.787636
O O2 0.092263 0.011585 0.723576
O O3 0.195846 0.995554 0.706007
O O4 0.245804 0.021768 0.988093
O O5 0.935101 0.750000 0.964564
O O6 0.843836 0.978077 0.787072
O O7 0.929645 0.987081 0.091968
O O8 0.000000 0.000000 0.000000
O O9 0.516599 0.250000 0.647325
O O10 0.500000 0.000000 0.500000
O O11 0.441224 0.006669 0.613146
O O12 0.601148 0.002297 0.804298
O O13 0.028441 0.250000 0.729762
O O14 0.943510 0.496804 0.595108
O O15 0.179266 0.750000 0.324631
O O16 0.298423 0.946878 0.471534
O O17 0.190636 0.984215 0.478070
O O18 0.374878 0.750000 0.449240
O O19 0.323975 0.497211 0.290037
O O20 0.853484 0.250000 0.462097
O O21 0.662941 0.750000 0.809829
#
# Coordination Sequence:
#
# PCOD8069181 Si02
#       8
#     4   4   4   4   4   4   4   4
#     4  10  21  35  52  75  99 131 175 218 255 300
#     4  11  20  33  53  75 103 136 170 210 258 309
#     4  10  18  30  51  78 108 136 167 203 251 311
#     4   9  18  34  53  72 101 134 168 212 262 304
#     4  10  21  36  52  75 106 139 174 210 256 308
#     4  10  19  32  53  80 109 136 168 207 250 309
#     4  10  20  36  53  69  99 139 174 214 258 301
#     4  10  19  33  52  76 109 138 167 209 259 307
#
# _framework density 18.353818
#
# number of rings (size 3 to 8) (size 9 to 14) (size 15 to 20)
#    0.000    2.000    1.250    4.875    0.000    3.500 
#    0.000    1.250    0.000    0.750    0.000    0.000 
#    0.000    0.000    0.000    0.000    0.000    0.000 
#
# Total GULP energy -396731.266617 kJ/mol
# GULP energy per Si atom -12397.852082 kJ/mol
# Density = 1.831204 g / cm^3
# Si number density = 18.353818 Si / 1000 Ang^3
#
#
#
# Elastic Constant Matrix: (Units=GPa)
#
#
# Indices 1 2 3 4 5 6 
#
# 1 118.1245 34.4313 56.3039 0.0000 9.0984 0.0000
# 2 34.4313 72.3418 30.4162 0.0000 5.5941 0.0000
# 3 56.3039 30.4162 71.1412 0.0000 0.3839 0.0000
# 4 0.0000 0.0000 0.0000 28.3306 0.0000 1.5897
# 5 9.0984 5.5941 0.3839 0.0000 32.5801 0.0000
# 6 0.0000 0.0000 0.0000 1.5897 0.0000 24.0915
#
#
#
# Elastic Compliance Matrix: (Units=1/GPa)
#
#
# Indices 1 2 3 4 5 6 
#
# 1 0.014319 -0.002179 -0.010382 0.000000 -0.003502 0.000000
# 2 -0.002179 0.017445 -0.005721 0.000000 -0.002319 0.000000
# 3 -0.010382 -0.005721 0.024700 0.000000 0.003591 0.000000
# 4 0.000000 0.000000 0.000000 0.035429 0.000000 -0.002338
# 5 -0.003502 -0.002319 0.003591 0.000000 0.032028 0.000000
# 6 0.000000 0.000000 0.000000 -0.002338 0.000000 0.041663
#
#
# Mechanical properties :
#
#
# Convention : Reuss Voigt Hill
#
# Bulk Modulus (GPa) = 50.25350 55.99002 53.12176
# Shear Modulus (GPa) = 23.94832 26.36418 25.15625
#
# Velocity S-wave (km/s) = 3.61614 3.79415 3.70622
# Velocity P-wave (km/s) = 6.69889 7.05452 6.87900
#
# Compressibility (1/GPa) = 0.01989911
#
# Stress axis : x y z
#
# Youngs Moduli (GPa) = 69.83580 57.32154 40.48543
#
# Poissons Ratio (x) = 0.12492 0.42033
# Poissons Ratio (y) = 0.15219 0.23164
# Poissons Ratio (z) = 0.72505 0.32796
#
# Static dielectric constant tensor:
#      x y z
#    x 3.751080 0.000000 0.341400 
#    y 0.000000 3.403520 0.000000 
#    z 0.341400 0.000000 3.550530 
# 
# 
# High freq. dielectric constant tensor:
#      x y z
#    x 1.714940 0.000000 0.015470 
#    y 0.000000 1.706340 0.000000 
#    z 0.015470 0.000000 1.692600 
# 
# From -- ./inp_files/42910.got.cif
#   From: 2010.06.25/outbox.cif.g09.slc.cpg/sg11_22_cif.got.tgz:42910.got - 2010.06.27 23:14:04.
