data_PCOD8069546
_publ_section_title
;
Structure prediction by ZEFSAII (Michael W. Deem and Ramdas Pophale) SiO2 
 PCOD8069546
Probable space group: P 21/M
;
_chemical_formula_sum "Si O2"
_cell_formula_units_Z 32
_cell_length_a 26.856426
_cell_length_b 8.809173
_cell_length_c 21.567817
_cell_angle_alpha 90.000000
_cell_angle_beta 20.617348
_cell_angle_gamma 90.000000
_cell_volume 1796.745105
_symmetry_space_group_name_H-M "P 21/M"
_symmetry_group_IT_number 11
_symmetry_cell_setting 'monoclinic'
loop_
_space_group_symop_operation_xyz
x,y,z
-x,1/2+y,-z
-x,-y,-z
x,1/2-y,z
loop_
_atom_site_type_symbol
_atom_site_label
_atom_site_fract_x
_atom_site_fract_y
_atom_site_fract_z
Si Si1 0.439314 0.931686 0.508454
Si Si2 0.646487 0.426736 0.809882
Si Si3 0.646548 0.928916 0.684185
Si Si4 0.756397 0.416979 0.441587
Si Si5 0.850709 0.073473 0.685998
Si Si6 0.138891 0.570043 0.809105
Si Si7 0.644046 0.932135 0.019378
Si Si8 0.554454 0.584420 0.250534
O O1 0.447387 0.750000 0.500152
O O2 0.277231 0.984482 0.686474
O O3 0.538153 0.997456 0.336533
O O4 0.500000 0.000000 0.500000
O O5 0.623111 0.250000 0.823824
O O6 0.708686 0.507721 0.676117
O O7 0.757351 0.456243 0.734666
O O8 0.500000 0.500000 0.000000
O O9 0.628946 0.750000 0.707738
O O10 0.755261 0.972034 0.502227
O O11 0.492309 0.002131 0.856380
O O12 0.811025 0.250000 0.398830
O O13 0.852054 0.482726 0.273731
O O14 0.600769 0.398130 0.596452
O O15 0.866491 0.250000 0.682818
O O16 0.784251 0.990963 0.823069
O O17 0.000000 0.000000 0.500000
O O18 0.129077 0.750000 0.822951
O O19 0.000000 0.500000 0.000000
O O20 0.635484 0.750000 0.028092
O O21 0.647331 0.993960 0.087640
O O22 0.620197 0.750000 0.186440
#
# Coordination Sequence:
#
# PCOD8069546 Si02
#       8
#     4   4   4   4   4   4   4   4
#     4   9  17  31  50  75 105 134 169 212 254 302
#     4  11  22  36  56  81 108 138 175 215 258 310
#     4  11  20  30  50  81 110 134 169 219 268 309
#     4   8  15  30  49  71 100 136 173 212 260 308
#     4  11  24  39  56  79 107 139 176 215 261 316
#     4   9  18  32  52  76 105 138 175 214 257 311
#     4  10  18  32  55  77 102 137 175 217 262 308
#     4   7  13  27  48  72  97 129 168 209 253 300
#
# _framework density 17.809984
#
# number of rings (size 3 to 8) (size 9 to 14) (size 15 to 20)
#    0.000    2.500    1.250    4.500    0.000    2.500 
#    0.000    5.625    2.750    0.000    0.000    0.000 
#    0.000    0.000    0.000    0.000    0.000    0.000 
#
# Total GULP energy -396518.213613 kJ/mol
# GULP energy per Si atom -12391.194175 kJ/mol
# Density = 1.776945 g / cm^3
# Si number density = 17.809984 Si / 1000 Ang^3
#
#
#
# Elastic Constant Matrix: (Units=GPa)
#
#
# Indices 1 2 3 4 5 6 
#
# 1 112.9609 51.3704 68.4355 0.0000 32.8123 0.0000
# 2 51.3704 85.4237 50.6752 0.0000 10.8794 0.0000
# 3 68.4355 50.6752 135.2374 0.0000 31.3391 0.0000
# 4 0.0000 0.0000 0.0000 28.4296 0.0000 3.5481
# 5 32.8123 10.8794 31.3391 0.0000 33.4008 0.0000
# 6 0.0000 0.0000 0.0000 3.5481 0.0000 25.9011
#
#
#
# Elastic Compliance Matrix: (Units=1/GPa)
#
#
# Indices 1 2 3 4 5 6 
#
# 1 0.017566 -0.006954 -0.003590 0.000000 -0.011623 0.000000
# 2 -0.006954 0.017811 -0.004337 0.000000 0.005099 0.000000
# 3 -0.003590 -0.004337 0.012384 0.000000 -0.006680 0.000000
# 4 0.000000 0.000000 0.000000 0.035786 0.000000 -0.004902
# 5 -0.011623 0.005099 -0.006680 0.000000 0.045965 0.000000
# 6 0.000000 0.000000 0.000000 -0.004902 0.000000 0.039280
#
#
# Mechanical properties :
#
#
# Convention : Reuss Voigt Hill
#
# Bulk Modulus (GPa) = 55.55343 74.95380 65.25361
# Shear Modulus (GPa) = 24.44337 28.42235 26.43286
#
# Velocity S-wave (km/s) = 3.70868 3.99916 3.85666
# Velocity P-wave (km/s) = 7.04266 7.96875 7.51998
#
# Compressibility (1/GPa) = 0.01800069
#
# Stress axis : x y z
#
# Youngs Moduli (GPa) = 56.92797 56.14409 80.74737
#
# Poissons Ratio (x) = 0.39040 0.28989
# Poissons Ratio (y) = 0.39585 0.35019
# Poissons Ratio (z) = 0.20437 0.24349
#
# Static dielectric constant tensor:
#      x y z
#    x 3.473490 0.000000 0.623850 
#    y 0.000000 3.301600 0.000000 
#    z 0.623850 0.000000 3.533190 
# 
# 
# High freq. dielectric constant tensor:
#      x y z
#    x 1.681910 0.000000 0.037740 
#    y 0.000000 1.678880 0.000000 
#    z 0.037740 0.000000 1.675450 
# 
# From -- ./inp_files/67104.got.cif
#   From: 2010.06.25/outbox.cif.g09.slc.cpg/sg11_34_cif.got.tgz:67104.got - 2010.06.27 23:14:04.
