data_PCOD8069058
_publ_section_title
;
Structure prediction by ZEFSAII (Michael W. Deem and Ramdas Pophale) SiO2 
 PCOD8069058
Probable space group: P 21/M
;
_chemical_formula_sum "Si O2"
_cell_formula_units_Z 32
_cell_length_a 12.399169
_cell_length_b 8.589840
_cell_length_c 17.692676
_cell_angle_alpha 90.000000
_cell_angle_beta 102.828638
_cell_angle_gamma 90.000000
_cell_volume 1837.354432
_symmetry_space_group_name_H-M "P 21/M"
_symmetry_group_IT_number 11
_symmetry_cell_setting 'monoclinic'
loop_
_space_group_symop_operation_xyz
x,y,z
-x,1/2+y,-z
-x,-y,-z
x,1/2-y,z
loop_
_atom_site_type_symbol
_atom_site_label
_atom_site_fract_x
_atom_site_fract_y
_atom_site_fract_z
Si Si1 0.147313 0.069880 0.904316
Si Si2 0.115149 0.069287 0.496176
Si Si3 0.747497 0.570884 0.921248
Si Si4 0.168200 0.067462 0.663840
Si Si5 0.311192 0.931812 0.811076
Si Si6 0.901369 0.068430 0.823374
Si Si7 0.933033 0.566906 0.670705
Si Si8 0.482580 0.568066 0.079957
O O1 0.164294 0.250000 0.884512
O O2 0.023020 0.015162 0.868587
O O3 0.230244 0.967896 0.867887
O O4 0.171711 0.038761 0.995735
O O5 0.096059 0.250000 0.487467
O O6 0.196993 0.028868 0.579212
O O7 0.142943 0.015562 0.414404
O O8 0.000000 0.000000 0.500000
O O9 0.709549 0.750000 0.913325
O O10 0.811905 0.529344 0.855388
O O11 0.640568 0.462682 0.910463
O O12 0.143924 0.250000 0.670792
O O13 0.273602 0.017577 0.728759
O O14 0.061325 0.974567 0.676594
O O15 0.312611 0.750000 0.795835
O O16 0.433943 0.988993 0.848511
O O17 0.882465 0.250000 0.835480
O O18 0.884675 0.029840 0.732843
O O19 0.924711 0.750000 0.687124
O O20 0.507261 0.750000 0.080528
O O21 0.500000 0.500000 0.000000
#
# Coordination Sequence:
#
# PCOD8069058 Si02
#       8
#     4   4   4   4   4   4   4   4
#     4  10  21  36  54  75 106 141 177 217 263 313
#     4   8  16  28  45  69 101 138 173 211 257 311
#     4  11  23  39  57  77 103 139 182 225 267 310
#     4  10  18  31  49  73 106 140 174 216 265 315
#     4  12  23  34  54  80 106 140 179 219 266 314
#     4  11  22  35  52  77 109 145 181 217 264 317
#     4  10  18  30  48  74 105 140 179 215 258 314
#     4  12  24  40  59  79 104 136 177 222 269 316
#
# _framework density 17.416346000000001
#
# number of rings (size 3 to 8) (size 9 to 14) (size 15 to 20)
#    0.000    1.500    2.500    4.125    0.000    2.000 
#    0.000    0.000    0.000    0.000    0.000    0.875 
#    0.000    0.000    0.000    0.000    0.000    0.000 
#
# Total GULP energy -396715.624617 kJ/mol
# GULP energy per Si atom -12397.363269 kJ/mol
# Density = 1.737671 g / cm^3
# Si number density = 17.416346 Si / 1000 Ang^3
#
#
#
# Elastic Constant Matrix: (Units=GPa)
#
#
# Indices 1 2 3 4 5 6 
#
# 1 59.5233 5.8843 37.5704 0.0000 -4.2305 0.0000
# 2 5.8843 40.1607 17.5330 0.0000 -1.5925 0.0000
# 3 37.5704 17.5330 139.6661 0.0000 7.8827 0.0000
# 4 0.0000 0.0000 0.0000 26.4415 0.0000 -0.9743
# 5 -4.2305 -1.5925 7.8827 0.0000 18.8122 0.0000
# 6 0.0000 0.0000 0.0000 -0.9743 0.0000 24.6486
#
#
#
# Elastic Compliance Matrix: (Units=1/GPa)
#
#
# Indices 1 2 3 4 5 6 
#
# 1 0.021178 -0.000155 -0.006090 0.000000 0.007301 0.000000
# 2 -0.000155 0.026599 -0.003505 0.000000 0.003686 0.000000
# 3 -0.006090 -0.003505 0.009558 0.000000 -0.005671 0.000000
# 4 0.000000 0.000000 0.000000 0.037875 0.000000 0.001497
# 5 0.007301 0.003686 -0.005671 0.000000 0.057487 0.000000
# 6 0.000000 0.000000 0.000000 0.001497 0.000000 0.040629
#
#
# Mechanical properties :
#
#
# Convention : Reuss Voigt Hill
#
# Bulk Modulus (GPa) = 26.43026 40.14728 33.28877
# Shear Modulus (GPa) = 22.17903 25.87128 24.02516
#
# Velocity S-wave (km/s) = 3.57243 3.85835 3.71814
# Velocity P-wave (km/s) = 5.67669 6.55368 6.13088
#
# Compressibility (1/GPa) = 0.03783542
#
# Stress axis : x y z
#
# Youngs Moduli (GPa) = 47.21885 37.59512 104.62266
#
# Poissons Ratio (x) = 0.00583 0.63710
# Poissons Ratio (y) = 0.00732 0.36675
# Poissons Ratio (z) = 0.28754 0.13179
#
# Static dielectric constant tensor:
#      x y z
#    x 3.008840 0.000000 0.236550 
#    y 0.000000 3.274400 0.000000 
#    z 0.236550 0.000000 3.786100 
# 
# 
# High freq. dielectric constant tensor:
#      x y z
#    x 1.629190 0.000000 0.011630 
#    y 0.000000 1.686060 0.000000 
#    z 0.011630 0.000000 1.687470 
# 
# From -- ./inp_files/42857.got.cif
#   From: 2010.06.25/outbox.cif.g09.slc.cpg/sg11_22_cif.got.tgz:42857.got - 2010.06.27 23:14:04.
