data_PCOD8069216
_publ_section_title
;
Structure prediction by ZEFSAII (Michael W. Deem and Ramdas Pophale) SiO2 
 PCOD8069216
Probable space group: P 21/M
;
_chemical_formula_sum "Si O2"
_cell_formula_units_Z 28
_cell_length_a 16.785005
_cell_length_b 13.152866
_cell_length_c 9.934496
_cell_angle_alpha 90.000000
_cell_angle_beta 41.856509
_cell_angle_gamma 90.000000
_cell_volume 1463.482749
_symmetry_space_group_name_H-M "P 21/M"
_symmetry_group_IT_number 11
_symmetry_cell_setting 'monoclinic'
loop_
_space_group_symop_operation_xyz
x,y,z
-x,1/2+y,-z
-x,-y,-z
x,1/2-y,z
loop_
_atom_site_type_symbol
_atom_site_label
_atom_site_fract_x
_atom_site_fract_y
_atom_site_fract_z
Si Si1 0.126017 0.363455 0.121273
Si Si2 0.550128 0.128895 0.568650
Si Si3 0.674266 0.499392 0.205444
Si Si4 0.494136 0.869719 0.078765
Si Si5 0.316943 0.868507 0.074012
Si Si6 0.765316 0.637273 0.716910
Si Si7 0.091387 0.957278 0.492086
O O1 0.132483 0.250000 0.051758
O O2 0.185459 0.363734 0.193601
O O3 0.986209 0.396808 0.299610
O O4 0.198756 0.443502 0.938448
O O5 0.553451 0.250000 0.544820
O O6 0.658586 0.076181 0.351642
O O7 0.562386 0.094811 0.708567
O O8 0.425361 0.087459 0.667226
O O9 0.668564 0.432174 0.078785
O O10 0.488949 0.750000 0.083482
O O11 0.417206 0.912104 0.051084
O O12 0.630860 0.903980 0.891819
O O13 0.336857 0.750000 0.016877
O O14 0.185734 0.881812 0.303128
O O15 0.776355 0.750000 0.639489
O O16 0.839464 0.556090 0.533881
O O17 0.000000 0.000000 0.500000
#
# Coordination Sequence:
#
# PCOD8069216 Si02
#       7
#     4   4   4   4   4   4   4
#     4  10  18  32  50  72 102 138 174 213 254 311
#     4  10  20  35  51  72 104 141 174 208 255 318
#     4  11  20  32  52  77 103 133 178 214 259 301
#     4   9  18  33  53  75 107 144 170 202 261 316
#     4  11  21  33  51  82 112 132 168 224 260 295
#     4   9  16  29  48  71 100 138 173 205 246 312
#     4  10  18  31  46  75 105 136 170 210 259 307
#
# _framework density 19.132444
#
# number of rings (size 3 to 8) (size 9 to 14) (size 15 to 20)
#    0.000    2.000    4.286    1.286    0.000    2.857 
#    0.000    0.000    0.000    0.857    0.000    3.000 
#    0.000    0.000    0.000    0.000    0.000    0.000 
#
# Total GULP energy -347035.346193 kJ/mol
# GULP energy per Si atom -12394.119507 kJ/mol
# Density = 1.908890 g / cm^3
# Si number density = 19.132444 Si / 1000 Ang^3
#
#
#
# Elastic Constant Matrix: (Units=GPa)
#
#
# Indices 1 2 3 4 5 6 
#
# 1 56.8378 31.1773 48.8464 0.0000 -10.8861 0.0000
# 2 31.1773 138.2758 64.0274 0.0000 -3.6051 0.0000
# 3 48.8464 64.0274 121.7057 0.0000 -17.2677 0.0000
# 4 0.0000 0.0000 0.0000 38.1123 0.0000 -9.1307
# 5 -10.8861 -3.6051 -17.2677 0.0000 22.0070 0.0000
# 6 0.0000 0.0000 0.0000 -9.1307 0.0000 15.3650
#
#
#
# Elastic Compliance Matrix: (Units=1/GPa)
#
#
# Indices 1 2 3 4 5 6 
#
# 1 0.027768 -0.001775 -0.009343 0.000000 0.006114 0.000000
# 2 -0.001775 0.009817 -0.004893 0.000000 -0.003109 0.000000
# 3 -0.009343 -0.004893 0.015496 0.000000 0.006736 0.000000
# 4 0.000000 0.000000 0.000000 0.030594 0.000000 0.018180
# 5 0.006114 -0.003109 0.006736 0.000000 0.053240 0.000000
# 6 0.000000 0.000000 0.000000 0.018180 0.000000 0.075887
#
#
# Mechanical properties :
#
#
# Convention : Reuss Voigt Hill
#
# Bulk Modulus (GPa) = 47.48773 67.21348 57.35061
# Shear Modulus (GPa) = 19.85344 26.61474 23.23409
#
# Velocity S-wave (km/s) = 3.22481 3.73376 3.48858
# Velocity P-wave (km/s) = 6.22417 7.33450 6.80203
#
# Compressibility (1/GPa) = 0.02105807
#
# Stress axis : x y z
#
# Youngs Moduli (GPa) = 36.01207 101.86567 64.53109
#
# Poissons Ratio (x) = 0.18083 0.60294
# Poissons Ratio (y) = 0.06393 0.31576
# Poissons Ratio (z) = 0.33648 0.49845
#
# Static dielectric constant tensor:
#      x y z
#    x 3.494130 0.000000 -0.412200 
#    y 0.000000 4.025050 0.000000 
#    z -0.412200 0.000000 3.723290 
# 
# 
# High freq. dielectric constant tensor:
#      x y z
#    x 1.699350 0.000000 -0.030850 
#    y 0.000000 1.774440 0.000000 
#    z -0.030850 0.000000 1.727630 
# 
# From -- ./inp_files/22129.got.cif
#   From: 2010.06.25/outbox.cif.g09.slc.cpg/sg11_12_cif.got.tgz:22129.got - 2010.06.27 23:14:04.
