data_PCOD8069231
_publ_section_title
;
Structure prediction by ZEFSAII (Michael W. Deem and Ramdas Pophale) SiO2 
 PCOD8069231
Probable space group: P 21/M
;
_chemical_formula_sum "Si O2"
_cell_formula_units_Z 32
_cell_length_a 9.487764
_cell_length_b 19.385722
_cell_length_c 16.216721
_cell_angle_alpha 90.000000
_cell_angle_beta 36.873351
_cell_angle_gamma 90.000000
_cell_volume 1789.761033
_symmetry_space_group_name_H-M "P 21/M"
_symmetry_group_IT_number 11
_symmetry_cell_setting 'monoclinic'
loop_
_space_group_symop_operation_xyz
x,y,z
-x,1/2+y,-z
-x,-y,-z
x,1/2-y,z
loop_
_atom_site_type_symbol
_atom_site_label
_atom_site_fract_x
_atom_site_fract_y
_atom_site_fract_z
Si Si1 0.153365 0.035167 0.000790
Si Si2 0.089861 0.830952 0.831807
Si Si3 0.743684 0.460742 0.888172
Si Si4 0.031534 0.101584 0.455068
Si Si5 0.981229 0.826967 0.702870
Si Si6 0.515451 0.670883 0.739546
Si Si7 0.288179 0.969228 0.280400
Si Si8 0.439358 0.828599 0.953949
O O1 0.430053 0.031486 0.851284
O O2 0.092346 0.116529 0.039537
O O3 0.098012 0.995770 0.113884
O O4 0.000000 0.000000 0.000000
O O5 0.020214 0.750000 0.881606
O O6 0.119515 0.845488 0.721055
O O7 0.347257 0.850999 0.744366
O O8 0.838426 0.468056 0.750411
O O9 0.715313 0.378806 0.917057
O O10 0.500000 0.500000 0.000000
O O11 0.939843 0.122393 0.407141
O O12 0.211927 0.157489 0.408300
O O13 0.810650 0.095161 0.619787
O O14 0.197871 0.034938 0.372298
O O15 0.038706 0.750000 0.645437
O O16 0.708999 0.832981 0.855892
O O17 0.490281 0.750000 0.772137
O O18 0.429638 0.637636 0.866557
O O19 0.343460 0.750000 0.006918
#
# Coordination Sequence:
#
# PCOD8069231 Si02
#       8
#     4   4   4   4   4   4   4   4
#     4  11  20  33  53  77 102 130 164 203 256 305
#     4  10  19  31  50  77 103 125 159 207 252 292
#     4  10  18  31  48  70  98 128 164 205 250 294
#     4  10  18  34  49  67  97 128 169 204 233 288
#     4   9  16  28  49  72  94 126 164 204 247 287
#     4   9  17  31  52  73  94 127 164 198 236 281
#     4  10  21  32  49  71  97 132 162 200 248 289
#     4   9  16  28  47  69  93 124 164 204 242 288
#
# _framework density 17.879481999999999
#
# number of rings (size 3 to 8) (size 9 to 14) (size 15 to 20)
#    0.000    2.250    0.000    7.875    0.000    0.000 
#    0.000    3.750    0.000    4.500    0.000    5.250 
#    0.000    0.000    0.000    0.000    0.000    0.000 
#
# Total GULP energy -396485.640056 kJ/mol
# GULP energy per Si atom -12390.176252 kJ/mol
# Density = 1.783879 g / cm^3
# Si number density = 17.879482 Si / 1000 Ang^3
#
#
#
# Elastic Constant Matrix: (Units=GPa)
#
#
# Indices 1 2 3 4 5 6 
#
# 1 135.3697 23.0852 34.0123 0.0000 10.1192 0.0000
# 2 23.0852 57.2889 18.5870 0.0000 4.2914 0.0000
# 3 34.0123 18.5870 69.9481 0.0000 4.9238 0.0000
# 4 0.0000 0.0000 0.0000 29.2333 0.0000 5.4996
# 5 10.1192 4.2914 4.9238 0.0000 16.0680 0.0000
# 6 0.0000 0.0000 0.0000 5.4996 0.0000 25.5022
#
#
#
# Elastic Compliance Matrix: (Units=1/GPa)
#
#
# Indices 1 2 3 4 5 6 
#
# 1 0.008930 -0.002170 -0.003486 0.000000 -0.003976 0.000000
# 2 -0.002170 0.019838 -0.004027 0.000000 -0.002698 0.000000
# 3 -0.003486 -0.004027 0.017202 0.000000 -0.002001 0.000000
# 4 0.000000 0.000000 0.000000 0.035654 0.000000 -0.007689
# 5 -0.003976 -0.002698 -0.002001 0.000000 0.066073 0.000000
# 6 0.000000 0.000000 0.000000 -0.007689 0.000000 0.040870
#
#
# Mechanical properties :
#
#
# Convention : Reuss Voigt Hill
#
# Bulk Modulus (GPa) = 37.58517 45.99729 41.79123
# Shear Modulus (GPa) = 23.06259 26.62221 24.84240
#
# Velocity S-wave (km/s) = 3.59540 3.86292 3.73156
# Velocity P-wave (km/s) = 6.18894 6.75857 6.48002
#
# Compressibility (1/GPa) = 0.02660624
#
# Stress axis : x y z
#
# Youngs Moduli (GPa) = 111.97862 50.40783 58.13242
#
# Poissons Ratio (x) = 0.10937 0.20264
# Poissons Ratio (y) = 0.24296 0.23407
# Poissons Ratio (z) = 0.39035 0.20297
#
# Static dielectric constant tensor:
#      x y z
#    x 3.731010 0.000000 0.154790 
#    y 0.000000 3.531880 0.000000 
#    z 0.154790 0.000000 3.262340 
# 
# 
# High freq. dielectric constant tensor:
#      x y z
#    x 1.699680 0.000000 0.020080 
#    y 0.000000 1.702480 0.000000 
#    z 0.020080 0.000000 1.641590 
# 
# From -- ./inp_files/48252.got.cif
#   From: 2010.06.25/outbox.cif.g09.slc.cpg/sg11_25_cif.got.tgz:48252.got - 2010.06.27 23:14:04.
