data_PCOD8069286
_publ_section_title
;
Structure prediction by ZEFSAII (Michael W. Deem and Ramdas Pophale) SiO2 
 PCOD8069286
Probable space group: P 21/M
;
_chemical_formula_sum "Si O2"
_cell_formula_units_Z 32
_cell_length_a 9.371637
_cell_length_b 19.852062
_cell_length_c 11.116166
_cell_angle_alpha 90.000000
_cell_angle_beta 114.931360
_cell_angle_gamma 90.000000
_cell_volume 1875.400591
_symmetry_space_group_name_H-M "P 21/M"
_symmetry_group_IT_number 11
_symmetry_cell_setting 'monoclinic'
loop_
_space_group_symop_operation_xyz
x,y,z
-x,1/2+y,-z
-x,-y,-z
x,1/2-y,z
loop_
_atom_site_type_symbol
_atom_site_label
_atom_site_fract_x
_atom_site_fract_y
_atom_site_fract_z
Si Si1 0.899453 0.567080 0.963654
Si Si2 0.615010 0.904894 0.392150
Si Si3 0.581109 0.447054 0.328147
Si Si4 0.564201 0.932920 0.963654
Si Si5 0.993216 0.173100 0.817790
Si Si6 0.752962 0.552946 0.671853
Si Si7 0.722860 0.404894 0.607850
Si Si8 0.675426 0.673100 0.182210
O O1 0.737976 0.552149 0.975953
O O2 0.863776 0.587283 0.811777
O O3 0.000000 0.500000 0.000000
O O4 0.995005 0.628141 0.057430
O O5 0.743841 0.902586 0.546766
O O6 0.438195 0.894278 0.376391
O O7 0.654242 0.845512 0.313913
O O8 0.640185 0.976106 0.332240
O O9 0.551999 0.412717 0.188223
O O10 0.424023 0.454019 0.348045
O O11 0.697075 0.402586 0.453234
O O12 0.562425 0.871859 0.057430
O O13 0.500000 0.000000 0.000000
O O14 0.979771 0.250000 0.855687
O O15 0.840329 0.154488 0.686087
O O16 0.143768 0.161325 0.787536
O O17 0.807945 0.476106 0.667760
O O18 0.624084 0.750000 0.144313
#
# Coordination Sequence:
#
# PCOD8069286 Si02
#       8
#     4   4   4   4   4   4   4   4
#     4  10  18  31  51  73  98 129 164 204 245 289
#     4   9  16  30  51  73  96 124 159 202 244 286
#     4   8  15  28  49  75  99 118 152 207 251 277
#     4  10  18  31  51  73  98 129 164 204 245 289
#     4  10  21  34  47  69 103 136 162 196 247 300
#     4   8  15  28  49  75  99 118 152 207 251 277
#     4   9  16  30  51  73  96 124 159 202 244 286
#     4  10  21  34  47  69 103 136 162 196 247 300
#
# _framework density 17.063019000000001
#
# number of rings (size 3 to 8) (size 9 to 14) (size 15 to 20)
#    0.000    2.750    2.500    1.500    0.000    0.500 
#    0.000    5.000    0.000    4.500    0.000    0.000 
#    0.000    0.000    0.000    0.000    0.000    0.000 
#
# Total GULP energy -396608.486421 kJ/mol
# GULP energy per Si atom -12394.015201 kJ/mol
# Density = 1.702418 g / cm^3
# Si number density = 17.063019 Si / 1000 Ang^3
#
#
#
# Elastic Constant Matrix: (Units=GPa)
#
#
# Indices 1 2 3 4 5 6 
#
# 1 33.6982 36.9120 40.7518 0.0000 -4.0422 0.0000
# 2 36.9120 105.8574 71.2547 0.0000 -2.5808 0.0000
# 3 40.7518 71.2547 152.5331 0.0000 -4.8880 0.0000
# 4 0.0000 0.0000 0.0000 28.3682 0.0000 -0.4103
# 5 -4.0422 -2.5808 -4.8880 0.0000 23.4319 0.0000
# 6 0.0000 0.0000 0.0000 -0.4103 0.0000 22.9086
#
#
#
# Elastic Compliance Matrix: (Units=1/GPa)
#
#
# Indices 1 2 3 4 5 6 
#
# 1 0.055239 -0.013580 -0.008212 0.000000 0.006321 0.000000
# 2 -0.013580 0.017119 -0.004413 0.000000 -0.001378 0.000000
# 3 -0.008212 -0.004413 0.010823 0.000000 0.000355 0.000000
# 4 0.000000 0.000000 0.000000 0.035260 0.000000 0.000631
# 5 0.006321 -0.001378 0.000355 0.000000 0.043690 0.000000
# 6 0.000000 0.000000 0.000000 0.000631 0.000000 0.043663
#
#
# Mechanical properties :
#
#
# Convention : Reuss Voigt Hill
#
# Bulk Modulus (GPa) = 32.49793 65.54732 49.02263
# Shear Modulus (GPa) = 18.62478 24.48640 21.55559
#
# Velocity S-wave (km/s) = 3.30741 3.79232 3.55814
# Velocity P-wave (km/s) = 5.80280 7.59433 6.75819
#
# Compressibility (1/GPa) = 0.03077119
#
# Stress axis : x y z
#
# Youngs Moduli (GPa) = 18.10314 58.41521 92.39837
#
# Poissons Ratio (x) = 0.79328 0.75875
# Poissons Ratio (y) = 0.24584 0.40775
# Poissons Ratio (z) = 0.14866 0.25778
#
# Static dielectric constant tensor:
#      x y z
#    x 2.922380 0.000000 -0.061580 
#    y 0.000000 2.992430 0.000000 
#    z -0.061580 0.000000 3.741770 
# 
# 
# High freq. dielectric constant tensor:
#      x y z
#    x 1.629800 0.000000 -0.003510 
#    y 0.000000 1.630810 0.000000 
#    z -0.003510 0.000000 1.676490 
# 
# From -- ./inp_files/32680.got.cif
#   From: 2010.06.25/outbox.cif.g09.slc.cpg/sg11_17_cif.got.tgz:32680.got - 2010.06.27 23:14:04.
