data_PCOD8069262
_publ_section_title
;
Structure prediction by ZEFSAII (Michael W. Deem and Ramdas Pophale) SiO2 
 PCOD8069262
Probable space group: P 21/M
;
_chemical_formula_sum "Si O2"
_cell_formula_units_Z 28
_cell_length_a 20.921199
_cell_length_b 8.564591
_cell_length_c 18.403178
_cell_angle_alpha 90.000000
_cell_angle_beta 27.304495
_cell_angle_gamma 90.000000
_cell_volume 1512.631037
_symmetry_space_group_name_H-M "P 21/M"
_symmetry_group_IT_number 11
_symmetry_cell_setting 'monoclinic'
loop_
_space_group_symop_operation_xyz
x,y,z
-x,1/2+y,-z
-x,-y,-z
x,1/2-y,z
loop_
_atom_site_type_symbol
_atom_site_label
_atom_site_fract_x
_atom_site_fract_y
_atom_site_fract_z
Si Si1 0.307289 0.933919 0.838890
Si Si2 0.653228 0.566878 0.346684
Si Si3 0.127326 0.567797 0.292182
Si Si4 0.377946 0.066845 0.463951
Si Si5 0.180937 0.432774 0.537513
Si Si6 0.171884 0.571940 0.401949
Si Si7 0.874222 0.567311 0.851363
O O1 0.295085 0.750000 0.861714
O O2 0.464031 0.999358 0.694928
O O3 0.259956 0.979355 0.804227
O O4 0.203106 0.018839 0.997833
O O5 0.500000 0.500000 0.500000
O O6 0.653505 0.750000 0.330113
O O7 0.705810 0.531193 0.375979
O O8 0.083380 0.750000 0.334538
O O9 0.224258 0.536206 0.265969
O O10 0.200365 0.519464 0.142407
O O11 0.993249 0.456967 0.432479
O O12 0.393426 0.250000 0.437880
O O13 0.290011 0.997113 0.485724
O O14 0.157650 0.250000 0.572715
O O15 0.241009 0.465488 0.395193
O O16 0.035267 0.519505 0.695496
O O17 0.202509 0.750000 0.391962
O O18 0.861549 0.750000 0.852360
#
# Coordination Sequence:
#
# PCOD8069262 Si02
#       7
#     4   4   4   4   4   4   4
#     4  10  19  34  53  73  96 125 161 200 241 284
#     4   9  16  30  50  73  97 123 159 200 237 278
#     4   9  16  27  44  65  91 125 160 194 234 278
#     4   8  17  32  52  74  96 123 158 197 235 281
#     4  10  18  31  50  72  98 129 159 191 237 286
#     4   9  16  26  42  67  95 122 156 197 235 274
#     4  11  21  32  47  72 101 127 158 198 240 283
#
# _framework density 18.510791999999999
#
# number of rings (size 3 to 8) (size 9 to 14) (size 15 to 20)
#    0.000    2.571    0.000    6.000    0.000    1.714 
#    0.000    9.286    0.000    0.857    0.000    0.000 
#    0.000    0.000    0.000    0.000    0.000    0.000 
#
# Total GULP energy -346870.122936 kJ/mol
# GULP energy per Si atom -12388.218676 kJ/mol
# Density = 1.846866 g / cm^3
# Si number density = 18.510792 Si / 1000 Ang^3
#
#
#
# Elastic Constant Matrix: (Units=GPa)
#
#
# Indices 1 2 3 4 5 6 
#
# 1 114.4924 21.4272 2.6071 0.0000 7.8331 0.0000
# 2 21.4272 64.2852 7.7201 0.0000 0.8035 0.0000
# 3 2.6071 7.7201 12.9134 0.0000 -0.9641 0.0000
# 4 0.0000 0.0000 0.0000 22.2076 0.0000 10.7069
# 5 7.8331 0.8035 -0.9641 0.0000 15.4066 0.0000
# 6 0.0000 0.0000 0.0000 10.7069 0.0000 26.4178
#
#
#
# Elastic Compliance Matrix: (Units=1/GPa)
#
#
# Indices 1 2 3 4 5 6 
#
# 1 0.009652 -0.003103 -0.000450 0.000000 -0.004774 0.000000
# 2 -0.003103 0.017792 -0.010008 0.000000 0.000024 0.000000
# 3 -0.000450 -0.010008 0.083961 0.000000 0.006005 0.000000
# 4 0.000000 0.000000 0.000000 0.055965 0.000000 -0.022682
# 5 -0.004774 0.000024 0.006005 0.000000 0.067709 0.000000
# 6 0.000000 0.000000 0.000000 -0.022682 0.000000 0.047046
#
#
# Mechanical properties :
#
#
# Convention : Reuss Voigt Hill
#
# Bulk Modulus (GPa) = 11.86489 28.35554 20.11021
# Shear Modulus (GPa) = 14.82176 23.46886 19.14531
#
# Velocity S-wave (km/s) = 2.83275 3.56455 3.21951
# Velocity P-wave (km/s) = 4.13799 5.68269 4.97071
#
# Compressibility (1/GPa) = 0.08428231
#
# Stress axis : x y z
#
# Youngs Moduli (GPa) = 103.60727 56.20601 11.91025
#
# Poissons Ratio (x) = 0.17443 0.00536
# Poissons Ratio (y) = 0.32154 0.11920
# Poissons Ratio (z) = 0.04659 0.56252
#
# Static dielectric constant tensor:
#      x y z
#    x 4.201510 0.000000 0.612540 
#    y 0.000000 3.374770 0.000000 
#    z 0.612540 0.000000 3.249780 
# 
# 
# High freq. dielectric constant tensor:
#      x y z
#    x 1.725760 0.000000 0.045620 
#    y 0.000000 1.719310 0.000000 
#    z 0.045620 0.000000 1.670500 
# 
# From -- ./inp_files/61256.got.cif
#   From: 2010.06.25/outbox.cif.g09.slc.cpg/sg11_31_cif.got.tgz:61256.got - 2010.06.27 23:14:04.
