data_PCOD8069959
_publ_section_title
;
Structure prediction by ZEFSAII (Michael W. Deem and Ramdas Pophale) SiO2 
 PCOD8069959
Probable space group: P 21/M
;
_chemical_formula_sum "Si O2"
_cell_formula_units_Z 32
_cell_length_a 22.686696
_cell_length_b 9.725372
_cell_length_c 14.248573
_cell_angle_alpha 90.000000
_cell_angle_beta 143.603077
_cell_angle_gamma 90.000000
_cell_volume 1865.428353
_symmetry_space_group_name_H-M "P 21/M"
_symmetry_group_IT_number 11
_symmetry_cell_setting 'monoclinic'
loop_
_space_group_symop_operation_xyz
x,y,z
-x,1/2+y,-z
-x,-y,-z
x,1/2-y,z
loop_
_atom_site_type_symbol
_atom_site_label
_atom_site_fract_x
_atom_site_fract_y
_atom_site_fract_z
Si Si1 0.894715 0.910104 0.265785
Si Si2 0.718136 0.593290 0.907360
Si Si3 0.499946 0.091006 0.406077
Si Si4 0.801412 0.590847 0.538337
Si Si5 0.207542 0.597950 0.151379
Si Si6 0.082287 0.090971 0.490388
Si Si7 0.310478 0.908020 0.469994
Si Si8 0.989110 0.903471 0.899115
O O1 0.918067 0.750000 0.277389
O O2 0.879194 0.939936 0.355846
O O3 0.792024 0.957619 0.084326
O O4 0.986637 0.997902 0.343643
O O5 0.743374 0.750000 0.915825
O O6 0.602218 0.574285 0.784645
O O7 0.731147 0.510534 0.828534
O O8 0.515410 0.250000 0.456113
O O9 0.586766 0.044041 0.446533
O O10 0.500000 0.000000 0.500000
O O11 0.772818 0.750000 0.516010
O O12 0.824558 0.557294 0.458829
O O13 0.712229 0.499324 0.466570
O O14 0.903242 0.548997 0.720001
O O15 0.250619 0.750000 0.185129
O O16 0.222480 0.567504 0.281437
O O17 0.092513 0.589770 0.975044
O O18 0.050049 0.250000 0.435832
O O19 0.316204 0.750000 0.510086
O O20 0.968712 0.750000 0.910524
O O21 0.000000 0.000000 0.000000
#
# Coordination Sequence:
#
# PCOD8069959 Si02
#       8
#     4   4   4   4   4   4   4   4
#     4   9  18  33  53  78 102 127 161 201 246 294
#     4  10  20  32  50  74  98 125 160 203 247 291
#     4  10  20  34  50  70  97 129 166 205 247 290
#     4  10  20  32  48  69  94 129 165 197 239 288
#     4  10  19  31  46  67  96 129 162 195 237 287
#     4   9  18  34  54  75 102 131 161 199 244 294
#     4  10  20  33  48  67  94 129 165 200 240 286
#     4  10  19  29  41  61  91 123 154 186 225 275
#
# _framework density 17.154237999999999
#
# number of rings (size 3 to 8) (size 9 to 14) (size 15 to 20)
#    0.000    2.250    2.500    0.750    0.000    3.500 
#    0.000    0.000    0.000    0.750    0.000    0.000 
#    0.000    0.000    0.000    0.000    0.000    0.000 
#
# Total GULP energy -396680.650537 kJ/mol
# GULP energy per Si atom -12396.270329 kJ/mol
# Density = 1.711519 g / cm^3
# Si number density = 17.154238 Si / 1000 Ang^3
#
#
#
# Elastic Constant Matrix: (Units=GPa)
#
#
# Indices 1 2 3 4 5 6 
#
# 1 121.4664 55.3270 33.3391 0.0000 8.3926 0.0000
# 2 55.3270 62.3980 27.1528 0.0000 2.0408 0.0000
# 3 33.3391 27.1528 67.5134 0.0000 8.7829 0.0000
# 4 0.0000 0.0000 0.0000 17.5722 0.0000 2.3621
# 5 8.3926 2.0408 8.7829 0.0000 21.0297 0.0000
# 6 0.0000 0.0000 0.0000 2.3621 0.0000 30.5354
#
#
#
# Elastic Compliance Matrix: (Units=1/GPa)
#
#
# Indices 1 2 3 4 5 6 
#
# 1 0.014395 -0.011833 -0.001852 0.000000 -0.003823 0.000000
# 2 -0.011833 0.029195 -0.006497 0.000000 0.004603 0.000000
# 3 -0.001852 -0.006497 0.019205 0.000000 -0.006651 0.000000
# 4 0.000000 0.000000 0.000000 0.057506 0.000000 -0.004448
# 5 -0.003823 0.004603 -0.006651 0.000000 0.051408 0.000000
# 6 0.000000 0.000000 0.000000 -0.004448 0.000000 0.033093
#
#
# Mechanical properties :
#
#
# Convention : Reuss Voigt Hill
#
# Bulk Modulus (GPa) = 44.58262 53.66839 49.12551
# Shear Modulus (GPa) = 19.79078 22.86472 21.32775
#
# Velocity S-wave (km/s) = 3.40030 3.65484 3.52986
# Velocity P-wave (km/s) = 6.43908 7.01172 6.73149
#
# Compressibility (1/GPa) = 0.02243027
#
# Stress axis : x y z
#
# Youngs Moduli (GPa) = 69.46901 34.25284 52.07014
#
# Poissons Ratio (x) = 0.40530 0.09644
# Poissons Ratio (y) = 0.82200 0.33831
# Poissons Ratio (z) = 0.12867 0.22255
#
# Static dielectric constant tensor:
#      x y z
#    x 3.180150 0.000000 0.074200 
#    y 0.000000 3.235780 0.000000 
#    z 0.074200 0.000000 3.310500 
# 
# 
# High freq. dielectric constant tensor:
#      x y z
#    x 1.650490 0.000000 0.008330 
#    y 0.000000 1.663800 0.000000 
#    z 0.008330 0.000000 1.645490 
# 
# From -- ./inp_files/54344.got.cif
#   From: 2010.06.25/outbox.cif.g09.slc.cpg/sg11_28_cif.got.tgz:54344.got - 2010.06.27 23:14:04.
