data_PCOD8069995
_publ_section_title
;
Structure prediction by ZEFSAII (Michael W. Deem and Ramdas Pophale) SiO2 
 PCOD8069995
Probable space group: P 21/M
;
_chemical_formula_sum "Si O2"
_cell_formula_units_Z 32
_cell_length_a 27.829499
_cell_length_b 8.886842
_cell_length_c 14.253296
_cell_angle_alpha 90.000000
_cell_angle_beta 30.128659
_cell_angle_gamma 90.000000
_cell_volume 1769.387337
_symmetry_space_group_name_H-M "P 21/M"
_symmetry_group_IT_number 11
_symmetry_cell_setting 'monoclinic'
loop_
_space_group_symop_operation_xyz
x,y,z
-x,1/2+y,-z
-x,-y,-z
x,1/2-y,z
loop_
_atom_site_type_symbol
_atom_site_label
_atom_site_fract_x
_atom_site_fract_y
_atom_site_fract_z
Si Si1 0.916806 0.927794 0.257363
Si Si2 0.696788 0.072960 0.309379
Si Si3 0.596582 0.579619 0.813025
Si Si4 0.128735 0.927891 0.856697
Si Si5 0.447399 0.078496 0.317913
Si Si6 0.362464 0.426658 0.968657
Si Si7 0.602632 0.927585 0.302689
Si Si8 0.235056 0.427498 0.346481
O O1 0.908250 0.750000 0.259270
O O2 0.867280 0.984398 0.439136
O O3 0.861097 0.999173 0.262926
O O4 0.027445 0.977848 0.073272
O O5 0.702059 0.250000 0.283492
O O6 0.788722 0.013525 0.212120
O O7 0.599504 0.031595 0.527337
O O8 0.687938 0.989904 0.224443
O O9 0.584802 0.750000 0.866498
O O10 0.615291 0.569025 0.670313
O O11 0.684700 0.504368 0.719132
O O12 0.500000 0.500000 0.000000
O O13 0.136642 0.750000 0.831146
O O14 0.450524 0.250000 0.350523
O O15 0.554313 0.018456 0.119093
O O16 0.382553 0.250000 0.946729
O O17 0.360640 0.472685 0.863016
O O18 0.262735 0.471317 0.191856
O O19 0.592046 0.750000 0.332376
O O20 0.500000 0.000000 0.500000
O O21 0.233549 0.250000 0.358565
#
# Coordination Sequence:
#
# PCOD8069995 Si02
#       8
#     4   4   4   4   4   4   4   4
#     4   9  17  33  57  80 105 135 169 211 254 308
#     4  11  22  35  52  73 102 138 172 213 263 311
#     4  10  19  29  43  67  98 132 165 198 239 293
#     4   9  19  34  53  80 107 134 170 211 260 308
#     4  11  21  31  47  73 101 132 172 211 251 301
#     4  10  20  34  51  70  98 134 168 207 256 306
#     4  11  22  35  53  76 101 133 176 219 264 309
#     4   9  17  31  51  72  98 134 171 203 248 308
#
# _framework density 18.085356000000001
#
# number of rings (size 3 to 8) (size 9 to 14) (size 15 to 20)
#    0.000    2.000    2.500    1.875    0.000    3.000 
#    0.000    1.250    0.000    0.750    0.000    0.000 
#    0.000    0.000    0.000    0.000    0.000    0.250 
#
# Total GULP energy -396589.025820 kJ/mol
# GULP energy per Si atom -12393.407057 kJ/mol
# Density = 1.804419 g / cm^3
# Si number density = 18.085356 Si / 1000 Ang^3
#
#
#
# Elastic Constant Matrix: (Units=GPa)
#
#
# Indices 1 2 3 4 5 6 
#
# 1 98.7005 25.0218 50.8237 0.0000 12.6422 0.0000
# 2 25.0218 41.7188 18.5749 0.0000 3.3052 0.0000
# 3 50.8237 18.5749 121.0807 0.0000 21.4153 0.0000
# 4 0.0000 0.0000 0.0000 17.9235 0.0000 0.4210
# 5 12.6422 3.3052 21.4153 0.0000 30.3411 0.0000
# 6 0.0000 0.0000 0.0000 0.4210 0.0000 25.3604
#
#
#
# Elastic Compliance Matrix: (Units=1/GPa)
#
#
# Indices 1 2 3 4 5 6 
#
# 1 0.014444 -0.006400 -0.004730 0.000000 -0.001982 0.000000
# 2 -0.006400 0.028563 -0.001847 0.000000 0.000859 0.000000
# 3 -0.004730 -0.001847 0.011591 0.000000 -0.006009 0.000000
# 4 0.000000 0.000000 0.000000 0.055814 0.000000 -0.000926
# 5 -0.001982 0.000859 -0.006009 0.000000 0.037932 0.000000
# 6 0.000000 0.000000 0.000000 -0.000926 0.000000 0.039447
#
#
# Mechanical properties :
#
#
# Convention : Reuss Voigt Hill
#
# Bulk Modulus (GPa) = 34.91354 50.03785 42.47570
# Shear Modulus (GPa) = 22.39208 25.86366 24.12787
#
# Velocity S-wave (km/s) = 3.52253 3.78575 3.65651
# Velocity P-wave (km/s) = 5.99091 6.84375 6.43148
#
# Compressibility (1/GPa) = 0.02864218
#
# Stress axis : x y z
#
# Youngs Moduli (GPa) = 69.23380 35.01045 86.27611
#
# Poissons Ratio (x) = 0.22406 0.40812
# Poissons Ratio (y) = 0.44308 0.15939
# Poissons Ratio (z) = 0.32750 0.06468
#
# Static dielectric constant tensor:
#      x y z
#    x 3.549570 0.000000 0.143940 
#    y 0.000000 3.354140 0.000000 
#    z 0.143940 0.000000 3.597220 
# 
# 
# High freq. dielectric constant tensor:
#      x y z
#    x 1.688920 0.000000 0.015380 
#    y 0.000000 1.687720 0.000000 
#    z 0.015380 0.000000 1.694500 
# 
# From -- ./inp_files/56165.got.cif
#   From: 2010.06.25/outbox.cif.g09.slc.cpg/sg11_29_cif.got.tgz:56165.got - 2010.06.27 23:14:04.
