data_PCOD8069326
_publ_section_title
;
Structure prediction by ZEFSAII (Michael W. Deem and Ramdas Pophale) SiO2 
 PCOD8069326
Probable space group: P 21/M
;
_chemical_formula_sum "Si O2"
_cell_formula_units_Z 28
_cell_length_a 12.235934
_cell_length_b 13.901804
_cell_length_c 9.125709
_cell_angle_alpha 90.000000
_cell_angle_beta 115.281512
_cell_angle_gamma 90.000000
_cell_volume 1403.618889
_symmetry_space_group_name_H-M "P 21/M"
_symmetry_group_IT_number 11
_symmetry_cell_setting 'monoclinic'
loop_
_space_group_symop_operation_xyz
x,y,z
-x,1/2+y,-z
-x,-y,-z
x,1/2-y,z
loop_
_atom_site_type_symbol
_atom_site_label
_atom_site_fract_x
_atom_site_fract_y
_atom_site_fract_z
Si Si1 0.925842 0.860970 0.045086
Si Si2 0.359865 0.137622 0.649231
Si Si3 0.845464 0.550468 0.287290
Si Si4 0.915963 0.360248 0.463048
Si Si5 0.579219 0.471405 0.681664
Si Si6 0.285211 0.357191 0.276517
Si Si7 0.183701 0.641191 0.271896
O O1 0.926577 0.750000 0.102177
O O2 0.855023 0.926164 0.121522
O O3 0.065707 0.894776 0.111518
O O4 0.855713 0.870264 0.850219
O O5 0.370662 0.250000 0.689550
O O6 0.284296 0.084593 0.730420
O O7 0.495283 0.092265 0.739227
O O8 0.296663 0.119258 0.455397
O O9 0.857876 0.434876 0.314163
O O10 0.944878 0.610506 0.435092
O O11 0.908642 0.250000 0.400110
O O12 0.843527 0.371465 0.572471
O O13 0.500000 0.500000 0.500000
O O14 0.628670 0.573387 0.772813
O O15 0.699649 0.417542 0.702543
O O16 0.330666 0.250000 0.268322
O O17 0.213622 0.750000 0.248603
#
# Coordination Sequence:
#
# PCOD8069326 Si02
#       7
#     4   4   4   4   4   4   4
#     4   9  18  34  55  76  98 130 170 209 253 307
#     4  10  19  32  52  78 105 133 168 210 251 295
#     4  10  18  31  52  75  99 132 169 208 255 298
#     4   9  17  29  48  74 102 131 168 211 251 297
#     4  10  19  31  48  72 101 133 168 205 246 293
#     4   9  19  34  51  74 102 132 170 210 250 299
#     4   9  17  31  51  74 100 131 167 207 251 300
#
# _framework density 19.948435
#
# number of rings (size 3 to 8) (size 9 to 14) (size 15 to 20)
#    0.000    2.571    0.000    4.286    0.000    1.143 
#    0.000    1.429    0.000    1.714    0.000    0.000 
#    0.000    0.000    0.000    0.000    0.000    0.000 
#
# Total GULP energy -347001.543250 kJ/mol
# GULP energy per Si atom -12392.912259 kJ/mol
# Density = 1.990303 g / cm^3
# Si number density = 19.948435 Si / 1000 Ang^3
#
#
#
# Elastic Constant Matrix: (Units=GPa)
#
#
# Indices 1 2 3 4 5 6 
#
# 1 143.5846 63.7104 24.7928 0.0000 15.7570 0.0000
# 2 63.7104 123.6789 17.2516 0.0000 9.0349 0.0000
# 3 24.7928 17.2516 41.5182 0.0000 15.9499 0.0000
# 4 0.0000 0.0000 0.0000 18.1635 0.0000 10.3577
# 5 15.7570 9.0349 15.9499 0.0000 19.8858 0.0000
# 6 0.0000 0.0000 0.0000 10.3577 0.0000 28.8167
#
#
#
# Elastic Compliance Matrix: (Units=1/GPa)
#
#
# Indices 1 2 3 4 5 6 
#
# 1 0.009768 -0.004402 -0.002600 0.000000 -0.003654 0.000000
# 2 -0.004402 0.010598 -0.001829 0.000000 0.000140 0.000000
# 3 -0.002600 -0.001829 0.036549 0.000000 -0.026425 0.000000
# 4 0.000000 0.000000 0.000000 0.069249 0.000000 -0.024891
# 5 -0.003654 0.000140 -0.026425 0.000000 0.074314 0.000000
# 6 0.000000 0.000000 0.000000 -0.024891 0.000000 0.043649
#
#
# Mechanical properties :
#
#
# Convention : Reuss Voigt Hill
#
# Bulk Modulus (GPa) = 25.47493 57.81013 41.64253
# Shear Modulus (GPa) = 18.19026 26.90834 22.54930
#
# Velocity S-wave (km/s) = 3.02298 3.67671 3.36576
# Velocity P-wave (km/s) = 4.99827 6.86054 6.00207
#
# Compressibility (1/GPa) = 0.03925428
#
# Stress axis : x y z
#
# Youngs Moduli (GPa) = 102.37802 94.35822 27.36016
#
# Poissons Ratio (x) = 0.41537 0.07113
# Poissons Ratio (y) = 0.45067 0.05003
# Poissons Ratio (z) = 0.26616 0.17254
#
# Static dielectric constant tensor:
#      x y z
#    x 3.597560 0.000000 0.397570 
#    y 0.000000 3.829990 0.000000 
#    z 0.397570 0.000000 3.263570 
# 
# 
# High freq. dielectric constant tensor:
#      x y z
#    x 1.769430 0.000000 0.018480 
#    y 0.000000 1.799550 0.000000 
#    z 0.018480 0.000000 1.735330 
# 
# From -- ./inp_files/17792.got.cif
#   From: 2010.06.25/outbox.cif.g09.slc.cpg/sg11_9_cif.got.tgz:17792.got - 2010.06.27 23:14:04.
