data_PCOD8069798
_publ_section_title
;
Structure prediction by ZEFSAII (Michael W. Deem and Ramdas Pophale) SiO2 
 PCOD8069798
Probable space group: P 21/M
;
_chemical_formula_sum "Si O2"
_cell_formula_units_Z 28
_cell_length_a 10.274577
_cell_length_b 13.364812
_cell_length_c 16.352408
_cell_angle_alpha 90.000000
_cell_angle_beta 37.659971
_cell_angle_gamma 90.000000
_cell_volume 1371.928028
_symmetry_space_group_name_H-M "P 21/M"
_symmetry_group_IT_number 11
_symmetry_cell_setting 'monoclinic'
loop_
_space_group_symop_operation_xyz
x,y,z
-x,1/2+y,-z
-x,-y,-z
x,1/2-y,z
loop_
_atom_site_type_symbol
_atom_site_label
_atom_site_fract_x
_atom_site_fract_y
_atom_site_fract_z
Si Si1 0.130979 0.365966 0.944651
Si Si2 0.740199 0.046198 0.219859
Si Si3 0.254227 0.139918 0.194033
Si Si4 0.280656 0.994756 0.449071
Si Si5 0.824678 0.450366 0.673359
Si Si6 0.430757 0.364171 0.940729
Si Si7 0.224340 0.638613 0.623115
O O1 0.176385 0.250000 0.901668
O O2 0.185947 0.432098 0.837292
O O3 0.281775 0.409329 0.942870
O O4 0.883741 0.378937 0.093795
O O5 0.768546 0.069923 0.300669
O O6 0.488711 0.060833 0.324769
O O7 0.341138 0.250000 0.178024
O O8 0.016224 0.152290 0.282428
O O9 0.263927 0.062688 0.264254
O O10 0.387023 0.090848 0.052529
O O11 0.206228 0.929920 0.407515
O O12 0.346455 0.919094 0.489237
O O13 0.073212 0.062569 0.575983
O O14 0.680890 0.373102 0.795458
O O15 0.360972 0.250000 0.982428
O O16 0.324578 0.750000 0.587491
#
# Coordination Sequence:
#
# PCOD8069798 Si02
#       7
#     4   4   4   4   4   4   4
#     4  10  21  36  60  89 114 147 194 244 291 342
#     4  11  20  37  61  86 118 148 193 242 293 338
#     4   9  18  34  59  85 109 144 192 238 284 341
#     4  10  22  36  55  82 116 156 190 230 282 342
#     4  10  20  37  56  83 118 150 188 233 285 337
#     4  10  18  34  59  85 110 145 194 238 282 338
#     4  10  20  36  60  87 114 151 198 238 281 342
#
# _framework density 20.409233
#
# number of rings (size 3 to 8) (size 9 to 14) (size 15 to 20)
#    0.000    2.000    2.857    1.286    0.000    1.143 
#    0.000    5.000    0.000    4.286    0.000    0.000 
#    0.000    0.000    0.000    0.000    0.000    0.000 
#
# Total GULP energy -347003.014637 kJ/mol
# GULP energy per Si atom -12392.964808 kJ/mol
# Density = 2.036278 g / cm^3
# Si number density = 20.409233 Si / 1000 Ang^3
#
#
#
# Elastic Constant Matrix: (Units=GPa)
#
#
# Indices 1 2 3 4 5 6 
#
# 1 51.1335 32.1581 35.4467 0.0000 12.1038 0.0000
# 2 32.1581 69.8914 24.9439 0.0000 10.5608 0.0000
# 3 35.4467 24.9439 111.4257 0.0000 -3.2458 0.0000
# 4 0.0000 0.0000 0.0000 19.9859 0.0000 -1.5800
# 5 12.1038 10.5608 -3.2458 0.0000 38.0430 0.0000
# 6 0.0000 0.0000 0.0000 -1.5800 0.0000 21.3718
#
#
#
# Elastic Compliance Matrix: (Units=1/GPa)
#
#
# Indices 1 2 3 4 5 6 
#
# 1 0.035041 -0.011680 -0.008785 0.000000 -0.008656 0.000000
# 2 -0.011680 0.020300 -0.000887 0.000000 -0.001995 0.000000
# 3 -0.008785 -0.000887 0.012086 0.000000 0.004072 0.000000
# 4 0.000000 0.000000 0.000000 0.050329 0.000000 0.003721
# 5 -0.008656 -0.001995 0.004072 0.000000 0.029941 0.000000
# 6 0.000000 0.000000 0.000000 0.003721 0.000000 0.047066
#
#
# Mechanical properties :
#
#
# Convention : Reuss Voigt Hill
#
# Bulk Modulus (GPa) = 40.44584 46.39422 43.42003
# Shear Modulus (GPa) = 20.34945 25.20694 22.77819
#
# Velocity S-wave (km/s) = 3.16107 3.51818 3.34439
# Velocity P-wave (km/s) = 5.76052 6.26775 6.01948
#
# Compressibility (1/GPa) = 0.02472442
#
# Stress axis : x y z
#
# Youngs Moduli (GPa) = 28.53834 49.26134 82.73806
#
# Poissons Ratio (x) = 0.57535 0.72682
# Poissons Ratio (y) = 0.33332 0.07339
# Poissons Ratio (z) = 0.25070 0.04369
#
# Static dielectric constant tensor:
#      x y z
#    x 3.628610 0.000000 0.026320 
#    y 0.000000 4.014480 0.000000 
#    z 0.026320 0.000000 4.008700 
# 
# 
# High freq. dielectric constant tensor:
#      x y z
#    x 1.773650 0.000000 0.001670 
#    y 0.000000 1.769010 0.000000 
#    z 0.001670 0.000000 1.819000 
# 
# From -- ./inp_files/47552.got.cif
#   From: 2010.06.25/outbox.cif.g09.slc.cpg/sg11_24_cif.got.tgz:47552.got - 2010.06.27 23:14:04.
