data_PCOD8069255
_publ_section_title
;
Structure prediction by ZEFSAII (Michael W. Deem and Ramdas Pophale) SiO2 
 PCOD8069255
Probable space group: P 21/M
;
_chemical_formula_sum "Si O2"
_cell_formula_units_Z 28
_cell_length_a 22.003126
_cell_length_b 8.703414
_cell_length_c 18.020462
_cell_angle_alpha 90.000000
_cell_angle_beta 152.501666
_cell_angle_gamma 90.000000
_cell_volume 1593.387074
_symmetry_space_group_name_H-M "P 21/M"
_symmetry_group_IT_number 11
_symmetry_cell_setting 'monoclinic'
loop_
_space_group_symop_operation_xyz
x,y,z
-x,1/2+y,-z
-x,-y,-z
x,1/2-y,z
loop_
_atom_site_type_symbol
_atom_site_label
_atom_site_fract_x
_atom_site_fract_y
_atom_site_fract_z
Si Si1 0.615005 0.578225 0.961185
Si Si2 0.372309 0.069263 0.323679
Si Si3 0.134247 0.069734 0.173902
Si Si4 0.564994 0.068527 0.756974
Si Si5 0.280057 0.565957 0.464687
Si Si6 0.641995 0.433849 0.137969
Si Si7 0.695829 0.420413 0.350513
O O1 0.670013 0.750000 0.009684
O O2 0.639235 0.482135 0.912505
O O3 0.461341 0.580946 0.811913
O O4 0.694005 0.500461 0.115909
O O5 0.391336 0.250000 0.334627
O O6 0.246583 0.028266 0.236870
O O7 0.500000 0.000000 0.500000
O O8 0.348280 0.991059 0.217862
O O9 0.119692 0.250000 0.170031
O O10 0.166475 0.992573 0.287773
O O11 0.000000 0.000000 0.000000
O O12 0.551057 0.250000 0.740005
O O13 0.420547 0.996694 0.590557
O O14 0.287800 0.750000 0.473789
O O15 0.247775 0.499700 0.513502
O O16 0.636349 0.250000 0.128253
O O17 0.729892 0.490048 0.305354
O O18 0.500000 0.500000 0.000000
O O19 0.753525 0.250000 0.412843
#
# Coordination Sequence:
#
# PCOD8069255 Si02
#       7
#     4   4   4   4   4   4   4
#     4   9  16  26  38  57  88 124 161 201 248 294
#     4  11  22  36  55  77 102 132 170 212 256 307
#     4  11  24  39  55  76 102 134 172 212 260 310
#     4  11  20  30  47  72  98 128 168 208 252 302
#     4  10  18  31  50  70  97 130 166 209 254 299
#     4   9  14  22  35  54  84 121 160 197 240 295
#     4   7  13  23  37  58  84 119 158 196 240 290
#
# _framework density 17.572628999999999
#
# number of rings (size 3 to 8) (size 9 to 14) (size 15 to 20)
#    0.000    2.286    1.429    5.143    0.000    1.714 
#    0.000    2.143    0.000    0.000    0.000    0.000 
#    0.000    1.143    0.000    3.429    0.000    6.429 
#
# Total GULP energy -346890.566725 kJ/mol
# GULP energy per Si atom -12388.948812 kJ/mol
# Density = 1.753263 g / cm^3
# Si number density = 17.572629 Si / 1000 Ang^3
#
#
#
# Elastic Constant Matrix: (Units=GPa)
#
#
# Indices 1 2 3 4 5 6 
#
# 1 116.1125 50.6468 70.6506 0.0000 -47.3184 0.0000
# 2 50.6468 100.8933 45.2351 0.0000 -15.2493 0.0000
# 3 70.6506 45.2351 86.0798 0.0000 -30.9420 0.0000
# 4 0.0000 0.0000 0.0000 21.4302 0.0000 -8.4471
# 5 -47.3184 -15.2493 -30.9420 0.0000 38.0685 0.0000
# 6 0.0000 0.0000 0.0000 -8.4471 0.0000 28.3471
#
#
#
# Elastic Compliance Matrix: (Units=1/GPa)
#
#
# Indices 1 2 3 4 5 6 
#
# 1 0.026580 -0.004946 -0.011377 0.000000 0.021810 0.000000
# 2 -0.004946 0.013893 -0.004875 0.000000 -0.004545 0.000000
# 3 -0.011377 -0.004875 0.025051 0.000000 0.004267 0.000000
# 4 0.000000 0.000000 0.000000 0.052874 0.000000 0.015756
# 5 0.021810 -0.004545 0.004267 0.000000 0.055026 0.000000
# 6 0.000000 0.000000 0.000000 0.015756 0.000000 0.039972
#
#
# Mechanical properties :
#
#
# Convention : Reuss Voigt Hill
#
# Bulk Modulus (GPa) = 43.23784 70.68343 56.96063
# Shear Modulus (GPa) = 18.97526 26.67270 22.82398
#
# Velocity S-wave (km/s) = 3.28963 3.90019 3.60785
# Velocity P-wave (km/s) = 6.25200 7.78415 7.05976
#
# Compressibility (1/GPa) = 0.02312789
#
# Stress axis : x y z
#
# Youngs Moduli (GPa) = 37.62166 71.97889 39.91894
#
# Poissons Ratio (x) = 0.35597 0.45417
# Poissons Ratio (y) = 0.18606 0.19462
# Poissons Ratio (z) = 0.42803 0.35092
#
# Static dielectric constant tensor:
#      x y z
#    x 4.487890 0.000000 -1.114660 
#    y 0.000000 3.387430 0.000000 
#    z -1.114660 0.000000 3.387080 
# 
# 
# High freq. dielectric constant tensor:
#      x y z
#    x 1.679450 0.000000 -0.057530 
#    y 0.000000 1.683700 0.000000 
#    z -0.057530 0.000000 1.630350 
# 
# From -- ./inp_files/61280.got.cif
#   From: 2010.06.25/outbox.cif.g09.slc.cpg/sg11_31_cif.got.tgz:61280.got - 2010.06.27 23:14:04.
