data_PCOD8069906
_publ_section_title
;
Structure prediction by ZEFSAII (Michael W. Deem and Ramdas Pophale) SiO2 
 PCOD8069906
Probable space group: P 21/M
;
_chemical_formula_sum "Si O2"
_cell_formula_units_Z 32
_cell_length_a 16.737183
_cell_length_b 22.373069
_cell_length_c 9.138339
_cell_angle_alpha 90.000000
_cell_angle_beta 153.118175
_cell_angle_gamma 90.000000
_cell_volume 1547.246297
_symmetry_space_group_name_H-M "P 21/M"
_symmetry_group_IT_number 11
_symmetry_cell_setting 'monoclinic'
loop_
_space_group_symop_operation_xyz
x,y,z
-x,1/2+y,-z
-x,-y,-z
x,1/2-y,z
loop_
_atom_site_type_symbol
_atom_site_label
_atom_site_fract_x
_atom_site_fract_y
_atom_site_fract_z
Si Si1 0.739373 0.819705 0.211868
Si Si2 0.177674 0.102827 0.377139
Si Si3 0.582924 0.528071 0.393273
Si Si4 0.920952 0.317572 0.418444
Si Si5 0.050582 0.501590 0.855193
Si Si6 0.081074 0.879147 0.291693
Si Si7 0.274946 0.915379 0.072093
Si Si8 0.403027 0.603240 0.606656
O O1 0.705191 0.750000 0.184099
O O2 0.810026 0.848457 0.476750
O O3 0.883959 0.831280 0.323171
O O4 0.560726 0.849762 0.865074
O O5 0.376055 0.077416 0.665987
O O6 0.055247 0.046393 0.214154
O O7 0.086136 0.133340 0.086727
O O8 0.444743 0.552823 0.283060
O O9 0.520077 0.463277 0.230694
O O10 0.770410 0.518728 0.775512
O O11 0.866024 0.250000 0.293905
O O12 0.917830 0.326940 0.587299
O O13 0.773635 0.358095 0.101495
O O14 0.933513 0.442080 0.640570
O O15 0.110322 0.537007 0.805268
O O16 0.261792 0.877418 0.496821
O O17 0.313202 0.895009 0.300452
#
# Coordination Sequence:
#
# PCOD8069906 Si02
#       8
#     4   4   4   4   4   4   4   4
#     4  11  27  45  62  89 124 169 222 262 300 370
#     4  11  20  43  68  92 130 166 201 252 323 378
#     4  10  21  36  66 104 131 155 200 263 317 384
#     4  11  27  46  61  88 125 168 223 263 299 367
#     4  10  18  39  66  97 129 160 201 249 320 389
#     4  11  22  39  69  96 126 164 202 262 317 375
#     4  11  23  41  67  95 128 172 201 256 321 376
#     4  11  22  41  66  97 129 161 204 258 322 374
#
# _framework density 20.681905
#
# number of rings (size 3 to 8) (size 9 to 14) (size 15 to 20)
#    0.000    1.250    5.000    2.250    7.000    3.500 
#    0.000    0.000    0.000    0.000    0.000    0.000 
#    0.000    0.000    0.000    0.000    0.000    0.000 
#
# Total GULP energy -396757.067559 kJ/mol
# GULP energy per Si atom -12398.658361 kJ/mol
# Density = 2.063483 g / cm^3
# Si number density = 20.681905 Si / 1000 Ang^3
#
#
#
# Elastic Constant Matrix: (Units=GPa)
#
#
# Indices 1 2 3 4 5 6 
#
# 1 141.6065 50.4795 38.6655 0.0000 15.5053 0.0000
# 2 50.4795 101.2686 43.3273 0.0000 5.5145 0.0000
# 3 38.6655 43.3273 64.9792 0.0000 6.3073 0.0000
# 4 0.0000 0.0000 0.0000 27.7662 0.0000 2.7858
# 5 15.5053 5.5145 6.3073 0.0000 24.1959 0.0000
# 6 0.0000 0.0000 0.0000 2.7858 0.0000 29.0182
#
#
#
# Elastic Compliance Matrix: (Units=1/GPa)
#
#
# Indices 1 2 3 4 5 6 
#
# 1 0.009547 -0.003175 -0.003119 0.000000 -0.004581 0.000000
# 2 -0.003175 0.014886 -0.008110 0.000000 0.000756 0.000000
# 3 -0.003119 -0.008110 0.022858 0.000000 -0.002111 0.000000
# 4 0.000000 0.000000 0.000000 0.036365 0.000000 -0.003491
# 5 -0.004581 0.000756 -0.002111 0.000000 0.044643 0.000000
# 6 0.000000 0.000000 0.000000 -0.003491 0.000000 0.034796
#
#
# Mechanical properties :
#
#
# Convention : Reuss Voigt Hill
#
# Bulk Modulus (GPa) = 54.10381 63.64433 58.87407
# Shear Modulus (GPa) = 25.24427 27.88820 26.56624
#
# Velocity S-wave (km/s) = 3.49749 3.67609 3.58790
# Velocity P-wave (km/s) = 6.52125 6.98984 6.75961
#
# Compressibility (1/GPa) = 0.01848299
#
# Stress axis : x y z
#
# Youngs Moduli (GPa) = 104.74605 67.17742 43.74808
#
# Poissons Ratio (x) = 0.21328 0.13646
# Poissons Ratio (y) = 0.33255 0.35480
# Poissons Ratio (z) = 0.32672 0.54481
#
# Static dielectric constant tensor:
#      x y z
#    x 4.013730 0.000000 0.223720 
#    y 0.000000 3.888750 0.000000 
#    z 0.223720 0.000000 3.534140 
# 
# 
# High freq. dielectric constant tensor:
#      x y z
#    x 1.825420 0.000000 0.014890 
#    y 0.000000 1.800310 0.000000 
#    z 0.014890 0.000000 1.796390 
# 
# From -- ./inp_files/23399.got.cif
#   From: 2010.06.25/outbox.cif.g09.slc.cpg/sg11_12_cif.got.tgz:23399.got - 2010.06.27 23:14:04.
