data_PCOD8069482
_publ_section_title
;
Structure prediction by ZEFSAII (Michael W. Deem and Ramdas Pophale) SiO2 
 PCOD8069482
Probable space group: P 21/M
;
_chemical_formula_sum "Si O2"
_cell_formula_units_Z 28
_cell_length_a 11.842135
_cell_length_b 15.895842
_cell_length_c 7.956879
_cell_angle_alpha 90.000000
_cell_angle_beta 122.573864
_cell_angle_gamma 90.000000
_cell_volume 1262.200362
_symmetry_space_group_name_H-M "P 21/M"
_symmetry_group_IT_number 11
_symmetry_cell_setting 'monoclinic'
loop_
_space_group_symop_operation_xyz
x,y,z
-x,1/2+y,-z
-x,-y,-z
x,1/2-y,z
loop_
_atom_site_type_symbol
_atom_site_label
_atom_site_fract_x
_atom_site_fract_y
_atom_site_fract_z
Si Si1 0.554188 0.847757 0.281584
Si Si2 0.291086 0.598709 0.222545
Si Si3 0.954029 0.346915 0.187011
Si Si4 0.213018 0.445675 0.367585
Si Si5 0.793641 0.444997 0.309544
Si Si6 0.394219 0.061924 0.993470
Si Si7 0.584843 0.344969 0.337999
O O1 0.531432 0.750000 0.305744
O O2 0.413802 0.899634 0.188093
O O3 0.659741 0.886878 0.496541
O O4 0.613126 0.858922 0.141831
O O5 0.249977 0.503987 0.238378
O O6 0.343617 0.648459 0.426862
O O7 0.164478 0.646872 0.043719
O O8 0.982615 0.250000 0.252057
O O9 0.919207 0.394733 0.334137
O O10 0.087516 0.387930 0.216533
O O11 0.171911 0.503032 0.495193
O O12 0.745806 0.509824 0.120758
O O13 0.681116 0.376060 0.265111
O O14 0.447275 0.098385 0.215065
O O15 0.500000 0.000000 0.000000
O O16 0.545093 0.250000 0.269483
#
# Coordination Sequence:
#
# PCOD8069482 Si02
#       7
#     4   4   4   4   4   4   4
#     4  11  21  37  60  89 115 146 192 243 283 330
#     4  11  23  37  56  84 117 154 193 229 276 342
#     4  12  23  39  61  87 113 148 193 240 282 332
#     4  10  23  41  60  83 117 153 187 232 290 343
#     4   9  20  36  57  82 109 147 191 231 280 346
#     4   9  18  32  52  81 115 146 183 231 284 335
#     4  10  18  32  52  82 116 148 184 234 284 330
#
# _framework density 22.183482000000001
#
# number of rings (size 3 to 8) (size 9 to 14) (size 15 to 20)
#    0.000    1.714    0.000    6.429    0.000    1.143 
#    0.000    0.000    0.000    0.000    0.000   10.000 
#    0.000    0.000    0.000    0.000    0.000    0.000 
#
# Total GULP energy -347067.423380 kJ/mol
# GULP energy per Si atom -12395.265121 kJ/mol
# Density = 2.213299 g / cm^3
# Si number density = 22.183482 Si / 1000 Ang^3
#
#
#
# Elastic Constant Matrix: (Units=GPa)
#
#
# Indices 1 2 3 4 5 6 
#
# 1 65.3725 48.2515 13.5869 0.0000 12.6864 0.0000
# 2 48.2515 138.2108 24.0082 0.0000 9.0200 0.0000
# 3 13.5869 24.0082 73.6637 0.0000 6.6696 0.0000
# 4 0.0000 0.0000 0.0000 29.3599 0.0000 5.0683
# 5 12.6864 9.0200 6.6696 0.0000 29.8525 0.0000
# 6 0.0000 0.0000 0.0000 5.0683 0.0000 31.6905
#
#
#
# Elastic Compliance Matrix: (Units=1/GPa)
#
#
# Indices 1 2 3 4 5 6 
#
# 1 0.022106 -0.007062 -0.001141 0.000000 -0.007006 0.000000
# 2 -0.007062 0.010021 -0.002002 0.000000 0.000421 0.000000
# 3 -0.001141 -0.002002 0.014635 0.000000 -0.002180 0.000000
# 4 0.000000 0.000000 0.000000 0.035027 0.000000 -0.005602
# 5 -0.007006 0.000421 -0.002180 0.000000 0.036835 0.000000
# 6 0.000000 0.000000 0.000000 -0.005602 0.000000 0.032451
#
#
# Mechanical properties :
#
#
# Convention : Reuss Voigt Hill
#
# Bulk Modulus (GPa) = 37.94692 49.88226 43.91459
# Shear Modulus (GPa) = 27.73606 30.94060 29.33833
#
# Velocity S-wave (km/s) = 3.53980 3.73870 3.64061
# Velocity P-wave (km/s) = 5.81807 6.41656 6.12463
#
# Compressibility (1/GPa) = 0.02635260
#
# Stress axis : x y z
#
# Youngs Moduli (GPa) = 45.23590 99.78964 68.32729
#
# Poissons Ratio (x) = 0.70473 0.07799
# Poissons Ratio (y) = 0.31946 0.13676
# Poissons Ratio (z) = 0.05163 0.19973
#
# Static dielectric constant tensor:
#      x y z
#    x 3.851110 0.000000 -0.134400 
#    y 0.000000 4.067330 0.000000 
#    z -0.134400 0.000000 4.609750 
# 
# 
# High freq. dielectric constant tensor:
#      x y z
#    x 1.844730 0.000000 -0.001990 
#    y 0.000000 1.881970 0.000000 
#    z -0.001990 0.000000 1.877760 
# 
# From -- ./inp_files/18138.got.cif
#   From: 2010.06.25/outbox.cif.g09.slc.cpg/sg11_10_cif.got.tgz:18138.got - 2010.06.27 23:14:04.
