data_PCOD8069070
_publ_section_title
;
Structure prediction by ZEFSAII (Michael W. Deem and Ramdas Pophale) SiO2 
 PCOD8069070
Probable space group: P 21/M
;
_chemical_formula_sum "Si O2"
_cell_formula_units_Z 32
_cell_length_a 17.380307
_cell_length_b 8.697719
_cell_length_c 23.395501
_cell_angle_alpha 90.000000
_cell_angle_beta 31.872703
_cell_angle_gamma 90.000000
_cell_volume 1867.484017
_symmetry_space_group_name_H-M "P 21/M"
_symmetry_group_IT_number 11
_symmetry_cell_setting 'monoclinic'
loop_
_space_group_symop_operation_xyz
x,y,z
-x,1/2+y,-z
-x,-y,-z
x,1/2-y,z
loop_
_atom_site_type_symbol
_atom_site_label
_atom_site_fract_x
_atom_site_fract_y
_atom_site_fract_z
Si Si1 0.844369 0.931750 0.806817
Si Si2 0.435785 0.429363 0.483146
Si Si3 0.611678 0.430563 0.884955
Si Si4 0.928105 0.070289 0.158032
Si Si5 0.631353 0.930266 0.041563
Si Si6 0.662387 0.568615 0.260493
Si Si7 0.755772 0.568070 0.079298
Si Si8 0.100823 0.070145 0.703503
O O1 0.865172 0.750000 0.792174
O O2 0.767892 0.986853 0.795558
O O3 0.743557 0.992035 0.922836
O O4 0.000580 0.014972 0.713906
O O5 0.500000 0.500000 0.500000
O O6 0.464956 0.250000 0.468020
O O7 0.514525 0.496139 0.377645
O O8 0.266535 0.469735 0.583392
O O9 0.629268 0.250000 0.884097
O O10 0.537492 0.464362 0.869600
O O11 0.500000 0.500000 0.000000
O O12 0.892677 0.250000 0.174275
O O13 0.795973 0.971434 0.217330
O O14 0.950735 0.028688 0.209755
O O15 0.074208 0.024041 0.031973
O O16 0.659607 0.750000 0.027176
O O17 0.667253 0.003220 0.081036
O O18 0.644247 0.750000 0.270858
O O19 0.691278 0.500307 0.178879
O O20 0.738550 0.750000 0.090506
O O21 0.080862 0.250000 0.728616
#
# Coordination Sequence:
#
# PCOD8069070 Si02
#       8
#     4   4   4   4   4   4   4   4
#     4  10  18  30  49  71 101 134 164 200 249 306
#     4  11  23  38  55  72  97 129 168 215 260 302
#     4   9  16  26  44  69 100 134 168 203 243 295
#     4  11  20  33  53  72 100 136 169 206 252 299
#     4   8  14  27  46  69  98 133 165 194 239 293
#     4  11  22  35  52  73 100 132 173 214 249 297
#     4   9  18  32  50  74 102 135 171 207 246 296
#     4  11  22  34  51  75  99 127 168 213 255 299
#
# _framework density 17.135354
#
# number of rings (size 3 to 8) (size 9 to 14) (size 15 to 20)
#    0.000    2.000    2.500    3.375    0.000    1.500 
#    0.000    1.875    0.000    0.000    0.000    0.875 
#    0.000    0.000    0.000    0.000    0.000    0.000 
#
# Total GULP energy -396696.174097 kJ/mol
# GULP energy per Si atom -12396.755441 kJ/mol
# Density = 1.709635 g / cm^3
# Si number density = 17.135354 Si / 1000 Ang^3
#
#
#
# Elastic Constant Matrix: (Units=GPa)
#
#
# Indices 1 2 3 4 5 6 
#
# 1 86.6661 26.7060 40.9236 0.0000 -27.1259 0.0000
# 2 26.7060 58.1616 38.5855 0.0000 -8.7237 0.0000
# 3 40.9236 38.5855 100.2601 0.0000 -8.4357 0.0000
# 4 0.0000 0.0000 0.0000 22.6274 0.0000 -4.5318
# 5 -27.1259 -8.7237 -8.4357 0.0000 25.6753 0.0000
# 6 0.0000 0.0000 0.0000 -4.5318 0.0000 22.5940
#
#
#
# Elastic Compliance Matrix: (Units=1/GPa)
#
#
# Indices 1 2 3 4 5 6 
#
# 1 0.021409 -0.002929 -0.005957 0.000000 0.019667 0.000000
# 2 -0.002929 0.024148 -0.007886 0.000000 0.002519 0.000000
# 3 -0.005957 -0.007886 0.015103 0.000000 -0.004011 0.000000
# 4 0.000000 0.000000 0.000000 0.046044 0.000000 0.009235
# 5 0.019667 0.002519 -0.004011 0.000000 0.059264 0.000000
# 6 0.000000 0.000000 0.000000 0.009235 0.000000 0.046112
#
#
# Mechanical properties :
#
#
# Convention : Reuss Voigt Hill
#
# Bulk Modulus (GPa) = 36.87727 50.83534 43.85631
# Shear Modulus (GPa) = 19.63384 23.43754 21.53569
#
# Velocity S-wave (km/s) = 3.38865 3.70237 3.54898
# Velocity P-wave (km/s) = 6.07277 6.92879 6.51485
#
# Compressibility (1/GPa) = 0.02711698
#
# Stress axis : x y z
#
# Youngs Moduli (GPa) = 46.70835 41.41150 66.21199
#
# Poissons Ratio (x) = 0.12129 0.39442
# Poissons Ratio (y) = 0.13680 0.52214
# Poissons Ratio (z) = 0.27824 0.32657
#
# Static dielectric constant tensor:
#      x y z
#    x 3.656420 0.000000 -0.095630 
#    y 0.000000 3.138480 0.000000 
#    z -0.095630 0.000000 3.149020 
# 
# 
# High freq. dielectric constant tensor:
#      x y z
#    x 1.665190 0.000000 -0.020660 
#    y 0.000000 1.656540 0.000000 
#    z -0.020660 0.000000 1.628020 
# 
# From -- ./inp_files/67005.got.cif
#   From: 2010.06.25/outbox.cif.g09.slc.cpg/sg11_34_cif.got.tgz:67005.got - 2010.06.27 23:14:04.
