data_PCOD8069979
_publ_section_title
;
Structure prediction by ZEFSAII (Michael W. Deem and Ramdas Pophale) SiO2 
 PCOD8069979
Probable space group: P 21/M
;
_chemical_formula_sum "Si O2"
_cell_formula_units_Z 28
_cell_length_a 12.004498
_cell_length_b 9.181747
_cell_length_c 22.222176
_cell_angle_alpha 90.000000
_cell_angle_beta 44.660272
_cell_angle_gamma 90.000000
_cell_volume 1721.672281
_symmetry_space_group_name_H-M "P 21/M"
_symmetry_group_IT_number 11
_symmetry_cell_setting 'monoclinic'
loop_
_space_group_symop_operation_xyz
x,y,z
-x,1/2+y,-z
-x,-y,-z
x,1/2-y,z
loop_
_atom_site_type_symbol
_atom_site_label
_atom_site_fract_x
_atom_site_fract_y
_atom_site_fract_z
Si Si1 0.163454 0.418114 0.264643
Si Si2 0.288128 0.911703 0.041281
Si Si3 0.350942 0.084413 0.624265
Si Si4 0.051868 0.919196 0.539689
Si Si5 0.996833 0.919293 0.223211
Si Si6 0.341312 0.081597 0.487392
Si Si7 0.446798 0.912889 0.110675
O O1 0.188734 0.250000 0.238378
O O2 0.334910 0.495879 0.198421
O O3 0.089471 0.439490 0.358556
O O4 0.043404 0.485425 0.262614
O O5 0.296487 0.750000 0.010411
O O6 0.370664 0.914824 0.074350
O O7 0.105214 0.959812 0.123340
O O8 0.376778 0.018298 0.960816
O O9 0.408729 0.250000 0.611922
O O10 0.186893 0.052754 0.722678
O O11 0.314918 0.056585 0.568075
O O12 0.484194 0.975901 0.598005
O O13 0.083670 0.750000 0.514233
O O14 0.213254 0.989403 0.500970
O O15 0.000000 0.000000 0.500000
O O16 0.025329 0.750000 0.229800
O O17 0.327210 0.250000 0.474423
O O18 0.463663 0.750000 0.129573
#
# Coordination Sequence:
#
# PCOD8069979 Si02
#       7
#     4   4   4   4   4   4   4
#     4  10  19  29  43  62  84 112 149 188 225 267
#     4   8  14  23  36  56  83 113 146 179 214 256
#     4   9  17  29  46  67  93 121 152 187 224 271
#     4  11  23  36  50  67  89 118 154 195 235 274
#     4   9  16  27  43  63  88 120 151 182 220 264
#     4  10  19  31  48  67  90 119 152 190 230 270
#     4   9  16  25  38  55  80 114 147 178 217 263
#
# _framework density 16.263258
#
# number of rings (size 3 to 8) (size 9 to 14) (size 15 to 20)
#    0.000    2.571    1.429    2.571    0.000    6.286 
#    0.000    0.000    0.000    0.000    0.000    0.000 
#    0.000    1.143    0.000    3.429    0.000    4.857 
#
# Total GULP energy -347124.375973 kJ/mol
# GULP energy per Si atom -12397.299142 kJ/mol
# Density = 1.622624 g / cm^3
# Si number density = 16.263258 Si / 1000 Ang^3
#
#
#
# Elastic Constant Matrix: (Units=GPa)
#
#
# Indices 1 2 3 4 5 6 
#
# 1 57.3858 49.1250 45.6546 0.0000 -16.2455 0.0000
# 2 49.1250 128.1960 65.2963 0.0000 -15.0176 0.0000
# 3 45.6546 65.2963 97.7011 0.0000 -33.5314 0.0000
# 4 0.0000 0.0000 0.0000 25.9717 0.0000 -6.2434
# 5 -16.2455 -15.0176 -33.5314 0.0000 26.2705 0.0000
# 6 0.0000 0.0000 0.0000 -6.2434 0.0000 23.3874
#
#
#
# Elastic Compliance Matrix: (Units=1/GPa)
#
#
# Indices 1 2 3 4 5 6 
#
# 1 0.031635 -0.007395 -0.008145 0.000000 0.004939 0.000000
# 2 -0.007395 0.014097 -0.008487 0.000000 -0.007348 0.000000
# 3 -0.008145 -0.008487 0.029042 0.000000 0.027180 0.000000
# 4 0.000000 0.000000 0.000000 0.041144 0.000000 0.010984
# 5 0.004939 -0.007348 0.027180 0.000000 0.071612 0.000000
# 6 0.000000 0.000000 0.000000 0.010984 0.000000 0.045690
#
#
# Mechanical properties :
#
#
# Convention : Reuss Voigt Hill
#
# Bulk Modulus (GPa) = 37.42742 67.04828 52.23785
# Shear Modulus (GPa) = 17.23064 23.33972 20.28518
#
# Velocity S-wave (km/s) = 3.25850 3.79241 3.53555
# Velocity P-wave (km/s) = 6.10086 7.77771 6.98976
#
# Compressibility (1/GPa) = 0.02671838
#
# Stress axis : x y z
#
# Youngs Moduli (GPa) = 31.61080 70.93899 34.43280
#
# Poissons Ratio (x) = 0.52461 0.28046
# Poissons Ratio (y) = 0.23377 0.29224
# Poissons Ratio (z) = 0.25747 0.60208
#
# Static dielectric constant tensor:
#      x y z
#    x 2.699440 0.000000 -0.395270 
#    y 0.000000 3.264830 0.000000 
#    z -0.395270 0.000000 3.255610 
# 
# 
# High freq. dielectric constant tensor:
#      x y z
#    x 1.568970 0.000000 -0.041760 
#    y 0.000000 1.639690 0.000000 
#    z -0.041760 0.000000 1.622570 
# 
# From -- ./inp_files/64149.got.cif
#   From: 2010.06.25/outbox.cif.g09.slc.cpg/sg11_33_cif.got.tgz:64149.got - 2010.06.27 23:14:04.
