data_PCOD8069114
_publ_section_title
;
Structure prediction by ZEFSAII (Michael W. Deem and Ramdas Pophale) SiO2 
 PCOD8069114
Probable space group: P 21/M
;
_chemical_formula_sum "Si O2"
_cell_formula_units_Z 32
_cell_length_a 14.896222
_cell_length_b 9.106197
_cell_length_c 14.895971
_cell_angle_alpha 90.000000
_cell_angle_beta 78.682963
_cell_angle_gamma 90.000000
_cell_volume 1981.319675
_symmetry_space_group_name_H-M "P 21/M"
_symmetry_group_IT_number 11
_symmetry_cell_setting 'monoclinic'
loop_
_space_group_symop_operation_xyz
x,y,z
-x,1/2+y,-z
-x,-y,-z
x,1/2-y,z
loop_
_atom_site_type_symbol
_atom_site_label
_atom_site_fract_x
_atom_site_fract_y
_atom_site_fract_z
Si Si1 0.941100 0.420462 0.383643
Si Si2 0.245640 0.417213 0.262965
Si Si3 0.381705 0.920394 0.942220
Si Si4 0.586704 0.918889 0.882403
Si Si5 0.208225 0.421829 0.922906
Si Si6 0.074143 0.076742 0.790225
Si Si7 0.888464 0.580058 0.875441
Si Si8 0.120779 0.919881 0.409789
O O1 0.953469 0.250000 0.357766
O O2 0.894440 0.502935 0.309483
O O3 0.877892 0.444653 0.483370
O O4 0.041721 0.485241 0.379290
O O5 0.234304 0.250000 0.297917
O O6 0.351169 0.451813 0.217095
O O7 0.185274 0.448269 0.187134
O O8 0.216605 0.524053 0.350126
O O9 0.358736 0.750000 0.950801
O O10 0.481152 0.951095 0.878460
O O11 0.305808 0.998242 0.895979
O O12 0.379159 0.980639 0.043486
O O13 0.600169 0.750000 0.910554
O O14 0.227411 0.250000 0.922408
O O15 0.149307 0.468023 0.848534
O O16 0.154793 0.472804 0.022418
O O17 0.067705 0.250000 0.778467
O O18 0.976274 0.018474 0.840321
O O19 0.918253 0.750000 0.874127
O O20 0.104355 0.750000 0.389589
#
# Coordination Sequence:
#
# PCOD8069114 Si02
#       8
#     4   4   4   4   4   4   4   4
#     4  10  20  34  49  67  94 127 156 194 244 283
#     4  10  18  30  50  71  96 131 158 187 237 287
#     4  10  19  30  49  73  93 123 164 201 234 275
#     4   9  18  33  49  68  98 128 156 193 241 288
#     4  10  21  36  49  65  96 133 164 197 240 279
#     4  11  22  33  49  70  93 127 167 204 234 272
#     4  10  19  32  48  66  95 134 165 192 231 277
#     4  10  20  32  49  71  95 121 157 199 236 282
#
# _framework density 16.150850999999999
#
# number of rings (size 3 to 8) (size 9 to 14) (size 15 to 20)
#    0.000    2.000    2.500    1.875    0.000    4.000 
#    0.000    0.000    0.000    0.000    0.000    0.875 
#    0.000    0.000    0.000    0.000    0.000    0.000 
#
# Total GULP energy -396863.533826 kJ/mol
# GULP energy per Si atom -12401.985432 kJ/mol
# Density = 1.611409 g / cm^3
# Si number density = 16.150851 Si / 1000 Ang^3
#
#
#
# Elastic Constant Matrix: (Units=GPa)
#
#
# Indices 1 2 3 4 5 6 
#
# 1 81.1187 41.8054 51.4693 0.0000 -8.8153 0.0000
# 2 41.8054 72.4036 47.8917 0.0000 -4.0493 0.0000
# 3 51.4693 47.8917 105.3072 0.0000 -9.0002 0.0000
# 4 0.0000 0.0000 0.0000 26.9844 0.0000 -1.4349
# 5 -8.8153 -4.0493 -9.0002 0.0000 21.8651 0.0000
# 6 0.0000 0.0000 0.0000 -1.4349 0.0000 26.6121
#
#
#
# Elastic Compliance Matrix: (Units=1/GPa)
#
#
# Indices 1 2 3 4 5 6 
#
# 1 0.020685 -0.007521 -0.006318 0.000000 0.004346 0.000000
# 2 -0.007521 0.022489 -0.006690 0.000000 -0.001621 0.000000
# 3 -0.006318 -0.006690 0.015861 0.000000 0.002743 0.000000
# 4 0.000000 0.000000 0.000000 0.037165 0.000000 0.002004
# 5 0.004346 -0.001621 0.002743 0.000000 0.048316 0.000000
# 6 0.000000 0.000000 0.000000 0.002004 0.000000 0.037685
#
#
# Mechanical properties :
#
#
# Convention : Reuss Voigt Hill
#
# Bulk Modulus (GPa) = 55.62930 60.12913 57.87921
# Shear Modulus (GPa) = 21.81032 22.93653 22.37343
#
# Velocity S-wave (km/s) = 3.67878 3.77257 3.72597
# Velocity P-wave (km/s) = 7.25003 7.50246 7.37732
#
# Compressibility (1/GPa) = 0.01797614
#
# Stress axis : x y z
#
# Youngs Moduli (GPa) = 48.34515 44.46704 63.04894
#
# Poissons Ratio (x) = 0.33445 0.39833
# Poissons Ratio (y) = 0.36361 0.42179
# Poissons Ratio (z) = 0.30543 0.29748
#
# Static dielectric constant tensor:
#      x y z
#    x 3.060710 0.000000 -0.120400 
#    y 0.000000 3.126150 0.000000 
#    z -0.120400 0.000000 3.108770 
# 
# 
# High freq. dielectric constant tensor:
#      x y z
#    x 1.601010 0.000000 -0.013750 
#    y 0.000000 1.631150 0.000000 
#    z -0.013750 0.000000 1.609040 
# 
# From -- ./inp_files/51199.got.cif
#   From: 2010.06.25/outbox.cif.g09.slc.cpg/sg11_26_cif.got.tgz:51199.got - 2010.06.27 23:14:04.
