data_PCOD8069010
_publ_section_title
;
Structure prediction by ZEFSAII (Michael W. Deem and Ramdas Pophale) SiO2 
 PCOD8069010
Probable space group: P 21/M
;
_chemical_formula_sum "Si O2"
_cell_formula_units_Z 32
_cell_length_a 21.432573
_cell_length_b 8.806340
_cell_length_c 30.702593
_cell_angle_alpha 90.000000
_cell_angle_beta 19.274972
_cell_angle_gamma 90.000000
_cell_volume 1912.903620
_symmetry_space_group_name_H-M "P 21/M"
_symmetry_group_IT_number 11
_symmetry_cell_setting 'monoclinic'
loop_
_space_group_symop_operation_xyz
x,y,z
-x,1/2+y,-z
-x,-y,-z
x,1/2-y,z
loop_
_atom_site_type_symbol
_atom_site_label
_atom_site_fract_x
_atom_site_fract_y
_atom_site_fract_z
Si Si1 0.326527 0.071301 0.490091
Si Si2 0.371004 0.570848 0.122000
Si Si3 0.706105 0.574277 0.211398
Si Si4 0.949739 0.570241 0.711689
Si Si5 0.050386 0.427167 0.127940
Si Si6 0.290249 0.071803 0.048631
Si Si7 0.675178 0.929094 0.409232
Si Si8 0.043895 0.075663 0.034060
O O1 0.297462 0.250000 0.506818
O O2 0.322437 0.012590 0.542561
O O3 0.522726 0.027438 0.338575
O O4 0.161778 0.991550 0.571100
O O5 0.350389 0.750000 0.128923
O O6 0.164215 0.493710 0.255629
O O7 0.500000 0.500000 0.000000
O O8 0.487205 0.531821 0.090161
O O9 0.654164 0.750000 0.252092
O O10 0.864580 0.529722 0.142224
O O11 0.783494 0.539418 0.112000
O O12 0.952832 0.750000 0.706830
O O13 0.845406 0.505794 0.823857
O O14 0.006160 0.250000 0.164867
O O15 0.863582 0.521122 0.260744
O O16 0.218969 0.486399 0.048520
O O17 0.115645 0.458016 0.035565
O O18 0.264478 0.250000 0.068367
O O19 0.654232 0.750000 0.421320
O O20 0.500000 0.000000 0.500000
O O21 0.978182 0.250000 0.071912
#
# Coordination Sequence:
#
# PCOD8069010 Si02
#       8
#     4   4   4   4   4   4   4   4
#     4  11  22  34  48  69  96 127 161 199 239 283
#     4   9  16  27  43  66  95 128 162 192 229 277
#     4  10  20  34  51  70  93 123 161 204 245 284
#     4  10  18  30  47  69  95 127 161 193 236 285
#     4  10  18  32  51  70  95 125 157 194 235 281
#     4   8  15  27  45  68  94 125 156 186 227 280
#     4  11  23  34  45  66  95 127 160 192 233 284
#     4   9  19  34  52  72  93 121 160 204 244 281
#
# _framework density 16.728496
#
# number of rings (size 3 to 8) (size 9 to 14) (size 15 to 20)
#    0.000    2.250    1.250    3.375    0.000    5.500 
#    0.000    0.625    0.000    0.000    0.000    0.875 
#    0.000    0.000    0.000    0.000    0.000    0.000 
#
# Total GULP energy -396694.127283 kJ/mol
# GULP energy per Si atom -12396.691478 kJ/mol
# Density = 1.669042 g / cm^3
# Si number density = 16.728496 Si / 1000 Ang^3
#
#
#
# Elastic Constant Matrix: (Units=GPa)
#
#
# Indices 1 2 3 4 5 6 
#
# 1 119.2671 31.7841 55.6970 0.0000 -20.0567 0.0000
# 2 31.7841 58.4230 27.0954 0.0000 -8.4668 0.0000
# 3 55.6970 27.0954 71.1690 0.0000 -9.7629 0.0000
# 4 0.0000 0.0000 0.0000 27.5542 0.0000 -5.5267
# 5 -20.0567 -8.4668 -9.7629 0.0000 25.6481 0.0000
# 6 0.0000 0.0000 0.0000 -5.5267 0.0000 21.3212
#
#
#
# Elastic Compliance Matrix: (Units=1/GPa)
#
#
# Indices 1 2 3 4 5 6 
#
# 1 0.014722 -0.002544 -0.009589 0.000000 0.007022 0.000000
# 2 -0.002544 0.021635 -0.005844 0.000000 0.002928 0.000000
# 3 -0.009589 -0.005844 0.023726 0.000000 -0.000397 0.000000
# 4 0.000000 0.000000 0.000000 0.038282 0.000000 0.009923
# 5 0.007022 0.002928 -0.000397 0.000000 0.045296 0.000000
# 6 0.000000 0.000000 0.000000 0.009923 0.000000 0.049474
#
#
# Mechanical properties :
#
#
# Convention : Reuss Voigt Hill
#
# Bulk Modulus (GPa) = 41.44571 53.11245 47.27908
# Shear Modulus (GPa) = 21.08516 23.85687 22.47102
#
# Velocity S-wave (km/s) = 3.55411 3.78050 3.66905
# Velocity P-wave (km/s) = 6.45535 7.13266 6.80244
#
# Compressibility (1/GPa) = 0.02412795
#
# Stress axis : x y z
#
# Youngs Moduli (GPa) = 67.92780 46.22045 42.14743
#
# Poissons Ratio (x) = 0.11759 0.40416
# Poissons Ratio (y) = 0.17281 0.24632
# Poissons Ratio (z) = 0.65137 0.27013
#
# Static dielectric constant tensor:
#      x y z
#    x 3.560640 0.000000 -0.350530 
#    y 0.000000 3.149710 0.000000 
#    z -0.350530 0.000000 3.140570 
# 
# 
# High freq. dielectric constant tensor:
#      x y z
#    x 1.639780 0.000000 -0.024230 
#    y 0.000000 1.646380 0.000000 
#    z -0.024230 0.000000 1.619520 
# 
# From -- ./inp_files/67402.got.cif
#   From: 2010.06.25/outbox.cif.g09.slc.cpg/sg11_34_cif.got.tgz:67402.got - 2010.06.27 23:14:04.
