data_PCOD8069137
_publ_section_title
;
Structure prediction by ZEFSAII (Michael W. Deem and Ramdas Pophale) SiO2 
 PCOD8069137
Probable space group: P 21/M
;
_chemical_formula_sum "Si O2"
_cell_formula_units_Z 32
_cell_length_a 18.587315
_cell_length_b 13.259192
_cell_length_c 21.735055
_cell_angle_alpha 90.000000
_cell_angle_beta 20.027631
_cell_angle_gamma 90.000000
_cell_volume 1834.514485
_symmetry_space_group_name_H-M "P 21/M"
_symmetry_group_IT_number 11
_symmetry_cell_setting 'monoclinic'
loop_
_space_group_symop_operation_xyz
x,y,z
-x,1/2+y,-z
-x,-y,-z
x,1/2-y,z
loop_
_atom_site_type_symbol
_atom_site_label
_atom_site_fract_x
_atom_site_fract_y
_atom_site_fract_z
Si Si1 0.855903 0.635345 0.637712
Si Si2 0.969098 0.863445 0.790848
Si Si3 0.844934 0.364586 0.149958
Si Si4 0.658984 0.369514 0.429328
Si Si5 0.444889 0.364793 0.800178
Si Si6 0.702147 0.869157 0.896582
Si Si7 0.297880 0.056239 0.794746
Si Si8 0.688370 0.442869 0.718686
O O1 0.794343 0.750000 0.670826
O O2 0.765833 0.603640 0.776608
O O3 0.748609 0.561230 0.674443
O O4 0.106683 0.625096 0.434552
O O5 0.033909 0.750000 0.722356
O O6 0.883155 0.914255 0.796833
O O7 0.171526 0.917403 0.658372
O O8 0.788853 0.865309 0.986650
O O9 0.791088 0.250000 0.174314
O O10 0.721988 0.398956 0.309768
O O11 0.770975 0.438952 0.154623
O O12 0.093732 0.372935 0.961526
O O13 0.658739 0.250000 0.436121
O O14 0.431047 0.414067 0.627383
O O15 0.524065 0.250000 0.726374
O O16 0.443798 0.425059 0.736929
O O17 0.602558 0.421078 0.719662
O O18 0.681578 0.750000 0.924809
O O19 0.479006 0.917318 0.093576
#
# Coordination Sequence:
#
# PCOD8069137 Si02
#       8
#     4   4   4   4   4   4   4   4
#     4  10  20  33  50  73 100 134 172 206 243 299
#     4   8  15  27  45  72 104 127 150 199 256 291
#     4  10  21  37  50  71 106 134 164 207 246 294
#     4  10  18  30  50  76 102 128 160 205 252 292
#     4  10  18  32  52  76 102 128 160 207 255 295
#     4   9  17  30  49  74 101 130 161 202 252 297
#     4  11  21  32  54  78  97 133 171 199 251 300
#     4  10  20  33  50  74 103 133 164 205 258 293
#
# _framework density 17.443306
#
# number of rings (size 3 to 8) (size 9 to 14) (size 15 to 20)
#    0.000    2.250    1.250    3.750    1.750    0.000 
#    0.000    0.625    0.000    0.000    0.000    0.875 
#    0.000    0.000    0.000    0.000    0.000    0.000 
#
# Total GULP energy -396700.556651 kJ/mol
# GULP energy per Si atom -12396.892395 kJ/mol
# Density = 1.740360 g / cm^3
# Si number density = 17.443306 Si / 1000 Ang^3
#
#
#
# Elastic Constant Matrix: (Units=GPa)
#
#
# Indices 1 2 3 4 5 6 
#
# 1 86.2805 56.7677 23.9270 0.0000 -4.2730 0.0000
# 2 56.7677 80.9353 22.6759 0.0000 -0.5766 0.0000
# 3 23.9270 22.6759 66.1743 0.0000 11.5099 0.0000
# 4 0.0000 0.0000 0.0000 15.8114 0.0000 3.6947
# 5 -4.2730 -0.5766 11.5099 0.0000 14.7407 0.0000
# 6 0.0000 0.0000 0.0000 3.6947 0.0000 22.9977
#
#
#
# Elastic Compliance Matrix: (Units=1/GPa)
#
#
# Indices 1 2 3 4 5 6 
#
# 1 0.023246 -0.014805 -0.005095 0.000000 0.010138 0.000000
# 2 -0.014805 0.023403 -0.002406 0.000000 -0.001497 0.000000
# 3 -0.005095 -0.002406 0.020889 0.000000 -0.017881 0.000000
# 4 0.000000 0.000000 0.000000 0.065713 0.000000 -0.010557
# 5 0.010138 -0.001497 -0.017881 0.000000 0.084682 0.000000
# 6 0.000000 0.000000 0.000000 -0.010557 0.000000 0.045179
#
#
# Mechanical properties :
#
#
# Convention : Reuss Voigt Hill
#
# Bulk Modulus (GPa) = 43.61993 48.90349 46.26171
# Shear Modulus (GPa) = 15.85468 19.37792 17.61630
#
# Velocity S-wave (km/s) = 3.01811 3.33665 3.18137
# Velocity P-wave (km/s) = 6.09970 6.55292 6.33037
#
# Compressibility (1/GPa) = 0.02292530
#
# Stress axis : x y z
#
# Youngs Moduli (GPa) = 43.01841 42.72964 47.87306
#
# Poissons Ratio (x) = 0.63260 0.24393
# Poissons Ratio (y) = 0.63688 0.11518
# Poissons Ratio (z) = 0.21919 0.10281
#
# Static dielectric constant tensor:
#      x y z
#    x 3.205330 0.000000 0.003170 
#    y 0.000000 2.993960 0.000000 
#    z 0.003170 0.000000 3.357380 
# 
# 
# High freq. dielectric constant tensor:
#      x y z
#    x 1.662510 0.000000 0.003370 
#    y 0.000000 1.641920 0.000000 
#    z 0.003370 0.000000 1.689120 
# 
# From -- ./inp_files/24457.got.cif
#   From: 2010.06.25/outbox.cif.g09.slc.cpg/sg11_13_cif.got.tgz:24457.got - 2010.06.27 23:14:04.
