data_PCOD8069047
_publ_section_title
;
Structure prediction by ZEFSAII (Michael W. Deem and Ramdas Pophale) SiO2 
 PCOD8069047
Probable space group: P 21/M
;
_chemical_formula_sum "Si O2"
_cell_formula_units_Z 32
_cell_length_a 21.289457
_cell_length_b 8.700048
_cell_length_c 12.513072
_cell_angle_alpha 90.000000
_cell_angle_beta 52.956237
_cell_angle_gamma 90.000000
_cell_volume 1849.901597
_symmetry_space_group_name_H-M "P 21/M"
_symmetry_group_IT_number 11
_symmetry_cell_setting 'monoclinic'
loop_
_space_group_symop_operation_xyz
x,y,z
-x,1/2+y,-z
-x,-y,-z
x,1/2-y,z
loop_
_atom_site_type_symbol
_atom_site_label
_atom_site_fract_x
_atom_site_fract_y
_atom_site_fract_z
Si Si1 0.003516 0.927607 0.382362
Si Si2 0.833016 0.569331 0.553973
Si Si3 0.398119 0.428690 0.505362
Si Si4 0.578678 0.428541 0.299886
Si Si5 0.672114 0.926515 0.016246
Si Si6 0.685631 0.430352 0.601185
Si Si7 0.172775 0.930932 0.205635
Si Si8 0.416477 0.428287 0.111137
O O1 0.011232 0.750000 0.396223
O O2 0.086677 0.977556 0.242502
O O3 0.919731 0.964430 0.410958
O O4 0.000000 0.000000 0.500000
O O5 0.821415 0.750000 0.588917
O O6 0.768701 0.512568 0.536304
O O7 0.822940 0.479556 0.675072
O O8 0.379773 0.250000 0.507695
O O9 0.487149 0.470915 0.381542
O O10 0.382642 0.474306 0.643984
O O11 0.339936 0.527934 0.492194
O O12 0.589541 0.250000 0.314935
O O13 0.620484 0.469848 0.146966
O O14 0.664433 0.750000 0.059111
O O15 0.642265 0.953234 0.926911
O O16 0.762684 0.978929 0.929655
O O17 0.696595 0.250000 0.602386
O O18 0.618873 0.487498 0.750429
O O19 0.190017 0.750000 0.179777
O O20 0.427250 0.250000 0.128030
O O21 0.500000 0.500000 0.000000
#
# Coordination Sequence:
#
# PCOD8069047 Si02
#       8
#     4   4   4   4   4   4   4   4
#     4   8  16  28  45  68  96 131 168 206 248 298
#     4  10  18  31  48  70 102 136 170 208 253 303
#     4  10  21  38  58  77 100 130 169 215 263 305
#     4  10  21  37  57  78 100 129 170 216 259 302
#     4  11  22  34  50  73 103 138 172 209 254 303
#     4  12  23  34  51  75 104 136 173 212 254 302
#     4  10  18  30  48  72 101 134 171 209 252 302
#     4  11  23  36  50  70 101 137 174 209 252 306
#
# _framework density 17.298217000000001
#
# number of rings (size 3 to 8) (size 9 to 14) (size 15 to 20)
#    0.000    1.750    1.250    4.125    0.000    6.000 
#    0.000    0.000    0.000    0.000    0.000    0.875 
#    0.000    0.000    0.000    0.000    0.000    0.000 
#
# Total GULP energy -396704.244644 kJ/mol
# GULP energy per Si atom -12397.007645 kJ/mol
# Density = 1.725885 g / cm^3
# Si number density = 17.298217 Si / 1000 Ang^3
#
#
#
# Elastic Constant Matrix: (Units=GPa)
#
#
# Indices 1 2 3 4 5 6 
#
# 1 79.9841 21.6503 15.9428 0.0000 -16.2970 0.0000
# 2 21.6503 42.3266 15.7274 0.0000 -10.7178 0.0000
# 3 15.9428 15.7274 25.9796 0.0000 -6.3109 0.0000
# 4 0.0000 0.0000 0.0000 27.2869 0.0000 0.3355
# 5 -16.2970 -10.7178 -6.3109 0.0000 28.2532 0.0000
# 6 0.0000 0.0000 0.0000 0.3355 0.0000 27.0780
#
#
#
# Elastic Compliance Matrix: (Units=1/GPa)
#
#
# Indices 1 2 3 4 5 6 
#
# 1 0.016147 -0.004576 -0.005602 0.000000 0.006327 0.000000
# 2 -0.004576 0.033529 -0.015904 0.000000 0.006527 0.000000
# 3 -0.005602 -0.015904 0.052136 0.000000 0.002381 0.000000
# 4 0.000000 0.000000 0.000000 0.036653 0.000000 -0.000454
# 5 0.006327 0.006527 0.002381 0.000000 0.042052 0.000000
# 6 0.000000 0.000000 0.000000 -0.000454 0.000000 0.036936
#
#
# Mechanical properties :
#
#
# Convention : Reuss Voigt Hill
#
# Bulk Modulus (GPa) = 20.14173 28.32571 24.23372
# Shear Modulus (GPa) = 17.47251 22.85492 20.16372
#
# Velocity S-wave (km/s) = 3.18162 3.63882 3.41787
# Velocity P-wave (km/s) = 5.01657 5.83653 5.44202
#
# Compressibility (1/GPa) = 0.04964818
#
# Stress axis : x y z
#
# Youngs Moduli (GPa) = 61.93219 29.82536 19.18072
#
# Poissons Ratio (x) = 0.13647 0.10745
# Poissons Ratio (y) = 0.28338 0.30505
# Poissons Ratio (z) = 0.34694 0.47434
#
# Static dielectric constant tensor:
#      x y z
#    x 3.516630 0.000000 -0.403770 
#    y 0.000000 3.318320 0.000000 
#    z -0.403770 0.000000 3.140380 
# 
# 
# High freq. dielectric constant tensor:
#      x y z
#    x 1.662550 0.000000 -0.026060 
#    y 0.000000 1.685420 0.000000 
#    z -0.026060 0.000000 1.641830 
# 
# From -- ./inp_files/42795.got.cif
#   From: 2010.06.25/outbox.cif.g09.slc.cpg/sg11_22_cif.got.tgz:42795.got - 2010.06.27 23:14:04.
