data_PCOD8069796
_publ_section_title
;
Structure prediction by ZEFSAII (Michael W. Deem and Ramdas Pophale) SiO2 
 PCOD8069796
Probable space group: P 21/M
;
_chemical_formula_sum "Si O2"
_cell_formula_units_Z 26
_cell_length_a 12.178671
_cell_length_b 19.319058
_cell_length_c 9.587676
_cell_angle_alpha 90.000000
_cell_angle_beta 34.552030
_cell_angle_gamma 90.000000
_cell_volume 1279.382749
_symmetry_space_group_name_H-M "P 21/M"
_symmetry_group_IT_number 11
_symmetry_cell_setting 'monoclinic'
loop_
_space_group_symop_operation_xyz
x,y,z
-x,1/2+y,-z
-x,-y,-z
x,1/2-y,z
loop_
_atom_site_type_symbol
_atom_site_label
_atom_site_fract_x
_atom_site_fract_y
_atom_site_fract_z
Si Si1 0.355435 0.250000 0.168376
Si Si2 0.191260 0.608318 0.071205
Si Si3 0.798980 0.964069 0.439614
Si Si4 0.306787 0.750000 0.359009
Si Si5 0.479147 0.397381 0.071361
Si Si6 0.921129 0.250000 0.685411
Si Si7 0.516219 0.920431 0.517494
Si Si8 0.622973 0.391157 0.618136
O O1 0.422357 0.319422 0.179489
O O2 0.125522 0.250000 0.392465
O O3 0.457679 0.250000 0.907826
O O4 0.024357 0.551871 0.219412
O O5 0.098871 0.683492 0.194333
O O6 0.313957 0.583553 0.077150
O O7 0.329611 0.609588 0.792616
O O8 0.686345 0.949414 0.702391
O O9 0.707605 0.914066 0.414159
O O10 0.771504 0.045600 0.434328
O O11 0.249122 0.820551 0.499024
O O12 0.234297 0.750000 0.275441
O O13 0.492503 0.404994 0.890919
O O14 0.522825 0.881343 0.361299
O O15 0.500000 0.000000 0.500000
#
# Coordination Sequence:
#
# PCOD8069796 Si02
#       8
#     2   4   4   2   4   2   4   4
#     4  10  18  34  59  83 121 159 187 249 308 359
#     4  11  21  37  62  91 119 159 204 255 301 360
#     4  10  21  37  61  92 120 157 209 250 305 358
#     4  10  22  41  57  85 122 160 198 251 319 355
#     4  10  19  36  58  90 118 156 201 250 305 353
#     4  12  20  37  60  90 119 155 203 254 307 364
#     4   9  22  41  59  87 124 163 197 246 305 361
#     4  10  20  39  61  83 123 165 196 253 307 368
#
# _framework density 20.322299000000001
#
# number of rings (size 3 to 8) (size 9 to 14) (size 15 to 20)
#    0.000    1.846    4.615    0.462    0.000    3.692 
#    0.000   12.308    0.000    0.000    0.000    0.000 
#    0.000    0.000    0.000    0.000    0.000    0.000 
#
# Total GULP energy -322218.504910 kJ/mol
# GULP energy per Si atom -12393.019420 kJ/mol
# Density = 2.027604 g / cm^3
# Si number density = 20.322299 Si / 1000 Ang^3
#
#
#
# Elastic Constant Matrix: (Units=GPa)
#
#
# Indices 1 2 3 4 5 6 
#
# 1 107.8879 33.6884 63.4403 0.0000 17.2708 0.0000
# 2 33.6884 114.8321 17.9510 0.0000 0.5509 0.0000
# 3 63.4403 17.9510 81.9553 0.0000 -0.9937 0.0000
# 4 0.0000 0.0000 0.0000 29.0466 0.0000 0.4862
# 5 17.2708 0.5509 -0.9937 0.0000 37.4106 0.0000
# 6 0.0000 0.0000 0.0000 0.4862 0.0000 27.7648
#
#
#
# Elastic Compliance Matrix: (Units=1/GPa)
#
#
# Indices 1 2 3 4 5 6 
#
# 1 0.021424 -0.003753 -0.015887 0.000000 -0.010257 0.000000
# 2 -0.003753 0.009676 0.000805 0.000000 0.001611 0.000000
# 3 -0.015887 0.000805 0.024420 0.000000 0.007971 0.000000
# 4 0.000000 0.000000 0.000000 0.034437 0.000000 -0.000603
# 5 -0.010257 0.001611 0.007971 0.000000 0.031654 0.000000
# 6 0.000000 0.000000 0.000000 -0.000603 0.000000 0.036027
#
#
# Mechanical properties :
#
#
# Convention : Reuss Voigt Hill
#
# Bulk Modulus (GPa) = 56.01829 59.42610 57.72219
# Shear Modulus (GPa) = 24.84383 31.48411 28.16397
#
# Velocity S-wave (km/s) = 3.50021 3.94031 3.72676
# Velocity P-wave (km/s) = 6.63024 7.07154 6.85444
#
# Compressibility (1/GPa) = 0.01785131
#
# Stress axis : x y z
#
# Youngs Moduli (GPa) = 46.67589 103.35179 40.95053
#
# Poissons Ratio (x) = 0.38784 0.65057
# Poissons Ratio (y) = 0.17516 -0.03297
# Poissons Ratio (z) = 0.74152 -0.08320
#
# Static dielectric constant tensor:
#      x y z
#    x 4.291800 0.000000 0.323500 
#    y 0.000000 3.946090 0.000000 
#    z 0.323500 0.000000 3.567530 
# 
# 
# High freq. dielectric constant tensor:
#      x y z
#    x 1.786170 0.000000 0.006490 
#    y 0.000000 1.798770 0.000000 
#    z 0.006490 0.000000 1.770520 
# 
# From -- ./inp_files/19106.got.cif
#   From: 2010.06.25/outbox.cif.g09.slc.cpg/sg11_10_cif.got.tgz:19106.got - 2010.06.27 23:14:04.
