data_PCOD8069280
_publ_section_title
;
Structure prediction by ZEFSAII (Michael W. Deem and Ramdas Pophale) SiO2 
 PCOD8069280
Probable space group: P 21/M
;
_chemical_formula_sum "Si O2"
_cell_formula_units_Z 32
_cell_length_a 23.884796
_cell_length_b 8.846055
_cell_length_c 12.600185
_cell_angle_alpha 90.000000
_cell_angle_beta 46.488624
_cell_angle_gamma 90.000000
_cell_volume 1930.760725
_symmetry_space_group_name_H-M "P 21/M"
_symmetry_group_IT_number 11
_symmetry_cell_setting 'monoclinic'
loop_
_space_group_symop_operation_xyz
x,y,z
-x,1/2+y,-z
-x,-y,-z
x,1/2-y,z
loop_
_atom_site_type_symbol
_atom_site_label
_atom_site_fract_x
_atom_site_fract_y
_atom_site_fract_z
Si Si1 0.166268 0.573606 0.387869
Si Si2 0.001325 0.073391 0.383658
Si Si3 0.324811 0.929841 0.271784
Si Si4 0.423041 0.570610 0.553102
Si Si5 0.412492 0.929084 0.948139
Si Si6 0.151721 0.928727 0.167362
Si Si7 0.418052 0.070705 0.332625
Si Si8 0.313799 0.928604 0.882053
O O1 0.181377 0.750000 0.355264
O O2 0.237881 0.509814 0.362083
O O3 0.165759 0.508908 0.268561
O O4 0.084155 0.540880 0.554457
O O5 0.015626 0.250000 0.376194
O O6 0.072246 0.001265 0.224415
O O7 0.000000 0.000000 0.500000
O O8 0.328973 0.750000 0.283559
O O9 0.350738 0.014476 0.343663
O O10 0.379216 0.984154 0.103958
O O11 0.500000 0.500000 0.500000
O O12 0.433073 0.750000 0.534518
O O13 0.403391 0.504178 0.464908
O O14 0.352051 0.522328 0.721610
O O15 0.409080 0.750000 0.946788
O O16 0.500143 0.986066 0.820971
O O17 0.361659 0.998632 0.918469
O O18 0.140974 0.750000 0.179063
O O19 0.224591 0.983056 0.001692
O O20 0.415779 0.250000 0.348280
O O21 0.315873 0.750000 0.892772
#
# Coordination Sequence:
#
# PCOD8069280 Si02
#       8
#     4   4   4   4   4   4   4   4
#     4   8  14  25  44  66  91 124 157 185 224 283
#     4   9  16  26  41  65  96 128 158 190 231 282
#     4  10  18  31  51  71  92 126 170 201 231 283
#     4  11  21  35  54  73  94 125 166 207 245 288
#     4   9  16  29  50  70  93 126 162 198 235 283
#     4   9  15  27  47  69  93 124 158 192 236 287
#     4  11  22  35  48  68  99 130 163 204 248 285
#     4   9  16  29  51  73  93 125 163 197 238 289
#
# _framework density 16.573778000000001
#
# number of rings (size 3 to 8) (size 9 to 14) (size 15 to 20)
#    0.000    2.500    2.500    2.250    0.000    0.000 
#    0.000    5.000    0.000    0.000    0.000    0.875 
#    0.000    0.000    0.000    0.000    0.000    0.000 
#
# Total GULP energy -396583.026143 kJ/mol
# GULP energy per Si atom -12393.219567 kJ/mol
# Density = 1.653606 g / cm^3
# Si number density = 16.573778 Si / 1000 Ang^3
#
#
#
# Elastic Constant Matrix: (Units=GPa)
#
#
# Indices 1 2 3 4 5 6 
#
# 1 110.3540 31.9905 81.7495 0.0000 -14.2706 0.0000
# 2 31.9905 46.3057 37.1918 0.0000 -5.1895 0.0000
# 3 81.7495 37.1918 122.8651 0.0000 -18.2057 0.0000
# 4 0.0000 0.0000 0.0000 20.8981 0.0000 -2.7364
# 5 -14.2706 -5.1895 -18.2057 0.0000 35.5554 0.0000
# 6 0.0000 0.0000 0.0000 -2.7364 0.0000 23.5422
#
#
#
# Elastic Compliance Matrix: (Units=1/GPa)
#
#
# Indices 1 2 3 4 5 6 
#
# 1 0.018412 -0.003817 -0.010910 0.000000 0.001246 0.000000
# 2 -0.003817 0.029327 -0.006417 0.000000 -0.000538 0.000000
# 3 -0.010910 -0.006417 0.017912 0.000000 0.003856 0.000000
# 4 0.000000 0.000000 0.000000 0.048591 0.000000 0.005648
# 5 0.001246 -0.000538 0.003856 0.000000 0.030521 0.000000
# 6 0.000000 0.000000 0.000000 0.005648 0.000000 0.043133
#
#
# Mechanical properties :
#
#
# Convention : Reuss Voigt Hill
#
# Bulk Modulus (GPa) = 42.80596 64.59872 53.70234
# Shear Modulus (GPa) = 21.01084 24.57200 22.79142
#
# Velocity S-wave (km/s) = 3.56436 3.85461 3.71232
# Velocity P-wave (km/s) = 6.54394 7.67279 7.13074
#
# Compressibility (1/GPa) = 0.02336123
#
# Stress axis : x y z
#
# Youngs Moduli (GPa) = 54.31316 34.09871 55.82804
#
# Poissons Ratio (x) = 0.13016 0.60910
# Poissons Ratio (y) = 0.20733 0.35825
# Poissons Ratio (z) = 0.59257 0.21882
#
# Static dielectric constant tensor:
#      x y z
#    x 3.337070 0.000000 -0.315960 
#    y 0.000000 2.915730 0.000000 
#    z -0.315960 0.000000 3.448290 
# 
# 
# High freq. dielectric constant tensor:
#      x y z
#    x 1.626220 0.000000 -0.027000 
#    y 0.000000 1.612810 0.000000 
#    z -0.027000 0.000000 1.627430 
# 
# From -- ./inp_files/43757.got.cif
#   From: 2010.06.25/outbox.cif.g09.slc.cpg/sg11_22_cif.got.tgz:43757.got - 2010.06.27 23:14:04.
