data_PCOD8069650
_publ_section_title
;
Structure prediction by ZEFSAII (Michael W. Deem and Ramdas Pophale) SiO2 
 PCOD8069650
Probable space group: P 21/M
;
_chemical_formula_sum "Si O2"
_cell_formula_units_Z 28
_cell_length_a 16.197520
_cell_length_b 13.957589
_cell_length_c 9.460943
_cell_angle_alpha 90.000000
_cell_angle_beta 43.774137
_cell_angle_gamma 90.000000
_cell_volume 1479.737833
_symmetry_space_group_name_H-M "P 21/M"
_symmetry_group_IT_number 11
_symmetry_cell_setting 'monoclinic'
loop_
_space_group_symop_operation_xyz
x,y,z
-x,1/2+y,-z
-x,-y,-z
x,1/2-y,z
loop_
_atom_site_type_symbol
_atom_site_label
_atom_site_fract_x
_atom_site_fract_y
_atom_site_fract_z
Si Si1 0.118880 0.007875 0.172905
Si Si2 0.186888 0.139157 0.642794
Si Si3 0.080919 0.641224 0.990902
Si Si4 0.149993 0.993303 0.454438
Si Si5 0.565547 0.357444 0.472022
Si Si6 0.750800 0.143025 0.462116
Si Si7 0.319613 0.446847 0.731672
O O1 0.112149 0.906259 0.101953
O O2 0.984105 0.047584 0.352599
O O3 0.176645 0.000042 0.256157
O O4 0.206807 0.075454 0.972736
O O5 0.225814 0.250000 0.580478
O O6 0.175383 0.094970 0.499541
O O7 0.283616 0.080128 0.615072
O O8 0.057894 0.130494 0.878121
O O9 0.121427 0.750000 0.959289
O O10 0.159575 0.595260 0.766761
O O11 0.242307 0.916530 0.402953
O O12 0.589568 0.250000 0.377984
O O13 0.615696 0.358807 0.570549
O O14 0.425116 0.376397 0.648647
O O15 0.636063 0.442607 0.302656
O O16 0.794209 0.250000 0.442170
#
# Coordination Sequence:
#
# PCOD8069650 Si02
#       7
#     4   4   4   4   4   4   4
#     4  10  20  33  53  78 113 145 171 213 263 322
#     4  10  19  33  54  78 105 139 178 220 265 318
#     4   9  17  30  52  80 107 137 176 220 264 310
#     4  10  20  35  51  80 115 143 172 209 265 323
#     4  10  21  35  55  81 106 134 178 232 272 303
#     4  10  18  33  55  77 105 138 177 223 263 308
#     4  11  20  35  58  80 103 140 181 223 265 313
#
# _framework density 18.922270000000001
#
# number of rings (size 3 to 8) (size 9 to 14) (size 15 to 20)
#    0.000    2.000    2.857    1.286    0.000    2.857 
#    0.000    5.000    0.000    0.000    0.000    0.000 
#    0.000    0.000    0.000    0.000    0.000    0.000 
#
# Total GULP energy -347022.662138 kJ/mol
# GULP energy per Si atom -12393.666505 kJ/mol
# Density = 1.887920 g / cm^3
# Si number density = 18.922270 Si / 1000 Ang^3
#
#
#
# Elastic Constant Matrix: (Units=GPa)
#
#
# Indices 1 2 3 4 5 6 
#
# 1 118.0492 43.7648 34.8042 0.0000 9.5987 0.0000
# 2 43.7648 89.8454 15.5645 0.0000 -0.7752 0.0000
# 3 34.8042 15.5645 44.5302 0.0000 6.9954 0.0000
# 4 0.0000 0.0000 0.0000 15.0810 0.0000 -4.8614
# 5 9.5987 -0.7752 6.9954 0.0000 29.4696 0.0000
# 6 0.0000 0.0000 0.0000 -4.8614 0.0000 28.1704
#
#
#
# Elastic Compliance Matrix: (Units=1/GPa)
#
#
# Indices 1 2 3 4 5 6 
#
# 1 0.012819 -0.004892 -0.007929 0.000000 -0.002422 0.000000
# 2 -0.004892 0.013766 -0.001346 0.000000 0.002275 0.000000
# 3 -0.007929 -0.001346 0.029837 0.000000 -0.004535 0.000000
# 4 0.000000 0.000000 0.000000 0.070214 0.000000 0.012117
# 5 -0.002422 0.002275 -0.004535 0.000000 0.035858 0.000000
# 6 0.000000 0.000000 0.000000 0.012117 0.000000 0.037589
#
#
# Mechanical properties :
#
#
# Convention : Reuss Voigt Hill
#
# Bulk Modulus (GPa) = 35.60115 48.96576 42.28346
# Shear Modulus (GPa) = 21.02789 25.09697 23.06243
#
# Velocity S-wave (km/s) = 3.33720 3.64582 3.49492
# Velocity P-wave (km/s) = 5.80555 6.60728 6.21935
#
# Compressibility (1/GPa) = 0.02808898
#
# Stress axis : x y z
#
# Youngs Moduli (GPa) = 78.00814 72.64404 33.51577
#
# Poissons Ratio (x) = 0.35535 0.26575
# Poissons Ratio (y) = 0.38159 0.04510
# Poissons Ratio (z) = 0.61853 0.09775
#
# Static dielectric constant tensor:
#      x y z
#    x 3.607640 0.000000 -0.163300 
#    y 0.000000 3.486240 0.000000 
#    z -0.163300 0.000000 3.165990 
# 
# 
# High freq. dielectric constant tensor:
#      x y z
#    x 1.745860 0.000000 -0.012940 
#    y 0.000000 1.735880 0.000000 
#    z -0.012940 0.000000 1.687790 
# 
# From -- ./inp_files/17460.got.cif
#   From: 2010.06.25/outbox.cif.g09.slc.cpg/sg11_9_cif.got.tgz:17460.got - 2010.06.27 23:14:04.
