data_PCOD8069043
_publ_section_title
;
Structure prediction by ZEFSAII (Michael W. Deem and Ramdas Pophale) SiO2 
 PCOD8069043
Probable space group: P 21/M
;
_chemical_formula_sum "Si O2"
_cell_formula_units_Z 24
_cell_length_a 19.855440
_cell_length_b 8.606460
_cell_length_c 11.286539
_cell_angle_alpha 90.000000
_cell_angle_beta 136.103336
_cell_angle_gamma 90.000000
_cell_volume 1337.283731
_symmetry_space_group_name_H-M "P 21/M"
_symmetry_group_IT_number 11
_symmetry_cell_setting 'monoclinic'
loop_
_space_group_symop_operation_xyz
x,y,z
-x,1/2+y,-z
-x,-y,-z
x,1/2-y,z
loop_
_atom_site_type_symbol
_atom_site_label
_atom_site_fract_x
_atom_site_fract_y
_atom_site_fract_z
Si Si1 0.285883 0.433356 0.313797
Si Si2 0.043273 0.567621 0.382022
Si Si3 0.860124 0.433244 0.258390
Si Si4 0.093838 0.565950 0.183068
Si Si5 0.672069 0.066369 0.889053
Si Si6 0.478480 0.566125 0.601874
O O1 0.291853 0.250000 0.304496
O O2 0.186730 0.480320 0.249633
O O3 0.291991 0.513597 0.194065
O O4 0.375292 0.492635 0.510555
O O5 0.030066 0.750000 0.375274
O O6 0.113327 0.504975 0.576302
O O7 0.089214 0.520428 0.315366
O O8 0.936423 0.495415 0.258604
O O9 0.865327 0.250000 0.259801
O O10 0.752170 0.488916 0.086337
O O11 0.101384 0.750000 0.173021
O O12 0.000000 0.500000 0.000000
O O13 0.658178 0.250000 0.870343
O O14 0.569531 0.988022 0.797989
O O15 0.500000 0.500000 0.500000
O O16 0.470114 0.750000 0.590907
#
# Coordination Sequence:
#
# PCOD8069043 Si02
#       6
#     4   4   4   4   4   4
#     4  11  21  33  49  71 101 132 163 199 242 288
#     4   9  19  34  50  70  97 129 162 198 240 284
#     4   9  18  32  51  73  97 126 160 199 240 284
#     4  11  22  35  51  72 100 131 164 199 239 288
#     4  10  18  30  50  75 101 127 160 200 243 290
#     4  10  18  30  48  71  99 128 161 199 242 288
#
# _framework density 17.946826999999999
#
# number of rings (size 3 to 8) (size 9 to 14) (size 15 to 20)
#    0.000    2.000    0.000    7.000    0.000    5.333 
#    0.000    0.000    0.000    1.000    0.000    0.000 
#    0.000    0.000    0.000    0.000    0.000    0.000 
#
# Total GULP energy -297538.557352 kJ/mol
# GULP energy per Si atom -12397.439890 kJ/mol
# Density = 1.790598 g / cm^3
# Si number density = 17.946827 Si / 1000 Ang^3
#
#
#
# Elastic Constant Matrix: (Units=GPa)
#
#
# Indices 1 2 3 4 5 6 
#
# 1 59.9846 3.6296 48.5929 0.0000 22.9645 0.0000
# 2 3.6296 46.0453 27.5034 0.0000 12.3900 0.0000
# 3 48.5929 27.5034 133.3768 0.0000 31.1389 0.0000
# 4 0.0000 0.0000 0.0000 27.4471 0.0000 8.1147
# 5 22.9645 12.3900 31.1389 0.0000 32.7281 0.0000
# 6 0.0000 0.0000 0.0000 8.1147 0.0000 26.9813
#
#
#
# Elastic Compliance Matrix: (Units=1/GPa)
#
#
# Indices 1 2 3 4 5 6 
#
# 1 0.028698 0.006712 -0.008414 0.000000 -0.014672 0.000000
# 2 0.006712 0.027228 -0.005854 0.000000 -0.009447 0.000000
# 3 -0.008414 -0.005854 0.012694 0.000000 -0.003958 0.000000
# 4 0.000000 0.000000 0.000000 0.039989 0.000000 -0.012027
# 5 -0.014672 -0.009447 -0.003958 0.000000 0.048192 0.000000
# 6 0.000000 0.000000 0.000000 -0.012027 0.000000 0.040680
#
#
# Mechanical properties :
#
#
# Convention : Reuss Voigt Hill
#
# Bulk Modulus (GPa) = 18.68934 44.31760 31.50347
# Shear Modulus (GPa) = 21.69862 28.07668 24.88765
#
# Velocity S-wave (km/s) = 3.48091 3.95959 3.72794
# Velocity P-wave (km/s) = 5.15674 6.75662 6.01015
#
# Compressibility (1/GPa) = 0.05350645
#
# Stress axis : x y z
#
# Youngs Moduli (GPa) = 34.84560 36.72754 78.77624
#
# Poissons Ratio (x) = -0.24650 0.66283
# Poissons Ratio (y) = -0.23387 0.46117
# Poissons Ratio (z) = 0.29319 0.21501
#
# Static dielectric constant tensor:
#      x y z
#    x 3.196610 0.000000 0.274930 
#    y 0.000000 3.363040 0.000000 
#    z 0.274930 0.000000 3.999250 
# 
# 
# High freq. dielectric constant tensor:
#      x y z
#    x 1.665560 0.000000 0.024820 
#    y 0.000000 1.705930 0.000000 
#    z 0.024820 0.000000 1.704210 
# 
# From -- ./inp_files/42666.got.cif
#   From: 2010.06.25/outbox.cif.g09.slc.cpg/sg11_22_cif.got.tgz:42666.got - 2010.06.27 23:14:04.
