data_PCOD8069166
_publ_section_title
;
Structure prediction by ZEFSAII (Michael W. Deem and Ramdas Pophale) SiO2 
 PCOD8069166
Probable space group: P 21/M
;
_chemical_formula_sum "Si O2"
_cell_formula_units_Z 32
_cell_length_a 21.453589
_cell_length_b 9.061672
_cell_length_c 27.327279
_cell_angle_alpha 90.000000
_cell_angle_beta 161.473031
_cell_angle_gamma 90.000000
_cell_volume 1688.074481
_symmetry_space_group_name_H-M "P 21/M"
_symmetry_group_IT_number 11
_symmetry_cell_setting 'monoclinic'
loop_
_space_group_symop_operation_xyz
x,y,z
-x,1/2+y,-z
-x,-y,-z
x,1/2-y,z
loop_
_atom_site_type_symbol
_atom_site_label
_atom_site_fract_x
_atom_site_fract_y
_atom_site_fract_z
Si Si1 0.089933 0.581673 0.021265
Si Si2 0.263236 0.922513 0.553971
Si Si3 0.701810 0.583972 0.268027
Si Si4 0.572007 0.579339 0.868167
Si Si5 0.528707 0.579822 0.375199
Si Si6 0.021865 0.418882 0.873116
Si Si7 0.591275 0.421136 0.521298
Si Si8 0.978829 0.083207 0.409142
O O1 0.023142 0.750000 0.974794
O O2 0.323779 0.565467 0.194386
O O3 0.999940 0.515369 0.905156
O O4 0.000000 0.500000 0.000000
O O5 0.231006 0.750000 0.520927
O O6 0.442654 0.954148 0.724075
O O7 0.306320 0.000350 0.534464
O O8 0.063143 0.990991 0.426336
O O9 0.656585 0.750000 0.217331
O O10 0.503109 0.512807 0.141222
O O11 0.865535 0.581457 0.431514
O O12 0.777588 0.492007 0.277675
O O13 0.557085 0.750000 0.871522
O O14 0.794347 0.529001 0.022892
O O15 0.587001 0.750000 0.426869
O O16 0.506366 0.499539 0.410333
O O17 0.054652 0.250000 0.914121
O O18 0.826432 0.437827 0.695835
O O19 0.500000 0.500000 0.500000
O O20 0.528850 0.250000 0.474993
O O21 0.933995 0.250000 0.358995
#
# Coordination Sequence:
#
# PCOD8069166 Si02
#       8
#     4   4   4   4   4   4   4   4
#     4  11  23  36  55  80 106 136 173 217 267 323
#     4  10  18  30  51  76 104 139 177 219 268 316
#     4   9  16  25  40  66 101 139 178 215 255 309
#     4   9  17  30  49  73 103 137 172 216 268 316
#     4  11  23  38  55  79 109 141 178 220 268 322
#     4  10  21  38  57  79 106 138 177 222 270 322
#     4  11  24  41  60  80 106 140 180 224 272 324
#     4   9  16  26  41  65 102 142 177 215 260 309
#
# _framework density 18.956509
#
# number of rings (size 3 to 8) (size 9 to 14) (size 15 to 20)
#    0.000    2.000    1.250    3.000    0.000    9.500 
#    0.000    0.000    0.000    0.000    0.000    0.875 
#    0.000    0.000    0.000    0.000    0.000    0.000 
#
# Total GULP energy -396908.127914 kJ/mol
# GULP energy per Si atom -12403.378997 kJ/mol
# Density = 1.891336 g / cm^3
# Si number density = 18.956509 Si / 1000 Ang^3
#
#
#
# Elastic Constant Matrix: (Units=GPa)
#
#
# Indices 1 2 3 4 5 6 
#
# 1 92.5668 53.5020 11.6689 0.0000 26.5322 0.0000
# 2 53.5020 134.8356 20.3535 0.0000 14.7030 0.0000
# 3 11.6689 20.3535 34.9022 0.0000 11.6725 0.0000
# 4 0.0000 0.0000 0.0000 21.4328 0.0000 6.3343
# 5 26.5322 14.7030 11.6725 0.0000 32.1645 0.0000
# 6 0.0000 0.0000 0.0000 6.3343 0.0000 41.0735
#
#
#
# Elastic Compliance Matrix: (Units=1/GPa)
#
#
# Indices 1 2 3 4 5 6 
#
# 1 0.017530 -0.005861 0.001704 0.000000 -0.012399 0.000000
# 2 -0.005861 0.010240 -0.004625 0.000000 0.001832 0.000000
# 3 0.001704 -0.004625 0.034761 0.000000 -0.011906 0.000000
# 4 0.000000 0.000000 0.000000 0.048885 0.000000 -0.007539
# 5 -0.012399 0.001832 -0.011906 0.000000 0.044802 0.000000
# 6 0.000000 0.000000 0.000000 -0.007539 0.000000 0.025509
#
#
# Mechanical properties :
#
#
# Convention : Reuss Voigt Hill
#
# Bulk Modulus (GPa) = 22.23858 48.15037 35.19448
# Shear Modulus (GPa) = 23.33399 30.71952 27.02676
#
# Velocity S-wave (km/s) = 3.51226 4.02994 3.77997
# Velocity P-wave (km/s) = 5.31082 6.86364 6.13654
#
# Compressibility (1/GPa) = 0.04496689
#
# Stress axis : x y z
#
# Youngs Moduli (GPa) = 57.04631 97.65293 28.76814
#
# Poissons Ratio (x) = 0.57232 -0.04902
# Poissons Ratio (y) = 0.33434 0.13305
# Poissons Ratio (z) = -0.09720 0.45164
#
# Static dielectric constant tensor:
#      x y z
#    x 3.551260 0.000000 0.259440 
#    y 0.000000 3.584770 0.000000 
#    z 0.259440 0.000000 3.243500 
# 
# 
# High freq. dielectric constant tensor:
#      x y z
#    x 1.735400 0.000000 0.029860 
#    y 0.000000 1.750920 0.000000 
#    z 0.029860 0.000000 1.699540 
# 
# From -- ./inp_files/72165.got.cif
#   From: 2010.06.25/outbox.cif.g09.slc.cpg/sg11_37_cif.got.tgz:72165.got - 2010.06.27 23:14:04.
