data_PCOD8069621
_publ_section_title
;
Structure prediction by ZEFSAII (Michael W. Deem and Ramdas Pophale) SiO2 
 PCOD8069621
Probable space group: P 21/M
;
_chemical_formula_sum "Si O2"
_cell_formula_units_Z 28
_cell_length_a 9.134725
_cell_length_b 16.651686
_cell_length_c 15.083906
_cell_angle_alpha 90.000000
_cell_angle_beta 42.682206
_cell_angle_gamma 90.000000
_cell_volume 1555.439977
_symmetry_space_group_name_H-M "P 21/M"
_symmetry_group_IT_number 11
_symmetry_cell_setting 'monoclinic'
loop_
_space_group_symop_operation_xyz
x,y,z
-x,1/2+y,-z
-x,-y,-z
x,1/2-y,z
loop_
_atom_site_type_symbol
_atom_site_label
_atom_site_fract_x
_atom_site_fract_y
_atom_site_fract_z
Si Si1 0.007463 0.548621 0.406741
Si Si2 0.707242 0.065125 0.987117
Si Si3 0.671120 0.842021 0.623857
Si Si4 0.332576 0.842976 0.175699
Si Si5 0.797247 0.158716 0.115812
Si Si6 0.808265 0.616844 0.938139
Si Si7 0.780776 0.593622 0.761760
O O1 0.206191 0.611651 0.311280
O O2 0.041651 0.478498 0.318777
O O3 0.000000 0.500000 0.500000
O O4 0.786593 0.600559 0.499490
O O5 0.739562 0.119315 0.885958
O O6 0.816283 0.979101 0.927593
O O7 0.832698 0.106661 0.012357
O O8 0.454199 0.052378 0.120268
O O9 0.701727 0.750000 0.581125
O O10 0.420890 0.867801 0.736327
O O11 0.778546 0.853126 0.673752
O O12 0.266323 0.750000 0.206159
O O13 0.587894 0.851418 0.079725
O O14 0.769048 0.250000 0.096909
O O15 0.996912 0.150773 0.092178
O O16 0.829814 0.648548 0.826405
#
# Coordination Sequence:
#
# PCOD8069621 Si02
#       7
#     4   4   4   4   4   4   4
#     4  10  18  33  53  75 102 134 177 216 245 296
#     4  10  18  34  53  76 104 138 167 205 262 322
#     4   9  19  33  51  72 102 140 173 205 250 304
#     4  11  20  32  56  84 106 130 169 221 264 299
#     4  10  21  34  49  76 107 134 169 211 259 313
#     4  11  19  33  54  80 105 133 165 213 267 316
#     4   9  17  32  54  76 102 130 172 212 251 305
#
# _framework density 18.001338000000001
#
# number of rings (size 3 to 8) (size 9 to 14) (size 15 to 20)
#    0.000    2.000    2.857    2.571    0.000    4.000 
#    0.000    0.714    0.000    0.000    0.000    4.000 
#    0.000    0.000    0.000    0.000    0.000    0.000 
#
# Total GULP energy -347028.500925 kJ/mol
# GULP energy per Si atom -12393.875033 kJ/mol
# Density = 1.796037 g / cm^3
# Si number density = 18.001338 Si / 1000 Ang^3
#
#
#
# Elastic Constant Matrix: (Units=GPa)
#
#
# Indices 1 2 3 4 5 6 
#
# 1 71.6269 -0.2541 22.0953 0.0000 -5.6504 0.0000
# 2 -0.2541 74.7795 29.3812 0.0000 -2.1068 0.0000
# 3 22.0953 29.3812 89.6034 0.0000 -2.4703 0.0000
# 4 0.0000 0.0000 0.0000 24.7611 0.0000 -1.4459
# 5 -5.6504 -2.1068 -2.4703 0.0000 17.4092 0.0000
# 6 0.0000 0.0000 0.0000 -1.4459 0.0000 20.9571
#
#
#
# Elastic Compliance Matrix: (Units=1/GPa)
#
#
# Indices 1 2 3 4 5 6 
#
# 1 0.015684 0.001899 -0.004361 0.000000 0.004702 0.000000
# 2 0.001899 0.015603 -0.005537 0.000000 0.001719 0.000000
# 3 -0.004361 -0.005537 0.014049 0.000000 -0.000092 0.000000
# 4 0.000000 0.000000 0.000000 0.040549 0.000000 0.002798
# 5 0.004702 0.001719 -0.000092 0.000000 0.059162 0.000000
# 6 0.000000 0.000000 0.000000 0.002798 0.000000 0.047910
#
#
# Mechanical properties :
#
#
# Convention : Reuss Voigt Hill
#
# Bulk Modulus (GPa) = 34.08512 37.60607 35.84560
# Shear Modulus (GPa) = 22.85887 24.94463 23.90175
#
# Velocity S-wave (km/s) = 3.56735 3.72655 3.64782
# Velocity P-wave (km/s) = 5.99532 6.28111 6.13988
#
# Compressibility (1/GPa) = 0.02933831
#
# Stress axis : x y z
#
# Youngs Moduli (GPa) = 63.75925 64.08971 71.18093
#
# Poissons Ratio (x) = -0.12171 0.31039
# Poissons Ratio (y) = -0.12108 0.39414
# Poissons Ratio (z) = 0.27803 0.35488
#
# Static dielectric constant tensor:
#      x y z
#    x 3.063690 0.000000 0.085970 
#    y 0.000000 3.487100 0.000000 
#    z 0.085970 0.000000 3.652890 
# 
# 
# High freq. dielectric constant tensor:
#      x y z
#    x 1.657860 0.000000 0.005240 
#    y 0.000000 1.709690 0.000000 
#    z 0.005240 0.000000 1.698860 
# 
# From -- ./inp_files/22700.got.cif
#   From: 2010.06.25/outbox.cif.g09.slc.cpg/sg11_12_cif.got.tgz:22700.got - 2010.06.27 23:14:04.
