data_PCOD8069332
_publ_section_title
;
Structure prediction by ZEFSAII (Michael W. Deem and Ramdas Pophale) SiO2 
 PCOD8069332
Probable space group: P 21/M
;
_chemical_formula_sum "Si O2"
_cell_formula_units_Z 32
_cell_length_a 16.451782
_cell_length_b 18.107304
_cell_length_c 10.498324
_cell_angle_alpha 90.000000
_cell_angle_beta 144.354564
_cell_angle_gamma 90.000000
_cell_volume 1822.561098
_symmetry_space_group_name_H-M "P 21/M"
_symmetry_group_IT_number 11
_symmetry_cell_setting 'monoclinic'
loop_
_space_group_symop_operation_xyz
x,y,z
-x,1/2+y,-z
-x,-y,-z
x,1/2-y,z
loop_
_atom_site_type_symbol
_atom_site_label
_atom_site_fract_x
_atom_site_fract_y
_atom_site_fract_z
Si Si1 0.411880 0.336719 0.121177
Si Si2 0.449295 0.836982 0.954407
Si Si3 0.169788 0.835047 0.475691
Si Si4 0.420139 0.162305 0.620368
Si Si5 0.157171 0.086185 0.192764
Si Si6 0.859636 0.664938 0.091979
Si Si7 0.159500 0.585846 0.198119
Si Si8 0.411636 0.662498 0.413612
O O1 0.437217 0.250000 0.147531
O O2 0.463842 0.371555 0.053964
O O3 0.248327 0.355822 0.933174
O O4 0.501194 0.367127 0.353941
O O5 0.472294 0.750000 0.988192
O O6 0.285578 0.856551 0.728064
O O7 0.503827 0.869930 0.156854
O O8 0.188628 0.750000 0.456993
O O9 0.192258 0.883806 0.379925
O O10 0.017015 0.848296 0.342445
O O11 0.406260 0.250000 0.604892
O O12 0.265206 0.128566 0.420792
O O13 0.509412 0.135685 0.612746
O O14 0.173775 0.114610 0.070670
O O15 0.192489 0.000305 0.239639
O O16 0.000865 0.101733 0.044840
O O17 0.836985 0.750000 0.020603
O O18 0.258358 0.626027 0.221477
O O19 0.394237 0.750000 0.391401
#
# Coordination Sequence:
#
# PCOD8069332 Si02
#       8
#     4   4   4   4   4   4   4   4
#     4   9  15  27  48  74  97 120 161 206 239 281
#     4   9  17  30  49  73 100 128 159 199 246 293
#     4   9  16  29  50  71  92 125 166 204 243 287
#     4  10  20  34  51  74 106 134 158 198 253 303
#     4  10  20  33  48  73 104 133 162 205 255 292
#     4   9  16  28  49  73  94 121 164 208 243 287
#     4  10  20  32  50  74 101 129 169 211 243 289
#     4  10  18  31  52  77 100 125 164 209 246 287
#
# _framework density 17.55771
#
# number of rings (size 3 to 8) (size 9 to 14) (size 15 to 20)
#    0.000    2.500    2.500    0.750    0.000    2.000 
#    0.000    1.875    0.000    4.500    0.000    5.250 
#    0.000    0.000    0.000    0.000    0.000    0.000 
#
# Total GULP energy -396709.181183 kJ/mol
# GULP energy per Si atom -12397.161912 kJ/mol
# Density = 1.751775 g / cm^3
# Si number density = 17.557710 Si / 1000 Ang^3
#
#
#
# Elastic Constant Matrix: (Units=GPa)
#
#
# Indices 1 2 3 4 5 6 
#
# 1 118.9979 26.0892 77.5113 0.0000 7.2663 0.0000
# 2 26.0892 34.9422 33.2970 0.0000 4.7630 0.0000
# 3 77.5113 33.2970 145.7681 0.0000 5.3942 0.0000
# 4 0.0000 0.0000 0.0000 16.9888 0.0000 6.7754
# 5 7.2663 4.7630 5.3942 0.0000 31.6857 0.0000
# 6 0.0000 0.0000 0.0000 6.7754 0.0000 10.9617
#
#
#
# Elastic Compliance Matrix: (Units=1/GPa)
#
#
# Indices 1 2 3 4 5 6 
#
# 1 0.013359 -0.003913 -0.006157 0.000000 -0.001427 0.000000
# 2 -0.003913 0.038265 -0.006522 0.000000 -0.003744 0.000000
# 3 -0.006157 -0.006522 0.011608 0.000000 0.000416 0.000000
# 4 0.000000 0.000000 0.000000 0.078119 0.000000 -0.048285
# 5 -0.001427 -0.003744 0.000416 0.000000 0.032379 0.000000
# 6 0.000000 0.000000 0.000000 -0.048285 0.000000 0.121071
#
#
# Mechanical properties :
#
#
# Convention : Reuss Voigt Hill
#
# Bulk Modulus (GPa) = 33.27792 63.72258 48.50025
# Shear Modulus (GPa) = 14.79283 22.78129 18.78706
#
# Velocity S-wave (km/s) = 2.90578 3.60600 3.27466
# Velocity P-wave (km/s) = 5.50024 7.32869 6.47929
#
# Compressibility (1/GPa) = 0.03004996
#
# Stress axis : x y z
#
# Youngs Moduli (GPa) = 74.85633 26.13352 86.14425
#
# Poissons Ratio (x) = 0.10225 0.53039
# Poissons Ratio (y) = 0.29289 0.56180
# Poissons Ratio (z) = 0.46089 0.17043
#
# Static dielectric constant tensor:
#      x y z
#    x 3.372380 0.000000 0.173720 
#    y 0.000000 2.979610 0.000000 
#    z 0.173720 0.000000 3.433130 
# 
# 
# High freq. dielectric constant tensor:
#      x y z
#    x 1.670800 0.000000 0.022610 
#    y 0.000000 1.646120 0.000000 
#    z 0.022610 0.000000 1.680290 
# 
# From -- ./inp_files/32685.got.cif
#   From: 2010.06.25/outbox.cif.g09.slc.cpg/sg11_17_cif.got.tgz:32685.got - 2010.06.27 23:14:04.
