data_PCOD8069309
_publ_section_title
;
Structure prediction by ZEFSAII (Michael W. Deem and Ramdas Pophale) SiO2 
 PCOD8069309
Probable space group: P 21/M
;
_chemical_formula_sum "Si O2"
_cell_formula_units_Z 32
_cell_length_a 18.097702
_cell_length_b 8.953242
_cell_length_c 12.554943
_cell_angle_alpha 90.000000
_cell_angle_beta 76.699249
_cell_angle_gamma 90.000000
_cell_volume 1979.747612
_symmetry_space_group_name_H-M "P 21/M"
_symmetry_group_IT_number 11
_symmetry_cell_setting 'monoclinic'
loop_
_space_group_symop_operation_xyz
x,y,z
-x,1/2+y,-z
-x,-y,-z
x,1/2-y,z
loop_
_atom_site_type_symbol
_atom_site_label
_atom_site_fract_x
_atom_site_fract_y
_atom_site_fract_z
Si Si1 0.845855 0.921229 0.442039
Si Si2 0.580920 0.426388 0.987364
Si Si3 0.283638 0.081317 0.145323
Si Si4 0.312665 0.418024 0.905659
Si Si5 0.035682 0.573884 0.886054
Si Si6 0.991202 0.422721 0.694053
Si Si7 0.171142 0.922793 0.341466
Si Si8 0.809578 0.575867 0.218928
O O1 0.839102 0.750000 0.479688
O O2 0.934001 0.966280 0.397496
O O3 0.799160 0.951297 0.348675
O O4 0.808772 0.020778 0.546915
O O5 0.574062 0.250000 0.981653
O O6 0.615345 0.474822 0.092098
O O7 0.500000 0.500000 0.000000
O O8 0.636704 0.489241 0.875446
O O9 0.297621 0.250000 0.181326
O O10 0.219441 0.006629 0.237052
O O11 0.257707 0.081233 0.029092
O O12 0.343058 0.250000 0.875254
O O13 0.266402 0.475281 0.818027
O O14 0.032294 0.750000 0.898192
O O15 0.986646 0.523059 0.800730
O O16 0.122292 0.522779 0.847365
O O17 0.000000 0.500000 0.000000
O O18 0.996348 0.250000 0.727835
O O19 0.917569 0.455781 0.647998
O O20 0.191155 0.750000 0.326239
O O21 0.827427 0.750000 0.190386
#
# Coordination Sequence:
#
# PCOD8069309 Si02
#       8
#     4   4   4   4   4   4   4   4
#     4   9  18  33  51  68  92 129 168 209 253 295
#     4  10  18  31  51  77 108 135 160 191 232 284
#     4   9  19  33  49  73 101 130 163 195 240 292
#     4   8  17  32  51  73  99 129 159 192 235 285
#     4  11  22  32  45  64  89 122 159 201 249 299
#     4   9  20  36  49  65  90 124 167 212 256 298
#     4  11  21  32  49  71  98 127 164 213 253 293
#     4   9  18  35  52  68  94 124 160 203 244 289
#
# _framework density 16.163677
#
# number of rings (size 3 to 8) (size 9 to 14) (size 15 to 20)
#    0.750    1.750    0.000    3.750    1.750    3.500 
#    0.000    0.000    0.000    0.000    0.000    0.875 
#    0.000    0.000    0.000    0.000    0.000    0.000 
#
# Total GULP energy -396611.281015 kJ/mol
# GULP energy per Si atom -12394.102532 kJ/mol
# Density = 1.612689 g / cm^3
# Si number density = 16.163677 Si / 1000 Ang^3
#
#
#
# Elastic Constant Matrix: (Units=GPa)
#
#
# Indices 1 2 3 4 5 6 
#
# 1 86.6728 40.4767 38.2031 0.0000 11.5190 0.0000
# 2 40.4767 105.8341 34.6005 0.0000 7.1558 0.0000
# 3 38.2031 34.6005 59.8923 0.0000 12.5884 0.0000
# 4 0.0000 0.0000 0.0000 27.8891 0.0000 -1.2833
# 5 11.5190 7.1558 12.5884 0.0000 17.4417 0.0000
# 6 0.0000 0.0000 0.0000 -1.2833 0.0000 25.9078
#
#
#
# Elastic Compliance Matrix: (Units=1/GPa)
#
#
# Indices 1 2 3 4 5 6 
#
# 1 0.017384 -0.003733 -0.008064 0.000000 -0.004129 0.000000
# 2 -0.003733 0.012451 -0.005017 0.000000 0.000979 0.000000
# 3 -0.008064 -0.005017 0.027334 0.000000 -0.012343 0.000000
# 4 0.000000 0.000000 0.000000 0.035938 0.000000 0.001780
# 5 -0.004129 0.000979 -0.012343 0.000000 0.068568 0.000000
# 6 0.000000 0.000000 0.000000 0.001780 0.000000 0.038687
#
#
# Mechanical properties :
#
#
# Convention : Reuss Voigt Hill
#
# Bulk Modulus (GPa) = 42.48256 53.21776 47.85016
# Shear Modulus (GPa) = 20.67504 23.52231 22.09868
#
# Velocity S-wave (km/s) = 3.58034 3.81892 3.70155
# Velocity P-wave (km/s) = 6.59026 7.24164 6.92361
#
# Compressibility (1/GPa) = 0.02353907
#
# Stress axis : x y z
#
# Youngs Moduli (GPa) = 57.52313 80.31709 36.58503
#
# Poissons Ratio (x) = 0.29983 0.29503
# Poissons Ratio (y) = 0.21474 0.18356
# Poissons Ratio (z) = 0.46388 0.40298
#
# Static dielectric constant tensor:
#      x y z
#    x 2.951240 0.000000 0.180210 
#    y 0.000000 3.100520 0.000000 
#    z 0.180210 0.000000 2.994990 
# 
# 
# High freq. dielectric constant tensor:
#      x y z
#    x 1.597340 0.000000 0.012940 
#    y 0.000000 1.630340 0.000000 
#    z 0.012940 0.000000 1.604500 
# 
# From -- ./inp_files/52936.got.cif
#   From: 2010.06.25/outbox.cif.g09.slc.cpg/sg11_27_cif.got.tgz:52936.got - 2010.06.27 23:14:04.
