data_PCOD8069753
_publ_section_title
;
Structure prediction by ZEFSAII (Michael W. Deem and Ramdas Pophale) SiO2 
 PCOD8069753
Probable space group: P 21/M
;
_chemical_formula_sum "Si O2"
_cell_formula_units_Z 28
_cell_length_a 30.395054
_cell_length_b 8.967210
_cell_length_c 10.303138
_cell_angle_alpha 90.000000
_cell_angle_beta 146.330399
_cell_angle_gamma 90.000000
_cell_volume 1556.880595
_symmetry_space_group_name_H-M "P 21/M"
_symmetry_group_IT_number 11
_symmetry_cell_setting 'monoclinic'
loop_
_space_group_symop_operation_xyz
x,y,z
-x,1/2+y,-z
-x,-y,-z
x,1/2-y,z
loop_
_atom_site_type_symbol
_atom_site_label
_atom_site_fract_x
_atom_site_fract_y
_atom_site_fract_z
Si Si1 0.671259 0.424286 0.792462
Si Si2 0.835605 0.428153 0.092553
Si Si3 0.823046 0.424333 0.535380
Si Si4 0.347951 0.922601 0.964137
Si Si5 0.499185 0.424435 0.358768
Si Si6 0.906481 0.426247 0.998369
Si Si7 0.913731 0.573199 0.526616
O O1 0.685730 0.250000 0.840981
O O2 0.586878 0.457463 0.512788
O O3 0.745656 0.488876 0.894512
O O4 0.671053 0.488249 0.938854
O O5 0.842136 0.250000 0.117613
O O6 0.863040 0.488575 0.019815
O O7 0.893753 0.498456 0.340985
O O8 0.842284 0.250000 0.560377
O O9 0.728205 0.449578 0.314022
O O10 0.854716 0.515547 0.491366
O O11 0.862603 0.489193 0.762949
O O12 0.370695 0.750000 0.028368
O O13 0.425771 0.006672 0.096395
O O14 0.500000 0.500000 0.500000
O O15 0.485351 0.250000 0.340237
O O16 0.899306 0.250000 0.980259
O O17 0.997536 0.477569 0.218180
O O18 0.906565 0.750000 0.495984
#
# Coordination Sequence:
#
# PCOD8069753 Si02
#       7
#     4   4   4   4   4   4   4
#     4   8  14  26  45  69  92 121 161 195 232 288
#     4  10  18  34  55  73  97 134 169 204 247 295
#     4  10  19  35  54  72  97 134 172 207 245 298
#     4   9  16  28  46  69  94 123 163 202 242 292
#     4   9  16  26  42  68  98 125 156 197 244 289
#     4   9  20  34  52  75  99 129 171 211 247 296
#     4  11  21  33  49  77 104 126 165 213 255 298
#
# _framework density 17.984680000000001
#
# number of rings (size 3 to 8) (size 9 to 14) (size 15 to 20)
#    0.000    2.571    1.429    2.571    0.000    0.571 
#    0.000    2.857    0.000    0.857    0.000    0.000 
#    0.000    0.000    0.000    0.000    0.000    0.571 
#
# Total GULP energy -347017.708748 kJ/mol
# GULP energy per Si atom -12393.489598 kJ/mol
# Density = 1.794375 g / cm^3
# Si number density = 17.984680 Si / 1000 Ang^3
#
#
#
# Elastic Constant Matrix: (Units=GPa)
#
#
# Indices 1 2 3 4 5 6 
#
# 1 49.2866 20.6712 46.8057 0.0000 2.2611 0.0000
# 2 20.6712 46.0210 31.5535 0.0000 7.5067 0.0000
# 3 46.8057 31.5535 109.4409 0.0000 19.7801 0.0000
# 4 0.0000 0.0000 0.0000 24.4226 0.0000 7.7108
# 5 2.2611 7.5067 19.7801 0.0000 33.0216 0.0000
# 6 0.0000 0.0000 0.0000 7.7108 0.0000 12.2992
#
#
#
# Elastic Compliance Matrix: (Units=1/GPa)
#
#
# Indices 1 2 3 4 5 6 
#
# 1 0.037860 -0.007771 -0.015478 0.000000 0.008446 0.000000
# 2 -0.007771 0.028759 -0.004354 0.000000 -0.003397 0.000000
# 3 -0.015478 -0.004354 0.018662 0.000000 -0.009129 0.000000
# 4 0.000000 0.000000 0.000000 0.051050 0.000000 -0.032005
# 5 0.008446 -0.003397 -0.009129 0.000000 0.035946 0.000000
# 6 0.000000 0.000000 0.000000 -0.032005 0.000000 0.101371
#
#
# Mechanical properties :
#
#
# Convention : Reuss Voigt Hill
#
# Bulk Modulus (GPa) = 33.24972 44.75660 39.00316
# Shear Modulus (GPa) = 14.75446 20.99655 17.87551
#
# Velocity S-wave (km/s) = 2.86735 3.42053 3.15609
# Velocity P-wave (km/s) = 5.43049 6.36711 5.91736
#
# Compressibility (1/GPa) = 0.03007544
#
# Stress axis : x y z
#
# Youngs Moduli (GPa) = 26.41304 34.77143 53.58385
#
# Poissons Ratio (x) = 0.27021 0.82937
# Poissons Ratio (y) = 0.20525 0.23332
# Poissons Ratio (z) = 0.40882 0.15140
#
# Static dielectric constant tensor:
#      x y z
#    x 3.433700 0.000000 0.301690 
#    y 0.000000 3.128420 0.000000 
#    z 0.301690 0.000000 3.817110 
# 
# 
# High freq. dielectric constant tensor:
#      x y z
#    x 1.675210 0.000000 0.029890 
#    y 0.000000 1.669020 0.000000 
#    z 0.029890 0.000000 1.702940 
# 
# From -- ./inp_files/28430.got.cif
#   From: 2010.06.25/outbox.cif.g09.slc.cpg/sg11_15_cif.got.tgz:28430.got - 2010.06.27 23:14:04.
