data_PCOD8069671
_publ_section_title
;
Structure prediction by ZEFSAII (Michael W. Deem and Ramdas Pophale) SiO2 
 PCOD8069671
Probable space group: P 21/M
;
_chemical_formula_sum "Si O2"
_cell_formula_units_Z 24
_cell_length_a 7.988156
_cell_length_b 8.943951
_cell_length_c 17.196457
_cell_angle_alpha 90.000000
_cell_angle_beta 90.890348
_cell_angle_gamma 90.000000
_cell_volume 1228.464155
_symmetry_space_group_name_H-M "P 21/M"
_symmetry_group_IT_number 11
_symmetry_cell_setting 'monoclinic'
loop_
_space_group_symop_operation_xyz
x,y,z
-x,1/2+y,-z
-x,-y,-z
x,1/2-y,z
loop_
_atom_site_type_symbol
_atom_site_label
_atom_site_fract_x
_atom_site_fract_y
_atom_site_fract_z
Si Si1 0.696040 0.580605 0.848213
Si Si2 0.310465 0.580999 0.841115
Si Si3 0.495406 0.571570 0.583816
Si Si4 0.180994 0.927988 0.681021
Si Si5 0.821034 0.427304 0.998935
Si Si6 0.189516 0.072898 0.315247
O O1 0.751004 0.750000 0.869744
O O2 0.504263 0.574546 0.821781
O O3 0.720195 0.476356 0.922393
O O4 0.797376 0.518381 0.774330
O O5 0.245979 0.750000 0.847398
O O6 0.214170 0.504619 0.767800
O O7 0.270825 0.507322 0.924516
O O8 0.500000 0.500000 0.500000
O O9 0.498649 0.750000 0.577563
O O10 0.323826 0.513598 0.623232
O O11 0.658921 0.509442 0.631191
O O12 0.195078 0.750000 0.685382
O O13 0.993312 0.977473 0.653077
O O14 0.832881 0.250000 0.998442
O O15 0.000000 0.500000 0.000000
O O16 0.206409 0.250000 0.314847
#
# Coordination Sequence:
#
# PCOD8069671 Si02
#       6
#     4   4   4   4   4   4
#     4  10  18  33  56  79 103 135 178 224 267 314
#     4   9  17  31  53  78 103 135 179 223 261 310
#     4  10  20  35  55  79 105 135 172 215 263 316
#     4   9  16  30  53  79 104 134 176 218 254 306
#     4  11  22  34  49  75 109 144 182 223 264 309
#     4   9  17  31  55  81 104 137 178 215 256 313
#
# _framework density 19.536587999999998
#
# number of rings (size 3 to 8) (size 9 to 14) (size 15 to 20)
#    0.000    2.333    1.667    2.000    0.000    3.333 
#    0.000    1.667    0.000    5.000    0.000    0.000 
#    0.000    0.000    0.000    0.000    0.000    0.000 
#
# Total GULP energy -297451.580907 kJ/mol
# GULP energy per Si atom -12393.815871 kJ/mol
# Density = 1.949212 g / cm^3
# Si number density = 19.536588 Si / 1000 Ang^3
#
#
#
# Elastic Constant Matrix: (Units=GPa)
#
#
# Indices 1 2 3 4 5 6 
#
# 1 146.2647 17.9661 77.8358 0.0000 -10.9950 0.0000
# 2 17.9661 29.9160 22.6313 0.0000 -0.5174 0.0000
# 3 77.8358 22.6313 157.2129 0.0000 -9.7071 0.0000
# 4 0.0000 0.0000 0.0000 29.0897 0.0000 1.5642
# 5 -10.9950 -0.5174 -9.7071 0.0000 28.2227 0.0000
# 6 0.0000 0.0000 0.0000 1.5642 0.0000 15.9338
#
#
#
# Elastic Compliance Matrix: (Units=1/GPa)
#
#
# Indices 1 2 3 4 5 6 
#
# 1 0.009567 -0.002500 -0.004240 0.000000 0.002223 0.000000
# 2 -0.002500 0.038205 -0.004372 0.000000 -0.001777 0.000000
# 3 -0.004240 -0.004372 0.009177 0.000000 0.001425 0.000000
# 4 0.000000 0.000000 0.000000 0.034559 0.000000 -0.003393
# 5 0.002223 -0.001777 0.001425 0.000000 0.036756 0.000000
# 6 0.000000 0.000000 0.000000 -0.003393 0.000000 0.063093
#
#
# Mechanical properties :
#
#
# Convention : Reuss Voigt Hill
#
# Bulk Modulus (GPa) = 28.79639 63.36223 46.07931
# Shear Modulus (GPa) = 22.20694 28.97992 25.59343
#
# Velocity S-wave (km/s) = 3.37513 3.85563 3.62335
# Velocity P-wave (km/s) = 5.47361 7.23354 6.41423
#
# Compressibility (1/GPa) = 0.03472657
#
# Stress axis : x y z
#
# Youngs Moduli (GPa) = 104.52334 26.17479 108.96697
#
# Poissons Ratio (x) = 0.06544 0.46197
# Poissons Ratio (y) = 0.26130 0.47637
# Poissons Ratio (z) = 0.44313 0.11443
#
# Static dielectric constant tensor:
#      x y z
#    x 3.836960 0.000000 -0.023420 
#    y 0.000000 2.924510 0.000000 
#    z -0.023420 0.000000 4.105690 
# 
# 
# High freq. dielectric constant tensor:
#      x y z
#    x 1.779180 0.000000 -0.003190 
#    y 0.000000 1.693970 0.000000 
#    z -0.003190 0.000000 1.769840 
# 
# From -- ./inp_files/21004.got.cif
#   From: 2010.06.25/outbox.cif.g09.slc.cpg/sg11_11_cif.got.tgz:21004.got - 2010.06.27 23:14:04.
