data_PCOD8069956
_publ_section_title
;
Structure prediction by ZEFSAII (Michael W. Deem and Ramdas Pophale) SiO2 
 PCOD8069956
Probable space group: P 21/M
;
_chemical_formula_sum "Si O2"
_cell_formula_units_Z 32
_cell_length_a 18.525869
_cell_length_b 8.962987
_cell_length_c 13.423107
_cell_angle_alpha 90.000000
_cell_angle_beta 67.938250
_cell_angle_gamma 90.000000
_cell_volume 2065.669643
_symmetry_space_group_name_H-M "P 21/M"
_symmetry_group_IT_number 11
_symmetry_cell_setting 'monoclinic'
loop_
_space_group_symop_operation_xyz
x,y,z
-x,1/2+y,-z
-x,-y,-z
x,1/2-y,z
loop_
_atom_site_type_symbol
_atom_site_label
_atom_site_fract_x
_atom_site_fract_y
_atom_site_fract_z
Si Si1 0.889167 0.577528 0.106483
Si Si2 0.590608 0.579973 0.562168
Si Si3 0.044456 0.924960 0.333619
Si Si4 0.423683 0.920795 0.633107
Si Si5 0.884650 0.924856 0.520820
Si Si6 0.742260 0.078474 0.490194
Si Si7 0.026265 0.423494 0.139796
Si Si8 0.744353 0.082046 0.253376
O O1 0.900237 0.750000 0.127231
O O2 0.799553 0.531297 0.165812
O O3 0.940880 0.484548 0.157256
O O4 0.914240 0.543473 0.980687
O O5 0.618824 0.750000 0.558915
O O6 0.578143 0.542712 0.452774
O O7 0.503726 0.557155 0.655982
O O8 0.657276 0.474571 0.574455
O O9 0.058459 0.750000 0.321804
O O10 0.957005 0.966417 0.412319
O O11 0.106312 0.994382 0.377940
O O12 0.060683 0.993692 0.217364
O O13 0.421763 0.750000 0.590498
O O14 0.344712 0.943144 0.738977
O O15 0.879889 0.750000 0.542881
O O16 0.806876 0.979590 0.509085
O O17 0.754589 0.250000 0.512634
O O18 0.747183 0.050731 0.369880
O O19 0.018000 0.250000 0.167973
O O20 0.772398 0.250000 0.215945
#
# Coordination Sequence:
#
# PCOD8069956 Si02
#       8
#     4   4   4   4   4   4   4   4
#     4  10  20  31  44  64  86 110 144 180 212 250
#     4   9  15  24  39  57  79 109 143 175 208 248
#     4  10  20  33  49  66  84 109 141 176 213 253
#     4   8  15  26  38  55  80 110 142 173 208 251
#     4  10  20  32  46  65  87 111 141 175 211 251
#     4  10  19  29  41  60  87 116 146 178 211 248
#     4  10  20  33  47  62  84 113 142 176 216 253
#     4   9  17  28  42  60  85 116 145 176 213 250
#
# _framework density 15.491345000000001
#
# number of rings (size 3 to 8) (size 9 to 14) (size 15 to 20)
#    0.000    2.500    0.000    3.750    0.000    8.000 
#    0.000    0.000    0.000    0.000    0.000    0.000 
#    0.000    1.000    0.000    3.000    0.000    4.875 
#
# Total GULP energy -396687.111776 kJ/mol
# GULP energy per Si atom -12396.472243 kJ/mol
# Density = 1.545609 g / cm^3
# Si number density = 15.491345 Si / 1000 Ang^3
#
#
#
# Elastic Constant Matrix: (Units=GPa)
#
#
# Indices 1 2 3 4 5 6 
#
# 1 86.6924 29.7386 31.0692 0.0000 -15.5554 0.0000
# 2 29.7386 67.4245 31.9017 0.0000 -1.1954 0.0000
# 3 31.0692 31.9017 51.9961 0.0000 -3.2554 0.0000
# 4 0.0000 0.0000 0.0000 22.8450 0.0000 -0.2375
# 5 -15.5554 -1.1954 -3.2554 0.0000 22.1597 0.0000
# 6 0.0000 0.0000 0.0000 -0.2375 0.0000 28.2759
#
#
#
# Elastic Compliance Matrix: (Units=1/GPa)
#
#
# Indices 1 2 3 4 5 6 
#
# 1 0.017519 -0.004093 -0.007268 0.000000 0.011010 0.000000
# 2 -0.004093 0.021867 -0.011179 0.000000 -0.003336 0.000000
# 3 -0.007268 -0.011179 0.030356 0.000000 -0.001245 0.000000
# 4 0.000000 0.000000 0.000000 0.043777 0.000000 0.000368
# 5 0.011010 -0.003336 -0.001245 0.000000 0.052492 0.000000
# 6 0.000000 0.000000 0.000000 0.000368 0.000000 0.035369
#
#
# Mechanical properties :
#
#
# Convention : Reuss Voigt Hill
#
# Bulk Modulus (GPa) = 40.54867 43.50356 42.02612
# Shear Modulus (GPa) = 19.63235 22.21635 20.92435
#
# Velocity S-wave (km/s) = 3.56379 3.79108 3.67919
# Velocity P-wave (km/s) = 6.57009 6.87797 6.72579
#
# Compressibility (1/GPa) = 0.02466172
#
# Stress axis : x y z
#
# Youngs Moduli (GPa) = 57.08012 45.73071 32.94259
#
# Poissons Ratio (x) = 0.18719 0.23941
# Poissons Ratio (y) = 0.23365 0.36828
# Poissons Ratio (z) = 0.41483 0.51124
#
# Static dielectric constant tensor:
#      x y z
#    x 3.124120 0.000000 -0.217000 
#    y 0.000000 3.069930 0.000000 
#    z -0.217000 0.000000 2.689290 
# 
# 
# High freq. dielectric constant tensor:
#      x y z
#    x 1.593060 0.000000 -0.019820 
#    y 0.000000 1.612110 0.000000 
#    z -0.019820 0.000000 1.545230 
# 
# From -- ./inp_files/52944.got.cif
#   From: 2010.06.25/outbox.cif.g09.slc.cpg/sg11_27_cif.got.tgz:52944.got - 2010.06.27 23:14:04.
