data_PCOD8069069
_publ_section_title
;
Structure prediction by ZEFSAII (Michael W. Deem and Ramdas Pophale) SiO2 
 PCOD8069069
Probable space group: P 21/M
;
_chemical_formula_sum "Si O2"
_cell_formula_units_Z 32
_cell_length_a 20.612950
_cell_length_b 8.848982
_cell_length_c 15.090896
_cell_angle_alpha 90.000000
_cell_angle_beta 42.534347
_cell_angle_gamma 90.000000
_cell_volume 1860.868911
_symmetry_space_group_name_H-M "P 21/M"
_symmetry_group_IT_number 11
_symmetry_cell_setting 'monoclinic'
loop_
_space_group_symop_operation_xyz
x,y,z
-x,1/2+y,-z
-x,-y,-z
x,1/2-y,z
loop_
_atom_site_type_symbol
_atom_site_label
_atom_site_fract_x
_atom_site_fract_y
_atom_site_fract_z
Si Si1 0.336089 0.923011 0.997614
Si Si2 0.800945 0.573921 0.724178
Si Si3 0.513464 0.426534 0.890421
Si Si4 0.726559 0.072879 0.627642
Si Si5 0.837032 0.077383 0.935505
Si Si6 0.030689 0.422794 0.330058
Si Si7 0.987694 0.077186 0.919273
Si Si8 0.878072 0.572876 0.375594
O O1 0.365038 0.750000 0.984227
O O2 0.278306 0.943265 0.961829
O O3 0.433456 0.019351 0.900785
O O4 0.268130 0.972373 0.146191
O O5 0.774547 0.750000 0.763756
O O6 0.784803 0.522027 0.641153
O O7 0.914088 0.544936 0.632501
O O8 0.504126 0.250000 0.914430
O O9 0.614786 0.470535 0.744254
O O10 0.500000 0.500000 0.000000
O O11 0.742062 0.250000 0.625686
O O12 0.776056 0.016078 0.485822
O O13 0.865399 0.250000 0.877363
O O14 0.877898 0.053143 0.994091
O O15 0.886397 0.951629 0.825666
O O16 0.994928 0.250000 0.359870
O O17 0.941785 0.532538 0.398833
O O18 0.010568 0.250000 0.912812
O O19 0.064510 0.015896 0.769411
O O20 0.000000 0.000000 0.000000
O O21 0.858481 0.750000 0.392849
#
# Coordination Sequence:
#
# PCOD8069069 Si02
#       8
#     4   4   4   4   4   4   4   4
#     4  10  18  30  49  70  96 131 169 211 251 288
#     4  10  19  30  46  67  93 128 168 208 247 287
#     4  11  22  34  49  70  96 129 172 218 258 294
#     4  11  23  35  48  67  93 128 170 211 250 291
#     4   8  16  30  47  71 102 131 161 197 241 292
#     4   9  17  29  46  68  93 125 165 203 240 284
#     4   9  18  33  54  80 105 129 156 190 237 297
#     4  10  21  36  51  69  97 130 161 198 244 295
#
# _framework density 17.196268
#
# number of rings (size 3 to 8) (size 9 to 14) (size 15 to 20)
#    0.000    2.250    1.250    3.000    0.000    6.500 
#    0.000    0.000    0.000    0.000    0.000    0.875 
#    0.000    0.000    0.000    0.000    0.000    0.000 
#
# Total GULP energy -396511.006491 kJ/mol
# GULP energy per Si atom -12390.968953 kJ/mol
# Density = 1.715713 g / cm^3
# Si number density = 17.196268 Si / 1000 Ang^3
#
#
#
# Elastic Constant Matrix: (Units=GPa)
#
#
# Indices 1 2 3 4 5 6 
#
# 1 108.4571 34.5088 58.7089 0.0000 -10.8891 0.0000
# 2 34.5088 57.9346 33.2534 0.0000 -11.3573 0.0000
# 3 58.7089 33.2534 85.2303 0.0000 -18.9472 0.0000
# 4 0.0000 0.0000 0.0000 25.6270 0.0000 -2.4234
# 5 -10.8891 -11.3573 -18.9472 0.0000 20.4442 0.0000
# 6 0.0000 0.0000 0.0000 -2.4234 0.0000 28.3447
#
#
#
# Elastic Compliance Matrix: (Units=1/GPa)
#
#
# Indices 1 2 3 4 5 6 
#
# 1 0.015532 -0.004283 -0.009720 0.000000 -0.003115 0.000000
# 2 -0.004283 0.023912 -0.004954 0.000000 0.006411 0.000000
# 3 -0.009720 -0.004954 0.023425 0.000000 0.013780 0.000000
# 4 0.000000 0.000000 0.000000 0.039339 0.000000 0.003363
# 5 -0.003115 0.006411 0.013780 0.000000 0.063587 0.000000
# 6 0.000000 0.000000 0.000000 0.003363 0.000000 0.035568
#
#
# Mechanical properties :
#
#
# Convention : Reuss Voigt Hill
#
# Bulk Modulus (GPa) = 40.07318 56.06270 48.06794
# Shear Modulus (GPa) = 20.19418 23.22657 21.71038
#
# Velocity S-wave (km/s) = 3.43057 3.67914 3.55703
# Velocity P-wave (km/s) = 6.24866 7.12184 6.69949
#
# Compressibility (1/GPa) = 0.02495435
#
# Stress axis : x y z
#
# Youngs Moduli (GPa) = 64.38351 41.81919 42.68985
#
# Poissons Ratio (x) = 0.17911 0.41496
# Poissons Ratio (y) = 0.27576 0.21149
# Poissons Ratio (z) = 0.62582 0.20718
#
# Static dielectric constant tensor:
#      x y z
#    x 3.400520 0.000000 -0.256310 
#    y 0.000000 3.283590 0.000000 
#    z -0.256310 0.000000 3.062220 
# 
# 
# High freq. dielectric constant tensor:
#      x y z
#    x 1.651160 0.000000 -0.025790 
#    y 0.000000 1.675800 0.000000 
#    z -0.025790 0.000000 1.626660 
# 
# From -- ./inp_files/54251.got.cif
#   From: 2010.06.25/outbox.cif.g09.slc.cpg/sg11_28_cif.got.tgz:54251.got - 2010.06.27 23:14:04.
