data_PCOD8069652
_publ_section_title
;
Structure prediction by ZEFSAII (Michael W. Deem and Ramdas Pophale) SiO2 
 PCOD8069652
Probable space group: P 21/M
;
_chemical_formula_sum "Si O2"
_cell_formula_units_Z 28
_cell_length_a 16.249769
_cell_length_b 10.125672
_cell_length_c 16.005218
_cell_angle_alpha 90.000000
_cell_angle_beta 34.598566
_cell_angle_gamma 90.000000
_cell_volume 1495.359900
_symmetry_space_group_name_H-M "P 21/M"
_symmetry_group_IT_number 11
_symmetry_cell_setting 'monoclinic'
loop_
_space_group_symop_operation_xyz
x,y,z
-x,1/2+y,-z
-x,-y,-z
x,1/2-y,z
loop_
_atom_site_type_symbol
_atom_site_label
_atom_site_fract_x
_atom_site_fract_y
_atom_site_fract_z
Si Si1 0.228718 0.103673 0.552721
Si Si2 0.716650 0.096068 0.990297
Si Si3 0.385499 0.405846 0.262974
Si Si4 0.037877 0.534807 0.328438
Si Si5 0.165171 0.608556 0.390824
Si Si6 0.176446 0.899814 0.917996
Si Si7 0.165453 0.402903 0.785069
O O1 0.279844 0.250000 0.530882
O O2 0.346423 0.043211 0.389867
O O3 0.223578 0.035687 0.648352
O O4 0.070950 0.111980 0.641586
O O5 0.753173 0.250000 0.942809
O O6 0.818028 0.004820 0.846650
O O7 0.551514 0.063996 0.104017
O O8 0.739904 0.061673 0.067543
O O9 0.348881 0.250000 0.283668
O O10 0.283600 0.490881 0.286434
O O11 0.080447 0.618932 0.374196
O O12 0.951751 0.407425 0.435973
O O13 0.242589 0.750000 0.340834
O O14 0.215452 0.750000 0.857809
O O15 0.229935 0.003267 0.803227
O O16 0.006844 0.914009 0.075332
O O17 0.210705 0.250000 0.763188
#
# Coordination Sequence:
#
# PCOD8069652 Si02
#       7
#     4   4   4   4   4   4   4
#     4   9  15  29  51  73  95 132 175 209 244 296
#     4  10  18  33  55  79 102 136 180 214 247 304
#     4   9  20  35  54  76 104 139 177 213 252 305
#     4  10  19  32  55  76 100 134 175 215 255 301
#     4  10  21  36  53  78 107 135 170 217 265 309
#     4   9  17  29  48  74 102 128 164 212 255 296
#     4   9  16  28  48  72  98 129 167 209 255 299
#
# _framework density 18.724588000000001
#
# number of rings (size 3 to 8) (size 9 to 14) (size 15 to 20)
#    0.000    2.571    1.429    1.286    0.000    4.571 
#    0.000    5.714    0.000    0.000    0.000    0.000 
#    0.000    0.000    0.000    0.000    0.000    0.000 
#
# Total GULP energy -346889.138494 kJ/mol
# GULP energy per Si atom -12388.897803 kJ/mol
# Density = 1.868197 g / cm^3
# Si number density = 18.724588 Si / 1000 Ang^3
#
#
#
# Elastic Constant Matrix: (Units=GPa)
#
#
# Indices 1 2 3 4 5 6 
#
# 1 71.9857 31.5626 32.3817 0.0000 5.6837 0.0000
# 2 31.5626 71.4485 19.6779 0.0000 -1.0070 0.0000
# 3 32.3817 19.6779 92.4789 0.0000 -2.5789 0.0000
# 4 0.0000 0.0000 0.0000 8.1607 0.0000 -1.5483
# 5 5.6837 -1.0070 -2.5789 0.0000 28.6167 0.0000
# 6 0.0000 0.0000 0.0000 -1.5483 0.0000 12.8624
#
#
#
# Elastic Compliance Matrix: (Units=1/GPa)
#
#
# Indices 1 2 3 4 5 6 
#
# 1 0.020001 -0.007369 -0.005567 0.000000 -0.004733 0.000000
# 2 -0.007369 0.017584 -0.001106 0.000000 0.001983 0.000000
# 3 -0.005567 -0.001106 0.013061 0.000000 0.002244 0.000000
# 4 0.000000 0.000000 0.000000 0.125402 0.000000 0.015095
# 5 -0.004733 0.001983 0.002244 0.000000 0.036157 0.000000
# 6 0.000000 0.000000 0.000000 0.015095 0.000000 0.079563
#
#
# Mechanical properties :
#
#
# Convention : Reuss Voigt Hill
#
# Bulk Modulus (GPa) = 44.32463 44.79527 44.55995
# Shear Modulus (GPa) = 15.27318 20.08070 17.67694
#
# Velocity S-wave (km/s) = 2.85910 3.27834 3.07587
# Velocity P-wave (km/s) = 5.88409 6.18912 6.03853
#
# Compressibility (1/GPa) = 0.02256082
#
# Stress axis : x y z
#
# Youngs Moduli (GPa) = 49.99847 56.87052 76.56609
#
# Poissons Ratio (x) = 0.41906 0.42627
# Poissons Ratio (y) = 0.36842 0.08469
# Poissons Ratio (z) = 0.27836 0.06290
#
# Static dielectric constant tensor:
#      x y z
#    x 3.389990 0.000000 0.203290 
#    y 0.000000 3.228590 0.000000 
#    z 0.203290 0.000000 3.493660 
# 
# 
# High freq. dielectric constant tensor:
#      x y z
#    x 1.718360 0.000000 0.013250 
#    y 0.000000 1.690850 0.000000 
#    z 0.013250 0.000000 1.723720 
# 
# From -- ./inp_files/52101.got.cif
#   From: 2010.06.25/outbox.cif.g09.slc.cpg/sg11_27_cif.got.tgz:52101.got - 2010.06.27 23:14:04.
