data_PCOD8069734
_publ_section_title
;
Structure prediction by ZEFSAII (Michael W. Deem and Ramdas Pophale) SiO2 
 PCOD8069734
Probable space group: P 21/M
;
_chemical_formula_sum "Si O2"
_cell_formula_units_Z 26
_cell_length_a 8.539003
_cell_length_b 14.064177
_cell_length_c 13.477269
_cell_angle_alpha 90.000000
_cell_angle_beta 129.245827
_cell_angle_gamma 90.000000
_cell_volume 1253.459906
_symmetry_space_group_name_H-M "P 21/M"
_symmetry_group_IT_number 11
_symmetry_cell_setting 'monoclinic'
loop_
_space_group_symop_operation_xyz
x,y,z
-x,1/2+y,-z
-x,-y,-z
x,1/2-y,z
loop_
_atom_site_type_symbol
_atom_site_label
_atom_site_fract_x
_atom_site_fract_y
_atom_site_fract_z
Si Si1 0.957802 0.460244 0.873372
Si Si2 0.165341 0.575985 0.788283
Si Si3 0.580572 0.941504 0.644677
Si Si4 0.339949 0.250000 0.223034
Si Si5 0.772074 0.515800 0.381658
Si Si6 0.255067 0.143636 0.467783
Si Si7 0.105158 0.250000 0.944183
Si Si8 0.554370 0.250000 0.113283
O O1 0.726080 0.477117 0.747798
O O2 0.112730 0.517152 0.864905
O O3 0.986949 0.346952 0.870465
O O4 0.000000 0.500000 0.000000
O O5 0.264928 0.500776 0.749544
O O6 0.330509 0.656203 0.879097
O O7 0.972270 0.626857 0.661798
O O8 0.677148 0.840773 0.714224
O O9 0.592393 0.931253 0.528037
O O10 0.359544 0.943608 0.603789
O O11 0.536406 0.250000 0.227353
O O12 0.136618 0.250000 0.075364
O O13 0.721414 0.621064 0.404741
O O14 0.000000 0.500000 0.500000
O O15 0.326152 0.250000 0.478558
O O16 0.325651 0.250000 0.977623
#
# Coordination Sequence:
#
# PCOD8069734 Si02
#       8
#     4   4   4   2   4   4   2   2
#     4  11  23  40  63  89 122 159 199 245 298 359
#     4  10  21  36  63  87 119 155 195 254 294 349
#     4  11  20  38  63  89 121 156 197 254 298 348
#     4  10  18  33  64  88 117 150 201 253 302 329
#     4  10  21  39  58  86 117 153 195 249 304 353
#     4  10  20  34  60  88 116 151 202 246 293 354
#     4  10  22  39  56  88 125 162 193 243 300 358
#     4  10  18  36  62  90 114 154 208 246 294 339
#
# _framework density 20.742585999999999
#
# number of rings (size 3 to 8) (size 9 to 14) (size 15 to 20)
#    0.462    1.231    4.615    0.462    0.000    1.231 
#    2.769    0.000    0.000    0.000    0.000    0.000 
#    0.000    0.000    0.000    0.000    0.000    0.000 
#
# Total GULP energy -322146.794984 kJ/mol
# GULP energy per Si atom -12390.261346 kJ/mol
# Density = 2.069538 g / cm^3
# Si number density = 20.742586 Si / 1000 Ang^3
#
#
#
# Elastic Constant Matrix: (Units=GPa)
#
#
# Indices 1 2 3 4 5 6 
#
# 1 132.8363 55.2196 45.2085 0.0000 -9.8701 0.0000
# 2 55.2196 142.4178 36.5382 0.0000 -0.7848 0.0000
# 3 45.2085 36.5382 55.1588 0.0000 -13.2567 0.0000
# 4 0.0000 0.0000 0.0000 17.7009 0.0000 2.8418
# 5 -9.8701 -0.7848 -13.2567 0.0000 42.5703 0.0000
# 6 0.0000 0.0000 0.0000 2.8418 0.0000 36.1924
#
#
#
# Elastic Compliance Matrix: (Units=1/GPa)
#
#
# Indices 1 2 3 4 5 6 
#
# 1 0.011066 -0.002380 -0.007445 0.000000 0.000204 0.000000
# 2 -0.002380 0.009089 -0.004499 0.000000 -0.001785 0.000000
# 3 -0.007445 -0.004499 0.028943 0.000000 0.007204 0.000000
# 4 0.000000 0.000000 0.000000 0.057216 0.000000 -0.004492
# 5 0.000204 -0.001785 0.007204 0.000000 0.025748 0.000000
# 6 0.000000 0.000000 0.000000 -0.004492 0.000000 0.027983
#
#
# Mechanical properties :
#
#
# Convention : Reuss Voigt Hill
#
# Bulk Modulus (GPa) = 48.89795 67.14949 58.02372
# Shear Modulus (GPa) = 25.57439 32.18917 28.88178
#
# Velocity S-wave (km/s) = 3.51514 3.94361 3.73552
# Velocity P-wave (km/s) = 6.33244 7.29240 6.82931
#
# Compressibility (1/GPa) = 0.02045076
#
# Stress axis : x y z
#
# Youngs Moduli (GPa) = 90.36696 110.02671 34.55070
#
# Poissons Ratio (x) = 0.26181 0.25722
# Poissons Ratio (y) = 0.21503 0.15545
# Poissons Ratio (z) = 0.67275 0.49505
#
# Static dielectric constant tensor:
#      x y z
#    x 4.087110 0.000000 -0.287670 
#    y 0.000000 3.783590 0.000000 
#    z -0.287670 0.000000 3.648620 
# 
# 
# High freq. dielectric constant tensor:
#      x y z
#    x 1.828950 0.000000 -0.009660 
#    y 0.000000 1.813280 0.000000 
#    z -0.009660 0.000000 1.783580 
# 
# From -- ./inp_files/47095.got.cif
#   From: 2010.06.25/outbox.cif.g09.slc.cpg/sg11_24_cif.got.tgz:47095.got - 2010.06.27 23:14:04.
