data_PCOD8069276
_publ_section_title
;
Structure prediction by ZEFSAII (Michael W. Deem and Ramdas Pophale) SiO2 
 PCOD8069276
Probable space group: P 21/M
;
_chemical_formula_sum "Si O2"
_cell_formula_units_Z 32
_cell_length_a 13.272980
_cell_length_b 9.647542
_cell_length_c 23.206121
_cell_angle_alpha 90.000000
_cell_angle_beta 32.392224
_cell_angle_gamma 90.000000
_cell_volume 1591.912554
_symmetry_space_group_name_H-M "P 21/M"
_symmetry_group_IT_number 11
_symmetry_cell_setting 'monoclinic'
loop_
_space_group_symop_operation_xyz
x,y,z
-x,1/2+y,-z
-x,-y,-z
x,1/2-y,z
loop_
_atom_site_type_symbol
_atom_site_label
_atom_site_fract_x
_atom_site_fract_y
_atom_site_fract_z
Si Si1 0.968698 0.085854 0.073243
Si Si2 0.790855 0.592418 0.934551
Si Si3 0.040377 0.091927 0.265198
Si Si4 0.237347 0.403809 0.533154
Si Si5 0.454591 0.095929 0.102025
Si Si6 0.553184 0.413229 0.298420
Si Si7 0.935557 0.097745 0.581383
Si Si8 0.616357 0.595584 0.739534
O O1 0.971277 0.250000 0.057512
O O2 0.770184 0.043125 0.198355
O O3 0.125557 0.044397 0.044400
O O4 0.000000 0.000000 0.000000
O O5 0.722192 0.750000 0.972738
O O6 0.950967 0.577883 0.808266
O O7 0.610079 0.505687 0.999883
O O8 0.001564 0.250000 0.303089
O O9 0.240676 0.042459 0.195087
O O10 0.860989 0.002140 0.372403
O O11 0.273517 0.250000 0.542809
O O12 0.429970 0.470190 0.412450
O O13 0.102047 0.385485 0.544958
O O14 0.471722 0.250000 0.065956
O O15 0.514021 0.105593 0.141061
O O16 0.527941 0.250000 0.311994
O O17 0.483633 0.465467 0.269017
O O18 0.873456 0.250000 0.589203
O O19 0.763580 0.016447 0.692276
O O20 0.000000 0.000000 0.500000
O O21 0.702123 0.750000 0.685178
#
# Coordination Sequence:
#
# PCOD8069276 Si02
#       8
#     4   4   4   4   4   4   4   4
#     4  10  21  40  64  85 110 143 180 226 277 328
#     4  10  22  38  57  82 111 143 183 233 282 325
#     4  10  21  37  55  79 113 149 184 225 277 330
#     4  10  20  34  53  78 108 147 190 225 265 324
#     4  10  20  33  55  82 110 150 188 222 272 333
#     4   9  18  34  55  78 108 145 183 221 268 326
#     4  11  20  30  47  73 108 146 181 219 267 322
#     4  10  18  31  50  76 108 142 181 220 265 323
#
# _framework density 20.101607999999999
#
# number of rings (size 3 to 8) (size 9 to 14) (size 15 to 20)
#    0.000    2.000    2.500    1.500    0.000    3.500 
#    0.000    1.875    0.000    0.000    0.000    0.000 
#    0.000    0.000    0.000    0.000    0.000    0.000 
#
# Total GULP energy -396456.328851 kJ/mol
# GULP energy per Si atom -12389.260277 kJ/mol
# Density = 2.005586 g / cm^3
# Si number density = 20.101608 Si / 1000 Ang^3
#
#
#
# Elastic Constant Matrix: (Units=GPa)
#
#
# Indices 1 2 3 4 5 6 
#
# 1 62.5845 20.4117 23.5504 0.0000 3.8865 0.0000
# 2 20.4117 82.6505 42.2949 0.0000 -3.0704 0.0000
# 3 23.5504 42.2949 103.3168 0.0000 -5.4064 0.0000
# 4 0.0000 0.0000 0.0000 29.0421 0.0000 3.8200
# 5 3.8865 -3.0704 -5.4064 0.0000 31.1080 0.0000
# 6 0.0000 0.0000 0.0000 3.8200 0.0000 19.6910
#
#
#
# Elastic Compliance Matrix: (Units=1/GPa)
#
#
# Indices 1 2 3 4 5 6 
#
# 1 0.018334 -0.003064 -0.003089 0.000000 -0.003130 0.000000
# 2 -0.003064 0.015823 -0.005730 0.000000 0.000949 0.000000
# 3 -0.003089 -0.005730 0.012836 0.000000 0.002051 0.000000
# 4 0.000000 0.000000 0.000000 0.035334 0.000000 -0.006855
# 5 -0.003130 0.000949 0.002051 0.000000 0.032987 0.000000
# 6 0.000000 0.000000 0.000000 -0.006855 0.000000 0.052114
#
#
# Mechanical properties :
#
#
# Convention : Reuss Voigt Hill
#
# Bulk Modulus (GPa) = 43.04897 46.78508 44.91702
# Shear Modulus (GPa) = 25.13372 26.78786 25.96079
#
# Velocity S-wave (km/s) = 3.53984 3.65447 3.59761
# Velocity P-wave (km/s) = 6.17815 6.41340 6.29687
#
# Compressibility (1/GPa) = 0.02322936
#
# Stress axis : x y z
#
# Youngs Moduli (GPa) = 54.54278 63.19936 77.90663
#
# Poissons Ratio (x) = 0.19361 0.24064
# Poissons Ratio (y) = 0.16709 0.44637
# Poissons Ratio (z) = 0.16847 0.36210
#
# Static dielectric constant tensor:
#      x y z
#    x 3.452470 0.000000 -0.021800 
#    y 0.000000 3.367740 0.000000 
#    z -0.021800 0.000000 4.153280 
# 
# 
# High freq. dielectric constant tensor:
#      x y z
#    x 1.765410 0.000000 0.011480 
#    y 0.000000 1.767390 0.000000 
#    z 0.011480 0.000000 1.786140 
# 
# From -- ./inp_files/69014.got.cif
#   From: 2010.06.25/outbox.cif.g09.slc.cpg/sg11_35_cif.got.tgz:69014.got - 2010.06.27 23:14:04.
