data_PCOD8069800
_publ_section_title
;
Structure prediction by ZEFSAII (Michael W. Deem and Ramdas Pophale) SiO2 
 PCOD8069800
Probable space group: P 21/M
;
_chemical_formula_sum "Si O2"
_cell_formula_units_Z 32
_cell_length_a 22.403270
_cell_length_b 14.411177
_cell_length_c 15.385226
_cell_angle_alpha 90.000000
_cell_angle_beta 161.413884
_cell_angle_gamma 90.000000
_cell_volume 1583.205140
_symmetry_space_group_name_H-M "P 21/M"
_symmetry_group_IT_number 11
_symmetry_cell_setting 'monoclinic'
loop_
_space_group_symop_operation_xyz
x,y,z
-x,1/2+y,-z
-x,-y,-z
x,1/2-y,z
loop_
_atom_site_type_symbol
_atom_site_label
_atom_site_fract_x
_atom_site_fract_y
_atom_site_fract_z
Si Si1 0.042588 0.398196 0.087674
Si Si2 0.825587 0.461535 0.147508
Si Si3 0.031456 0.461902 0.255493
Si Si4 0.469232 0.392557 0.063815
Si Si5 0.468354 0.148567 0.688932
Si Si6 0.448757 0.406673 0.848056
Si Si7 0.137276 0.849632 0.325676
Si Si8 0.104070 0.145113 0.654621
O O1 0.260645 0.377362 0.372034
O O2 0.988906 0.391286 0.116166
O O3 0.000000 0.500000 0.000000
O O4 0.916097 0.335464 0.850095
O O5 0.887558 0.444404 0.134175
O O6 0.854965 0.570348 0.212135
O O7 0.932802 0.392724 0.360844
O O8 0.607721 0.432224 0.849508
O O9 0.238621 0.442346 0.575813
O O10 0.017007 0.569534 0.205182
O O11 0.424828 0.502637 0.998136
O O12 0.642201 0.372054 0.365870
O O13 0.515569 0.356916 0.029309
O O14 0.286936 0.342242 0.847964
O O15 0.523662 0.250000 0.727468
O O16 0.468615 0.160621 0.794032
O O17 0.097469 0.750000 0.316285
O O18 0.055142 0.250000 0.622059
#
# Coordination Sequence:
#
# PCOD8069800 Si02
#       8
#     4   4   4   4   4   4   4   4
#     4   9  20  40  64  84 111 151 198 255 304 350
#     4  11  23  40  58  88 127 165 200 250 297 363
#     4   9  19  38  61  83 114 158 197 241 304 354
#     4  10  18  34  59  87 120 155 194 247 302 359
#     4  11  22  38  62  89 119 158 202 250 303 358
#     4   9  18  35  58  86 118 151 197 247 299 353
#     4  10  20  34  59  90 116 147 200 255 302 357
#     4  11  23  37  57  86 128 171 200 239 304 371
#
# _framework density 20.212161999999999
#
# number of rings (size 3 to 8) (size 9 to 14) (size 15 to 20)
#    0.000    2.000    2.500    1.875    0.000    1.500 
#    0.000    4.375    0.000    0.000    0.000    0.000 
#    0.000    0.000    0.000    0.000    0.000    0.000 
#
# Total GULP energy -396533.466324 kJ/mol
# GULP energy per Si atom -12391.670823 kJ/mol
# Density = 2.016616 g / cm^3
# Si number density = 20.212162 Si / 1000 Ang^3
#
#
#
# Elastic Constant Matrix: (Units=GPa)
#
#
# Indices 1 2 3 4 5 6 
#
# 1 87.3505 25.6656 41.6965 0.0000 -0.1706 0.0000
# 2 25.6656 108.3664 29.5429 0.0000 1.3040 0.0000
# 3 41.6965 29.5429 94.6615 0.0000 -11.7272 0.0000
# 4 0.0000 0.0000 0.0000 12.7766 0.0000 2.7265
# 5 -0.1706 1.3040 -11.7272 0.0000 27.5044 0.0000
# 6 0.0000 0.0000 0.0000 2.7265 0.0000 12.8215
#
#
#
# Elastic Compliance Matrix: (Units=1/GPa)
#
#
# Indices 1 2 3 4 5 6 
#
# 1 0.015008 -0.001788 -0.006367 0.000000 -0.002537 0.000000
# 2 -0.001788 0.010396 -0.002660 0.000000 -0.001638 0.000000
# 3 -0.006367 -0.002660 0.015002 0.000000 0.006483 0.000000
# 4 0.000000 0.000000 0.000000 0.081989 0.000000 -0.017435
# 5 -0.002537 -0.001638 0.006483 0.000000 0.039184 0.000000
# 6 0.000000 0.000000 0.000000 -0.017435 0.000000 0.081702
#
#
# Mechanical properties :
#
#
# Convention : Reuss Voigt Hill
#
# Bulk Modulus (GPa) = 53.25945 53.79871 53.52908
# Shear Modulus (GPa) = 18.43872 23.51873 20.97873
#
# Velocity S-wave (km/s) = 3.02364 3.41485 3.22518
# Velocity P-wave (km/s) = 6.21267 6.49793 6.35690
#
# Compressibility (1/GPa) = 0.01877601
#
# Stress axis : x y z
#
# Youngs Moduli (GPa) = 66.63215 96.18793 66.65930
#
# Poissons Ratio (x) = 0.17200 0.42441
# Poissons Ratio (y) = 0.11915 0.17730
# Poissons Ratio (z) = 0.42423 0.25585
#
# Static dielectric constant tensor:
#      x y z
#    x 3.474140 0.000000 -0.077630 
#    y 0.000000 3.788490 0.000000 
#    z -0.077630 0.000000 3.419620 
# 
# 
# High freq. dielectric constant tensor:
#      x y z
#    x 1.766560 0.000000 -0.014410 
#    y 0.000000 1.792440 0.000000 
#    z -0.014410 0.000000 1.781580 
# 
# From -- ./inp_files/55043.got.cif
#   From: 2010.06.25/outbox.cif.g09.slc.cpg/sg11_28_cif.got.tgz:55043.got - 2010.06.27 23:14:04.
