data_PCOD8069817
_publ_section_title
;
Structure prediction by ZEFSAII (Michael W. Deem and Ramdas Pophale) SiO2 
 PCOD8069817
Probable space group: P 21/M
;
_chemical_formula_sum "Si O2"
_cell_formula_units_Z 32
_cell_length_a 9.437295
_cell_length_b 20.904000
_cell_length_c 15.573209
_cell_angle_alpha 90.000000
_cell_angle_beta 147.605803
_cell_angle_gamma 90.000000
_cell_volume 1645.925405
_symmetry_space_group_name_H-M "P 21/M"
_symmetry_group_IT_number 11
_symmetry_cell_setting 'monoclinic'
loop_
_space_group_symop_operation_xyz
x,y,z
-x,1/2+y,-z
-x,-y,-z
x,1/2-y,z
loop_
_atom_site_type_symbol
_atom_site_label
_atom_site_fract_x
_atom_site_fract_y
_atom_site_fract_z
Si Si1 0.660556 0.908032 0.913406
Si Si2 0.790629 0.493939 0.107338
Si Si3 0.567856 0.116217 0.897573
Si Si4 0.809757 0.679150 0.665856
Si Si5 0.688730 0.956099 0.540350
Si Si6 0.581696 0.178672 0.073060
Si Si7 0.302786 0.482762 0.649433
Si Si8 0.958643 0.821344 0.933521
O O1 0.471801 0.859320 0.867172
O O2 0.478743 0.958324 0.770715
O O3 0.848734 0.871933 0.944457
O O4 0.848709 0.943500 0.079378
O O5 0.011322 0.481861 0.292280
O O6 0.500000 0.500000 0.000000
O O7 0.793615 0.433275 0.045615
O O8 0.342840 0.079909 0.729066
O O9 0.434992 0.149150 0.913672
O O10 0.727698 0.166573 0.920798
O O11 0.692586 0.750000 0.580384
O O12 0.650996 0.619290 0.544060
O O13 0.798426 0.672683 0.762784
O O14 0.107840 0.676305 0.784772
O O15 0.610145 0.965172 0.401821
O O16 0.500000 0.000000 0.500000
O O17 0.474651 0.250000 0.030995
O O18 0.000000 0.500000 0.500000
O O19 0.928430 0.750000 0.955804
#
# Coordination Sequence:
#
# PCOD8069817 Si02
#       8
#     4   4   4   4   4   4   4   4
#     4  11  22  35  61  88 121 153 198 254 301 351
#     4  11  20  37  63  84 117 156 201 249 294 357
#     4  10  20  37  61  83 116 150 199 240 300 352
#     4   9  18  37  60  81 114 160 203 243 296 367
#     4  12  23  37  59  93 121 157 204 245 303 369
#     4  10  18  34  63  87 108 151 210 251 288 355
#     4  11  25  36  57  89 126 154 192 250 312 359
#     4  10  20  36  60  89 115 147 202 257 297 351
#
# _framework density 19.441951
#
# number of rings (size 3 to 8) (size 9 to 14) (size 15 to 20)
#    0.000    1.500    3.750    4.500    1.750    1.000 
#    0.000    1.250    0.000    3.000    0.000    0.000 
#    0.000    0.000    0.000    0.000    0.000    0.000 
#
# Total GULP energy -396700.137833 kJ/mol
# GULP energy per Si atom -12396.879307 kJ/mol
# Density = 1.939770 g / cm^3
# Si number density = 19.441951 Si / 1000 Ang^3
#
#
#
# Elastic Constant Matrix: (Units=GPa)
#
#
# Indices 1 2 3 4 5 6 
#
# 1 87.1330 46.7618 21.8065 0.0000 -17.8434 0.0000
# 2 46.7618 156.3743 42.4480 0.0000 -18.6634 0.0000
# 3 21.8065 42.4480 73.6133 0.0000 -13.0484 0.0000
# 4 0.0000 0.0000 0.0000 29.6949 0.0000 -6.1727
# 5 -17.8434 -18.6634 -13.0484 0.0000 27.6703 0.0000
# 6 0.0000 0.0000 0.0000 -6.1727 0.0000 34.0133
#
#
#
# Elastic Compliance Matrix: (Units=1/GPa)
#
#
# Indices 1 2 3 4 5 6 
#
# 1 0.014976 -0.003307 -0.001323 0.000000 0.006803 0.000000
# 2 -0.003307 0.008604 -0.003635 0.000000 0.001957 0.000000
# 3 -0.001323 -0.003635 0.016899 0.000000 0.004664 0.000000
# 4 0.000000 0.000000 0.000000 0.034996 0.000000 0.006351
# 5 0.006803 0.001957 0.004664 0.000000 0.044046 0.000000
# 6 0.000000 0.000000 0.000000 0.006351 0.000000 0.030553
#
#
# Mechanical properties :
#
#
# Convention : Reuss Voigt Hill
#
# Bulk Modulus (GPa) = 41.75693 59.90589 50.83141
# Shear Modulus (GPa) = 28.63891 32.01598 30.32745
#
# Velocity S-wave (km/s) = 3.84219 4.06242 3.95384
# Velocity P-wave (km/s) = 6.41932 7.27213 6.85899
#
# Compressibility (1/GPa) = 0.02394812
#
# Stress axis : x y z
#
# Youngs Moduli (GPa) = 66.77414 116.22348 59.17407
#
# Poissons Ratio (x) = 0.38437 0.07831
# Poissons Ratio (y) = 0.22084 0.21509
# Poissons Ratio (z) = 0.08837 0.42246
#
# Static dielectric constant tensor:
#      x y z
#    x 3.554150 0.000000 -0.310630 
#    y 0.000000 4.070350 0.000000 
#    z -0.310630 0.000000 3.400750 
# 
# 
# High freq. dielectric constant tensor:
#      x y z
#    x 1.759570 0.000000 -0.019770 
#    y 0.000000 1.777720 0.000000 
#    z -0.019770 0.000000 1.718190 
# 
# From -- ./inp_files/48257.got.cif
#   From: 2010.06.25/outbox.cif.g09.slc.cpg/sg11_25_cif.got.tgz:48257.got - 2010.06.27 23:14:04.
