data_PCOD8069037
_publ_section_title
;
Structure prediction by ZEFSAII (Michael W. Deem and Ramdas Pophale) SiO2 
 PCOD8069037
Probable space group: P 21/M
;
_chemical_formula_sum "Si O2"
_cell_formula_units_Z 32
_cell_length_a 12.522185
_cell_length_b 8.483032
_cell_length_c 21.153549
_cell_angle_alpha 90.000000
_cell_angle_beta 126.968658
_cell_angle_gamma 90.000000
_cell_volume 1795.320529
_symmetry_space_group_name_H-M "P 21/M"
_symmetry_group_IT_number 11
_symmetry_cell_setting 'monoclinic'
loop_
_space_group_symop_operation_xyz
x,y,z
-x,1/2+y,-z
-x,-y,-z
x,1/2-y,z
loop_
_atom_site_type_symbol
_atom_site_label
_atom_site_fract_x
_atom_site_fract_y
_atom_site_fract_z
Si Si1 0.288936 0.935028 0.164087
Si Si2 0.001656 0.067296 0.399234
Si Si3 0.514709 0.068350 0.324619
Si Si4 0.610871 0.566333 0.585605
Si Si5 0.898367 0.068078 0.689671
Si Si6 0.802533 0.932656 0.420696
Si Si7 0.879447 0.937047 0.999105
Si Si8 0.048484 0.433773 0.159272
O O1 0.313034 0.750000 0.171353
O O2 0.425215 0.020229 0.233007
O O3 0.255342 0.996504 0.081152
O O4 0.171474 0.973903 0.171572
O O5 0.010844 0.250000 0.384775
O O6 0.122222 0.015141 0.488474
O O7 0.860302 0.031062 0.382275
O O8 0.010629 0.966567 0.338636
O O9 0.556462 0.250000 0.334676
O O10 0.429729 0.033630 0.356956
O O11 0.646616 0.963578 0.373198
O O12 0.500000 0.500000 0.500000
O O13 0.633157 0.750000 0.580249
O O14 0.746727 0.475644 0.619060
O O15 0.908723 0.250000 0.711981
O O16 0.954224 0.964677 0.767279
O O17 0.829185 0.750000 0.416731
O O18 0.875531 0.750000 0.999587
O O19 0.000000 0.000000 0.000000
O O20 0.907254 0.005988 0.079201
O O21 0.069018 0.250000 0.152838
#
# Coordination Sequence:
#
# PCOD8069037 Si02
#       8
#     4   4   4   4   4   4   4   4
#     4  11  20  32  50  74 104 139 176 215 260 311
#     4  10  21  38  58  78 103 135 176 223 271 315
#     4  11  22  35  52  75 105 141 177 217 264 314
#     4  11  23  36  51  72 104 141 178 214 259 316
#     4  12  23  35  53  77 106 139 177 218 265 315
#     4  10  21  37  57  79 103 134 177 224 269 314
#     4  10  18  30  48  71 101 137 174 211 256 308
#     4  11  20  33  50  73 105 139 176 215 259 312
#
# _framework density 17.824114000000002
#
# number of rings (size 3 to 8) (size 9 to 14) (size 15 to 20)
#    0.000    1.250    1.250    8.250    0.000    5.000 
#    0.000    0.000    0.000    0.000    0.000    0.875 
#    0.000    0.000    0.000    0.000    0.000    0.000 
#
# Total GULP energy -396928.705394 kJ/mol
# GULP energy per Si atom -12404.022044 kJ/mol
# Density = 1.778355 g / cm^3
# Si number density = 17.824114 Si / 1000 Ang^3
#
#
#
# Elastic Constant Matrix: (Units=GPa)
#
#
# Indices 1 2 3 4 5 6 
#
# 1 39.7981 17.2185 3.9375 0.0000 -9.4709 0.0000
# 2 17.2185 69.4557 27.8737 0.0000 -1.5652 0.0000
# 3 3.9375 27.8737 88.0325 0.0000 -13.2212 0.0000
# 4 0.0000 0.0000 0.0000 32.9983 0.0000 0.0923
# 5 -9.4709 -1.5652 -13.2212 0.0000 17.4522 0.0000
# 6 0.0000 0.0000 0.0000 0.0923 0.0000 26.1026
#
#
#
# Elastic Compliance Matrix: (Units=1/GPa)
#
#
# Indices 1 2 3 4 5 6 
#
# 1 0.033957 -0.009860 0.004782 0.000000 0.021166 0.000000
# 2 -0.009860 0.019478 -0.007072 0.000000 -0.008962 0.000000
# 3 0.004782 -0.007072 0.015436 0.000000 0.013654 0.000000
# 4 0.000000 0.000000 0.000000 0.030305 0.000000 -0.000107
# 5 0.021166 -0.008962 0.013654 0.000000 0.078326 0.000000
# 6 0.000000 0.000000 0.000000 -0.000107 0.000000 0.038311
#
#
# Mechanical properties :
#
#
# Convention : Reuss Voigt Hill
#
# Bulk Modulus (GPa) = 22.43683 32.81617 27.62650
# Shear Modulus (GPa) = 19.61019 25.19440 22.40230
#
# Velocity S-wave (km/s) = 3.32053 3.76373 3.54906
# Velocity P-wave (km/s) = 5.22652 6.11054 5.68573
#
# Compressibility (1/GPa) = 0.04456958
#
# Stress axis : x y z
#
# Youngs Moduli (GPa) = 29.44933 51.33902 64.78558
#
# Poissons Ratio (x) = 0.50621 -0.30981
# Poissons Ratio (y) = 0.29038 0.45819
# Poissons Ratio (z) = -0.14083 0.36309
#
# Static dielectric constant tensor:
#      x y z
#    x 2.957850 0.000000 -0.096080 
#    y 0.000000 3.406220 0.000000 
#    z -0.096080 0.000000 3.838260 
# 
# 
# High freq. dielectric constant tensor:
#      x y z
#    x 1.644560 0.000000 -0.005420 
#    y 0.000000 1.710410 0.000000 
#    z -0.005420 0.000000 1.699370 
# 
# From -- ./inp_files/42866.got.cif
#   From: 2010.06.25/outbox.cif.g09.slc.cpg/sg11_22_cif.got.tgz:42866.got - 2010.06.27 23:14:04.
