data_PCOD8069019
_publ_section_title
;
Structure prediction by ZEFSAII (Michael W. Deem and Ramdas Pophale) SiO2 
 PCOD8069019
Probable space group: P 21/M
;
_chemical_formula_sum "Si O2"
_cell_formula_units_Z 32
_cell_length_a 22.342593
_cell_length_b 8.690023
_cell_length_c 16.300791
_cell_angle_alpha 90.000000
_cell_angle_beta 141.620677
_cell_angle_gamma 90.000000
_cell_volume 1964.989803
_symmetry_space_group_name_H-M "P 21/M"
_symmetry_group_IT_number 11
_symmetry_cell_setting 'monoclinic'
loop_
_space_group_symop_operation_xyz
x,y,z
-x,1/2+y,-z
-x,-y,-z
x,1/2-y,z
loop_
_atom_site_type_symbol
_atom_site_label
_atom_site_fract_x
_atom_site_fract_y
_atom_site_fract_z
Si Si1 0.784510 0.432572 0.312668
Si Si2 0.695605 0.428205 0.920517
Si Si3 0.027234 0.432919 0.441361
Si Si4 0.575334 0.069603 0.143423
Si Si5 0.638076 0.922785 0.697881
Si Si6 0.519829 0.928108 0.253784
Si Si7 0.580700 0.422741 0.479317
Si Si8 0.839741 0.931034 0.198630
O O1 0.795541 0.250000 0.326200
O O2 0.864457 0.507351 0.459697
O O3 0.681828 0.489805 0.235535
O O4 0.795267 0.489071 0.231049
O O5 0.723557 0.250000 0.958392
O O6 0.697007 0.476150 0.826706
O O7 0.591802 0.461848 0.848354
O O8 0.773059 0.532489 0.049762
O O9 0.023680 0.250000 0.436060
O O10 0.000000 0.500000 0.500000
O O11 0.946826 0.502051 0.293371
O O12 0.569932 0.250000 0.127352
O O13 0.550477 0.025555 0.208858
O O14 0.500000 0.000000 0.000000
O O15 0.679912 0.750000 0.740879
O O16 0.526792 0.919917 0.602095
O O17 0.650269 0.998462 0.621259
O O18 0.538522 0.750000 0.256406
O O19 0.585451 0.980137 0.400763
O O20 0.617423 0.250000 0.501751
O O21 0.845670 0.750000 0.220291
#
# Coordination Sequence:
#
# PCOD8069019 Si02
#       8
#     4   4   4   4   4   4   4   4
#     4  10  20  34  48  64  87 116 150 188 226 264
#     4  10  19  30  43  63  91 121 151 184 223 266
#     4  10  18  30  48  67  86 111 143 181 223 268
#     4  11  23  35  48  65  89 120 154 191 227 263
#     4   9  16  26  41  62  86 114 147 181 220 265
#     4  10  20  32  46  63  87 119 155 192 225 261
#     4   9  16  27  43  61  84 114 148 184 221 263
#     4  11  20  30  46  67  90 117 147 182 224 270
#
# _framework density 16.285070999999999
#
# number of rings (size 3 to 8) (size 9 to 14) (size 15 to 20)
#    0.000    2.000    0.000    6.750    0.000    9.500 
#    0.000    0.000    0.000    0.000    0.000    0.000 
#    0.000    1.000    0.000    3.750    0.000    5.750 
#
# Total GULP energy -396785.979366 kJ/mol
# GULP energy per Si atom -12399.561855 kJ/mol
# Density = 1.624801 g / cm^3
# Si number density = 16.285071 Si / 1000 Ang^3
#
#
#
# Elastic Constant Matrix: (Units=GPa)
#
#
# Indices 1 2 3 4 5 6 
#
# 1 50.4417 18.5179 46.5622 0.0000 0.6606 0.0000
# 2 18.5179 81.1593 33.4217 0.0000 11.3043 0.0000
# 3 46.5622 33.4217 102.7689 0.0000 -2.0583 0.0000
# 4 0.0000 0.0000 0.0000 32.4475 0.0000 -3.8148
# 5 0.6606 11.3043 -2.0583 0.0000 22.7565 0.0000
# 6 0.0000 0.0000 0.0000 -3.8148 0.0000 20.9808
#
#
#
# Elastic Compliance Matrix: (Units=1/GPa)
#
#
# Indices 1 2 3 4 5 6 
#
# 1 0.034325 -0.001360 -0.015143 0.000000 -0.001690 0.000000
# 2 -0.001360 0.015684 -0.004648 0.000000 -0.008172 0.000000
# 3 -0.015143 -0.004648 0.018191 0.000000 0.004394 0.000000
# 4 0.000000 0.000000 0.000000 0.031492 0.000000 0.005726
# 5 -0.001690 -0.008172 0.004394 0.000000 0.048449 0.000000
# 6 0.000000 0.000000 0.000000 0.005726 0.000000 0.048704
#
#
# Mechanical properties :
#
#
# Convention : Reuss Voigt Hill
#
# Bulk Modulus (GPa) = 38.61438 47.93040 43.27239
# Shear Modulus (GPa) = 20.17904 24.29483 22.23694
#
# Velocity S-wave (km/s) = 3.52392 3.86663 3.69925
# Velocity P-wave (km/s) = 6.34983 7.03068 6.69891
#
# Compressibility (1/GPa) = 0.02589709
#
# Stress axis : x y z
#
# Youngs Moduli (GPa) = 29.13322 63.75867 54.97133
#
# Poissons Ratio (x) = 0.08673 0.83245
# Poissons Ratio (y) = 0.03963 0.25551
# Poissons Ratio (z) = 0.44118 0.29635
#
# Static dielectric constant tensor:
#      x y z
#    x 1.838300 0.000000 -0.265390 
#    y 0.000000 3.258520 0.000000 
#    z -0.265390 0.000000 3.307720 
# 
# 
# High freq. dielectric constant tensor:
#      x y z
#    x 1.574940 0.000000 -0.010690 
#    y 0.000000 1.649410 0.000000 
#    z -0.010690 0.000000 1.628080 
# 
# From -- ./inp_files/54302.got.cif
#   From: 2010.06.25/outbox.cif.g09.slc.cpg/sg11_28_cif.got.tgz:54302.got - 2010.06.27 23:14:04.
