data_PCOD8069769
_publ_section_title
;
Structure prediction by ZEFSAII (Michael W. Deem and Ramdas Pophale) SiO2 
 PCOD8069769
Probable space group: P 21/M
;
_chemical_formula_sum "Si O2"
_cell_formula_units_Z 28
_cell_length_a 30.244489
_cell_length_b 8.906361
_cell_length_c 10.321493
_cell_angle_alpha 90.000000
_cell_angle_beta 146.755766
_cell_angle_gamma 90.000000
_cell_volume 1524.176572
_symmetry_space_group_name_H-M "P 21/M"
_symmetry_group_IT_number 11
_symmetry_cell_setting 'monoclinic'
loop_
_space_group_symop_operation_xyz
x,y,z
-x,1/2+y,-z
-x,-y,-z
x,1/2-y,z
loop_
_atom_site_type_symbol
_atom_site_label
_atom_site_fract_x
_atom_site_fract_y
_atom_site_fract_z
Si Si1 0.409912 0.573369 0.917242
Si Si2 0.154389 0.425545 0.116719
Si Si3 0.173279 0.072256 0.686271
Si Si4 0.002115 0.071938 0.364573
Si Si5 0.272904 0.426967 0.175713
Si Si6 0.425347 0.573491 0.658080
Si Si7 0.249031 0.072918 0.605772
O O1 0.414531 0.750000 0.947279
O O2 0.490187 0.501262 0.174481
O O3 0.401935 0.527624 0.747117
O O4 0.334349 0.509121 0.809369
O O5 0.133654 0.250000 0.058426
O O6 0.214327 0.473085 0.149194
O O7 0.194253 0.471525 0.349775
O O8 0.072551 0.518995 0.904802
O O9 0.173295 0.250000 0.687983
O O10 0.203703 0.012723 0.622459
O O11 0.082765 0.014625 0.490049
O O12 0.232711 0.014736 0.944745
O O13 0.001319 0.250000 0.378567
O O14 0.000000 0.000000 0.500000
O O15 0.289228 0.250000 0.216051
O O16 0.357442 0.511568 0.395819
O O17 0.433703 0.750000 0.661861
O O18 0.265017 0.250000 0.648823
#
# Coordination Sequence:
#
# PCOD8069769 Si02
#       7
#     4   4   4   4   4   4   4
#     4  10  20  34  54  82 114 143 177 225 275 319
#     4  10  20  34  56  83 109 142 183 225 271 323
#     4   9  20  37  56  78 109 147 181 221 275 327
#     4  11  21  36  57  82 111 144 185 229 274 320
#     4  10  18  34  56  80 109 142 183 225 270 319
#     4  10  20  33  54  84 112 140 182 225 269 320
#     4  10  20  37  58  79 109 147 183 220 271 329
#
# _framework density 18.370574999999999
#
# number of rings (size 3 to 8) (size 9 to 14) (size 15 to 20)
#    0.000    2.000    2.857    1.286    0.000    2.857 
#    0.000    2.857    0.000    0.000    0.000    0.000 
#    0.000    0.000    0.000    0.000    0.000    0.000 
#
# Total GULP energy -347303.826803 kJ/mol
# GULP energy per Si atom -12403.708100 kJ/mol
# Density = 1.832876 g / cm^3
# Si number density = 18.370575 Si / 1000 Ang^3
#
#
#
# Elastic Constant Matrix: (Units=GPa)
#
#
# Indices 1 2 3 4 5 6 
#
# 1 144.7844 41.0037 82.7272 0.0000 6.4901 0.0000
# 2 41.0037 53.8174 43.8046 0.0000 11.2168 0.0000
# 3 82.7272 43.8046 151.9429 0.0000 14.5211 0.0000
# 4 0.0000 0.0000 0.0000 33.4492 0.0000 10.7007
# 5 6.4901 11.2168 14.5211 0.0000 36.8624 0.0000
# 6 0.0000 0.0000 0.0000 10.7007 0.0000 18.9396
#
#
#
# Elastic Compliance Matrix: (Units=1/GPa)
#
#
# Indices 1 2 3 4 5 6 
#
# 1 0.010864 -0.004759 -0.004674 0.000000 0.001377 0.000000
# 2 -0.004759 0.027214 -0.004721 0.000000 -0.005583 0.000000
# 3 -0.004674 -0.004721 0.010673 0.000000 -0.001945 0.000000
# 4 0.000000 0.000000 0.000000 0.036492 0.000000 -0.020617
# 5 0.001377 -0.005583 -0.001945 0.000000 0.029351 0.000000
# 6 0.000000 0.000000 0.000000 -0.020617 0.000000 0.064448
#
#
# Mechanical properties :
#
#
# Convention : Reuss Voigt Hill
#
# Bulk Modulus (GPa) = 48.91947 76.17951 62.54949
# Shear Modulus (GPa) = 23.34654 30.05085 26.69870
#
# Velocity S-wave (km/s) = 3.56879 4.04891 3.81641
# Velocity P-wave (km/s) = 6.60823 7.96344 7.31728
#
# Compressibility (1/GPa) = 0.02044176
#
# Stress axis : x y z
#
# Youngs Moduli (GPa) = 92.04806 36.74620 93.69157
#
# Poissons Ratio (x) = 0.17489 0.43796
# Poissons Ratio (y) = 0.43810 0.44229
# Poissons Ratio (z) = 0.43027 0.17347
#
# Static dielectric constant tensor:
#      x y z
#    x 3.462950 0.000000 0.045100 
#    y 0.000000 3.198970 0.000000 
#    z 0.045100 0.000000 3.505020 
# 
# 
# High freq. dielectric constant tensor:
#      x y z
#    x 1.703600 0.000000 0.011580 
#    y 0.000000 1.699690 0.000000 
#    z 0.011580 0.000000 1.722370 
# 
# From -- ./inp_files/28599.got.cif
#   From: 2010.06.25/outbox.cif.g09.slc.cpg/sg11_15_cif.got.tgz:28599.got - 2010.06.27 23:14:04.
