data_PCOD8069020
_publ_section_title
;
Structure prediction by ZEFSAII (Michael W. Deem and Ramdas Pophale) SiO2 
 PCOD8069020
Probable space group: P 21/M
;
_chemical_formula_sum "Si O2"
_cell_formula_units_Z 32
_cell_length_a 21.313105
_cell_length_b 9.121666
_cell_length_c 12.821123
_cell_angle_alpha 90.000000
_cell_angle_beta 126.737089
_cell_angle_gamma 90.000000
_cell_volume 1997.515359
_symmetry_space_group_name_H-M "P 21/M"
_symmetry_group_IT_number 11
_symmetry_cell_setting 'monoclinic'
loop_
_space_group_symop_operation_xyz
x,y,z
-x,1/2+y,-z
-x,-y,-z
x,1/2-y,z
loop_
_atom_site_type_symbol
_atom_site_label
_atom_site_fract_x
_atom_site_fract_y
_atom_site_fract_z
Si Si1 0.834646 0.919753 0.445035
Si Si2 0.321765 0.422046 0.612159
Si Si3 0.413227 0.421821 0.305762
Si Si4 0.417853 0.421727 0.913830
Si Si5 0.593623 0.078579 0.489232
Si Si6 0.005603 0.578919 0.615548
Si Si7 0.678874 0.923438 0.986198
Si Si8 0.845918 0.923321 0.220510
O O1 0.814414 0.750000 0.411511
O O2 0.765351 0.984350 0.447749
O O3 0.833015 0.982993 0.325657
O O4 0.919972 0.944378 0.584181
O O5 0.321942 0.250000 0.585575
O O6 0.377247 0.458188 0.764415
O O7 0.350592 0.510107 0.541439
O O8 0.399634 0.250000 0.311236
O O9 0.384424 0.507528 0.378565
O O10 0.503749 0.455764 0.370756
O O11 0.362421 0.483957 0.158893
O O12 0.431618 0.250000 0.941619
O O13 0.500000 0.500000 0.000000
O O14 0.364170 0.485235 0.953883
O O15 0.609811 0.250000 0.512408
O O16 0.022831 0.750000 0.617037
O O17 0.076949 0.504162 0.750691
O O18 0.000000 0.500000 0.500000
O O19 0.671993 0.750000 0.981987
O O20 0.770264 0.969438 0.077687
O O21 0.861155 0.750000 0.233150
#
# Coordination Sequence:
#
# PCOD8069020 Si02
#       8
#     4   4   4   4   4   4   4   4
#     4   8  14  26  43  63  88 120 154 181 210 263
#     4  10  18  30  48  67  89 123 159 184 217 272
#     4   9  18  33  51  67  86 119 160 193 226 276
#     4  10  19  30  45  65  93 125 154 184 223 272
#     4  10  20  33  48  68  92 116 150 201 245 266
#     4   9  16  26  42  63  89 121 154 185 221 264
#     4   9  16  29  49  68  89 122 158 187 221 272
#     4   9  15  27  45  65  91 121 152 185 222 267
#
# _framework density 16.019901000000001
#
# number of rings (size 3 to 8) (size 9 to 14) (size 15 to 20)
#    0.000    2.750    1.250    2.250    0.000    2.000 
#    0.000    5.000    0.000    0.000    0.000    0.875 
#    0.000    0.000    0.000    0.000    0.000    0.000 
#
# Total GULP energy -396617.511534 kJ/mol
# GULP energy per Si atom -12394.297235 kJ/mol
# Density = 1.598344 g / cm^3
# Si number density = 16.019901 Si / 1000 Ang^3
#
#
#
# Elastic Constant Matrix: (Units=GPa)
#
#
# Indices 1 2 3 4 5 6 
#
# 1 117.4675 42.3711 58.9606 0.0000 12.0258 0.0000
# 2 42.3711 46.4106 28.3554 0.0000 2.6094 0.0000
# 3 58.9606 28.3554 83.5751 0.0000 5.7688 0.0000
# 4 0.0000 0.0000 0.0000 17.6556 0.0000 5.4107
# 5 12.0258 2.6094 5.7688 0.0000 27.0868 0.0000
# 6 0.0000 0.0000 0.0000 5.4107 0.0000 23.2278
#
#
#
# Elastic Compliance Matrix: (Units=1/GPa)
#
#
# Indices 1 2 3 4 5 6 
#
# 1 0.016630 -0.010027 -0.008005 0.000000 -0.004713 0.000000
# 2 -0.010027 0.033238 -0.004354 0.000000 0.002177 0.000000
# 3 -0.008005 -0.004354 0.019096 0.000000 -0.000094 0.000000
# 4 0.000000 0.000000 0.000000 0.060993 0.000000 -0.014208
# 5 -0.004713 0.002177 -0.000094 0.000000 0.038821 0.000000
# 6 0.000000 0.000000 0.000000 -0.014208 0.000000 0.046361
#
#
# Mechanical properties :
#
#
# Convention : Reuss Voigt Hill
#
# Bulk Modulus (GPa) = 41.33304 56.31417 48.82360
# Shear Modulus (GPa) = 18.65837 21.44513 20.05175
#
# Velocity S-wave (km/s) = 3.41647 3.66273 3.54174
# Velocity P-wave (km/s) = 6.43585 7.28810 6.87519
#
# Compressibility (1/GPa) = 0.02419372
#
# Stress axis : x y z
#
# Youngs Moduli (GPa) = 60.13173 30.08560 52.36633
#
# Poissons Ratio (x) = 0.30167 0.41919
# Poissons Ratio (y) = 0.60293 0.22799
# Poissons Ratio (z) = 0.48136 0.13098
#
# Static dielectric constant tensor:
#      x y z
#    x 3.266450 0.000000 0.284880 
#    y 0.000000 2.902710 0.000000 
#    z 0.284880 0.000000 3.153690 
# 
# 
# High freq. dielectric constant tensor:
#      x y z
#    x 1.612860 0.000000 0.021250 
#    y 0.000000 1.596690 0.000000 
#    z 0.021250 0.000000 1.595040 
# 
# From -- ./inp_files/42563.got.cif
#   From: 2010.06.25/outbox.cif.g09.slc.cpg/sg11_22_cif.got.tgz:42563.got - 2010.06.27 23:14:04.
