data_PCOD8069608
_publ_section_title
;
Structure prediction by ZEFSAII (Michael W. Deem and Ramdas Pophale) SiO2 
 PCOD8069608
Probable space group: P 21/M
;
_chemical_formula_sum "Si O2"
_cell_formula_units_Z 32
_cell_length_a 18.969078
_cell_length_b 22.840042
_cell_length_c 6.272633
_cell_angle_alpha 90.000000
_cell_angle_beta 47.586422
_cell_angle_gamma 90.000000
_cell_volume 2006.426402
_symmetry_space_group_name_H-M "P 21/M"
_symmetry_group_IT_number 11
_symmetry_cell_setting 'monoclinic'
loop_
_space_group_symop_operation_xyz
x,y,z
-x,1/2+y,-z
-x,-y,-z
x,1/2-y,z
loop_
_atom_site_type_symbol
_atom_site_label
_atom_site_fract_x
_atom_site_fract_y
_atom_site_fract_z
Si Si1 0.929721 0.014597 0.838288
Si Si2 0.305636 0.184510 0.374788
Si Si3 0.887715 0.684650 0.970466
Si Si4 0.568657 0.487130 0.168337
Si Si5 0.949799 0.588554 0.127985
Si Si6 0.275543 0.486198 0.859083
Si Si7 0.413365 0.069773 0.247136
Si Si8 0.801332 0.625072 0.761123
O O1 0.932425 0.961140 0.992642
O O2 0.820715 0.022613 0.988262
O O3 0.000000 0.000000 0.500000
O O4 0.960559 0.073706 0.901361
O O5 0.350564 0.250000 0.282396
O O6 0.382774 0.137608 0.302379
O O7 0.271865 0.170019 0.202245
O O8 0.216918 0.182769 0.715258
O O9 0.928971 0.750000 0.872912
O O10 0.878433 0.659015 0.750763
O O11 0.961917 0.648646 0.969060
O O12 0.500000 0.500000 0.500000
O O13 0.671014 0.474191 0.070120
O O14 0.520252 0.434142 0.132836
O O15 0.580474 0.545631 0.004171
O O16 0.855855 0.590301 0.464588
O O17 0.339717 0.473980 0.519062
O O18 0.255704 0.421113 0.983154
#
# Coordination Sequence:
#
# PCOD8069608 Si02
#       8
#     4   4   4   4   4   4   4   4
#     4  11  20  31  46  70 100 129 163 198 246 287
#     4  10  19  28  45  70  95 128 161 192 234 288
#     4  10  19  31  45  66  96 131 165 193 235 286
#     4   9  20  31  48  67  90 129 162 196 240 281
#     4  10  20  30  44  67  96 130 163 198 231 282
#     4  11  18  29  49  68  95 133 155 192 239 281
#     4  10  18  33  47  68  98 127 162 197 231 287
#     4  11  17  30  44  67  98 130 160 188 234 282
#
# _framework density 15.948753
#
# number of rings (size 3 to 8) (size 9 to 14) (size 15 to 20)
#    0.000    1.750    5.000    1.125    0.000    0.500 
#    0.000    0.000    0.000    0.000    0.000    0.875 
#    0.000   14.000    0.000    0.375    0.000    0.000 
#
# Total GULP energy -396533.746188 kJ/mol
# GULP energy per Si atom -12391.679568 kJ/mol
# Density = 1.591245 g / cm^3
# Si number density = 15.948753 Si / 1000 Ang^3
#
#
#
# Elastic Constant Matrix: (Units=GPa)
#
#
# Indices 1 2 3 4 5 6 
#
# 1 138.0782 56.3326 24.8723 0.0000 -2.0623 0.0000
# 2 56.3326 92.2477 23.0058 0.0000 -1.2224 0.0000
# 3 24.8723 23.0058 60.7954 0.0000 11.2716 0.0000
# 4 0.0000 0.0000 0.0000 16.8857 0.0000 -0.4619
# 5 -2.0623 -1.2224 11.2716 0.0000 24.7737 0.0000
# 6 0.0000 0.0000 0.0000 -0.4619 0.0000 30.7336
#
#
#
# Elastic Compliance Matrix: (Units=1/GPa)
#
#
# Indices 1 2 3 4 5 6 
#
# 1 0.009904 -0.005458 -0.002282 0.000000 0.001593 0.000000
# 2 -0.005458 0.015171 -0.003891 0.000000 0.002065 0.000000
# 3 -0.002282 -0.003891 0.020669 0.000000 -0.009786 0.000000
# 4 0.000000 0.000000 0.000000 0.059246 0.000000 0.000890
# 5 0.001593 0.002065 -0.009786 0.000000 0.045052 0.000000
# 6 0.000000 0.000000 0.000000 0.000890 0.000000 0.032551
#
#
# Mechanical properties :
#
#
# Convention : Reuss Voigt Hill
#
# Bulk Modulus (GPa) = 44.47878 55.50475 49.99177
# Shear Modulus (GPa) = 23.43590 26.93931 25.18761
#
# Velocity S-wave (km/s) = 3.83750 4.11435 3.97833
# Velocity P-wave (km/s) = 6.89814 7.57944 7.24680
#
# Compressibility (1/GPa) = 0.02248263
#
# Stress axis : x y z
#
# Youngs Moduli (GPa) = 100.97224 65.91572 48.38205
#
# Poissons Ratio (x) = 0.35975 0.11040
# Poissons Ratio (y) = 0.55107 0.18825
# Poissons Ratio (z) = 0.23041 0.25647
#
# Static dielectric constant tensor:
#      x y z
#    x 3.610530 0.000000 0.192240 
#    y 0.000000 3.033690 0.000000 
#    z 0.192240 0.000000 3.070250 
# 
# 
# High freq. dielectric constant tensor:
#      x y z
#    x 1.616720 0.000000 0.030600 
#    y 0.000000 1.582420 0.000000 
#    z 0.030600 0.000000 1.608810 
# 
# From -- ./inp_files/8377.got.cif
#   From: 2010.06.25/outbox.cif.g09.slc.cpg/sg11_5_cif.got.tgz:8377.got - 2010.06.27 23:14:04.
