data_PCOD8069243
_publ_section_title
;
Structure prediction by ZEFSAII (Michael W. Deem and Ramdas Pophale) SiO2 
 PCOD8069243
Probable space group: P 21/M
;
_chemical_formula_sum "Si O2"
_cell_formula_units_Z 32
_cell_length_a 31.199895
_cell_length_b 9.125939
_cell_length_c 11.986610
_cell_angle_alpha 90.000000
_cell_angle_beta 149.574963
_cell_angle_gamma 90.000000
_cell_volume 1728.342741
_symmetry_space_group_name_H-M "P 21/M"
_symmetry_group_IT_number 11
_symmetry_cell_setting 'monoclinic'
loop_
_space_group_symop_operation_xyz
x,y,z
-x,1/2+y,-z
-x,-y,-z
x,1/2-y,z
loop_
_atom_site_type_symbol
_atom_site_label
_atom_site_fract_x
_atom_site_fract_y
_atom_site_fract_z
Si Si1 0.736929 0.423174 0.651342
Si Si2 0.527063 0.079550 0.450479
Si Si3 0.900918 0.421631 0.887106
Si Si4 0.932239 0.078312 0.705061
Si Si5 0.771785 0.423992 0.210741
Si Si6 0.409599 0.422505 0.801358
Si Si7 0.714462 0.077843 0.845528
Si Si8 0.366192 0.418085 0.952402
O O1 0.719710 0.250000 0.598871
O O2 0.814636 0.477632 0.749970
O O3 0.651615 0.508431 0.428653
O O4 0.760821 0.462897 0.833637
O O5 0.531325 0.250000 0.487629
O O6 0.618643 0.018692 0.620460
O O7 0.500000 0.000000 0.500000
O O8 0.461481 0.045130 0.204886
O O9 0.911771 0.250000 0.929411
O O10 0.897912 0.465563 0.750478
O O11 0.980083 0.498002 0.125265
O O12 0.949184 0.250000 0.735639
O O13 0.863326 0.024553 0.460421
O O14 0.765399 0.250000 0.200917
O O15 0.699424 0.481547 0.129902
O O16 0.760246 0.487546 0.058888
O O17 0.422284 0.250000 0.808655
O O18 0.363426 0.452515 0.815394
O O19 0.500000 0.500000 0.000000
O O20 0.713378 0.250000 0.859561
O O21 0.343058 0.250000 0.926110
#
# Coordination Sequence:
#
# PCOD8069243 Si02
#       8
#     4   4   4   4   4   4   4   4
#     4  10  20  37  58  78 106 142 180 218 259 316
#     4  10  18  31  49  71  99 134 172 208 250 300
#     4   9  18  33  54  78 102 136 174 210 263 321
#     4   9  18  32  52  78 105 130 168 221 265 311
#     4  10  19  33  54  79 104 136 177 216 263 318
#     4  11  23  38  55  78 108 142 178 218 265 312
#     4   9  18  33  53  75 104 141 176 215 263 312
#     4  10  21  34  51  76 107 137 171 220 270 310
#
# _framework density 18.514845000000001
#
# number of rings (size 3 to 8) (size 9 to 14) (size 15 to 20)
#    0.000    2.250    1.250    1.875    0.000    5.000 
#    0.000    5.625    0.000    0.000    0.000    0.000 
#    0.000    0.000    0.000    0.000    0.000    0.000 
#
# Total GULP energy -396768.361861 kJ/mol
# GULP energy per Si atom -12399.011308 kJ/mol
# Density = 1.847270 g / cm^3
# Si number density = 18.514845 Si / 1000 Ang^3
#
#
#
# Elastic Constant Matrix: (Units=GPa)
#
#
# Indices 1 2 3 4 5 6 
#
# 1 93.5381 30.0879 54.4225 0.0000 1.5161 0.0000
# 2 30.0879 39.8904 40.1898 0.0000 2.1142 0.0000
# 3 54.4225 40.1898 146.5839 0.0000 -1.2025 0.0000
# 4 0.0000 0.0000 0.0000 29.5672 0.0000 3.7937
# 5 1.5161 2.1142 -1.2025 0.0000 31.8928 0.0000
# 6 0.0000 0.0000 0.0000 3.7937 0.0000 24.0960
#
#
#
# Elastic Compliance Matrix: (Units=1/GPa)
#
#
# Indices 1 2 3 4 5 6 
#
# 1 0.015302 -0.008011 -0.003488 0.000000 -0.000328 0.000000
# 2 -0.008011 0.039056 -0.007755 0.000000 -0.002501 0.000000
# 3 -0.003488 -0.007755 0.010252 0.000000 0.001066 0.000000
# 4 0.000000 0.000000 0.000000 0.034519 0.000000 -0.005435
# 5 -0.000328 -0.002501 0.001066 0.000000 0.031577 0.000000
# 6 0.000000 0.000000 0.000000 -0.005435 0.000000 0.042356
#
#
# Mechanical properties :
#
#
# Convention : Reuss Voigt Hill
#
# Bulk Modulus (GPa) = 38.30796 58.82365 48.56580
# Shear Modulus (GPa) = 22.69955 27.46533 25.08244
#
# Velocity S-wave (km/s) = 3.50525 3.85570 3.68465
# Velocity P-wave (km/s) = 6.09243 7.18762 6.66257
#
# Compressibility (1/GPa) = 0.02610424
#
# Stress axis : x y z
#
# Youngs Moduli (GPa) = 65.35083 25.60415 97.54421
#
# Poissons Ratio (x) = 0.20511 0.34019
# Poissons Ratio (y) = 0.52350 0.75642
# Poissons Ratio (z) = 0.22792 0.19855
#
# Static dielectric constant tensor:
#      x y z
#    x 3.351110 0.000000 -0.320180 
#    y 0.000000 3.217030 0.000000 
#    z -0.320180 0.000000 2.799980 
# 
# 
# High freq. dielectric constant tensor:
#      x y z
#    x 1.716130 0.000000 -0.006350 
#    y 0.000000 1.698080 0.000000 
#    z -0.006350 0.000000 1.723470 
# 
# From -- ./inp_files/45335.got.cif
#   From: 2010.06.25/outbox.cif.g09.slc.cpg/sg11_23_cif.got.tgz:45335.got - 2010.06.27 23:14:04.
