data_PCOD8069140
_publ_section_title
;
Structure prediction by ZEFSAII (Michael W. Deem and Ramdas Pophale) SiO2 
 PCOD8069140
Probable space group: P 21/M
;
_chemical_formula_sum "Si O2"
_cell_formula_units_Z 32
_cell_length_a 27.726417
_cell_length_b 9.019325
_cell_length_c 21.630929
_cell_angle_alpha 90.000000
_cell_angle_beta 161.438604
_cell_angle_gamma 90.000000
_cell_volume 1721.899454
_symmetry_space_group_name_H-M "P 21/M"
_symmetry_group_IT_number 11
_symmetry_cell_setting 'monoclinic'
loop_
_space_group_symop_operation_xyz
x,y,z
-x,1/2+y,-z
-x,-y,-z
x,1/2-y,z
loop_
_atom_site_type_symbol
_atom_site_label
_atom_site_fract_x
_atom_site_fract_y
_atom_site_fract_z
Si Si1 0.591260 0.417369 0.023160
Si Si2 0.031425 0.076408 0.102373
Si Si3 0.868701 0.574793 0.016372
Si Si4 0.442858 0.575418 0.368165
Si Si5 0.448454 0.923532 0.741411
Si Si6 0.142035 0.578201 0.436868
Si Si7 0.272060 0.083044 0.704155
Si Si8 0.619348 0.919308 0.460471
O O1 0.643162 0.250000 0.073513
O O2 0.719391 0.495715 0.220649
O O3 0.575500 0.501179 0.938821
O O4 0.432999 0.423313 0.866327
O O5 0.993054 0.250000 0.051994
O O6 0.203684 0.047252 0.330453
O O7 0.922891 0.998078 0.019063
O O8 0.000000 0.000000 0.000000
O O9 0.849844 0.750000 0.983157
O O10 0.985559 0.538742 0.213194
O O11 0.710620 0.500273 0.842336
O O12 0.500000 0.500000 0.500000
O O13 0.418843 0.750000 0.350301
O O14 0.566904 0.543889 0.466124
O O15 0.476696 0.750000 0.777881
O O16 0.280639 0.968054 0.560788
O O17 0.468725 0.979677 0.696024
O O18 0.154684 0.750000 0.468941
O O19 0.147122 0.489608 0.507449
O O20 0.222022 0.250000 0.657727
O O21 0.582515 0.750000 0.399087
#
# Coordination Sequence:
#
# PCOD8069140 Si02
#       8
#     4   4   4   4   4   4   4   4
#     4   9  16  26  41  65 102 143 177 215 264 315
#     4  11  22  36  57  82 108 139 177 223 276 333
#     4  11  22  38  57  81 111 144 182 226 274 329
#     4  11  24  42  61  82 108 143 183 229 278 332
#     4  10  18  30  50  76 105 139 179 222 268 318
#     4   9  18  31  48  73 106 141 176 220 269 318
#     4   9  16  25  41  67 100 139 180 219 260 313
#     4  10  22  38  55  78 108 140 178 223 274 327
#
# _framework density 18.584126999999999
#
# number of rings (size 3 to 8) (size 9 to 14) (size 15 to 20)
#    0.000    2.000    1.250    3.000    0.000    7.000 
#    0.000    0.000    0.000    0.000    0.000    0.875 
#    0.000    0.000    0.000    0.000    0.000    0.000 
#
# Total GULP energy -396881.358397 kJ/mol
# GULP energy per Si atom -12402.542450 kJ/mol
# Density = 1.854183 g / cm^3
# Si number density = 18.584127 Si / 1000 Ang^3
#
#
#
# Elastic Constant Matrix: (Units=GPa)
#
#
# Indices 1 2 3 4 5 6 
#
# 1 61.3477 44.0478 26.9822 0.0000 -26.4816 0.0000
# 2 44.0478 118.5124 45.6516 0.0000 -27.7002 0.0000
# 3 26.9822 45.6516 68.6225 0.0000 -24.7678 0.0000
# 4 0.0000 0.0000 0.0000 32.4433 0.0000 -10.0204
# 5 -26.4816 -27.7002 -24.7678 0.0000 38.1449 0.0000
# 6 0.0000 0.0000 0.0000 -10.0204 0.0000 32.7928
#
#
#
# Elastic Compliance Matrix: (Units=1/GPa)
#
#
# Indices 1 2 3 4 5 6 
#
# 1 0.027377 -0.006422 -0.001718 0.000000 0.013227 0.000000
# 2 -0.006422 0.013435 -0.005878 0.000000 0.001482 0.000000
# 3 -0.001718 -0.005878 0.022448 0.000000 0.009114 0.000000
# 4 0.000000 0.000000 0.000000 0.034035 0.000000 0.010400
# 5 0.013227 0.001482 0.009114 0.000000 0.042392 0.000000
# 6 0.000000 0.000000 0.000000 0.010400 0.000000 0.033672
#
#
# Mechanical properties :
#
#
# Convention : Reuss Voigt Hill
#
# Bulk Modulus (GPa) = 28.39013 53.53843 40.96428
# Shear Modulus (GPa) = 23.45901 29.46293 26.46097
#
# Velocity S-wave (km/s) = 3.55676 3.98600 3.77748
# Velocity P-wave (km/s) = 5.67249 7.07499 6.41220
#
# Compressibility (1/GPa) = 0.03522351
#
# Stress axis : x y z
#
# Youngs Moduli (GPa) = 36.52752 74.43087 44.54689
#
# Poissons Ratio (x) = 0.47797 0.07655
# Poissons Ratio (y) = 0.23457 0.26186
# Poissons Ratio (z) = 0.06277 0.43752
#
# Static dielectric constant tensor:
#      x y z
#    x 3.144730 0.000000 -0.508900 
#    y 0.000000 3.561400 0.000000 
#    z -0.508900 0.000000 2.390730 
# 
# 
# High freq. dielectric constant tensor:
#      x y z
#    x 1.701340 0.000000 -0.033370 
#    y 0.000000 1.735790 0.000000 
#    z -0.033370 0.000000 1.706540 
# 
# From -- ./inp_files/67240.got.cif
#   From: 2010.06.25/outbox.cif.g09.slc.cpg/sg11_34_cif.got.tgz:67240.got - 2010.06.27 23:14:04.
