data_PCOD8069943
_publ_section_title
;
Structure prediction by ZEFSAII (Michael W. Deem and Ramdas Pophale) SiO2 
 PCOD8069943
Probable space group: P 21/M
;
_chemical_formula_sum "Si O2"
_cell_formula_units_Z 28
_cell_length_a 14.207409
_cell_length_b 13.796437
_cell_length_c 11.319582
_cell_angle_alpha 90.000000
_cell_angle_beta 53.716110
_cell_angle_gamma 90.000000
_cell_volume 1788.538467
_symmetry_space_group_name_H-M "P 21/M"
_symmetry_group_IT_number 11
_symmetry_cell_setting 'monoclinic'
loop_
_space_group_symop_operation_xyz
x,y,z
-x,1/2+y,-z
-x,-y,-z
x,1/2-y,z
loop_
_atom_site_type_symbol
_atom_site_label
_atom_site_fract_x
_atom_site_fract_y
_atom_site_fract_z
Si Si1 0.728304 0.864458 0.355588
Si Si2 0.700423 0.635691 0.108968
Si Si3 0.831811 0.507615 0.851632
Si Si4 0.424386 0.510030 0.940043
Si Si5 0.401525 0.362121 0.322815
Si Si6 0.963481 0.638251 0.293032
Si Si7 0.162871 0.140360 0.369908
O O1 0.733009 0.750000 0.370118
O O2 0.689115 0.894851 0.254246
O O3 0.635878 0.904495 0.520691
O O4 0.859130 0.901373 0.287093
O O5 0.706121 0.750000 0.087818
O O6 0.588920 0.593420 0.119202
O O7 0.817967 0.586471 0.968160
O O8 0.872080 0.564361 0.704620
O O9 0.924705 0.426863 0.817936
O O10 0.705968 0.454269 0.926939
O O11 0.482777 0.584643 0.806636
O O12 0.500000 0.500000 0.000000
O O13 0.434082 0.250000 0.307588
O O14 0.295747 0.379471 0.310441
O O15 0.994633 0.750000 0.242033
O O16 0.926243 0.626467 0.456556
O O17 0.153488 0.250000 0.327546
#
# Coordination Sequence:
#
# PCOD8069943 Si02
#       7
#     4   4   4   4   4   4   4
#     4   8  16  32  52  69  89 120 159 196 228 272
#     4   9  19  33  48  70  91 121 161 193 232 275
#     4  10  19  28  47  71  94 124 152 190 235 282
#     4  10  20  30  45  73  98 123 154 189 235 274
#     4   9  16  30  50  69  92 124 158 190 227 275
#     4   9  18  31  47  71  96 119 152 195 236 277
#     4   9  16  29  50  68  91 125 157 192 228 271
#
# _framework density 15.655239999999999
#
# number of rings (size 3 to 8) (size 9 to 14) (size 15 to 20)
#    0.857    2.000    1.429    2.571    0.000    2.286 
#    0.000    0.000    0.000    0.000    0.000    0.000 
#    0.000    0.000    0.000    0.000    0.000    0.000 
#
# Total GULP energy -346947.639710 kJ/mol
# GULP energy per Si atom -12390.987133 kJ/mol
# Density = 1.561961 g / cm^3
# Si number density = 15.655240 Si / 1000 Ang^3
#
#
#
# Elastic Constant Matrix: (Units=GPa)
#
#
# Indices 1 2 3 4 5 6 
#
# 1 82.4264 39.7474 50.3589 0.0000 4.1987 0.0000
# 2 39.7474 74.5854 45.8844 0.0000 -1.0155 0.0000
# 3 50.3589 45.8844 81.9433 0.0000 2.4810 0.0000
# 4 0.0000 0.0000 0.0000 29.0099 0.0000 -5.0498
# 5 4.1987 -1.0155 2.4810 0.0000 27.7647 0.0000
# 6 0.0000 0.0000 0.0000 -5.0498 0.0000 24.3481
#
#
#
# Elastic Compliance Matrix: (Units=1/GPa)
#
#
# Indices 1 2 3 4 5 6 
#
# 1 0.020674 -0.005003 -0.009831 0.000000 -0.002431 0.000000
# 2 -0.005003 0.021752 -0.009177 0.000000 0.002372 0.000000
# 3 -0.009831 -0.009177 0.023412 0.000000 -0.000941 0.000000
# 4 0.000000 0.000000 0.000000 0.035762 0.000000 0.007417
# 5 -0.002431 0.002372 -0.000941 0.000000 0.036555 0.000000
# 6 0.000000 0.000000 0.000000 0.007417 0.000000 0.042609
#
#
# Mechanical properties :
#
#
# Convention : Reuss Voigt Hill
#
# Bulk Modulus (GPa) = 56.12631 56.77073 56.44852
# Shear Modulus (GPa) = 21.30149 23.08882 22.19516
#
# Velocity S-wave (km/s) = 3.69272 3.84452 3.76938
# Velocity P-wave (km/s) = 7.35601 7.48658 7.42158
#
# Compressibility (1/GPa) = 0.01781695
#
# Stress axis : x y z
#
# Youngs Moduli (GPa) = 48.36877 45.97377 42.71277
#
# Poissons Ratio (x) = 0.23001 0.41989
# Poissons Ratio (y) = 0.24199 0.39197
# Poissons Ratio (z) = 0.47549 0.42190
#
# Static dielectric constant tensor:
#      x y z
#    x 2.802030 0.000000 0.087870 
#    y 0.000000 2.750650 0.000000 
#    z 0.087870 0.000000 3.058330 
# 
# 
# High freq. dielectric constant tensor:
#      x y z
#    x 1.583660 0.000000 0.008640 
#    y 0.000000 1.580410 0.000000 
#    z 0.008640 0.000000 1.607750 
# 
# From -- ./inp_files/35283.got.cif
#   From: 2010.06.25/outbox.cif.g09.slc.cpg/sg11_18_cif.got.tgz:35283.got - 2010.06.27 23:14:04.
