data_PCOD8069904
_publ_section_title
;
Structure prediction by ZEFSAII (Michael W. Deem and Ramdas Pophale) SiO2 
 PCOD8069904
Probable space group: P 21/M
;
_chemical_formula_sum "Si O2"
_cell_formula_units_Z 24
_cell_length_a 17.553823
_cell_length_b 10.969711
_cell_length_c 13.586459
_cell_angle_alpha 90.000000
_cell_angle_beta 22.576225
_cell_angle_gamma 90.000000
_cell_volume 1004.396288
_symmetry_space_group_name_H-M "P 21/M"
_symmetry_group_IT_number 11
_symmetry_cell_setting 'monoclinic'
loop_
_space_group_symop_operation_xyz
x,y,z
-x,1/2+y,-z
-x,-y,-z
x,1/2-y,z
loop_
_atom_site_type_symbol
_atom_site_label
_atom_site_fract_x
_atom_site_fract_y
_atom_site_fract_z
Si Si1 0.661481 0.750000 0.377063
Si Si2 0.919634 0.750000 0.393710
Si Si3 0.317206 0.608985 0.436954
Si Si4 0.311089 0.508771 0.079080
Si Si5 0.211172 0.750000 0.865325
Si Si6 0.085518 0.512424 0.538012
Si Si7 0.508155 0.750000 0.776892
Si Si8 0.697044 0.489064 0.330722
O O1 0.450658 0.750000 0.572387
O O2 0.603254 0.750000 0.558323
O O3 0.790701 0.626147 0.203223
O O4 0.942690 0.867481 0.432857
O O5 0.694983 0.750000 0.625121
O O6 0.099029 0.750000 0.101240
O O7 0.289652 0.750000 0.496614
O O8 0.131075 0.562932 0.593031
O O9 0.344626 0.530792 0.503708
O O10 0.509611 0.587542 0.139588
O O11 0.258797 0.545082 0.253952
O O12 0.127736 0.439232 0.244265
O O13 0.371404 0.632459 0.952526
O O14 0.155080 0.879757 0.879933
O O15 0.500000 0.500000 0.500000
#
# Coordination Sequence:
#
# PCOD8069904 Si02
#       8
#     2   2   4   4   2   4   2   4
#     4  10  18  38  68  96 133 187 241 283 354 429
#     4  12  24  42  73  98 139 188 248 296 355 428
#     4  12  25  44  73 103 148 187 238 302 358 429
#     4  11  25  44  71 102 147 191 234 294 362 429
#     4  10  22  40  68  97 141 179 238 306 347 421
#     4  11  26  44  69 107 141 188 242 290 360 437
#     4  12  22  42  73  99 135 190 235 291 364 426
#     4  10  21  40  70 101 140 192 241 294 366 421
#
# _framework density 23.894950000000001
#
# number of rings (size 3 to 8) (size 9 to 14) (size 15 to 20)
#    0.000    1.000    4.167    2.000    4.667    0.667 
#    0.000    3.333    1.833    0.000    0.000    0.000 
#    0.000    0.000    0.000    0.000    0.000    0.000 
#
# Total GULP energy -297378.712742 kJ/mol
# GULP energy per Si atom -12390.779698 kJ/mol
# Density = 2.384056 g / cm^3
# Si number density = 23.894950 Si / 1000 Ang^3
#
#
#
# Elastic Constant Matrix: (Units=GPa)
#
#
# Indices 1 2 3 4 5 6 
#
# 1 126.8792 11.2022 9.2376 0.0000 1.0146 0.0000
# 2 11.2022 194.6934 10.6000 0.0000 14.8516 0.0000
# 3 9.2376 10.6000 31.3364 0.0000 -5.8971 0.0000
# 4 0.0000 0.0000 0.0000 55.0636 0.0000 43.2322
# 5 1.0146 14.8516 -5.8971 0.0000 35.4346 0.0000
# 6 0.0000 0.0000 0.0000 43.2322 0.0000 53.6983
#
#
#
# Elastic Compliance Matrix: (Units=1/GPa)
#
#
# Indices 1 2 3 4 5 6 
#
# 1 0.008085 -0.000297 -0.002377 0.000000 -0.000502 0.000000
# 2 -0.000297 0.005480 -0.002268 0.000000 -0.002666 0.000000
# 3 -0.002377 -0.002268 0.034657 0.000000 0.006786 0.000000
# 4 0.000000 0.000000 0.000000 0.049364 0.000000 -0.039743
# 5 -0.000502 -0.002666 0.006786 0.000000 0.030482 0.000000
# 6 0.000000 0.000000 0.000000 -0.039743 0.000000 0.050619
#
#
# Mechanical properties :
#
#
# Convention : Reuss Voigt Hill
#
# Bulk Modulus (GPa) = 26.08451 46.10984 36.09718
# Shear Modulus (GPa) = 24.83228 50.29726 37.56477
#
# Velocity S-wave (km/s) = 3.22720 4.59293 3.96925
# Velocity P-wave (km/s) = 4.98262 6.88952 6.01215
#
# Compressibility (1/GPa) = 0.03833693
#
# Stress axis : x y z
#
# Youngs Moduli (GPa) = 123.68779 182.47467 28.85442
#
# Poissons Ratio (x) = 0.05427 0.06859
# Poissons Ratio (y) = 0.03679 0.06543
# Poissons Ratio (z) = 0.29404 0.41381
#
# Static dielectric constant tensor:
#      x y z
#    x 4.203180 0.000000 0.024840 
#    y 0.000000 4.960570 0.000000 
#    z 0.024840 0.000000 3.965790 
# 
# 
# High freq. dielectric constant tensor:
#      x y z
#    x 1.956900 0.000000 -0.004420 
#    y 0.000000 1.958300 0.000000 
#    z -0.004420 0.000000 1.928830 
# 
# From -- ./inp_files/54805.got.cif
#   From: 2010.06.25/outbox.cif.g09.slc.cpg/sg11_28_cif.got.tgz:54805.got - 2010.06.27 23:14:04.
