data_PCOD8069227
_publ_section_title
;
Structure prediction by ZEFSAII (Michael W. Deem and Ramdas Pophale) SiO2 
 PCOD8069227
Probable space group: P 21/M
;
_chemical_formula_sum "Si O2"
_cell_formula_units_Z 32
_cell_length_a 21.547366
_cell_length_b 8.629338
_cell_length_c 30.880233
_cell_angle_alpha 90.000000
_cell_angle_beta 19.227251
_cell_angle_gamma 90.000000
_cell_volume 1890.883491
_symmetry_space_group_name_H-M "P 21/M"
_symmetry_group_IT_number 11
_symmetry_cell_setting 'monoclinic'
loop_
_space_group_symop_operation_xyz
x,y,z
-x,1/2+y,-z
-x,-y,-z
x,1/2-y,z
loop_
_atom_site_type_symbol
_atom_site_label
_atom_site_fract_x
_atom_site_fract_y
_atom_site_fract_z
Si Si1 0.461635 0.068622 0.460541
Si Si2 0.796328 0.929698 0.290316
Si Si3 0.453353 0.432973 0.211350
Si Si4 0.438190 0.065979 0.379271
Si Si5 0.832250 0.432863 0.082606
Si Si6 0.797328 0.932656 0.543318
Si Si7 0.164644 0.430812 0.014095
Si Si8 0.132379 0.567142 0.376014
O O1 0.513990 0.250000 0.426673
O O2 0.289145 0.032379 0.606189
O O3 0.401642 0.010162 0.452353
O O4 0.646504 0.974294 0.352181
O O5 0.847694 0.750000 0.251512
O O6 0.982954 0.031403 0.162771
O O7 0.482328 0.250000 0.192092
O O8 0.340050 0.495004 0.328129
O O9 0.336067 0.484481 0.245507
O O10 0.654981 0.514822 0.077425
O O11 0.439318 0.250000 0.376941
O O12 0.637205 0.001960 0.230669
O O13 0.271955 0.000428 0.457383
O O14 0.839073 0.250000 0.081445
O O15 0.851033 0.479354 0.020548
O O16 0.000000 0.500000 0.000000
O O17 0.771537 0.750000 0.560933
O O18 0.018399 0.973487 0.406490
O O19 0.175403 0.250000 0.997404
O O20 0.157879 0.750000 0.364830
O O21 0.000000 0.500000 0.500000
#
# Coordination Sequence:
#
# PCOD8069227 Si02
#       8
#     4   4   4   4   4   4   4   4
#     4   9  18  33  54  75  94 122 164 208 248 294
#     4  10  20  34  51  71  96 126 163 209 255 293
#     4  10  18  31  48  68  96 129 161 199 247 294
#     4   9  16  29  49  71  95 125 158 195 239 289
#     4  11  21  33  49  70 101 134 164 197 241 296
#     4   8  14  26  45  68  95 126 156 189 234 288
#     4  12  23  34  49  70  97 131 170 207 245 292
#     4   9  16  26  43  67  95 129 164 195 233 285
#
# _framework density 16.923306
#
# number of rings (size 3 to 8) (size 9 to 14) (size 15 to 20)
#    0.000    2.250    1.250    4.125    0.000    1.500 
#    0.000    0.625    0.000    0.000    0.000    0.875 
#    0.000    0.000    0.000    0.000    0.000    0.000 
#
# Total GULP energy -396661.543941 kJ/mol
# GULP energy per Si atom -12395.673248 kJ/mol
# Density = 1.688479 g / cm^3
# Si number density = 16.923306 Si / 1000 Ang^3
#
#
#
# Elastic Constant Matrix: (Units=GPa)
#
#
# Indices 1 2 3 4 5 6 
#
# 1 130.2460 20.0439 65.9240 0.0000 -22.1672 0.0000
# 2 20.0439 44.3197 18.3207 0.0000 -5.2348 0.0000
# 3 65.9240 18.3207 85.8453 0.0000 -14.1083 0.0000
# 4 0.0000 0.0000 0.0000 23.4187 0.0000 -6.3236
# 5 -22.1672 -5.2348 -14.1083 0.0000 27.4439 0.0000
# 6 0.0000 0.0000 0.0000 -6.3236 0.0000 20.9784
#
#
#
# Elastic Compliance Matrix: (Units=1/GPa)
#
#
# Indices 1 2 3 4 5 6 
#
# 1 0.013533 -0.001673 -0.009057 0.000000 0.005956 0.000000
# 2 -0.001673 0.025074 -0.003826 0.000000 0.001465 0.000000
# 3 -0.009057 -0.003826 0.019768 0.000000 0.002117 0.000000
# 4 0.000000 0.000000 0.000000 0.046485 0.000000 0.014012
# 5 0.005956 0.001465 0.002117 0.000000 0.042617 0.000000
# 6 0.000000 0.000000 0.000000 0.014012 0.000000 0.051892
#
#
# Mechanical properties :
#
#
# Convention : Reuss Voigt Hill
#
# Bulk Modulus (GPa) = 34.17071 52.10979 43.14025
# Shear Modulus (GPa) = 20.98777 24.77638 22.88207
#
# Velocity S-wave (km/s) = 3.52542 3.83043 3.68109
# Velocity P-wave (km/s) = 6.06686 7.10081 6.60410
#
# Compressibility (1/GPa) = 0.02926483
#
# Stress axis : x y z
#
# Youngs Moduli (GPa) = 73.89409 39.88127 50.58633
#
# Poissons Ratio (x) = 0.06673 0.45814
# Poissons Ratio (y) = 0.12363 0.19353
# Poissons Ratio (z) = 0.66922 0.15257
#
# Static dielectric constant tensor:
#      x y z
#    x 3.541060 0.000000 -0.338870 
#    y 0.000000 3.097070 0.000000 
#    z -0.338870 0.000000 3.188280 
# 
# 
# High freq. dielectric constant tensor:
#      x y z
#    x 1.648360 0.000000 -0.025370 
#    y 0.000000 1.644690 0.000000 
#    z -0.025370 0.000000 1.630320 
# 
# From -- ./inp_files/67444.got.cif
#   From: 2010.06.25/outbox.cif.g09.slc.cpg/sg11_34_cif.got.tgz:67444.got - 2010.06.27 23:14:04.
