data_PCOD8069028
_publ_section_title
;
Structure prediction by ZEFSAII (Michael W. Deem and Ramdas Pophale) SiO2 
 PCOD8069028
Probable space group: P 21/M
;
_chemical_formula_sum "Si O2"
_cell_formula_units_Z 32
_cell_length_a 23.712424
_cell_length_b 8.891368
_cell_length_c 12.454818
_cell_angle_alpha 90.000000
_cell_angle_beta 133.121420
_cell_angle_gamma 90.000000
_cell_volume 1916.678729
_symmetry_space_group_name_H-M "P 21/M"
_symmetry_group_IT_number 11
_symmetry_cell_setting 'monoclinic'
loop_
_space_group_symop_operation_xyz
x,y,z
-x,1/2+y,-z
-x,-y,-z
x,1/2-y,z
loop_
_atom_site_type_symbol
_atom_site_label
_atom_site_fract_x
_atom_site_fract_y
_atom_site_fract_z
Si Si1 0.337907 0.071954 0.908440
Si Si2 0.816198 0.076102 0.229711
Si Si3 0.923512 0.927787 0.947856
Si Si4 0.509879 0.427227 0.897545
Si Si5 0.342467 0.073349 0.669907
Si Si6 0.907693 0.573686 0.537700
Si Si7 0.923248 0.077745 0.171476
Si Si8 0.186680 0.071773 0.378088
O O1 0.342177 0.250000 0.922618
O O2 0.332685 0.012186 0.778907
O O3 0.264081 0.013340 0.876536
O O4 0.416326 0.003303 0.064294
O O5 0.800028 0.250000 0.232314
O O6 0.852951 0.051909 0.160823
O O7 0.875249 0.015310 0.394601
O O8 0.932640 0.750000 0.952067
O O9 0.851241 0.986218 0.781780
O O10 0.907829 0.974541 0.048979
O O11 0.000000 0.000000 0.000000
O O12 0.523465 0.250000 0.925624
O O13 0.427594 0.462510 0.731032
O O14 0.500000 0.500000 0.000000
O O15 0.330719 0.250000 0.663735
O O16 0.274160 0.006284 0.505851
O O17 0.893851 0.750000 0.499706
O O18 0.864535 0.517067 0.588344
O O19 0.997524 0.532382 0.666299
O O20 0.929148 0.250000 0.140309
O O21 0.188343 0.250000 0.378537
#
# Coordination Sequence:
#
# PCOD8069028 Si02
#       8
#     4   4   4   4   4   4   4   4
#     4  10  18  30  48  68  96 135 166 194 244 302
#     4  11  22  33  48  73 102 130 167 211 249 293
#     4  11  21  34  54  74  96 128 170 213 251 293
#     4   9  16  26  43  68  98 130 163 198 238 294
#     4   8  14  26  45  68  94 126 159 191 238 293
#     4  10  18  33  53  69  97 135 166 200 247 300
#     4  10  22  38  51  68  99 135 169 209 253 294
#     4   9  16  29  50  73  96 128 164 200 244 292
#
# _framework density 16.695547999999999
#
# number of rings (size 3 to 8) (size 9 to 14) (size 15 to 20)
#    0.000    2.250    2.500    2.625    0.000    1.500 
#    0.000    0.000    0.000    0.000    0.000    0.875 
#    0.000    0.000    0.000    0.000    0.000    0.000 
#
# Total GULP energy -396639.581133 kJ/mol
# GULP energy per Si atom -12394.986910 kJ/mol
# Density = 1.665755 g / cm^3
# Si number density = 16.695548 Si / 1000 Ang^3
#
#
#
# Elastic Constant Matrix: (Units=GPa)
#
#
# Indices 1 2 3 4 5 6 
#
# 1 88.4606 37.7629 63.1728 0.0000 21.9418 0.0000
# 2 37.7629 68.0067 42.4604 0.0000 7.0161 0.0000
# 3 63.1728 42.4604 102.3788 0.0000 23.9169 0.0000
# 4 0.0000 0.0000 0.0000 21.6681 0.0000 2.1712
# 5 21.9418 7.0161 23.9169 0.0000 34.7798 0.0000
# 6 0.0000 0.0000 0.0000 2.1712 0.0000 25.3989
#
#
#
# Elastic Compliance Matrix: (Units=1/GPa)
#
#
# Indices 1 2 3 4 5 6 
#
# 1 0.022369 -0.005481 -0.010117 0.000000 -0.006050 0.000000
# 2 -0.005481 0.021300 -0.006262 0.000000 0.003467 0.000000
# 3 -0.010117 -0.006262 0.020040 0.000000 -0.006136 0.000000
# 4 0.000000 0.000000 0.000000 0.046550 0.000000 -0.003979
# 5 -0.006050 0.003467 -0.006136 0.000000 0.036089 0.000000
# 6 0.000000 0.000000 0.000000 -0.003979 0.000000 0.039712
#
#
# Mechanical properties :
#
#
# Convention : Reuss Voigt Hill
#
# Bulk Modulus (GPa) = 50.02212 60.62647 55.32429
# Shear Modulus (GPa) = 21.14683 24.06604 22.60643
#
# Velocity S-wave (km/s) = 3.56281 3.80078 3.68372
# Velocity P-wave (km/s) = 6.85210 7.46010 7.16255
#
# Compressibility (1/GPa) = 0.01999116
#
# Stress axis : x y z
#
# Youngs Moduli (GPa) = 44.70401 46.94888 49.89904
#
# Poissons Ratio (x) = 0.25732 0.50481
# Poissons Ratio (y) = 0.24501 0.31246
# Poissons Ratio (z) = 0.45225 0.29399
#
# Static dielectric constant tensor:
#      x y z
#    x 3.178410 0.000000 0.399400 
#    y 0.000000 3.064860 0.000000 
#    z 0.399400 0.000000 3.508300 
# 
# 
# High freq. dielectric constant tensor:
#      x y z
#    x 1.627000 0.000000 0.029860 
#    y 0.000000 1.632910 0.000000 
#    z 0.029860 0.000000 1.633740 
# 
# From -- ./inp_files/42856.got.cif
#   From: 2010.06.25/outbox.cif.g09.slc.cpg/sg11_22_cif.got.tgz:42856.got - 2010.06.27 23:14:04.
