data_PCOD8069354
_publ_section_title
;
Structure prediction by ZEFSAII (Michael W. Deem and Ramdas Pophale) SiO2 
 PCOD8069354
Probable space group: P 21/M
;
_chemical_formula_sum "Si O2"
_cell_formula_units_Z 28
_cell_length_a 10.141282
_cell_length_b 8.764481
_cell_length_c 29.787792
_cell_angle_alpha 90.000000
_cell_angle_beta 34.263975
_cell_angle_gamma 90.000000
_cell_volume 1490.633247
_symmetry_space_group_name_H-M "P 21/M"
_symmetry_group_IT_number 11
_symmetry_cell_setting 'monoclinic'
loop_
_space_group_symop_operation_xyz
x,y,z
-x,1/2+y,-z
-x,-y,-z
x,1/2-y,z
loop_
_atom_site_type_symbol
_atom_site_label
_atom_site_fract_x
_atom_site_fract_y
_atom_site_fract_z
Si Si1 0.052780 0.070425 0.845909
Si Si2 0.991825 0.070853 0.407343
Si Si3 0.445738 0.430149 0.423819
Si Si4 0.892532 0.568862 0.340880
Si Si5 0.511274 0.927152 0.690950
Si Si6 0.638366 0.928995 0.002155
Si Si7 0.194404 0.571091 0.174180
O O1 0.038827 0.250000 0.853324
O O2 0.946235 0.004469 0.829172
O O3 0.320793 0.017486 0.774119
O O4 0.897751 0.002899 0.931003
O O5 0.967383 0.250000 0.404594
O O6 0.234700 0.028498 0.362573
O O7 0.791387 0.016803 0.497395
O O8 0.981946 0.977750 0.364227
O O9 0.408181 0.250000 0.440083
O O10 0.647060 0.486837 0.400561
O O11 0.510480 0.475714 0.354876
O O12 0.856539 0.750000 0.348509
O O13 0.085516 0.506921 0.250875
O O14 0.459910 0.750000 0.711431
O O15 0.664292 0.750000 0.987857
O O16 0.474275 0.965939 0.091964
O O17 0.500000 0.000000 0.000000
O O18 0.153463 0.750000 0.184587
#
# Coordination Sequence:
#
# PCOD8069354 Si02
#       7
#     4   4   4   4   4   4   4
#     4  10  18  31  52  80 110 141 177 219 271 323
#     4  11  24  40  55  78 110 145 181 224 274 324
#     4  11  22  38  59  83 105 137 183 228 275 324
#     4  11  21  37  58  81 110 145 181 223 269 320
#     4  10  22  38  57  80 109 142 181 226 273 322
#     4   9  16  28  47  76 110 141 175 219 270 319
#     4   8  16  30  50  77 107 139 174 216 266 313
#
# _framework density 18.783961999999999
#
# number of rings (size 3 to 8) (size 9 to 14) (size 15 to 20)
#    0.000    2.000    1.429    3.857    0.000    1.714 
#    0.000    2.143    0.000    0.857    0.000    0.000 
#    0.000    0.000    0.000    0.000    0.000    0.000 
#
# Total GULP energy -347134.624420 kJ/mol
# GULP energy per Si atom -12397.665158 kJ/mol
# Density = 1.874121 g / cm^3
# Si number density = 18.783962 Si / 1000 Ang^3
#
#
#
# Elastic Constant Matrix: (Units=GPa)
#
#
# Indices 1 2 3 4 5 6 
#
# 1 52.7087 20.7990 21.5217 0.0000 -0.3346 0.0000
# 2 20.7990 49.7556 43.6936 0.0000 -12.1354 0.0000
# 3 21.5217 43.6936 142.1901 0.0000 -24.9011 0.0000
# 4 0.0000 0.0000 0.0000 32.0454 0.0000 -5.3766
# 5 -0.3346 -12.1354 -24.9011 0.0000 6.4614 0.0000
# 6 0.0000 0.0000 0.0000 -5.3766 0.0000 20.7225
#
#
#
# Elastic Compliance Matrix: (Units=1/GPa)
#
#
# Indices 1 2 3 4 5 6 
#
# 1 0.037685 -0.030301 -0.018509 0.000000 -0.126290 0.000000
# 2 -0.030301 0.061734 0.017368 0.000000 0.181310 0.000000
# 3 -0.018509 0.017368 0.030889 0.000000 0.150704 0.000000
# 4 0.000000 0.000000 0.000000 0.032626 0.000000 0.008465
# 5 -0.126290 0.181310 0.150704 0.000000 1.069535 0.000000
# 6 0.000000 0.000000 0.000000 0.008465 0.000000 0.050453
#
#
# Mechanical properties :
#
#
# Convention : Reuss Voigt Hill
#
# Bulk Modulus (GPa) = 14.83152 46.29810 30.56481
# Shear Modulus (GPa) = 3.65422 22.42184 13.03803
#
# Velocity S-wave (km/s) = 1.39629 3.45870 2.63744
# Velocity P-wave (km/s) = 3.24229 6.37584 5.05786
#
# Compressibility (1/GPa) = 0.06742398
#
# Stress axis : x y z
#
# Youngs Moduli (GPa) = 26.53582 16.19843 32.37351
#
# Poissons Ratio (x) = 0.49083 0.59921
# Poissons Ratio (y) = 0.80406 -0.56226
# Poissons Ratio (z) = 0.49116 -0.28133
#
# Static dielectric constant tensor:
#      x y z
#    x 3.160960 0.000000 -0.036750 
#    y 0.000000 3.408710 0.000000 
#    z -0.036750 0.000000 3.997310 
# 
# 
# High freq. dielectric constant tensor:
#      x y z
#    x 1.688300 0.000000 -0.009970 
#    y 0.000000 1.729320 0.000000 
#    z -0.009970 0.000000 1.753830 
# 
# From -- ./inp_files/28269.got.cif
#   From: 2010.06.25/outbox.cif.g09.slc.cpg/sg11_15_cif.got.tgz:28269.got - 2010.06.27 23:14:04.
