data_PCOD8069288
_publ_section_title
;
Structure prediction by ZEFSAII (Michael W. Deem and Ramdas Pophale) SiO2 
 PCOD8069288
Probable space group: P 21/M
;
_chemical_formula_sum "Si O2"
_cell_formula_units_Z 32
_cell_length_a 14.931999
_cell_length_b 8.924147
_cell_length_c 23.078920
_cell_angle_alpha 90.000000
_cell_angle_beta 39.393910
_cell_angle_gamma 90.000000
_cell_volume 1951.791049
_symmetry_space_group_name_H-M "P 21/M"
_symmetry_group_IT_number 11
_symmetry_cell_setting 'monoclinic'
loop_
_space_group_symop_operation_xyz
x,y,z
-x,1/2+y,-z
-x,-y,-z
x,1/2-y,z
loop_
_atom_site_type_symbol
_atom_site_label
_atom_site_fract_x
_atom_site_fract_y
_atom_site_fract_z
Si Si1 0.499998 0.572995 0.617281
Si Si2 0.196748 0.922099 0.374961
Si Si3 0.960957 0.076167 0.428680
Si Si4 0.960956 0.923834 0.110364
Si Si5 0.500001 0.922540 0.260042
Si Si6 0.196743 0.077902 0.928292
Si Si7 0.789409 0.927769 0.416729
Si Si8 0.210590 0.927770 0.706137
O O1 0.499998 0.750000 0.617570
O O2 0.499992 0.521695 0.683092
O O3 0.638251 0.512058 0.515142
O O4 0.361749 0.512057 0.653390
O O5 0.163310 0.750000 0.376456
O O6 0.144210 0.959574 0.465911
O O7 0.363273 0.957735 0.289195
O O8 0.119023 0.026417 0.367128
O O9 0.961259 0.250000 0.411778
O O10 0.912105 0.979912 0.398511
O O11 0.961257 0.750000 0.126961
O O12 0.855789 0.959587 0.110123
O O13 0.912106 0.020077 0.189386
O O14 0.119021 0.973588 0.013849
O O15 0.499989 0.750000 0.280442
O O16 0.636730 0.957717 0.152465
O O17 0.163289 0.250000 0.960234
O O18 0.791827 0.750000 0.410175
O O19 0.821663 0.000006 0.339170
O O20 0.208169 0.750000 0.702008
#
# Coordination Sequence:
#
# PCOD8069288 Si02
#       8
#     4   4   4   4   4   4   4   4
#     4  10  21  33  47  70 100 133 169 207 242 285
#     4   9  18  31  49  72  99 129 163 203 248 294
#     4  10  19  32  50  71  97 130 166 205 248 291
#     4  10  19  32  50  71  97 130 166 205 248 291
#     4  10  18  31  51  74 100 133 166 201 246 295
#     4   9  18  31  49  72  99 129 163 203 248 294
#     4  11  22  35  50  70  98 133 172 209 246 290
#     4  11  22  35  50  70  98 133 172 209 246 290
#
# _framework density 16.395197
#
# number of rings (size 3 to 8) (size 9 to 14) (size 15 to 20)
#    0.000    2.000    2.500    1.875    0.000    3.000 
#    0.000    0.000    0.000    0.000    0.000    0.875 
#    0.000    0.000    0.000    0.000    0.000    0.000 
#
# Total GULP energy -396906.470604 kJ/mol
# GULP energy per Si atom -12403.327206 kJ/mol
# Density = 1.635788 g / cm^3
# Si number density = 16.395197 Si / 1000 Ang^3
#
#
#
# Elastic Constant Matrix: (Units=GPa)
#
#
# Indices 1 2 3 4 5 6 
#
# 1 87.4971 31.6651 54.9776 0.0000 -7.1307 0.0000
# 2 31.6651 52.6488 31.3799 0.0000 2.2056 0.0000
# 3 54.9776 31.3799 89.5178 0.0000 -8.1616 0.0000
# 4 0.0000 0.0000 0.0000 24.8189 0.0000 3.8329
# 5 -7.1307 2.2056 -8.1616 0.0000 24.5364 0.0000
# 6 0.0000 0.0000 0.0000 3.8329 0.0000 25.3264
#
#
#
# Elastic Compliance Matrix: (Units=1/GPa)
#
#
# Indices 1 2 3 4 5 6 
#
# 1 0.020211 -0.006399 -0.009881 0.000000 0.003162 0.000000
# 2 -0.006399 0.026675 -0.005991 0.000000 -0.006250 0.000000
# 3 -0.009881 -0.005991 0.019725 0.000000 0.004228 0.000000
# 4 0.000000 0.000000 0.000000 0.041256 0.000000 -0.006244
# 5 0.003162 -0.006250 0.004228 0.000000 0.043643 0.000000
# 6 0.000000 0.000000 0.000000 -0.006244 0.000000 0.040429
#
#
# Mechanical properties :
#
#
# Convention : Reuss Voigt Hill
#
# Bulk Modulus (GPa) = 45.31177 51.74544 48.52861
# Shear Modulus (GPa) = 20.50545 22.37908 21.44226
#
# Velocity S-wave (km/s) = 3.54036 3.69857 3.62033
# Velocity P-wave (km/s) = 6.66404 7.06180 6.86580
#
# Compressibility (1/GPa) = 0.02206932
#
# Stress axis : x y z
#
# Youngs Moduli (GPa) = 49.47743 37.48880 50.69670
#
# Poissons Ratio (x) = 0.23988 0.50096
# Poissons Ratio (y) = 0.31659 0.30371
# Poissons Ratio (z) = 0.48891 0.22458
#
# Static dielectric constant tensor:
#      x y z
#    x 3.015850 0.000000 -0.205880 
#    y 0.000000 3.094390 0.000000 
#    z -0.205880 0.000000 3.043120 
# 
# 
# High freq. dielectric constant tensor:
#      x y z
#    x 1.614290 0.000000 -0.013140 
#    y 0.000000 1.638140 0.000000 
#    z -0.013140 0.000000 1.616030 
# 
# From -- ./inp_files/54284.got.cif
#   From: 2010.06.25/outbox.cif.g09.slc.cpg/sg11_28_cif.got.tgz:54284.got - 2010.06.27 23:14:04.
