data_PCOD8069657
_publ_section_title
;
Structure prediction by ZEFSAII (Michael W. Deem and Ramdas Pophale) SiO2 
 PCOD8069657
Probable space group: P 21/M
;
_chemical_formula_sum "Si O2"
_cell_formula_units_Z 32
_cell_length_a 11.230819
_cell_length_b 15.981780
_cell_length_c 16.827647
_cell_angle_alpha 90.000000
_cell_angle_beta 31.617311
_cell_angle_gamma 90.000000
_cell_volume 1583.407835
_symmetry_space_group_name_H-M "P 21/M"
_symmetry_group_IT_number 11
_symmetry_cell_setting 'monoclinic'
loop_
_space_group_symop_operation_xyz
x,y,z
-x,1/2+y,-z
-x,-y,-z
x,1/2-y,z
loop_
_atom_site_type_symbol
_atom_site_label
_atom_site_fract_x
_atom_site_fract_y
_atom_site_fract_z
Si Si1 0.074094 0.457789 0.874547
Si Si2 0.321794 0.929166 0.617890
Si Si3 0.620394 0.653214 0.571643
Si Si4 0.208925 0.888595 0.377752
Si Si5 0.303448 0.419036 0.313713
Si Si6 0.112264 0.844004 0.264426
Si Si7 0.298839 0.650297 0.996811
Si Si8 0.471227 0.654061 0.382129
O O1 0.106476 0.529652 0.786737
O O2 0.306042 0.404183 0.750033
O O3 0.876603 0.394250 0.962743
O O4 0.000000 0.500000 0.000000
O O5 0.432334 0.859647 0.612137
O O6 0.288525 0.882357 0.551458
O O7 0.500000 0.000000 0.500000
O O8 0.646732 0.750000 0.576847
O O9 0.550145 0.606117 0.691815
O O10 0.864607 0.611728 0.409191
O O11 0.251647 0.846976 0.267522
O O12 0.352426 0.843569 0.363905
O O13 0.944259 0.877713 0.549112
O O14 0.287139 0.982500 0.321790
O O15 0.445655 0.382676 0.159955
O O16 0.060730 0.750000 0.268626
O O17 0.252372 0.882614 0.112457
O O18 0.284013 0.750000 0.992830
O O19 0.537948 0.750000 0.366094
#
# Coordination Sequence:
#
# PCOD8069657 Si02
#       8
#     4   4   4   4   4   4   4   4
#     4  11  23  39  60  87 122 157 191 238 299 358
#     4  10  20  34  56  82 112 150 195 238 281 341
#     4  10  18  33  55  79 108 143 191 240 279 324
#     4  10  21  38  58  83 115 150 191 235 286 346
#     4  10  21  36  59  84 108 145 190 237 285 333
#     4   9  19  34  55  81 110 148 191 238 285 332
#     4  11  22  38  60  86 114 146 194 245 288 336
#     4  11  22  38  60  86 119 157 194 236 293 354
#
# _framework density 20.209575999999998
#
# number of rings (size 3 to 8) (size 9 to 14) (size 15 to 20)
#    0.000    1.750    0.000    6.000    0.000    5.000 
#    0.000    3.125    0.000    0.000    0.000    0.000 
#    0.000    0.000    0.000    0.000    0.000    0.000 
#
# Total GULP energy -396555.589807 kJ/mol
# GULP energy per Si atom -12392.362181 kJ/mol
# Density = 2.016358 g / cm^3
# Si number density = 20.209576 Si / 1000 Ang^3
#
#
#
# Elastic Constant Matrix: (Units=GPa)
#
#
# Indices 1 2 3 4 5 6 
#
# 1 90.8534 22.8908 37.7271 0.0000 5.3779 0.0000
# 2 22.8908 80.0678 48.5354 0.0000 4.7990 0.0000
# 3 37.7271 48.5354 122.1667 0.0000 19.4819 0.0000
# 4 0.0000 0.0000 0.0000 15.9001 0.0000 17.5829
# 5 5.3779 4.7990 19.4819 0.0000 26.6521 0.0000
# 6 0.0000 0.0000 0.0000 17.5829 0.0000 16.7732
#
#
#
# Elastic Compliance Matrix: (Units=1/GPa)
#
#
# Indices 1 2 3 4 5 6 
#
# 1 0.012792 -0.001656 -0.003315 0.000000 0.000140 0.000000
# 2 -0.001656 0.016766 -0.006476 0.000000 0.002049 0.000000
# 3 -0.003315 -0.006476 0.013006 0.000000 -0.007672 0.000000
# 4 0.000000 0.000000 0.000000 -0.395006 0.000000 0.414074
# 5 0.000140 0.002049 -0.007672 0.000000 0.042731 0.000000
# 6 0.000000 0.000000 0.000000 0.414074 0.000000 -0.374445
#
#
# Mechanical properties :
#
#
# Convention : Reuss Voigt Hill
#
# Bulk Modulus (GPa) = 50.84105 56.82164 53.83135
# Shear Modulus (GPa) = -7.63702 24.12740 8.24519
#
# Velocity S-wave (km/s) = -1.94605 3.45898 2.02205
# Velocity P-wave (km/s) = 4.49022 6.64304 5.66974
#
# Compressibility (1/GPa) = 0.01966914
#
# Stress axis : x y z
#
# Youngs Moduli (GPa) = 78.17254 59.64508 76.89050
#
# Poissons Ratio (x) = 0.09879 0.25487
# Poissons Ratio (y) = 0.12947 0.49796
# Poissons Ratio (z) = 0.25912 0.38627
#
# Static dielectric constant tensor:
#      x y z
#    x 3.498780 0.000000 0.375350 
#    y 0.000000 3.693350 0.000000 
#    z 0.375350 0.000000 3.904820 
# 
# 
# High freq. dielectric constant tensor:
#      x y z
#    x 1.782690 0.000000 0.022760 
#    y 0.000000 1.791740 0.000000 
#    z 0.022760 0.000000 1.783770 
# 
# From -- ./inp_files/59479.got.cif
#   From: 2010.06.25/outbox.cif.g09.slc.cpg/sg11_30_cif.got.tgz:59479.got - 2010.06.27 23:14:04.
