data_PCOD8069475
_publ_section_title
;
Structure prediction by ZEFSAII (Michael W. Deem and Ramdas Pophale) SiO2 
 PCOD8069475
Probable space group: P 21/M
;
_chemical_formula_sum "Si O2"
_cell_formula_units_Z 12
_cell_length_a 9.155264
_cell_length_b 8.863793
_cell_length_c 16.245857
_cell_angle_alpha 90.000000
_cell_angle_beta 150.034033
_cell_angle_gamma 90.000000
_cell_volume 658.500322
_symmetry_space_group_name_H-M "P 21/M"
_symmetry_group_IT_number 11
_symmetry_cell_setting 'monoclinic'
loop_
_space_group_symop_operation_xyz
x,y,z
-x,1/2+y,-z
-x,-y,-z
x,1/2-y,z
loop_
_atom_site_type_symbol
_atom_site_label
_atom_site_fract_x
_atom_site_fract_y
_atom_site_fract_z
Si Si1 0.434568 0.250000 0.180851
Si Si2 0.098036 0.250000 0.532704
Si Si3 0.948506 0.250000 0.816166
Si Si4 0.477169 0.998237 0.325734
Si Si5 0.173190 0.750000 0.427021
O O1 0.341787 0.102412 0.187745
O O2 0.781966 0.250000 0.334288
O O3 0.267691 0.250000 0.012826
O O4 0.268073 0.398508 0.589373
O O5 0.061356 0.250000 0.613562
O O6 0.776881 0.399324 0.758929
O O7 0.997053 0.250000 0.742128
O O8 0.620553 0.102409 0.466387
#
# Coordination Sequence:
#
# PCOD8069475 Si02
#       5
#     2   2   2   4   2
#     4  10  18  32  52  74  96 126 162 200 236 282
#     4   9  18  36  54  67  92 136 168 185 230 302
#     4  11  20  30  50  79 100 118 158 211 242 266
#     4   9  19  35  52  68  96 135 163 185 236 302
#     4  10  18  32  52  74  96 126 162 200 236 282
#
# _framework density 18.223224999999999
#
# number of rings (size 3 to 8) (size 9 to 14) (size 15 to 20)
#    0.000    2.667    0.000    6.000    0.000    0.000 
#    0.000    6.667    0.000   12.000    0.000    0.000 
#    0.000    0.000    0.000    0.000    0.000    0.000 
#
# Total GULP energy -148778.050990 kJ/mol
# GULP energy per Si atom -12398.170916 kJ/mol
# Density = 1.818175 g / cm^3
# Si number density = 18.223225 Si / 1000 Ang^3
#
#
#
# Elastic Constant Matrix: (Units=GPa)
#
#
# Indices 1 2 3 4 5 6 
#
# 1 86.2557 39.3709 75.3875 0.0000 -7.1766 0.0000
# 2 39.3709 124.3661 47.6303 0.0000 -6.1886 0.0000
# 3 75.3875 47.6303 142.7394 0.0000 -35.1657 0.0000
# 4 0.0000 0.0000 0.0000 14.3690 0.0000 -1.8471
# 5 -7.1766 -6.1886 -35.1657 0.0000 31.1379 0.0000
# 6 0.0000 0.0000 0.0000 -1.8471 0.0000 11.8756
#
#
#
# Elastic Compliance Matrix: (Units=1/GPa)
#
#
# Indices 1 2 3 4 5 6 
#
# 1 0.025350 -0.002699 -0.015491 0.000000 -0.012188 0.000000
# 2 -0.002699 0.009624 -0.002034 0.000000 -0.001006 0.000000
# 3 -0.015491 -0.002034 0.020625 0.000000 0.019319 0.000000
# 4 0.000000 0.000000 0.000000 0.071014 0.000000 0.011045
# 5 -0.012188 -0.001006 0.019319 0.000000 0.050924 0.000000
# 6 0.000000 0.000000 0.000000 0.011045 0.000000 0.085924
#
#
# Mechanical properties :
#
#
# Convention : Reuss Voigt Hill
#
# Bulk Modulus (GPa) = 65.99654 75.34873 70.67263
# Shear Modulus (GPa) = 16.18335 24.20800 20.19568
#
# Velocity S-wave (km/s) = 2.98327 3.64870 3.33263
# Velocity P-wave (km/s) = 6.93980 7.69338 7.32628
#
# Compressibility (1/GPa) = 0.01515231
#
# Stress axis : x y z
#
# Youngs Moduli (GPa) = 39.44734 103.90616 48.48405
#
# Poissons Ratio (x) = 0.28044 0.75106
# Poissons Ratio (y) = 0.10647 0.09861
# Poissons Ratio (z) = 0.61107 0.21133
#
# Static dielectric constant tensor:
#      x y z
#    x 3.092380 0.000000 -0.045760 
#    y 0.000000 3.720860 0.000000 
#    z -0.045760 0.000000 3.153030 
# 
# 
# High freq. dielectric constant tensor:
#      x y z
#    x 1.688000 0.000000 -0.001250 
#    y 0.000000 1.732830 0.000000 
#    z -0.001250 0.000000 1.689610 
# 
# From -- ./inp_files/10952.got.cif
#   From: 2010.06.25/outbox.cif.g09.slc.cpg/sg11_6_cif.got.tgz:10952.got - 2010.06.27 23:14:04.
