data_PCOD8069320
_publ_section_title
;
Structure prediction by ZEFSAII (Michael W. Deem and Ramdas Pophale) SiO2 
 PCOD8069320
Probable space group: P 21/M
;
_chemical_formula_sum "Si O2"
_cell_formula_units_Z 32
_cell_length_a 11.780116
_cell_length_b 8.858122
_cell_length_c 21.727180
_cell_angle_alpha 90.000000
_cell_angle_beta 51.661037
_cell_angle_gamma 90.000000
_cell_volume 1778.308485
_symmetry_space_group_name_H-M "P 21/M"
_symmetry_group_IT_number 11
_symmetry_cell_setting 'monoclinic'
loop_
_space_group_symop_operation_xyz
x,y,z
-x,1/2+y,-z
-x,-y,-z
x,1/2-y,z
loop_
_atom_site_type_symbol
_atom_site_label
_atom_site_fract_x
_atom_site_fract_y
_atom_site_fract_z
Si Si1 0.647116 0.428524 0.764741
Si Si2 0.345308 0.928688 0.906386
Si Si3 0.862240 0.925377 0.266819
Si Si4 0.349466 0.427642 0.031425
Si Si5 0.549147 0.073263 0.671996
Si Si6 0.145329 0.425219 0.213395
Si Si7 0.755281 0.926021 0.173710
Si Si8 0.456220 0.073431 0.577947
O O1 0.625589 0.250000 0.780344
O O2 0.506277 0.508884 0.839928
O O3 0.668437 0.468773 0.683982
O O4 0.790157 0.483756 0.750689
O O5 0.352685 0.750000 0.908168
O O6 0.224930 0.978871 0.895925
O O7 0.290313 0.996133 0.989288
O O8 0.898009 0.750000 0.265159
O O9 0.866972 0.961579 0.191514
O O10 0.708000 0.966494 0.348394
O O11 0.979650 0.027123 0.261276
O O12 0.370636 0.250000 0.014894
O O13 0.232515 0.465544 0.122735
O O14 0.500000 0.500000 0.000000
O O15 0.537022 0.250000 0.666506
O O16 0.399167 0.017284 0.750580
O O17 0.562828 0.009423 0.597373
O O18 0.153962 0.250000 0.226559
O O19 0.757323 0.750000 0.155884
O O20 0.475635 0.250000 0.562579
O O21 0.500000 0.000000 0.500000
#
# Coordination Sequence:
#
# PCOD8069320 Si02
#       8
#     4   4   4   4   4   4   4   4
#     4  10  18  31  52  72  97 136 176 212 255 303
#     4  11  20  30  48  75 102 128 168 220 266 306
#     4   9  19  36  56  76 103 139 175 206 248 314
#     4  11  22  35  50  70 100 136 174 219 265 311
#     4   7  13  27  48  74 100 128 164 205 245 293
#     4  11  23  35  50  75 105 133 170 219 265 306
#     4   8  15  31  52  71  94 130 172 211 253 302
#     4   9  17  32  55  83 110 133 164 203 247 301
#
# _framework density 17.994627000000001
#
# number of rings (size 3 to 8) (size 9 to 14) (size 15 to 20)
#    0.000    2.500    1.250    4.500    0.000    2.500 
#    0.000    6.250    0.000    0.750    0.000    0.000 
#    0.000    0.000    0.000    0.000    0.000    0.000 
#
# Total GULP energy -396478.663976 kJ/mol
# GULP energy per Si atom -12389.958249 kJ/mol
# Density = 1.795367 g / cm^3
# Si number density = 17.994627 Si / 1000 Ang^3
#
#
#
# Elastic Constant Matrix: (Units=GPa)
#
#
# Indices 1 2 3 4 5 6 
#
# 1 155.1437 39.8225 73.4377 0.0000 37.6779 0.0000
# 2 39.8225 88.1276 38.7078 0.0000 14.0045 0.0000
# 3 73.4377 38.7078 91.6939 0.0000 34.1855 0.0000
# 4 0.0000 0.0000 0.0000 24.6494 0.0000 3.8698
# 5 37.6779 14.0045 34.1855 0.0000 34.3188 0.0000
# 6 0.0000 0.0000 0.0000 3.8698 0.0000 28.5353
#
#
#
# Elastic Compliance Matrix: (Units=1/GPa)
#
#
# Indices 1 2 3 4 5 6 
#
# 1 0.011077 -0.001393 -0.006302 0.000000 -0.005315 0.000000
# 2 -0.001393 0.014107 -0.005191 0.000000 0.000944 0.000000
# 3 -0.006302 -0.005191 0.023504 0.000000 -0.014376 0.000000
# 4 0.000000 0.000000 0.000000 0.041452 0.000000 -0.005621
# 5 -0.005315 0.000944 -0.014376 0.000000 0.048909 0.000000
# 6 0.000000 0.000000 0.000000 -0.005621 0.000000 0.035807
#
#
# Mechanical properties :
#
#
# Convention : Reuss Voigt Hill
#
# Bulk Modulus (GPa) = 43.63844 70.98903 57.31373
# Shear Modulus (GPa) = 24.00777 29.70052 26.85414
#
# Velocity S-wave (km/s) = 3.65658 4.06707 3.86728
# Velocity P-wave (km/s) = 6.49083 7.84796 7.20144
#
# Compressibility (1/GPa) = 0.02291558
#
# Stress axis : x y z
#
# Youngs Moduli (GPa) = 90.27635 70.88789 42.54568
#
# Poissons Ratio (x) = 0.09873 0.26812
# Poissons Ratio (y) = 0.12573 0.22087
# Poissons Ratio (z) = 0.56892 0.36801
#
# Static dielectric constant tensor:
#      x y z
#    x 3.696850 0.000000 0.278670 
#    y 0.000000 3.220580 0.000000 
#    z 0.278670 0.000000 3.789690 
# 
# 
# High freq. dielectric constant tensor:
#      x y z
#    x 1.702090 0.000000 0.036380 
#    y 0.000000 1.689330 0.000000 
#    z 0.036380 0.000000 1.662990 
# 
# From -- ./inp_files/64340.got.cif
#   From: 2010.06.25/outbox.cif.g09.slc.cpg/sg11_33_cif.got.tgz:64340.got - 2010.06.27 23:14:04.
