data_PCOD8069552
_publ_section_title
;
Structure prediction by ZEFSAII (Michael W. Deem and Ramdas Pophale) SiO2 
 PCOD8069552
Probable space group: P 21/M
;
_chemical_formula_sum "Si O2"
_cell_formula_units_Z 32
_cell_length_a 9.098267
_cell_length_b 18.998356
_cell_length_c 10.775951
_cell_angle_alpha 90.000000
_cell_angle_beta 66.192258
_cell_angle_gamma 90.000000
_cell_volume 1704.144315
_symmetry_space_group_name_H-M "P 21/M"
_symmetry_group_IT_number 11
_symmetry_cell_setting 'monoclinic'
loop_
_space_group_symop_operation_xyz
x,y,z
-x,1/2+y,-z
-x,-y,-z
x,1/2-y,z
loop_
_atom_site_type_symbol
_atom_site_label
_atom_site_fract_x
_atom_site_fract_y
_atom_site_fract_z
Si Si1 0.422771 0.174678 0.533104
Si Si2 0.233709 0.639338 0.597314
Si Si3 0.887764 0.826693 0.789729
Si Si4 0.835966 0.497692 0.486721
Si Si5 0.362247 0.103276 0.302119
Si Si6 0.994242 0.334863 0.982996
Si Si7 0.788095 0.570987 0.251478
Si Si8 0.289344 0.570729 0.837100
O O1 0.343191 0.250000 0.596460
O O2 0.614248 0.187688 0.484794
O O3 0.378642 0.162440 0.403049
O O4 0.368590 0.111880 0.642944
O O5 0.211525 0.583628 0.496018
O O6 0.285349 0.594266 0.697834
O O7 0.067413 0.680589 0.672305
O O8 0.807340 0.750000 0.810609
O O9 0.772062 0.878543 0.754694
O O10 0.905064 0.850876 0.926292
O O11 0.692298 0.533383 0.609580
O O12 0.868778 0.530979 0.339664
O O13 0.000000 0.500000 0.500000
O O14 0.529875 0.085835 0.175037
O O15 0.961464 0.250000 0.979117
O O16 0.829965 0.380700 0.040966
O O17 0.094910 0.366989 0.835715
O O18 0.750285 0.513803 0.154396
#
# Coordination Sequence:
#
# PCOD8069552 Si02
#       8
#     4   4   4   4   4   4   4   4
#     4  10  19  31  52  79 109 141 176 222 274 328
#     4   9  17  31  51  77 105 135 174 215 267 319
#     4  10  19  31  50  74 102 137 174 218 261 313
#     4  10  18  32  55  80 108 137 169 221 273 321
#     4  10  19  32  52  80 106 135 175 223 272 315
#     4  10  21  37  57  76 103 143 184 221 268 320
#     4  10  20  35  56  79 106 142 183 222 268 326
#     4   9  19  34  55  80 103 136 183 228 261 311
#
# _framework density 18.777752
#
# number of rings (size 3 to 8) (size 9 to 14) (size 15 to 20)
#    0.000    2.250    1.250    2.250    0.000    6.500 
#    0.000    0.625    2.750    0.000    0.000    0.000 
#    0.000    0.000    0.000    0.000    0.000    0.000 
#
# Total GULP energy -396443.538771 kJ/mol
# GULP energy per Si atom -12388.860587 kJ/mol
# Density = 1.873501 g / cm^3
# Si number density = 18.777752 Si / 1000 Ang^3
#
#
#
# Elastic Constant Matrix: (Units=GPa)
#
#
# Indices 1 2 3 4 5 6 
#
# 1 91.6927 18.9901 27.6735 0.0000 -11.3401 0.0000
# 2 18.9901 100.1818 25.4025 0.0000 -2.3998 0.0000
# 3 27.6735 25.4025 67.8914 0.0000 -12.1271 0.0000
# 4 0.0000 0.0000 0.0000 25.2620 0.0000 -2.3497
# 5 -11.3401 -2.3998 -12.1271 0.0000 21.0386 0.0000
# 6 0.0000 0.0000 0.0000 -2.3497 0.0000 14.5304
#
#
#
# Elastic Compliance Matrix: (Units=1/GPa)
#
#
# Indices 1 2 3 4 5 6 
#
# 1 0.012941 -0.001339 -0.003963 0.000000 0.004538 0.000000
# 2 -0.001339 0.011196 -0.003951 0.000000 -0.001722 0.000000
# 3 -0.003963 -0.003951 0.019354 0.000000 0.008569 0.000000
# 4 0.000000 0.000000 0.000000 0.040190 0.000000 0.006499
# 5 0.004538 -0.001722 0.008569 0.000000 0.054721 0.000000
# 6 0.000000 0.000000 0.000000 0.006499 0.000000 0.069872
#
#
# Mechanical properties :
#
#
# Convention : Reuss Voigt Hill
#
# Bulk Modulus (GPa) = 40.02561 44.87756 42.45158
# Shear Modulus (GPa) = 21.26682 24.67951 22.97317
#
# Velocity S-wave (km/s) = 3.36899 3.62925 3.50154
# Velocity P-wave (km/s) = 6.04113 6.44307 6.24533
#
# Compressibility (1/GPa) = 0.02498400
#
# Stress axis : x y z
#
# Youngs Moduli (GPa) = 77.27549 89.31518 51.66966
#
# Poissons Ratio (x) = 0.11963 0.20477
# Poissons Ratio (y) = 0.10350 0.20414
# Poissons Ratio (z) = 0.30625 0.35288
#
# Static dielectric constant tensor:
#      x y z
#    x 3.416800 0.000000 -0.163840 
#    y 0.000000 3.442600 0.000000 
#    z -0.163840 0.000000 3.200810 
# 
# 
# High freq. dielectric constant tensor:
#      x y z
#    x 1.717690 0.000000 -0.016800 
#    y 0.000000 1.742730 0.000000 
#    z -0.016800 0.000000 1.700750 
# 
# From -- ./inp_files/19186.got.cif
#   From: 2010.06.25/outbox.cif.g09.slc.cpg/sg11_10_cif.got.tgz:19186.got - 2010.06.27 23:14:04.
