data_PCOD8069173
_publ_section_title
;
Structure prediction by ZEFSAII (Michael W. Deem and Ramdas Pophale) SiO2 
 PCOD8069173
Probable space group: P 21/M
;
_chemical_formula_sum "Si O2"
_cell_formula_units_Z 20
_cell_length_a 21.637676
_cell_length_b 8.740950
_cell_length_c 10.321328
_cell_angle_alpha 90.000000
_cell_angle_beta 35.129369
_cell_angle_gamma 90.000000
_cell_volume 1123.293419
_symmetry_space_group_name_H-M "P 21/M"
_symmetry_group_IT_number 11
_symmetry_cell_setting 'monoclinic'
loop_
_space_group_symop_operation_xyz
x,y,z
-x,1/2+y,-z
-x,-y,-z
x,1/2-y,z
loop_
_atom_site_type_symbol
_atom_site_label
_atom_site_fract_x
_atom_site_fract_y
_atom_site_fract_z
Si Si1 0.777931 0.573104 0.021226
Si Si2 0.440248 0.428463 0.481003
Si Si3 0.009249 0.572867 0.622013
Si Si4 0.546416 0.569675 0.050017
Si Si5 0.240185 0.929570 0.225843
O O1 0.774532 0.750000 0.980972
O O2 0.687318 0.542875 0.284097
O O3 0.756083 0.469406 0.933129
O O4 0.894987 0.536001 0.888473
O O5 0.500000 0.500000 0.500000
O O6 0.468717 0.250000 0.423620
O O7 0.476457 0.510337 0.289186
O O8 0.022988 0.750000 0.574605
O O9 0.123445 0.520475 0.488865
O O10 0.000000 0.500000 0.500000
O O11 0.537428 0.750000 0.059496
O O12 0.500000 0.500000 0.000000
O O13 0.670490 0.522687 0.850043
O O14 0.263812 0.750000 0.201215
#
# Coordination Sequence:
#
# PCOD8069173 Si02
#       5
#     4   4   4   4   4
#     4   9  17  30  50  77 109 141 174 214 262 313
#     4  11  21  34  55  82 112 144 179 220 267 316
#     4   8  15  27  45  73 105 137 171 212 260 310
#     4  12  25  40  56  76 106 143 183 226 272 325
#     4  10  18  30  51  77 107 139 176 219 264 316
#
# _framework density 17.804787999999999
#
# number of rings (size 3 to 8) (size 9 to 14) (size 15 to 20)
#    0.000    2.000    2.000    3.000    0.000    1.600 
#    0.000    0.000    0.000    1.200    0.000    0.000 
#    0.000    0.000    0.000    0.000    0.000    0.000 
#
# Total GULP energy -247766.373052 kJ/mol
# GULP energy per Si atom -12388.318653 kJ/mol
# Density = 1.776426 g / cm^3
# Si number density = 17.804788 Si / 1000 Ang^3
#
#
#
# Elastic Constant Matrix: (Units=GPa)
#
#
# Indices 1 2 3 4 5 6 
#
# 1 119.8895 53.1718 86.1463 0.0000 -19.4825 0.0000
# 2 53.1718 102.7954 52.2656 0.0000 -7.3958 0.0000
# 3 86.1463 52.2656 126.8805 0.0000 -30.9587 0.0000
# 4 0.0000 0.0000 0.0000 23.2494 0.0000 -0.1195
# 5 -19.4825 -7.3958 -30.9587 0.0000 37.9527 0.0000
# 6 0.0000 0.0000 0.0000 -0.1195 0.0000 27.0762
#
#
#
# Elastic Compliance Matrix: (Units=1/GPa)
#
#
# Indices 1 2 3 4 5 6 
#
# 1 0.017377 -0.003768 -0.010299 0.000000 -0.000215 0.000000
# 2 -0.003768 0.013267 -0.003431 0.000000 -0.002147 0.000000
# 3 -0.010299 -0.003431 0.018520 0.000000 0.009152 0.000000
# 4 0.000000 0.000000 0.000000 0.043013 0.000000 0.000190
# 5 -0.000215 -0.002147 0.009152 0.000000 0.033285 0.000000
# 6 0.000000 0.000000 0.000000 0.000190 0.000000 0.036934
#
#
# Mechanical properties :
#
#
# Convention : Reuss Voigt Hill
#
# Bulk Modulus (GPa) = 70.57331 81.41475 75.99403
# Shear Modulus (GPa) = 24.73852 28.18778 26.46315
#
# Velocity S-wave (km/s) = 3.73155 3.98321 3.85943
# Velocity P-wave (km/s) = 7.63474 8.18414 7.91421
#
# Compressibility (1/GPa) = 0.01416966
#
# Stress axis : x y z
#
# Youngs Moduli (GPa) = 57.54635 75.37612 53.99501
#
# Poissons Ratio (x) = 0.28399 0.55609
# Poissons Ratio (y) = 0.21681 0.18525
# Poissons Ratio (z) = 0.59266 0.25860
#
# Static dielectric constant tensor:
#      x y z
#    x 3.374670 0.000000 -0.622760 
#    y 0.000000 3.430510 0.000000 
#    z -0.622760 0.000000 2.626350 
# 
# 
# High freq. dielectric constant tensor:
#      x y z
#    x 1.662780 0.000000 -0.048760 
#    y 0.000000 1.701090 0.000000 
#    z -0.048760 0.000000 1.688110 
# 
# From -- ./inp_files/15897.got.cif
#   From: 2010.06.25/outbox.cif.g09.slc.cpg/sg11_8_cif.got.tgz:15897.got - 2010.06.27 23:14:04.
