data_PCOD8069279
_publ_section_title
;
Structure prediction by ZEFSAII (Michael W. Deem and Ramdas Pophale) SiO2 
 PCOD8069279
Probable space group: P 21/M
;
_chemical_formula_sum "Si O2"
_cell_formula_units_Z 28
_cell_length_a 20.331520
_cell_length_b 8.755227
_cell_length_c 14.945463
_cell_angle_alpha 90.000000
_cell_angle_beta 37.594494
_cell_angle_gamma 90.000000
_cell_volume 1623.026485
_symmetry_space_group_name_H-M "P 21/M"
_symmetry_group_IT_number 11
_symmetry_cell_setting 'monoclinic'
loop_
_space_group_symop_operation_xyz
x,y,z
-x,1/2+y,-z
-x,-y,-z
x,1/2-y,z
loop_
_atom_site_type_symbol
_atom_site_label
_atom_site_fract_x
_atom_site_fract_y
_atom_site_fract_z
Si Si1 0.260764 0.430774 0.311848
Si Si2 0.863834 0.918323 0.068353
Si Si3 0.084735 0.930912 0.618602
Si Si4 0.527812 0.431900 0.873823
Si Si5 0.859698 0.426222 0.892779
Si Si6 0.118852 0.581317 0.777649
Si Si7 0.318146 0.928229 0.062131
O O1 0.273558 0.250000 0.298265
O O2 0.145196 0.479877 0.474805
O O3 0.352608 0.505947 0.277312
O O4 0.268159 0.490750 0.202844
O O5 0.814753 0.750000 0.106824
O O6 0.991987 0.911148 0.931162
O O7 0.823662 0.026851 0.031658
O O8 0.823762 0.978703 0.208511
O O9 0.095022 0.750000 0.593981
O O10 0.136607 0.982609 0.658061
O O11 0.959132 0.973906 0.750097
O O12 0.526579 0.250000 0.874030
O O13 0.500000 0.500000 0.000000
O O14 0.434328 0.498225 0.909963
O O15 0.894469 0.250000 0.855138
O O16 0.758884 0.458100 0.938101
O O17 0.168923 0.750000 0.731714
O O18 0.332351 0.750000 0.068489
#
# Coordination Sequence:
#
# PCOD8069279 Si02
#       7
#     4   4   4   4   4   4   4
#     4  11  21  33  50  70  94 124 157 194 235 278
#     4   9  16  26  43  65  90 120 153 191 230 271
#     4  10  20  33  48  68  96 127 159 194 231 277
#     4  10  18  31  51  71  91 116 152 197 238 274
#     4  10  20  32  47  68  96 128 159 192 231 278
#     4   8  15  27  43  63  88 119 153 190 230 270
#     4  10  20  34  50  69  94 124 159 196 233 274
#
# _framework density 17.251719999999999
#
# number of rings (size 3 to 8) (size 9 to 14) (size 15 to 20)
#    0.000    2.286    0.000    6.857    0.000    6.857 
#    0.000    0.000    0.000    0.000    0.000    1.000 
#    0.000    0.000    0.000    0.000    0.000    0.000 
#
# Total GULP energy -347080.342393 kJ/mol
# GULP energy per Si atom -12395.726514 kJ/mol
# Density = 1.721245 g / cm^3
# Si number density = 17.251720 Si / 1000 Ang^3
#
#
#
# Elastic Constant Matrix: (Units=GPa)
#
#
# Indices 1 2 3 4 5 6 
#
# 1 96.3085 49.9689 24.2450 0.0000 -1.8906 0.0000
# 2 49.9689 122.4084 18.3919 0.0000 -3.0697 0.0000
# 3 24.2450 18.3919 12.1560 0.0000 -5.2321 0.0000
# 4 0.0000 0.0000 0.0000 23.1128 0.0000 0.3283
# 5 -1.8906 -3.0697 -5.2321 0.0000 16.8081 0.0000
# 6 0.0000 0.0000 0.0000 0.3283 0.0000 28.5381
#
#
#
# Elastic Compliance Matrix: (Units=1/GPa)
#
#
# Indices 1 2 3 4 5 6 
#
# 1 0.023944 -0.002689 -0.049352 0.000000 -0.013160 0.000000
# 2 -0.002689 0.011058 -0.012273 0.000000 -0.002103 0.000000
# 3 -0.049352 -0.012273 0.226219 0.000000 0.062626 0.000000
# 4 0.000000 0.000000 0.000000 0.043273 0.000000 -0.000498
# 5 -0.013160 -0.002103 0.062626 0.000000 0.077125 0.000000
# 6 0.000000 0.000000 0.000000 -0.000498 0.000000 0.035047
#
#
# Mechanical properties :
#
#
# Convention : Reuss Voigt Hill
#
# Bulk Modulus (GPa) = 7.54185 46.23163 26.88674
# Shear Modulus (GPa) = 8.48187 22.90961 15.69574
#
# Velocity S-wave (km/s) = 2.21973 3.64807 3.01957
# Velocity P-wave (km/s) = 3.30919 6.67840 5.27028
#
# Compressibility (1/GPa) = 0.13259353
#
# Stress axis : x y z
#
# Youngs Moduli (GPa) = 41.76355 90.42886 4.42049
#
# Poissons Ratio (x) = 0.24319 0.21816
# Poissons Ratio (y) = 0.11231 0.05425
# Poissons Ratio (z) = 2.06112 1.10981
#
# Static dielectric constant tensor:
#      x y z
#    x 3.330420 0.000000 -0.045410 
#    y 0.000000 3.428580 0.000000 
#    z -0.045410 0.000000 3.141750 
# 
# 
# High freq. dielectric constant tensor:
#      x y z
#    x 1.653850 0.000000 0.006540 
#    y 0.000000 1.685070 0.000000 
#    z 0.006540 0.000000 1.626310 
# 
# From -- ./inp_files/53224.got.cif
#   From: 2010.06.25/outbox.cif.g09.slc.cpg/sg11_27_cif.got.tgz:53224.got - 2010.06.27 23:14:04.
