data_PCOD8069268
_publ_section_title
;
Structure prediction by ZEFSAII (Michael W. Deem and Ramdas Pophale) SiO2 
 PCOD8069268
Probable space group: P 21/M
;
_chemical_formula_sum "Si O2"
_cell_formula_units_Z 32
_cell_length_a 23.812197
_cell_length_b 9.090050
_cell_length_c 17.514235
_cell_angle_alpha 90.000000
_cell_angle_beta 28.261199
_cell_angle_gamma 90.000000
_cell_volume 1795.020477
_symmetry_space_group_name_H-M "P 21/M"
_symmetry_group_IT_number 11
_symmetry_cell_setting 'monoclinic'
loop_
_space_group_symop_operation_xyz
x,y,z
-x,1/2+y,-z
-x,-y,-z
x,1/2-y,z
loop_
_atom_site_type_symbol
_atom_site_label
_atom_site_fract_x
_atom_site_fract_y
_atom_site_fract_z
Si Si1 0.293536 0.423639 0.739045
Si Si2 0.969091 0.921315 0.959888
Si Si3 0.877940 0.579733 0.630616
Si Si4 0.193613 0.920217 0.593864
Si Si5 0.157811 0.419624 0.159726
Si Si6 0.890552 0.077709 0.470421
Si Si7 0.383502 0.425230 0.468495
Si Si8 0.377093 0.074438 0.800601
O O1 0.296831 0.250000 0.729578
O O2 0.342921 0.487569 0.600085
O O3 0.370372 0.475307 0.719738
O O4 0.159094 0.477627 0.914590
O O5 0.965383 0.750000 0.982465
O O6 0.064595 0.959939 0.781296
O O7 0.000000 0.000000 0.000000
O O8 0.899379 0.750000 0.587191
O O9 0.802114 0.559540 0.799373
O O10 0.821591 0.503274 0.622931
O O11 0.000000 0.500000 0.500000
O O12 0.225588 0.750000 0.571213
O O13 0.186241 0.954409 0.512851
O O14 0.291819 0.023152 0.513922
O O15 0.149468 0.250000 0.147156
O O16 0.026037 0.485445 0.300959
O O17 0.260410 0.488316 0.983725
O O18 0.896296 0.250000 0.482209
O O19 0.391542 0.250000 0.457186
O O20 0.510122 0.495543 0.297089
O O21 0.389239 0.250000 0.795105
#
# Coordination Sequence:
#
# PCOD8069268 Si02
#       8
#     4   4   4   4   4   4   4   4
#     4   9  18  32  51  72  96 127 162 204 251 291
#     4  10  18  31  50  73  99 129 162 199 245 295
#     4   9  16  28  48  76 106 134 160 193 245 300
#     4  10  20  33  52  74  98 133 173 203 237 298
#     4   8  15  29  51  76 100 126 159 199 241 290
#     4   9  17  31  51  78 105 129 162 202 244 295
#     4  11  22  35  48  68 100 132 165 211 256 287
#     4  10  19  34  54  71  91 128 173 207 239 290
#
# _framework density 17.827095
#
# number of rings (size 3 to 8) (size 9 to 14) (size 15 to 20)
#    0.000    2.500    1.250    2.625    0.000    3.500 
#    0.000    4.375    0.000    2.250    0.000    0.000 
#    0.000    0.000    0.000    0.000    0.000    0.000 
#
# Total GULP energy -396622.172857 kJ/mol
# GULP energy per Si atom -12394.442902 kJ/mol
# Density = 1.778652 g / cm^3
# Si number density = 17.827095 Si / 1000 Ang^3
#
#
#
# Elastic Constant Matrix: (Units=GPa)
#
#
# Indices 1 2 3 4 5 6 
#
# 1 105.8069 40.3769 45.2370 0.0000 8.4830 0.0000
# 2 40.3769 49.6958 23.8244 0.0000 2.3789 0.0000
# 3 45.2370 23.8244 65.1586 0.0000 -3.1653 0.0000
# 4 0.0000 0.0000 0.0000 19.1880 0.0000 1.7126
# 5 8.4830 2.3789 -3.1653 0.0000 30.2466 0.0000
# 6 0.0000 0.0000 0.0000 1.7126 0.0000 30.0294
#
#
#
# Elastic Compliance Matrix: (Units=1/GPa)
#
#
# Indices 1 2 3 4 5 6 
#
# 1 0.017229 -0.009590 -0.008697 0.000000 -0.004988 0.000000
# 2 -0.009590 0.029987 -0.004312 0.000000 -0.000120 0.000000
# 3 -0.008697 -0.004312 0.023215 0.000000 0.005208 0.000000
# 4 0.000000 0.000000 0.000000 0.052382 0.000000 -0.002987
# 5 -0.004988 -0.000120 0.005208 0.000000 0.035015 0.000000
# 6 0.000000 0.000000 0.000000 -0.002987 0.000000 0.033471
#
#
# Mechanical properties :
#
#
# Convention : Reuss Voigt Hill
#
# Bulk Modulus (GPa) = 39.63201 48.83754 44.23478
# Shear Modulus (GPa) = 20.41561 23.30767 21.86164
#
# Velocity S-wave (km/s) = 3.38775 3.61976 3.50568
# Velocity P-wave (km/s) = 6.13042 6.70260 6.42289
#
# Compressibility (1/GPa) = 0.02523213
#
# Stress axis : x y z
#
# Youngs Moduli (GPa) = 58.04067 33.34749 43.07531
#
# Poissons Ratio (x) = 0.31981 0.37464
# Poissons Ratio (y) = 0.55662 0.18575
# Poissons Ratio (z) = 0.50480 0.14380
#
# Static dielectric constant tensor:
#      x y z
#    x 3.207120 0.000000 0.092410 
#    y 0.000000 3.127570 0.000000 
#    z 0.092410 0.000000 2.964560 
# 
# 
# High freq. dielectric constant tensor:
#      x y z
#    x 1.692500 0.000000 0.012060 
#    y 0.000000 1.664470 0.000000 
#    z 0.012060 0.000000 1.672880 
# 
# From -- ./inp_files/61742.got.cif
#   From: 2010.06.25/outbox.cif.g09.slc.cpg/sg11_31_cif.got.tgz:61742.got - 2010.06.27 23:14:04.
