data_PCOD8069928
_publ_section_title
;
Structure prediction by ZEFSAII (Michael W. Deem and Ramdas Pophale) SiO2 
 PCOD8069928
Probable space group: P 21/M
;
_chemical_formula_sum "Si O2"
_cell_formula_units_Z 32
_cell_length_a 18.550015
_cell_length_b 9.155697
_cell_length_c 13.548094
_cell_angle_alpha 90.000000
_cell_angle_beta 68.160699
_cell_angle_gamma 90.000000
_cell_volume 2135.845766
_symmetry_space_group_name_H-M "P 21/M"
_symmetry_group_IT_number 11
_symmetry_cell_setting 'monoclinic'
loop_
_space_group_symop_operation_xyz
x,y,z
-x,1/2+y,-z
-x,-y,-z
x,1/2-y,z
loop_
_atom_site_type_symbol
_atom_site_label
_atom_site_fract_x
_atom_site_fract_y
_atom_site_fract_z
Si Si1 0.254095 0.084803 0.735222
Si Si2 0.577119 0.583802 0.371918
Si Si3 0.114854 0.921041 0.892008
Si Si4 0.738007 0.920553 0.500185
Si Si5 0.976172 0.082223 0.871982
Si Si6 0.116699 0.579894 0.490858
Si Si7 0.023355 0.583099 0.348709
Si Si8 0.588945 0.416808 0.563277
O O1 0.224800 0.250000 0.764238
O O2 0.342661 0.065384 0.730293
O O3 0.250308 0.042708 0.621236
O O4 0.200382 0.981022 0.827658
O O5 0.577518 0.750000 0.417223
O O6 0.578029 0.460876 0.455093
O O7 0.498526 0.564074 0.345502
O O8 0.116093 0.750000 0.874242
O O9 0.090414 0.963745 0.016308
O O10 0.053859 0.988717 0.846475
O O11 0.740529 0.750000 0.520357
O O12 0.803489 0.997194 0.531463
O O13 0.654506 0.982201 0.580021
O O14 0.999753 0.250000 0.876851
O O15 0.944059 0.055457 0.778023
O O16 0.128291 0.750000 0.506723
O O17 0.092371 0.548711 0.389945
O O18 0.050115 0.520582 0.597019
O O19 0.994687 0.750000 0.376410
O O20 0.617270 0.250000 0.556301
#
# Coordination Sequence:
#
# PCOD8069928 Si02
#       8
#     4   4   4   4   4   4   4   4
#     4   9  17  28  40  55  80 112 137 158 193 238
#     4   8  15  26  38  54  78 108 136 161 196 239
#     4  10  19  28  41  62  81 100 134 172 197 226
#     4  10  19  29  40  56  82 113 138 162 199 241
#     4   9  18  32  45  56  77 108 134 160 201 244
#     4  10  19  29  43  63  81 100 134 172 199 232
#     4   9  18  32  46  58  78 108 134 161 203 246
#     4   9  15  24  39  57  77 103 137 170 194 226
#
# _framework density 14.982355
#
# number of rings (size 3 to 8) (size 9 to 14) (size 15 to 20)
#    0.000    2.750    0.000    3.000    0.000    7.500 
#    0.000    0.000    0.000    0.000    0.000    0.000 
#    0.000    1.000    0.000    2.000    0.000    3.000 
#
# Total GULP energy -396597.065776 kJ/mol
# GULP energy per Si atom -12393.658306 kJ/mol
# Density = 1.494825 g / cm^3
# Si number density = 14.982355 Si / 1000 Ang^3
#
#
#
# Elastic Constant Matrix: (Units=GPa)
#
#
# Indices 1 2 3 4 5 6 
#
# 1 123.1930 55.9182 45.1695 0.0000 -15.9631 0.0000
# 2 55.9182 76.8447 31.3611 0.0000 -7.8677 0.0000
# 3 45.1695 31.3611 65.5498 0.0000 -4.0359 0.0000
# 4 0.0000 0.0000 0.0000 18.3940 0.0000 -3.9515
# 5 -15.9631 -7.8677 -4.0359 0.0000 20.8633 0.0000
# 6 0.0000 0.0000 0.0000 -3.9515 0.0000 26.7311
#
#
#
# Elastic Compliance Matrix: (Units=1/GPa)
#
#
# Indices 1 2 3 4 5 6 
#
# 1 0.014672 -0.007445 -0.006103 0.000000 0.007238 0.000000
# 2 -0.007445 0.020408 -0.004565 0.000000 0.001117 0.000000
# 3 -0.006103 -0.004565 0.021508 0.000000 -0.002230 0.000000
# 4 0.000000 0.000000 0.000000 0.056149 0.000000 0.008300
# 5 0.007238 0.001117 -0.002230 0.000000 0.053459 0.000000
# 6 0.000000 0.000000 0.000000 0.008300 0.000000 0.038637
#
#
# Mechanical properties :
#
#
# Convention : Reuss Voigt Hill
#
# Bulk Modulus (GPa) = 49.10990 58.94278 54.02634
# Shear Modulus (GPa) = 20.17391 22.07359 21.12375
#
# Velocity S-wave (km/s) = 3.67347 3.84253 3.75895
# Velocity P-wave (km/s) = 7.13037 7.68854 7.41471
#
# Compressibility (1/GPa) = 0.02036249
#
# Stress axis : x y z
#
# Youngs Moduli (GPa) = 68.15625 49.00022 46.49500
#
# Poissons Ratio (x) = 0.36480 0.28375
# Poissons Ratio (y) = 0.50742 0.21225
# Poissons Ratio (z) = 0.41595 0.22368
#
# Static dielectric constant tensor:
#      x y z
#    x 3.062590 0.000000 -0.169210 
#    y 0.000000 3.007490 0.000000 
#    z -0.169210 0.000000 2.669270 
# 
# 
# High freq. dielectric constant tensor:
#      x y z
#    x 1.571890 0.000000 -0.018390 
#    y 0.000000 1.588530 0.000000 
#    z -0.018390 0.000000 1.525890 
# 
# From -- ./inp_files/52928.got.cif
#   From: 2010.06.25/outbox.cif.g09.slc.cpg/sg11_27_cif.got.tgz:52928.got - 2010.06.27 23:14:04.
