data_PCOD8069179
_publ_section_title
;
Structure prediction by ZEFSAII (Michael W. Deem and Ramdas Pophale) SiO2 
 PCOD8069179
Probable space group: P 21/M
;
_chemical_formula_sum "Si O2"
_cell_formula_units_Z 32
_cell_length_a 22.629542
_cell_length_b 9.006567
_cell_length_c 17.308830
_cell_angle_alpha 90.000000
_cell_angle_beta 29.489217
_cell_angle_gamma 90.000000
_cell_volume 1736.589173
_symmetry_space_group_name_H-M "P 21/M"
_symmetry_group_IT_number 11
_symmetry_cell_setting 'monoclinic'
loop_
_space_group_symop_operation_xyz
x,y,z
-x,1/2+y,-z
-x,-y,-z
x,1/2-y,z
loop_
_atom_site_type_symbol
_atom_site_label
_atom_site_fract_x
_atom_site_fract_y
_atom_site_fract_z
Si Si1 0.432253 0.073444 0.219350
Si Si2 0.362585 0.922590 0.732647
Si Si3 0.281810 0.923054 0.519020
Si Si4 0.061895 0.919970 0.661203
Si Si5 0.184483 0.925463 0.069414
Si Si6 0.752785 0.424107 0.676610
Si Si7 0.703686 0.074968 0.902128
Si Si8 0.359865 0.077358 0.578011
O O1 0.423214 0.250000 0.232838
O O2 0.382056 0.008434 0.356038
O O3 0.359572 0.014170 0.228581
O O4 0.567931 0.015242 0.055984
O O5 0.342644 0.750000 0.735800
O O6 0.500285 0.953568 0.598159
O O7 0.323490 0.018372 0.703486
O O8 0.281877 0.977224 0.895723
O O9 0.314463 0.750000 0.483031
O O10 0.151215 0.949590 0.630719
O O11 0.280319 0.988794 0.606622
O O12 0.021209 0.750000 0.704317
O O13 0.126764 0.965871 0.507043
O O14 0.945752 0.018635 0.806541
O O15 0.179443 0.750000 0.078775
O O16 0.222863 0.992896 0.109153
O O17 0.723658 0.250000 0.699135
O O18 0.769900 0.468561 0.746773
O O19 0.698767 0.250000 0.917753
O O20 0.328108 0.250000 0.609029
#
# Coordination Sequence:
#
# PCOD8069179 Si02
#       8
#     4   4   4   4   4   4   4   4
#     4  10  18  30  51  78 106 132 167 213 254 303
#     4   9  19  35  53  78 112 140 161 198 256 307
#     4  10  20  35  54  75 104 139 170 205 257 309
#     4   9  20  36  51  70  99 135 173 215 256 296
#     4  10  20  35  54  73  98 136 176 210 250 302
#     4   9  18  34  52  71 102 139 170 207 261 310
#     4   9  18  32  51  75 103 135 168 209 262 310
#     4  10  19  33  57  85 108 131 166 206 244 299
#
# _framework density 18.426925000000001
#
# number of rings (size 3 to 8) (size 9 to 14) (size 15 to 20)
#    0.000    2.500    0.000    3.000    0.000    6.000 
#    0.000    4.375    0.000    0.000    0.000    0.000 
#    0.000    0.000    0.000    0.000    0.000    0.000 
#
# Total GULP energy -396841.588402 kJ/mol
# GULP energy per Si atom -12401.299638 kJ/mol
# Density = 1.838498 g / cm^3
# Si number density = 18.426925 Si / 1000 Ang^3
#
#
#
# Elastic Constant Matrix: (Units=GPa)
#
#
# Indices 1 2 3 4 5 6 
#
# 1 126.2296 45.1776 63.8400 0.0000 18.9087 0.0000
# 2 45.1776 56.5706 34.5480 0.0000 5.6604 0.0000
# 3 63.8400 34.5480 91.9966 0.0000 3.7214 0.0000
# 4 0.0000 0.0000 0.0000 25.2017 0.0000 -0.2174
# 5 18.9087 5.6604 3.7214 0.0000 22.9462 0.0000
# 6 0.0000 0.0000 0.0000 -0.2174 0.0000 28.8713
#
#
#
# Elastic Compliance Matrix: (Units=1/GPa)
#
#
# Indices 1 2 3 4 5 6 
#
# 1 0.015990 -0.006781 -0.008138 0.000000 -0.010184 0.000000
# 2 -0.006781 0.026240 -0.005147 0.000000 -0.000050 0.000000
# 3 -0.008138 -0.005147 0.018247 0.000000 0.005016 0.000000
# 4 0.000000 0.000000 0.000000 0.039682 0.000000 0.000299
# 5 -0.010184 -0.000050 0.005016 0.000000 0.051171 0.000000
# 6 0.000000 0.000000 0.000000 0.000299 0.000000 0.034639
#
#
# Mechanical properties :
#
#
# Convention : Reuss Voigt Hill
#
# Bulk Modulus (GPa) = 49.14764 62.43644 55.79204
# Shear Modulus (GPa) = 21.47005 24.15260 22.81132
#
# Velocity S-wave (km/s) = 3.41713 3.62432 3.52225
# Velocity P-wave (km/s) = 6.50373 7.17433 6.84725
#
# Compressibility (1/GPa) = 0.02034686
#
# Stress axis : x y z
#
# Youngs Moduli (GPa) = 62.53862 38.10904 54.80412
#
# Poissons Ratio (x) = 0.25842 0.44598
# Poissons Ratio (y) = 0.42408 0.28205
# Poissons Ratio (z) = 0.50892 0.19613
#
# Static dielectric constant tensor:
#      x y z
#    x 3.507690 0.000000 0.140930 
#    y 0.000000 3.246260 0.000000 
#    z 0.140930 0.000000 3.305600 
# 
# 
# High freq. dielectric constant tensor:
#      x y z
#    x 1.719950 0.000000 0.010150 
#    y 0.000000 1.704050 0.000000 
#    z 0.010150 0.000000 1.704860 
# 
# From -- ./inp_files/61777.got.cif
#   From: 2010.06.25/outbox.cif.g09.slc.cpg/sg11_31_cif.got.tgz:61777.got - 2010.06.27 23:14:04.
