data_PCOD8069740
_publ_section_title
;
Structure prediction by ZEFSAII (Michael W. Deem and Ramdas Pophale) SiO2 
 PCOD8069740
Probable space group: P 21/M
;
_chemical_formula_sum "Si O2"
_cell_formula_units_Z 32
_cell_length_a 17.621485
_cell_length_b 9.119379
_cell_length_c 23.684482
_cell_angle_alpha 90.000000
_cell_angle_beta 149.543200
_cell_angle_gamma 90.000000
_cell_volume 1929.230660
_symmetry_space_group_name_H-M "P 21/M"
_symmetry_group_IT_number 11
_symmetry_cell_setting 'monoclinic'
loop_
_space_group_symop_operation_xyz
x,y,z
-x,1/2+y,-z
-x,-y,-z
x,1/2-y,z
loop_
_atom_site_type_symbol
_atom_site_label
_atom_site_fract_x
_atom_site_fract_y
_atom_site_fract_z
Si Si1 0.726005 0.576243 0.414858
Si Si2 0.854016 0.918028 0.171480
Si Si3 0.832485 0.421198 0.678311
Si Si4 0.553697 0.075612 0.977408
Si Si5 0.966486 0.919105 0.369017
Si Si6 0.595563 0.417996 0.430897
Si Si7 0.377821 0.419513 0.384663
Si Si8 0.305382 0.076435 0.731497
O O1 0.727937 0.750000 0.418441
O O2 0.602438 0.516770 0.379393
O O3 0.682041 0.518186 0.324387
O O4 0.887795 0.518174 0.535973
O O5 0.809877 0.750000 0.130595
O O6 0.885821 0.938137 0.257672
O O7 0.998015 0.964770 0.227207
O O8 0.719801 0.024249 0.067339
O O9 0.814853 0.250000 0.679100
O O10 0.726534 0.467042 0.558055
O O11 0.782544 0.507454 0.703375
O O12 0.548492 0.250000 0.982035
O O13 0.446064 0.020396 0.857983
O O14 0.500000 0.000000 0.000000
O O15 0.012518 0.750000 0.408284
O O16 0.851149 0.978586 0.342180
O O17 0.622644 0.250000 0.430707
O O18 0.430635 0.438253 0.353366
O O19 0.500000 0.500000 0.500000
O O20 0.373323 0.250000 0.398722
O O21 0.303519 0.250000 0.731968
#
# Coordination Sequence:
#
# PCOD8069740 Si02
#       8
#     4   4   4   4   4   4   4   4
#     4  11  21  31  47  73  98 125 167 204 232 282
#     4  10  19  33  52  73  98 131 162 196 246 292
#     4   9  17  30  47  68  98 129 157 191 240 291
#     4  11  21  36  54  71  94 126 165 207 249 289
#     4  10  18  34  52  65  96 135 159 192 248 292
#     4   9  17  31  46  65  96 134 159 184 239 291
#     4   9  17  28  44  66  95 128 161 192 232 286
#     4   9  20  36  50  66  95 131 161 201 250 284
#
# _framework density 16.586922999999999
#
# number of rings (size 3 to 8) (size 9 to 14) (size 15 to 20)
#    0.000    2.250    2.500    2.250    0.000    3.500 
#    0.000    3.125    0.000    0.000    0.000    0.875 
#    0.000    0.000    0.000    0.000    0.000    0.000 
#
# Total GULP energy -396723.245930 kJ/mol
# GULP energy per Si atom -12397.601435 kJ/mol
# Density = 1.654917 g / cm^3
# Si number density = 16.586923 Si / 1000 Ang^3
#
#
#
# Elastic Constant Matrix: (Units=GPa)
#
#
# Indices 1 2 3 4 5 6 
#
# 1 134.8876 48.9664 37.1564 0.0000 13.4884 0.0000
# 2 48.9664 61.2724 21.1928 0.0000 4.2060 0.0000
# 3 37.1564 21.1928 41.2233 0.0000 4.7341 0.0000
# 4 0.0000 0.0000 0.0000 20.9165 0.0000 5.5430
# 5 13.4884 4.2060 4.7341 0.0000 20.5049 0.0000
# 6 0.0000 0.0000 0.0000 5.5430 0.0000 31.7854
#
#
#
# Elastic Compliance Matrix: (Units=1/GPa)
#
#
# Indices 1 2 3 4 5 6 
#
# 1 0.012447 -0.007199 -0.006931 0.000000 -0.005111 0.000000
# 2 -0.007199 0.024076 -0.006025 0.000000 0.001188 0.000000
# 3 -0.006931 -0.006025 0.033835 0.000000 -0.002016 0.000000
# 4 0.000000 0.000000 0.000000 0.050126 0.000000 -0.008741
# 5 -0.005111 0.001188 -0.002016 0.000000 0.052353 0.000000
# 6 0.000000 0.000000 0.000000 -0.008741 0.000000 0.032985
#
#
# Mechanical properties :
#
#
# Convention : Reuss Voigt Hill
#
# Bulk Modulus (GPa) = 33.28108 50.22385 41.75247
# Shear Modulus (GPa) = 19.51988 23.31253 21.41620
#
# Velocity S-wave (km/s) = 3.43421 3.75304 3.59716
# Velocity P-wave (km/s) = 5.98609 7.00894 6.51761
#
# Compressibility (1/GPa) = 0.03004710
#
# Stress axis : x y z
#
# Youngs Moduli (GPa) = 80.33774 41.53473 29.55548
#
# Poissons Ratio (x) = 0.29902 0.20486
# Poissons Ratio (y) = 0.57837 0.17807
# Poissons Ratio (z) = 0.55685 0.25025
#
# Static dielectric constant tensor:
#      x y z
#    x 3.650360 0.000000 0.150520 
#    y 0.000000 3.104020 0.000000 
#    z 0.150520 0.000000 2.988590 
# 
# 
# High freq. dielectric constant tensor:
#      x y z
#    x 1.648900 0.000000 0.015520 
#    y 0.000000 1.634350 0.000000 
#    z 0.015520 0.000000 1.599660 
# 
# From -- ./inp_files/58706.got.cif
#   From: 2010.06.25/outbox.cif.g09.slc.cpg/sg11_30_cif.got.tgz:58706.got - 2010.06.27 23:14:04.
