data_PCOD8069339
_publ_section_title
;
Structure prediction by ZEFSAII (Michael W. Deem and Ramdas Pophale) SiO2 
 PCOD8069339
Probable space group: P 21/M
;
_chemical_formula_sum "Si O2"
_cell_formula_units_Z 28
_cell_length_a 26.082327
_cell_length_b 10.228052
_cell_length_c 20.220466
_cell_angle_alpha 90.000000
_cell_angle_beta 163.446685
_cell_angle_gamma 90.000000
_cell_volume 1536.859585
_symmetry_space_group_name_H-M "P 21/M"
_symmetry_group_IT_number 11
_symmetry_cell_setting 'monoclinic'
loop_
_space_group_symop_operation_xyz
x,y,z
-x,1/2+y,-z
-x,-y,-z
x,1/2-y,z
loop_
_atom_site_type_symbol
_atom_site_label
_atom_site_fract_x
_atom_site_fract_y
_atom_site_fract_z
Si Si1 0.647801 0.098364 0.710050
Si Si2 0.948558 0.893514 0.572616
Si Si3 0.375841 0.463022 0.751346
Si Si4 0.304295 0.595701 0.081760
Si Si5 0.644331 0.596525 0.418582
Si Si6 0.997371 0.899081 0.937137
Si Si7 0.278227 0.608752 0.751245
O O1 0.579388 0.250000 0.625646
O O2 0.693157 0.047631 0.839654
O O3 0.500000 0.000000 0.500000
O O4 0.823567 0.084075 0.883385
O O5 0.986067 0.750000 0.587322
O O6 0.796706 0.874456 0.441904
O O7 0.872193 0.995321 0.423033
O O8 0.127895 0.957529 0.825858
O O9 0.365217 0.489400 0.660029
O O10 0.366293 0.592768 0.786156
O O11 0.566529 0.394118 0.001684
O O12 0.290572 0.750000 0.064433
O O13 0.484001 0.547271 0.267514
O O14 0.625487 0.750000 0.377816
O O15 0.830379 0.565400 0.684329
O O16 0.978926 0.750000 0.941041
O O17 0.000000 0.000000 0.000000
O O18 0.183763 0.750000 0.638315
#
# Coordination Sequence:
#
# PCOD8069339 Si02
#       7
#     4   4   4   4   4   4   4
#     4  10  20  35  55  79 106 136 171 211 260 312
#     4   9  16  29  50  72  94 127 168 208 247 300
#     4   9  18  28  53  72  98 129 174 210 253 301
#     4   9  18  31  50  75 102 130 170 215 252 298
#     4  10  18  31  52  78 102 132 173 216 254 297
#     4  10  21  36  57  82 108 136 171 216 260 307
#     4   9  18  30  49  74 102 131 166 213 262 307
#
# _framework density 18.218971
#
# number of rings (size 3 to 8) (size 9 to 14) (size 15 to 20)
#    0.857    1.714    0.000    3.000    0.000    4.000 
#    0.000    2.143    0.000    2.571    0.000    0.000 
#    0.000    0.000    0.000    0.000    0.000    0.000 
#
# Total GULP energy -346917.071759 kJ/mol
# GULP energy per Si atom -12389.895420 kJ/mol
# Density = 1.817750 g / cm^3
# Si number density = 18.218971 Si / 1000 Ang^3
#
#
#
# Elastic Constant Matrix: (Units=GPa)
#
#
# Indices 1 2 3 4 5 6 
#
# 1 74.7677 22.5465 38.6453 0.0000 -12.0034 0.0000
# 2 22.5465 78.0826 51.9481 0.0000 -7.9318 0.0000
# 3 38.6453 51.9481 151.9338 0.0000 -5.1180 0.0000
# 4 0.0000 0.0000 0.0000 22.9231 0.0000 0.9003
# 5 -12.0034 -7.9318 -5.1180 0.0000 26.5854 0.0000
# 6 0.0000 0.0000 0.0000 0.9003 0.0000 15.0152
#
#
#
# Elastic Compliance Matrix: (Units=1/GPa)
#
#
# Indices 1 2 3 4 5 6 
#
# 1 0.016720 -0.001939 -0.003377 0.000000 0.006320 0.000000
# 2 -0.001939 0.017210 -0.005282 0.000000 0.003242 0.000000
# 3 -0.003377 -0.005282 0.009202 0.000000 -0.001329 0.000000
# 4 0.000000 0.000000 0.000000 0.043727 0.000000 -0.002622
# 5 0.006320 0.003242 -0.001329 0.000000 0.041180 0.000000
# 6 0.000000 0.000000 0.000000 -0.002622 0.000000 0.066756
#
#
# Mechanical properties :
#
#
# Convention : Reuss Voigt Hill
#
# Bulk Modulus (GPa) = 45.58733 59.00710 52.29722
# Shear Modulus (GPa) = 22.39114 25.68104 24.03609
#
# Velocity S-wave (km/s) = 3.50951 3.75851 3.63614
# Velocity P-wave (km/s) = 6.44193 7.16193 6.81145
#
# Compressibility (1/GPa) = 0.02193592
#
# Stress axis : x y z
#
# Youngs Moduli (GPa) = 59.81010 58.10465 108.67288
#
# Poissons Ratio (x) = 0.11268 0.36697
# Poissons Ratio (y) = 0.11598 0.57401
# Poissons Ratio (z) = 0.20197 0.30691
#
# Static dielectric constant tensor:
#      x y z
#    x 3.230940 0.000000 0.019620 
#    y 0.000000 3.000730 0.000000 
#    z 0.019620 0.000000 3.511710 
# 
# 
# High freq. dielectric constant tensor:
#      x y z
#    x 1.689500 0.000000 -0.000060 
#    y 0.000000 1.671450 0.000000 
#    z -0.000060 0.000000 1.720330 
# 
# From -- ./inp_files/61943.got.cif
#   From: 2010.06.25/outbox.cif.g09.slc.cpg/sg11_31_cif.got.tgz:61943.got - 2010.06.27 23:14:04.
