data_PCOD8069442
_publ_section_title
;
Structure prediction by ZEFSAII (Michael W. Deem and Ramdas Pophale) SiO2 
 PCOD8069442
Probable space group: P 21/M
;
_chemical_formula_sum "Si O2"
_cell_formula_units_Z 14
_cell_length_a 11.278027
_cell_length_b 5.336395
_cell_length_c 10.416966
_cell_angle_alpha 90.000000
_cell_angle_beta 57.101979
_cell_angle_gamma 90.000000
_cell_volume 526.398635
_symmetry_space_group_name_H-M "P 21/M"
_symmetry_group_IT_number 11
_symmetry_cell_setting 'monoclinic'
loop_
_space_group_symop_operation_xyz
x,y,z
-x,1/2+y,-z
-x,-y,-z
x,1/2-y,z
loop_
_atom_site_type_symbol
_atom_site_label
_atom_site_fract_x
_atom_site_fract_y
_atom_site_fract_z
Si Si1 0.014968 0.750000 0.140057
Si Si2 0.744553 0.750000 0.811812
Si Si3 0.486861 0.250000 0.336594
Si Si4 0.653954 0.250000 0.490518
Si Si5 0.048115 0.750000 0.773521
Si Si6 0.931688 0.750000 0.487264
Si Si7 0.331239 0.750000 0.018163
O O1 0.948083 0.487505 0.129254
O O2 0.951720 0.750000 0.323746
O O3 0.182670 0.750000 0.030814
O O4 0.769451 0.750000 0.641872
O O5 0.657543 0.502033 0.902958
O O6 0.900248 0.750000 0.784671
O O7 0.615776 0.250000 0.362082
O O8 0.398877 0.502040 0.408835
O O9 0.542645 0.250000 0.158276
O O10 0.823815 0.250000 0.402401
O O11 0.000000 0.500000 0.500000
#
# Coordination Sequence:
#
# PCOD8069442 Si02
#       7
#     2   2   2   2   2   2   2
#     4  10  19  30  50  81 105 131 160 199 258 301
#     4  10  19  30  50  81 105 131 160 199 258 301
#     4  10  21  37  55  73  95 132 178 214 246 292
#     4  10  21  37  55  73  95 132 178 214 246 292
#     4  10  18  32  49  75 105 127 164 211 247 301
#     4  12  16  30  48  78 110 134 164 196 238 304
#     4  10  18  32  49  75 105 127 164 211 247 301
#
# _framework density 26.595813
#
# number of rings (size 3 to 8) (size 9 to 14) (size 15 to 20)
#    0.000    1.714    5.714    1.714    0.000    0.000 
#    0.000    5.714    0.000    0.000    0.000   34.000 
#    0.000    0.000    0.000    0.000    0.000    0.000 
#
# Total GULP energy -173459.155832 kJ/mol
# GULP energy per Si atom -12389.939702 kJ/mol
# Density = 2.653528 g / cm^3
# Si number density = 26.595813 Si / 1000 Ang^3
#
#
#
# Elastic Constant Matrix: (Units=GPa)
#
#
# Indices 1 2 3 4 5 6 
#
# 1 35.7606 7.6833 3.9940 0.0000 7.0167 0.0000
# 2 7.6833 272.3898 24.5018 0.0000 -15.2367 0.0000
# 3 3.9940 24.5018 152.8214 0.0000 8.1187 0.0000
# 4 0.0000 0.0000 0.0000 -3.6566 0.0000 -10.3042
# 5 7.0167 -15.2367 8.1187 0.0000 33.1913 0.0000
# 6 0.0000 0.0000 0.0000 -10.3042 0.0000 0.7711
#
#
#
# Elastic Compliance Matrix: (Units=1/GPa)
#
#
# Indices 1 2 3 4 5 6 
#
# 1 0.029568 -0.001191 -0.000224 0.000000 -0.006743 0.000000
# 2 -0.001191 0.003892 -0.000710 0.000000 0.002212 0.000000
# 3 -0.000224 -0.000710 0.006766 0.000000 -0.001934 0.000000
# 4 0.000000 0.000000 0.000000 -0.007074 0.000000 -0.094538
# 5 -0.006743 0.002212 -0.001934 0.000000 0.033042 0.000000
# 6 0.000000 0.000000 0.000000 -0.094538 0.000000 0.033548
#
#
# Mechanical properties :
#
#
# Convention : Reuss Voigt Hill
#
# Bulk Modulus (GPa) = 27.79636 59.25889 43.52762
# Shear Modulus (GPa) = 43.10899 34.38066 38.74483
#
# Velocity S-wave (km/s) = 4.03040 3.59933 3.82095
# Velocity P-wave (km/s) = 5.66859 6.29311 5.98900
#
# Compressibility (1/GPa) = 0.03597594
#
# Stress axis : x y z
#
# Youngs Moduli (GPa) = 33.82073 256.90602 147.79602
#
# Poissons Ratio (x) = 0.30599 0.03304
# Poissons Ratio (y) = 0.04028 0.10501
# Poissons Ratio (z) = 0.00756 0.18253
#
# Static dielectric constant tensor:
#      x y z
#    x 4.417970 0.000000 0.057160 
#    y 0.000000 4.132000 0.000000 
#    z 0.057160 0.000000 5.155290 
# 
# 
# High freq. dielectric constant tensor:
#      x y z
#    x 2.038410 0.000000 -0.002670 
#    y 0.000000 2.113480 0.000000 
#    z -0.002670 0.000000 2.086190 
# 
# From -- ./inp_files/10803.got.cif
#   From: 2010.06.25/outbox.cif.g09.slc.cpg/sg11_6_cif.got.tgz:10803.got - 2010.06.27 23:14:04.
