data_PCOD8069646
_publ_section_title
;
Structure prediction by ZEFSAII (Michael W. Deem and Ramdas Pophale) SiO2 
 PCOD8069646
Probable space group: P 21/M
;
_chemical_formula_sum "Si O2"
_cell_formula_units_Z 32
_cell_length_a 24.639199
_cell_length_b 9.066883
_cell_length_c 17.034474
_cell_angle_alpha 90.000000
_cell_angle_beta 28.624177
_cell_angle_gamma 90.000000
_cell_volume 1823.078277
_symmetry_space_group_name_H-M "P 21/M"
_symmetry_group_IT_number 11
_symmetry_cell_setting 'monoclinic'
loop_
_space_group_symop_operation_xyz
x,y,z
-x,1/2+y,-z
-x,-y,-z
x,1/2-y,z
loop_
_atom_site_type_symbol
_atom_site_label
_atom_site_fract_x
_atom_site_fract_y
_atom_site_fract_z
Si Si1 0.197220 0.918651 0.430918
Si Si2 0.313779 0.918363 0.132592
Si Si3 0.878678 0.923131 0.157992
Si Si4 0.438440 0.577350 0.685412
Si Si5 0.324866 0.423298 0.693632
Si Si6 0.504633 0.423861 0.218256
Si Si7 0.745727 0.923484 0.483452
Si Si8 0.099327 0.075782 0.419253
O O1 0.158957 0.750000 0.491162
O O2 0.313227 0.926659 0.229498
O O3 0.207744 0.993739 0.500569
O O4 0.100461 0.008373 0.506151
O O5 0.287587 0.750000 0.139250
O O6 0.214768 0.027174 0.227598
O O7 0.430007 0.971569 0.944364
O O8 0.897428 0.750000 0.124427
O O9 0.790258 0.979629 0.203186
O O10 0.825838 0.961418 0.309191
O O11 0.000000 0.000000 0.000000
O O12 0.417076 0.750000 0.703119
O O13 0.340795 0.497507 0.758695
O O14 0.565605 0.534495 0.497240
O O15 0.428655 0.523058 0.788307
O O16 0.317065 0.250000 0.715656
O O17 0.490619 0.250000 0.242475
O O18 0.378731 0.490110 0.375370
O O19 0.742069 0.750000 0.505619
O O20 0.085187 0.250000 0.439529
O O21 0.000000 0.000000 0.500000
#
# Coordination Sequence:
#
# PCOD8069646 Si02
#       8
#     4   4   4   4   4   4   4   4
#     4   9  19  34  51  78 109 137 175 217 262 313
#     4   8  17  32  50  76 108 138 172 215 262 312
#     4  10  21  37  56  78 107 144 186 227 273 330
#     4   9  16  29  53  79 103 135 176 216 262 322
#     4   9  17  32  51  75 105 136 172 219 270 318
#     4   9  16  31  54  78 107 142 178 219 266 320
#     4  10  19  34  56  78 102 140 184 222 268 325
#     4  10  18  33  55  76 100 137 178 218 263 311
#
# _framework density 17.55273
#
# number of rings (size 3 to 8) (size 9 to 14) (size 15 to 20)
#    0.750    2.000    1.250    1.125    0.000    1.500 
#    0.000    3.125    0.000    4.500    0.000    0.000 
#    0.000    0.000    0.000    0.000    0.000    0.000 
#
# Total GULP energy -396429.026049 kJ/mol
# GULP energy per Si atom -12388.407064 kJ/mol
# Density = 1.751278 g / cm^3
# Si number density = 17.552730 Si / 1000 Ang^3
#
#
#
# Elastic Constant Matrix: (Units=GPa)
#
#
# Indices 1 2 3 4 5 6 
#
# 1 144.1942 55.5024 55.0104 0.0000 -13.1229 0.0000
# 2 55.5024 69.6307 42.1162 0.0000 -4.2715 0.0000
# 3 55.0104 42.1162 91.3990 0.0000 -11.4422 0.0000
# 4 0.0000 0.0000 0.0000 22.9589 0.0000 -0.8180
# 5 -13.1229 -4.2715 -11.4422 0.0000 23.4538 0.0000
# 6 0.0000 0.0000 0.0000 -0.8180 0.0000 31.2041
#
#
#
# Elastic Compliance Matrix: (Units=1/GPa)
#
#
# Indices 1 2 3 4 5 6 
#
# 1 0.011006 -0.006676 -0.003120 0.000000 0.003420 0.000000
# 2 -0.006676 0.023979 -0.007404 0.000000 -0.002981 0.000000
# 3 -0.003120 -0.007404 0.016874 0.000000 0.005138 0.000000
# 4 0.000000 0.000000 0.000000 0.043597 0.000000 0.001143
# 5 0.003420 -0.002981 0.005138 0.000000 0.046515 0.000000
# 6 0.000000 0.000000 0.000000 0.001143 0.000000 0.032077
#
#
# Mechanical properties :
#
#
# Convention : Reuss Voigt Hill
#
# Bulk Modulus (GPa) = 57.27921 67.83132 62.55526
# Shear Modulus (GPa) = 23.33534 25.69635 24.51584
#
# Velocity S-wave (km/s) = 3.65011 3.83031 3.74130
# Velocity P-wave (km/s) = 7.10407 7.63478 7.37421
#
# Compressibility (1/GPa) = 0.01745834
#
# Stress axis : x y z
#
# Youngs Moduli (GPa) = 90.85620 41.70363 59.26352
#
# Poissons Ratio (x) = 0.27843 0.18489
# Poissons Ratio (y) = 0.60659 0.43880
# Poissons Ratio (z) = 0.28346 0.30878
#
# Static dielectric constant tensor:
#      x y z
#    x 3.331290 0.000000 0.035570 
#    y 0.000000 4.185520 0.000000 
#    z 0.035570 0.000000 3.152440 
# 
# 
# High freq. dielectric constant tensor:
#      x y z
#    x 1.680970 0.000000 0.003210 
#    y 0.000000 1.664370 0.000000 
#    z 0.003210 0.000000 1.655670 
# 
# From -- ./inp_files/61782.got.cif
#   From: 2010.06.25/outbox.cif.g09.slc.cpg/sg11_31_cif.got.tgz:61782.got - 2010.06.27 23:14:04.
