data_PCOD8069547
_publ_section_title
;
Structure prediction by ZEFSAII (Michael W. Deem and Ramdas Pophale) SiO2 
 PCOD8069547
Probable space group: P 21/M
;
_chemical_formula_sum "Si O2"
_cell_formula_units_Z 32
_cell_length_a 9.211892
_cell_length_b 24.646303
_cell_length_c 15.002398
_cell_angle_alpha 90.000000
_cell_angle_beta 149.837034
_cell_angle_gamma 90.000000
_cell_volume 1711.448514
_symmetry_space_group_name_H-M "P 21/M"
_symmetry_group_IT_number 11
_symmetry_cell_setting 'monoclinic'
loop_
_space_group_symop_operation_xyz
x,y,z
-x,1/2+y,-z
-x,-y,-z
x,1/2-y,z
loop_
_atom_site_type_symbol
_atom_site_label
_atom_site_fract_x
_atom_site_fract_y
_atom_site_fract_z
Si Si1 0.861276 0.617168 0.460317
Si Si2 0.616524 0.313183 0.296701
Si Si3 0.342037 0.528553 0.756473
Si Si4 0.391091 0.894293 0.351396
Si Si5 0.255919 0.121131 0.975513
Si Si6 0.530835 0.106284 0.408535
Si Si7 0.701413 0.996168 0.789517
Si Si8 0.186908 0.078963 0.750290
O O1 0.611828 0.630970 0.397962
O O2 0.702015 0.605920 0.282007
O O3 0.055257 0.670804 0.551551
O O4 0.062207 0.566490 0.596807
O O5 0.592082 0.250000 0.301942
O O6 0.507307 0.342801 0.329067
O O7 0.428012 0.328858 0.109671
O O8 0.422025 0.497838 0.706677
O O9 0.290973 0.484110 0.807301
O O10 0.627780 0.564338 0.924373
O O11 0.525851 0.878764 0.518877
O O12 0.075765 0.867532 0.175414
O O13 0.342908 0.958477 0.310133
O O14 0.303965 0.115234 0.894303
O O15 0.291881 0.062467 0.253653
O O16 0.841397 0.077838 0.566226
O O17 0.000000 0.000000 0.000000
#
# Coordination Sequence:
#
# PCOD8069547 Si02
#       8
#     4   4   4   4   4   4   4   4
#     4  10  20  36  57  81 112 146 190 230 271 332
#     4  10  21  44  65  75 102 148 190 243 291 333
#     4  11  18  33  51  79 121 162 189 211 268 335
#     4  11  21  34  57  87 118 150 178 234 280 334
#     4  10  21  36  52  85 115 145 195 225 276 344
#     4  10  21  37  54  83 114 149 199 226 275 341
#     4  12  19  32  52  83 126 161 184 219 273 340
#     4  10  18  32  55  77 114 153 185 225 264 331
#
# _framework density 18.697613
#
# number of rings (size 3 to 8) (size 9 to 14) (size 15 to 20)
#    0.000    1.500    6.250    1.875    0.000    1.000 
#    4.500    6.875    0.000    0.000    0.000    0.000 
#    0.000    0.000    0.000    0.000    0.000    0.000 
#
# Total GULP energy -396648.659202 kJ/mol
# GULP energy per Si atom -12395.270600 kJ/mol
# Density = 1.865506 g / cm^3
# Si number density = 18.697613 Si / 1000 Ang^3
#
#
#
# Elastic Constant Matrix: (Units=GPa)
#
#
# Indices 1 2 3 4 5 6 
#
# 1 113.2044 26.3267 36.9720 0.0000 -17.9129 0.0000
# 2 26.3267 100.4280 34.0714 0.0000 -13.4474 0.0000
# 3 36.9720 34.0714 85.8307 0.0000 -19.7267 0.0000
# 4 0.0000 0.0000 0.0000 14.5318 0.0000 -3.1445
# 5 -17.9129 -13.4474 -19.7267 0.0000 28.2256 0.0000
# 6 0.0000 0.0000 0.0000 -3.1445 0.0000 16.7746
#
#
#
# Elastic Compliance Matrix: (Units=1/GPa)
#
#
# Indices 1 2 3 4 5 6 
#
# 1 0.010811 -0.001190 -0.003262 0.000000 0.004014 0.000000
# 2 -0.001190 0.011817 -0.003643 0.000000 0.002329 0.000000
# 3 -0.003262 -0.003643 0.016235 0.000000 0.007541 0.000000
# 4 0.000000 0.000000 0.000000 0.071724 0.000000 0.013445
# 5 0.004014 0.002329 0.007541 0.000000 0.044356 0.000000
# 6 0.000000 0.000000 0.000000 0.013445 0.000000 0.062134
#
#
# Mechanical properties :
#
#
# Convention : Reuss Voigt Hill
#
# Bulk Modulus (GPa) = 44.10463 54.91148 49.50805
# Shear Modulus (GPa) = 20.76197 25.37929 23.07063
#
# Velocity S-wave (km/s) = 3.33589 3.68823 3.51648
# Velocity P-wave (km/s) = 6.20300 6.89705 6.55921
#
# Compressibility (1/GPa) = 0.02267336
#
# Stress axis : x y z
#
# Youngs Moduli (GPa) = 92.50009 84.62318 61.59431
#
# Poissons Ratio (x) = 0.10069 0.20091
# Poissons Ratio (y) = 0.11006 0.22440
# Poissons Ratio (z) = 0.30172 0.30830
#
# Static dielectric constant tensor:
#      x y z
#    x 3.674110 0.000000 -0.213970 
#    y 0.000000 3.000340 0.000000 
#    z -0.213970 0.000000 3.571860 
# 
# 
# High freq. dielectric constant tensor:
#      x y z
#    x 1.729200 0.000000 -0.008860 
#    y 0.000000 1.679130 0.000000 
#    z -0.008860 0.000000 1.730580 
# 
# From -- ./inp_files/23437.got.cif
#   From: 2010.06.25/outbox.cif.g09.slc.cpg/sg11_12_cif.got.tgz:23437.got - 2010.06.27 23:14:04.
