data_PCOD8069410
_publ_section_title
;
Structure prediction by ZEFSAII (Michael W. Deem and Ramdas Pophale) SiO2 
 PCOD8069410
Probable space group: P 21/M
;
_chemical_formula_sum "Si O2"
_cell_formula_units_Z 32
_cell_length_a 15.298771
_cell_length_b 9.045988
_cell_length_c 22.410836
_cell_angle_alpha 90.000000
_cell_angle_beta 32.725160
_cell_angle_gamma 90.000000
_cell_volume 1676.696741
_symmetry_space_group_name_H-M "P 21/M"
_symmetry_group_IT_number 11
_symmetry_cell_setting 'monoclinic'
loop_
_space_group_symop_operation_xyz
x,y,z
-x,1/2+y,-z
-x,-y,-z
x,1/2-y,z
loop_
_atom_site_type_symbol
_atom_site_label
_atom_site_fract_x
_atom_site_fract_y
_atom_site_fract_z
Si Si1 0.068616 0.577075 0.700331
Si Si2 0.008771 0.075220 0.121164
Si Si3 0.863695 0.581723 0.706047
Si Si4 0.808088 0.083959 0.540735
Si Si5 0.656540 0.923080 0.521127
Si Si6 0.680069 0.426018 0.111270
Si Si7 0.684953 0.075299 0.243529
Si Si8 0.372728 0.579481 0.235707
O O1 0.099038 0.750000 0.676281
O O2 0.937985 0.524119 0.726133
O O3 0.003573 0.533975 0.802276
O O4 0.242945 0.502688 0.588712
O O5 0.035861 0.250000 0.096258
O O6 0.847534 0.016755 0.180968
O O7 0.153561 0.982918 0.011116
O O8 0.803741 0.750000 0.746861
O O9 0.709735 0.482030 0.777245
O O10 0.999106 0.567499 0.576613
O O11 0.756559 0.250000 0.550261
O O12 0.757220 0.054188 0.637481
O O13 0.721081 0.964589 0.549401
O O14 0.676368 0.750000 0.500483
O O15 0.468148 0.972498 0.627868
O O16 0.674023 0.250000 0.111691
O O17 0.667524 0.486958 0.186256
O O18 0.535378 0.490819 0.155221
O O19 0.691596 0.250000 0.235478
O O20 0.417908 0.750000 0.200404
#
# Coordination Sequence:
#
# PCOD8069410 Si02
#       8
#     4   4   4   4   4   4   4   4
#     4   9  20  38  57  79 112 149 185 227 273 320
#     4  10  21  40  61  79 106 147 190 230 274 324
#     4   9  18  33  52  77 109 144 179 221 274 323
#     4   9  18  32  50  77 113 146 180 219 270 328
#     4  10  18  31  54  83 115 148 181 219 271 328
#     4  11  22  38  57  82 115 144 180 229 279 326
#     4   9  19  35  57  85 114 143 177 225 281 328
#     4  11  21  33  53  82 110 143 184 223 271 330
#
# _framework density 19.085145000000001
#
# number of rings (size 3 to 8) (size 9 to 14) (size 15 to 20)
#    0.000    2.250    1.250    2.625    0.000    3.500 
#    0.000    2.500    0.000    0.000    0.000    0.000 
#    0.000    0.000    0.000    0.000    0.000    0.000 
#
# Total GULP energy -396780.704036 kJ/mol
# GULP energy per Si atom -12399.397001 kJ/mol
# Density = 1.904171 g / cm^3
# Si number density = 19.085145 Si / 1000 Ang^3
#
#
#
# Elastic Constant Matrix: (Units=GPa)
#
#
# Indices 1 2 3 4 5 6 
#
# 1 79.3673 24.9326 21.2192 0.0000 -19.0912 0.0000
# 2 24.9326 56.5713 17.2103 0.0000 -8.0317 0.0000
# 3 21.2192 17.2103 7.2117 0.0000 -14.4713 0.0000
# 4 0.0000 0.0000 0.0000 32.1863 0.0000 -2.8327
# 5 -19.0912 -8.0317 -14.4713 0.0000 29.9734 0.0000
# 6 0.0000 0.0000 0.0000 -2.8327 0.0000 19.5871
#
#
#
# Elastic Compliance Matrix: (Units=1/GPa)
#
#
# Indices 1 2 3 4 5 6 
#
# 1 0.013024 -0.012240 0.030601 0.000000 0.019790 0.000000
# 2 -0.012240 0.010145 0.051789 0.000000 0.019927 0.000000
# 3 0.030601 0.051789 -0.256872 0.000000 -0.090651 0.000000
# 4 0.000000 0.000000 0.000000 0.031470 0.000000 0.004551
# 5 0.019790 0.019927 -0.090651 0.000000 0.007541 0.000000
# 6 0.000000 0.000000 0.000000 0.004551 0.000000 0.051712
#
#
# Mechanical properties :
#
#
# Convention : Reuss Voigt Hill
#
# Bulk Modulus (GPa) = -10.70640 29.98605 9.63982
# Shear Modulus (GPa) = -15.90248 21.66857 2.88305
#
# Velocity S-wave (km/s) = -2.88972 3.37317 1.23041
# Velocity P-wave (km/s) = 4.09340 5.56029 2.66091
#
# Compressibility (1/GPa) = -0.09340210
#
# Stress axis : x y z
#
# Youngs Moduli (GPa) = 76.78350 98.57224 -3.89299
#
# Poissons Ratio (x) = 1.20651 0.11913
# Poissons Ratio (y) = 0.93982 0.20162
# Poissons Ratio (z) = -2.34967 -5.10499
#
# Static dielectric constant tensor:
#      x y z
#    x 3.577370 0.000000 -0.036740 
#    y 0.000000 3.342390 0.000000 
#    z -0.036740 0.000000 3.488410 
# 
# 
# High freq. dielectric constant tensor:
#      x y z
#    x 1.737160 0.000000 -0.007460 
#    y 0.000000 1.730660 0.000000 
#    z -0.007460 0.000000 1.737350 
# 
# From -- ./inp_files/68981.got.cif
#   From: 2010.06.25/outbox.cif.g09.slc.cpg/sg11_35_cif.got.tgz:68981.got - 2010.06.27 23:14:04.
