data_PCOD8069406
_publ_section_title
;
Structure prediction by ZEFSAII (Michael W. Deem and Ramdas Pophale) SiO2 
 PCOD8069406
Probable space group: P 21/M
;
_chemical_formula_sum "Si O2"
_cell_formula_units_Z 32
_cell_length_a 12.059143
_cell_length_b 8.882774
_cell_length_c 16.245565
_cell_angle_alpha 90.000000
_cell_angle_beta 91.942567
_cell_angle_gamma 90.000000
_cell_volume 1739.202779
_symmetry_space_group_name_H-M "P 21/M"
_symmetry_group_IT_number 11
_symmetry_cell_setting 'monoclinic'
loop_
_space_group_symop_operation_xyz
x,y,z
-x,1/2+y,-z
-x,-y,-z
x,1/2-y,z
loop_
_atom_site_type_symbol
_atom_site_label
_atom_site_fract_x
_atom_site_fract_y
_atom_site_fract_z
Si Si1 0.111729 0.073485 0.720422
Si Si2 0.711935 0.075741 0.806348
Si Si3 0.300020 0.074147 0.454421
Si Si4 0.304950 0.924933 0.626700
Si Si5 0.130613 0.924268 0.340800
Si Si6 0.843563 0.926966 0.945975
Si Si7 0.085195 0.927198 0.892206
Si Si8 0.545969 0.922724 0.692378
O O1 0.116391 0.250000 0.738835
O O2 0.996859 0.029442 0.673466
O O3 0.208426 0.025900 0.661653
O O4 0.126330 0.986689 0.805979
O O5 0.705084 0.250000 0.828171
O O6 0.806876 0.039445 0.742431
O O7 0.740594 0.986459 0.890107
O O8 0.593324 0.022077 0.768400
O O9 0.297584 0.250000 0.476457
O O10 0.395575 0.031940 0.391747
O O11 0.328032 0.977191 0.534871
O O12 0.180489 0.025896 0.414995
O O13 0.271173 0.750000 0.626500
O O14 0.415416 0.952445 0.682772
O O15 0.144811 0.750000 0.365371
O O16 0.834417 0.750000 0.956126
O O17 0.957840 0.975493 0.904081
O O18 0.837283 0.000939 0.035753
O O19 0.100515 0.750000 0.895457
O O20 0.573359 0.750000 0.712913
#
# Coordination Sequence:
#
# PCOD8069406 Si02
#       8
#     4   4   4   4   4   4   4   4
#     4  11  22  37  55  76 109 145 181 220 262 319
#     4  10  18  31  54  82 110 139 175 221 268 315
#     4  10  20  35  57  81 104 133 175 226 274 317
#     4  11  23  38  55  76 105 142 182 221 268 321
#     4   9  19  34  52  76 107 141 174 215 267 317
#     4  10  19  31  52  81 113 144 176 215 261 313
#     4  10  20  33  52  79 111 145 179 216 260 312
#     4   9  20  37  56  79 106 137 177 226 271 316
#
# _framework density 18.399234
#
# number of rings (size 3 to 8) (size 9 to 14) (size 15 to 20)
#    0.000    2.000    1.250    2.625    0.000    4.500 
#    0.000    0.000    0.000    0.750    0.000    0.000 
#    0.000    0.000    0.000    0.000    0.000    0.000 
#
# Total GULP energy -396957.102462 kJ/mol
# GULP energy per Si atom -12404.909452 kJ/mol
# Density = 1.835736 g / cm^3
# Si number density = 18.399234 Si / 1000 Ang^3
#
#
#
# Elastic Constant Matrix: (Units=GPa)
#
#
# Indices 1 2 3 4 5 6 
#
# 1 72.9324 23.3890 12.1023 0.0000 14.0414 0.0000
# 2 23.3890 66.7650 25.1705 0.0000 14.3108 0.0000
# 3 12.1023 25.1705 49.6691 0.0000 21.4384 0.0000
# 4 0.0000 0.0000 0.0000 37.9209 0.0000 4.2657
# 5 14.0414 14.3108 21.4384 0.0000 24.5502 0.0000
# 6 0.0000 0.0000 0.0000 4.2657 0.0000 27.0835
#
#
#
# Elastic Compliance Matrix: (Units=1/GPa)
#
#
# Indices 1 2 3 4 5 6 
#
# 1 0.016523 -0.004739 0.002026 0.000000 -0.008457 0.000000
# 2 -0.004739 0.020145 -0.008274 0.000000 -0.001807 0.000000
# 3 0.002026 -0.008274 0.035711 0.000000 -0.027520 0.000000
# 4 0.000000 0.000000 0.000000 0.026846 0.000000 -0.004228
# 5 -0.008457 -0.001807 -0.027520 0.000000 0.070655 0.000000
# 6 0.000000 0.000000 0.000000 -0.004228 0.000000 0.037589
#
#
# Mechanical properties :
#
#
# Convention : Reuss Voigt Hill
#
# Bulk Modulus (GPa) = 19.83969 34.52111 27.18040
# Shear Modulus (GPa) = 20.30495 26.49124 23.39810
#
# Velocity S-wave (km/s) = 3.32562 3.79859 3.56994
# Velocity P-wave (km/s) = 5.05496 6.16782 5.63891
#
# Compressibility (1/GPa) = 0.05040400
#
# Stress axis : x y z
#
# Youngs Moduli (GPa) = 60.52095 49.64056 28.00263
#
# Poissons Ratio (x) = 0.23527 -0.05673
# Poissons Ratio (y) = 0.28684 0.23169
# Poissons Ratio (z) = -0.12261 0.41072
#
# Static dielectric constant tensor:
#      x y z
#    x 3.256180 0.000000 0.187690 
#    y 0.000000 3.410580 0.000000 
#    z 0.187690 0.000000 3.279290 
# 
# 
# High freq. dielectric constant tensor:
#      x y z
#    x 1.694300 0.000000 0.022000 
#    y 0.000000 1.725080 0.000000 
#    z 0.022000 0.000000 1.707090 
# 
# From -- ./inp_files/38167.got.cif
#   From: 2010.06.25/outbox.cif.g09.slc.cpg/sg11_20_cif.got.tgz:38167.got - 2010.06.27 23:14:04.
