data_PCOD8069620
_publ_section_title
;
Structure prediction by ZEFSAII (Michael W. Deem and Ramdas Pophale) SiO2 
 PCOD8069620
Probable space group: P 21/M
;
_chemical_formula_sum "Si O2"
_cell_formula_units_Z 28
_cell_length_a 29.430952
_cell_length_b 8.763059
_cell_length_c 9.843997
_cell_angle_alpha 90.000000
_cell_angle_beta 33.566806
_cell_angle_gamma 90.000000
_cell_volume 1403.734926
_symmetry_space_group_name_H-M "P 21/M"
_symmetry_group_IT_number 11
_symmetry_cell_setting 'monoclinic'
loop_
_space_group_symop_operation_xyz
x,y,z
-x,1/2+y,-z
-x,-y,-z
x,1/2-y,z
loop_
_atom_site_type_symbol
_atom_site_label
_atom_site_fract_x
_atom_site_fract_y
_atom_site_fract_z
Si Si1 0.611629 0.928652 0.469477
Si Si2 0.562881 0.569317 0.120356
Si Si3 0.143760 0.430795 0.803783
Si Si4 0.327902 0.069054 0.397132
Si Si5 0.872378 0.568861 0.461177
Si Si6 0.301905 0.428895 0.013272
Si Si7 0.011370 0.931379 0.321788
O O1 0.595885 0.750000 0.522765
O O2 0.645705 0.000349 0.523818
O O3 0.681956 0.964814 0.184272
O O4 0.526497 0.001366 0.636289
O O5 0.555427 0.750000 0.145249
O O6 0.622155 0.503853 0.090187
O O7 0.602866 0.513092 0.879861
O O8 0.136169 0.250000 0.844640
O O9 0.237893 0.487936 0.577424
O O10 0.109122 0.479692 0.741156
O O11 0.096493 0.514686 0.043231
O O12 0.325084 0.250000 0.410630
O O13 0.869212 0.750000 0.478223
O O14 0.940747 0.506595 0.395256
O O15 0.784814 0.498063 0.725817
O O16 0.297532 0.250000 0.054810
O O17 0.009603 0.750000 0.338807
O O18 0.000000 0.000000 0.500000
#
# Coordination Sequence:
#
# PCOD8069620 Si02
#       7
#     4   4   4   4   4   4   4
#     4  10  20  31  49  77 108 140 180 226 270 318
#     4  10  18  33  53  74 103 139 182 225 270 322
#     4  10  19  37  63  86 110 144 189 233 274 327
#     4   9  18  32  54  80 103 140 186 222 263 326
#     4   9  18  35  60  85 109 145 191 229 269 329
#     4   9  17  31  53  78 103 137 184 227 261 317
#     4  11  24  39  59  88 118 147 181 225 279 334
#
# _framework density 19.946788000000002
#
# number of rings (size 3 to 8) (size 9 to 14) (size 15 to 20)
#    0.000    2.286    1.429    1.714    2.000    0.000 
#    0.000    2.143    0.000    2.571    0.000    0.000 
#    0.000    0.000    0.000    0.000    0.000    0.000 
#
# Total GULP energy -347135.760318 kJ/mol
# GULP energy per Si atom -12397.705726 kJ/mol
# Density = 1.990139 g / cm^3
# Si number density = 19.946788 Si / 1000 Ang^3
#
#
#
# Elastic Constant Matrix: (Units=GPa)
#
#
# Indices 1 2 3 4 5 6 
#
# 1 87.3106 13.8531 15.8711 0.0000 6.6494 0.0000
# 2 13.8531 28.7854 22.7769 0.0000 3.8203 0.0000
# 3 15.8711 22.7769 97.4316 0.0000 3.0302 0.0000
# 4 0.0000 0.0000 0.0000 21.8112 0.0000 -2.7553
# 5 6.6494 3.8203 3.0302 0.0000 36.5981 0.0000
# 6 0.0000 0.0000 0.0000 -2.7553 0.0000 21.5861
#
#
#
# Elastic Compliance Matrix: (Units=1/GPa)
#
#
# Indices 1 2 3 4 5 6 
#
# 1 0.012547 -0.005203 -0.000776 0.000000 -0.001672 0.000000
# 2 -0.005203 0.045269 -0.009643 0.000000 -0.002982 0.000000
# 3 -0.000776 -0.009643 0.012641 0.000000 0.000101 0.000000
# 4 0.000000 0.000000 0.000000 0.046599 0.000000 0.005948
# 5 -0.001672 -0.002982 0.000101 0.000000 0.027931 0.000000
# 6 0.000000 0.000000 0.000000 0.005948 0.000000 0.047085
#
#
# Mechanical properties :
#
#
# Convention : Reuss Voigt Hill
#
# Bulk Modulus (GPa) = 25.50000 35.39222 30.44611
# Shear Modulus (GPa) = 21.15180 26.73416 23.94298
#
# Velocity S-wave (km/s) = 3.25993 3.66495 3.46835
# Velocity P-wave (km/s) = 5.19435 5.97419 5.59787
#
# Compressibility (1/GPa) = 0.03921569
#
# Stress axis : x y z
#
# Youngs Moduli (GPa) = 79.69902 22.09006 79.10779
#
# Poissons Ratio (x) = 0.11493 0.06136
# Poissons Ratio (y) = 0.41465 0.76280
# Poissons Ratio (z) = 0.06181 0.21300
#
# Static dielectric constant tensor:
#      x y z
#    x 3.962860 0.000000 0.035790 
#    y 0.000000 3.157510 0.000000 
#    z 0.035790 0.000000 3.722670 
# 
# 
# High freq. dielectric constant tensor:
#      x y z
#    x 1.793150 0.000000 0.004400 
#    y 0.000000 1.721560 0.000000 
#    z 0.004400 0.000000 1.793410 
# 
# From -- ./inp_files/21182.got.cif
#   From: 2010.06.25/outbox.cif.g09.slc.cpg/sg11_11_cif.got.tgz:21182.got - 2010.06.27 23:14:04.
