data_PCOD8069174
_publ_section_title
;
Structure prediction by ZEFSAII (Michael W. Deem and Ramdas Pophale) SiO2 
 PCOD8069174
Probable space group: P 21/M
;
_chemical_formula_sum "Si O2"
_cell_formula_units_Z 32
_cell_length_a 32.198714
_cell_length_b 8.985791
_cell_length_c 13.689386
_cell_angle_alpha 90.000000
_cell_angle_beta 25.859979
_cell_angle_gamma 90.000000
_cell_volume 1727.579048
_symmetry_space_group_name_H-M "P 21/M"
_symmetry_group_IT_number 11
_symmetry_cell_setting 'monoclinic'
loop_
_space_group_symop_operation_xyz
x,y,z
-x,1/2+y,-z
-x,-y,-z
x,1/2-y,z
loop_
_atom_site_type_symbol
_atom_site_label
_atom_site_fract_x
_atom_site_fract_y
_atom_site_fract_z
Si Si1 0.972024 0.926565 0.335427
Si Si2 0.840098 0.417690 0.473656
Si Si3 0.817259 0.924445 0.820641
Si Si4 0.317074 0.585715 0.026438
Si Si5 0.698543 0.927152 0.640613
Si Si6 0.838558 0.572848 0.995440
Si Si7 0.452869 0.927134 0.900580
Si Si8 0.336254 0.074275 0.505095
O O1 0.976676 0.750000 0.316285
O O2 0.905363 0.976672 0.567250
O O3 0.931819 0.994001 0.319595
O O4 0.075352 0.993514 0.132470
O O5 0.869660 0.250000 0.381138
O O6 0.797178 0.503954 0.471547
O O7 0.761003 0.414424 0.723948
O O8 0.808019 0.750000 0.842593
O O9 0.833909 0.985867 0.894095
O O10 0.716496 0.981862 0.991223
O O11 0.330111 0.750000 0.954758
O O12 0.414608 0.531457 0.872437
O O13 0.702617 0.750000 0.642822
O O14 0.689264 0.981768 0.548920
O O15 0.606766 0.987939 0.891137
O O16 0.852767 0.750000 0.970996
O O17 0.742660 0.518401 0.251571
O O18 0.442170 0.750000 0.940984
O O19 0.560739 0.985751 0.679443
O O20 0.339853 0.250000 0.497931
#
# Coordination Sequence:
#
# PCOD8069174 Si02
#       8
#     4   4   4   4   4   4   4   4
#     4  10  19  32  51  77 102 125 158 206 251 288
#     4   9  17  31  51  75 100 129 161 197 241 296
#     4   9  18  31  50  73  98 127 161 200 244 289
#     4   8  15  27  47  72  97 123 156 197 241 286
#     4  10  18  30  51  78 101 125 159 205 249 286
#     4  10  20  35  51  69  96 134 170 200 239 294
#     4   9  17  32  52  74  98 130 166 200 241 293
#     4   9  19  34  51  70  98 133 169 203 240 288
#
# _framework density 18.523031
#
# number of rings (size 3 to 8) (size 9 to 14) (size 15 to 20)
#    0.000    2.750    0.000    2.625    0.000    4.000 
#    0.000    3.750    0.000    0.000    0.000    0.000 
#    0.000    0.000    0.000    0.000    0.000    0.000 
#
# Total GULP energy -396724.848253 kJ/mol
# GULP energy per Si atom -12397.651508 kJ/mol
# Density = 1.848087 g / cm^3
# Si number density = 18.523031 Si / 1000 Ang^3
#
#
#
# Elastic Constant Matrix: (Units=GPa)
#
#
# Indices 1 2 3 4 5 6 
#
# 1 123.3143 30.4641 40.8464 0.0000 -31.4898 0.0000
# 2 30.4641 51.4004 22.4260 0.0000 -8.1983 0.0000
# 3 40.8464 22.4260 61.1456 0.0000 -10.4030 0.0000
# 4 0.0000 0.0000 0.0000 17.3209 0.0000 -5.7813
# 5 -31.4898 -8.1983 -10.4030 0.0000 14.6979 0.0000
# 6 0.0000 0.0000 0.0000 -5.7813 0.0000 31.6208
#
#
#
# Elastic Compliance Matrix: (Units=1/GPa)
#
#
# Indices 1 2 3 4 5 6 
#
# 1 0.020741 -0.003564 -0.006055 0.000000 0.038163 0.000000
# 2 -0.003564 0.024599 -0.006373 0.000000 0.001575 0.000000
# 3 -0.006055 -0.006373 0.022653 0.000000 -0.000495 0.000000
# 4 0.000000 0.000000 0.000000 0.061486 0.000000 0.011242
# 5 0.038163 0.001575 -0.000495 0.000000 0.150327 0.000000
# 6 0.000000 0.000000 0.000000 0.011242 0.000000 0.033680
#
#
# Mechanical properties :
#
#
# Convention : Reuss Voigt Hill
#
# Bulk Modulus (GPa) = 27.77196 47.03703 37.40450
# Shear Modulus (GPa) = 13.98703 22.20285 18.09494
#
# Velocity S-wave (km/s) = 2.75092 3.46593 3.12891
# Velocity P-wave (km/s) = 5.01157 6.43939 5.76982
#
# Compressibility (1/GPa) = 0.03600754
#
# Stress axis : x y z
#
# Youngs Moduli (GPa) = 48.21392 40.65165 44.14465
#
# Poissons Ratio (x) = 0.14488 0.26731
# Poissons Ratio (y) = 0.17183 0.28135
# Poissons Ratio (z) = 0.29195 0.25909
#
# Static dielectric constant tensor:
#      x y z
#    x 3.786800 0.000000 -0.139570 
#    y 0.000000 3.309900 0.000000 
#    z -0.139570 0.000000 3.266370 
# 
# 
# High freq. dielectric constant tensor:
#      x y z
#    x 1.736190 0.000000 -0.014870 
#    y 0.000000 1.706480 0.000000 
#    z -0.014870 0.000000 1.685080 
# 
# From -- ./inp_files/45211.got.cif
#   From: 2010.06.25/outbox.cif.g09.slc.cpg/sg11_23_cif.got.tgz:45211.got - 2010.06.27 23:14:04.
