data_PCOD8069141
_publ_section_title
;
Structure prediction by ZEFSAII (Michael W. Deem and Ramdas Pophale) SiO2 
 PCOD8069141
Probable space group: P 21/M
;
_chemical_formula_sum "Si O2"
_cell_formula_units_Z 32
_cell_length_a 25.887730
_cell_length_b 8.985881
_cell_length_c 18.811684
_cell_angle_alpha 90.000000
_cell_angle_beta 157.502009
_cell_angle_gamma 90.000000
_cell_volume 1674.500199
_symmetry_space_group_name_H-M "P 21/M"
_symmetry_group_IT_number 11
_symmetry_cell_setting 'monoclinic'
loop_
_space_group_symop_operation_xyz
x,y,z
-x,1/2+y,-z
-x,-y,-z
x,1/2-y,z
loop_
_atom_site_type_symbol
_atom_site_label
_atom_site_fract_x
_atom_site_fract_y
_atom_site_fract_z
Si Si1 0.173229 0.419618 0.993905
Si Si2 0.627104 0.583517 0.471708
Si Si3 0.658007 0.924892 0.054091
Si Si4 0.647200 0.426104 0.354972
Si Si5 0.898959 0.073264 0.428069
Si Si6 0.313117 0.915859 0.048707
Si Si7 0.368906 0.423781 0.366448
Si Si8 0.107201 0.578619 0.421294
O O1 0.209475 0.250000 0.017499
O O2 0.011984 0.443734 0.787809
O O3 0.231441 0.536678 0.013261
O O4 0.235135 0.455043 0.149768
O O5 0.685155 0.750000 0.536472
O O6 0.684998 0.484688 0.481466
O O7 0.467164 0.583381 0.266103
O O8 0.665623 0.516170 0.598164
O O9 0.675831 0.750000 0.089793
O O10 0.745197 0.017626 0.221378
O O11 0.501634 0.976652 0.860297
O O12 0.716848 0.966492 0.051606
O O13 0.654093 0.250000 0.368875
O O14 0.756546 0.493396 0.438523
O O15 0.909262 0.250000 0.432490
O O16 0.934092 0.017098 0.553019
O O17 0.000000 0.000000 0.500000
O O18 0.268002 0.750000 0.967399
O O19 0.500000 0.500000 0.500000
O O20 0.403553 0.250000 0.415345
O O21 0.140842 0.750000 0.476147
#
# Coordination Sequence:
#
# PCOD8069141 Si02
#       8
#     4   4   4   4   4   4   4   4
#     4  10  19  32  53  77 105 142 180 219 271 327
#     4   9  18  32  49  75 110 140 170 219 272 317
#     4  10  20  34  54  80 107 138 182 225 263 316
#     4   9  19  37  58  76 100 141 188 225 260 313
#     4  11  22  37  58  83 114 144 173 218 274 325
#     4  10  18  30  50  76 109 142 174 218 271 324
#     4  10  19  31  50  79 112 142 174 218 272 326
#     4   9  20  38  56  76 104 140 181 223 266 318
#
# _framework density 19.110181000000001
#
# number of rings (size 3 to 8) (size 9 to 14) (size 15 to 20)
#    0.000    2.250    1.250    1.875    0.000    3.000 
#    0.000    3.125    0.000    0.000    0.000    0.000 
#    0.000    0.000    0.000    0.000    0.000    0.000 
#
# Total GULP energy -396665.032676 kJ/mol
# GULP energy per Si atom -12395.782271 kJ/mol
# Density = 1.906668 g / cm^3
# Si number density = 19.110181 Si / 1000 Ang^3
#
#
#
# Elastic Constant Matrix: (Units=GPa)
#
#
# Indices 1 2 3 4 5 6 
#
# 1 122.2515 26.8861 69.1007 0.0000 0.8663 0.0000
# 2 26.8861 48.6066 36.5367 0.0000 2.3400 0.0000
# 3 69.1007 36.5367 91.9003 0.0000 -14.7297 0.0000
# 4 0.0000 0.0000 0.0000 22.3216 0.0000 -4.0918
# 5 0.8663 2.3400 -14.7297 0.0000 33.2771 0.0000
# 6 0.0000 0.0000 0.0000 -4.0918 0.0000 25.2469
#
#
#
# Elastic Compliance Matrix: (Units=1/GPa)
#
#
# Indices 1 2 3 4 5 6 
#
# 1 0.015328 0.001802 -0.013267 0.000000 -0.006398 0.000000
# 2 0.001802 0.031552 -0.015352 0.000000 -0.009061 0.000000
# 3 -0.013267 -0.015352 0.029265 0.000000 0.014379 0.000000
# 4 0.000000 0.000000 0.000000 0.046171 0.000000 0.007483
# 5 -0.006398 -0.009061 0.014379 0.000000 0.037219 0.000000
# 6 0.000000 0.000000 0.000000 0.007483 0.000000 0.040822
#
#
# Mechanical properties :
#
#
# Convention : Reuss Voigt Hill
#
# Bulk Modulus (GPa) = 44.42070 58.64506 51.53288
# Shear Modulus (GPa) = 19.12087 24.85144 21.98615
#
# Velocity S-wave (km/s) = 3.16659 3.61006 3.39557
# Velocity P-wave (km/s) = 6.05514 6.93766 6.51137
#
# Compressibility (1/GPa) = 0.02251203
#
# Stress axis : x y z
#
# Youngs Moduli (GPa) = 65.24029 31.69361 34.17036
#
# Poissons Ratio (x) = -0.05712 0.45335
# Poissons Ratio (y) = -0.11759 0.52457
# Poissons Ratio (z) = 0.86556 0.48655
#
# Static dielectric constant tensor:
#      x y z
#    x 3.657970 0.000000 -0.166440 
#    y 0.000000 3.426150 0.000000 
#    z -0.166440 0.000000 3.644320 
# 
# 
# High freq. dielectric constant tensor:
#      x y z
#    x 1.737440 0.000000 -0.012810 
#    y 0.000000 1.728610 0.000000 
#    z -0.012810 0.000000 1.739950 
# 
# From -- ./inp_files/67125.got.cif
#   From: 2010.06.25/outbox.cif.g09.slc.cpg/sg11_34_cif.got.tgz:67125.got - 2010.06.27 23:14:04.
