data_PCOD8069875
_publ_section_title
;
Structure prediction by ZEFSAII (Michael W. Deem and Ramdas Pophale) SiO2 
 PCOD8069875
Probable space group: P 21/M
;
_chemical_formula_sum "Si O2"
_cell_formula_units_Z 18
_cell_length_a 8.392555
_cell_length_b 15.367495
_cell_length_c 11.324103
_cell_angle_alpha 90.000000
_cell_angle_beta 42.912083
_cell_angle_gamma 90.000000
_cell_volume 994.417347
_symmetry_space_group_name_H-M "P 21/M"
_symmetry_group_IT_number 11
_symmetry_cell_setting 'monoclinic'
loop_
_space_group_symop_operation_xyz
x,y,z
-x,1/2+y,-z
-x,-y,-z
x,1/2-y,z
loop_
_atom_site_type_symbol
_atom_site_label
_atom_site_fract_x
_atom_site_fract_y
_atom_site_fract_z
Si Si1 0.346284 0.250000 0.833534
Si Si2 0.026895 0.901555 0.351455
Si Si3 0.723226 0.250000 0.450241
Si Si4 0.774639 0.750000 0.353906
Si Si5 0.464845 0.152670 0.978330
Si Si6 0.968641 0.597550 0.653991
O O1 0.614726 0.250000 0.640598
O O2 0.168195 0.250000 0.819288
O O3 0.326091 0.163752 0.927540
O O4 0.878415 0.837309 0.351256
O O5 0.987651 0.873661 0.507718
O O6 0.298193 0.900779 0.167810
O O7 0.935253 0.999836 0.380509
O O8 0.507952 0.250000 0.473127
O O9 0.881176 0.163961 0.347291
O O10 0.528267 0.250000 0.991233
O O11 0.302284 0.102915 0.159868
#
# Coordination Sequence:
#
# PCOD8069875 Si02
#       6
#     2   4   2   2   4   4
#     4   8  18  34  58  71 109 153 177 213 278 322
#     4  11  21  36  57  86 114 136 183 236 274 312
#     4  10  18  38  54  75 111 149 183 211 278 324
#     4  10  20  36  58  76 116 150 170 230 282 314
#     4  10  18  36  60  75 107 147 184 222 273 322
#     4  11  21  35  61  84 105 148 186 223 272 331
#
# _framework density 18.101051999999999
#
# number of rings (size 3 to 8) (size 9 to 14) (size 15 to 20)
#    1.333    0.444    4.444    1.333    0.000    0.889 
#    0.000    5.556    0.000    0.000    0.000    0.000 
#    0.000    0.000    0.000    0.000    0.000    0.000 
#
# Total GULP energy -223032.913919 kJ/mol
# GULP energy per Si atom -12390.717440 kJ/mol
# Density = 1.805985 g / cm^3
# Si number density = 18.101052 Si / 1000 Ang^3
#
#
#
# Elastic Constant Matrix: (Units=GPa)
#
#
# Indices 1 2 3 4 5 6 
#
# 1 98.8066 54.7408 36.9594 0.0000 -11.5047 0.0000
# 2 54.7408 109.3058 19.6041 0.0000 -1.2812 0.0000
# 3 36.9594 19.6041 117.1002 0.0000 -13.3752 0.0000
# 4 0.0000 0.0000 0.0000 18.1678 0.0000 -6.4817
# 5 -11.5047 -1.2812 -13.3752 0.0000 8.6000 0.0000
# 6 0.0000 0.0000 0.0000 -6.4817 0.0000 5.5940
#
#
#
# Elastic Compliance Matrix: (Units=1/GPa)
#
#
# Indices 1 2 3 4 5 6 
#
# 1 0.017710 -0.008285 -0.001991 0.000000 0.019361 0.000000
# 2 -0.008285 0.013319 -0.000795 0.000000 -0.010337 0.000000
# 3 -0.001991 -0.000795 0.010924 0.000000 0.014208 0.000000
# 4 0.000000 0.000000 0.000000 0.093831 0.000000 0.108721
# 5 0.019361 -0.010337 0.014208 0.000000 0.162736 0.000000
# 6 0.000000 0.000000 0.000000 0.108721 0.000000 0.304738
#
#
# Mechanical properties :
#
#
# Convention : Reuss Voigt Hill
#
# Bulk Modulus (GPa) = 50.48024 60.86902 55.67463
# Shear Modulus (GPa) = 7.91132 20.73290 14.32211
#
# Velocity S-wave (km/s) = 2.09288 3.38804 2.81593
# Velocity P-wave (km/s) = 5.81281 7.00039 6.43406
#
# Compressibility (1/GPa) = 0.01980973
#
# Stress axis : x y z
#
# Youngs Moduli (GPa) = 56.46494 75.07829 91.54029
#
# Poissons Ratio (x) = 0.62204 0.18228
# Poissons Ratio (y) = 0.46782 0.07282
# Poissons Ratio (z) = 0.11244 0.05972
#
# Static dielectric constant tensor:
#      x y z
#    x 2.980490 0.000000 0.031100 
#    y 0.000000 3.231890 0.000000 
#    z 0.031100 0.000000 3.341630 
# 
# 
# High freq. dielectric constant tensor:
#      x y z
#    x 1.664810 0.000000 -0.000720 
#    y 0.000000 1.701530 0.000000 
#    z -0.000720 0.000000 1.706880 
# 
# From -- ./inp_files/32028.got.cif
#   From: 2010.06.25/outbox.cif.g09.slc.cpg/sg11_17_cif.got.tgz:32028.got - 2010.06.27 23:14:04.
