data_PCOD8069555
_publ_section_title
;
Structure prediction by ZEFSAII (Michael W. Deem and Ramdas Pophale) SiO2 
 PCOD8069555
Probable space group: P 21/M
;
_chemical_formula_sum "Si O2"
_cell_formula_units_Z 32
_cell_length_a 23.948039
_cell_length_b 8.842844
_cell_length_c 14.382798
_cell_angle_alpha 90.000000
_cell_angle_beta 147.527878
_cell_angle_gamma 90.000000
_cell_volume 1635.271826
_symmetry_space_group_name_H-M "P 21/M"
_symmetry_group_IT_number 11
_symmetry_cell_setting 'monoclinic'
loop_
_space_group_symop_operation_xyz
x,y,z
-x,1/2+y,-z
-x,-y,-z
x,1/2-y,z
loop_
_atom_site_type_symbol
_atom_site_label
_atom_site_fract_x
_atom_site_fract_y
_atom_site_fract_z
Si Si1 0.719853 0.575144 0.183101
Si Si2 0.801056 0.429105 0.479754
Si Si3 0.304547 0.571798 0.479403
Si Si4 0.543919 0.925272 0.799421
Si Si5 0.966115 0.572262 0.200750
Si Si6 0.402081 0.928700 0.311810
Si Si7 0.095049 0.428447 0.686066
Si Si8 0.225090 0.428169 0.184080
O O1 0.738590 0.750000 0.232716
O O2 0.735878 0.483067 0.299598
O O3 0.798881 0.518729 0.213996
O O4 0.604017 0.546049 0.980882
O O5 0.804054 0.250000 0.481085
O O6 0.742200 0.485265 0.489123
O O7 0.918122 0.498778 0.645405
O O8 0.289987 0.750000 0.444507
O O9 0.425110 0.525204 0.646114
O O10 0.242314 0.485660 0.312028
O O11 0.552939 0.750000 0.782574
O O12 0.597353 0.025166 0.795040
O O13 0.980654 0.750000 0.228745
O O14 0.908246 0.512513 0.212349
O O15 0.893940 0.531354 0.011163
O O16 0.407426 0.750000 0.330017
O O17 0.500000 0.000000 0.500000
O O18 0.298617 0.988381 0.214568
O O19 0.083574 0.250000 0.666150
O O20 0.000000 0.500000 0.500000
O O21 0.246747 0.250000 0.208235
#
# Coordination Sequence:
#
# PCOD8069555 Si02
#       8
#     4   4   4   4   4   4   4   4
#     4  10  21  36  57  85 115 151 193 238 290 346
#     4  10  21  39  60  82 113 154 198 244 290 341
#     4  10  22  39  59  83 113 152 198 245 291 338
#     4  10  21  39  60  83 118 156 190 234 290 348
#     4   9  19  36  58  83 115 153 189 232 292 348
#     4  12  23  37  60  90 120 151 188 235 287 345
#     4  10  18  32  55  81 110 144 183 226 281 344
#     4  11  22  38  61  86 115 154 193 235 290 350
#
# _framework density 19.568612999999999
#
# number of rings (size 3 to 8) (size 9 to 14) (size 15 to 20)
#    0.000    1.750    2.500    2.250    0.000    4.000 
#    0.000    3.750    0.000    0.000    0.000    0.000 
#    0.000    0.000    0.000    0.000    0.000    0.000 
#
# Total GULP energy -396833.171648 kJ/mol
# GULP energy per Si atom -12401.036614 kJ/mol
# Density = 1.952407 g / cm^3
# Si number density = 19.568613 Si / 1000 Ang^3
#
#
#
# Elastic Constant Matrix: (Units=GPa)
#
#
# Indices 1 2 3 4 5 6 
#
# 1 142.4404 36.8067 54.3505 0.0000 -19.8047 0.0000
# 2 36.8067 52.5456 27.6320 0.0000 -8.2402 0.0000
# 3 54.3505 27.6320 128.7006 0.0000 -25.1791 0.0000
# 4 0.0000 0.0000 0.0000 30.3309 0.0000 -7.1691
# 5 -19.8047 -8.2402 -25.1791 0.0000 20.2320 0.0000
# 6 0.0000 0.0000 0.0000 -7.1691 0.0000 23.9477
#
#
#
# Elastic Compliance Matrix: (Units=1/GPa)
#
#
# Indices 1 2 3 4 5 6 
#
# 1 0.009797 -0.004983 -0.002100 0.000000 0.004948 0.000000
# 2 -0.004983 0.024232 -0.002805 0.000000 0.001501 0.000000
# 3 -0.002100 -0.002805 0.011412 0.000000 0.011005 0.000000
# 4 0.000000 0.000000 0.000000 0.035480 0.000000 0.010622
# 5 0.004948 0.001501 0.011005 0.000000 0.068577 0.000000
# 6 0.000000 0.000000 0.000000 0.010622 0.000000 0.044937
#
#
# Mechanical properties :
#
#
# Convention : Reuss Voigt Hill
#
# Bulk Modulus (GPa) = 38.96075 62.36275 50.66175
# Shear Modulus (GPa) = 22.44528 28.56195 25.50361
#
# Velocity S-wave (km/s) = 3.39042 3.82459 3.61403
# Velocity P-wave (km/s) = 5.93967 7.17226 6.58486
#
# Compressibility (1/GPa) = 0.02566686
#
# Stress axis : x y z
#
# Youngs Moduli (GPa) = 102.07172 41.26855 87.62930
#
# Poissons Ratio (x) = 0.20562 0.18398
# Poissons Ratio (y) = 0.50858 0.24577
# Poissons Ratio (z) = 0.21430 0.11574
#
# Static dielectric constant tensor:
#      x y z
#    x 3.906200 0.000000 0.154780 
#    y 0.000000 3.376720 0.000000 
#    z 0.154780 0.000000 3.761830 
# 
# 
# High freq. dielectric constant tensor:
#      x y z
#    x 1.761880 0.000000 -0.002410 
#    y 0.000000 1.741380 0.000000 
#    z -0.002410 0.000000 1.777020 
# 
# From -- ./inp_files/51720.got.cif
#   From: 2010.06.25/outbox.cif.g09.slc.cpg/sg11_26_cif.got.tgz:51720.got - 2010.06.27 23:14:04.
