data_PCOD8069884
_publ_section_title
;
Structure prediction by ZEFSAII (Michael W. Deem and Ramdas Pophale) SiO2 
 PCOD8069884
Probable space group: P 21/M
;
_chemical_formula_sum "Si O2"
_cell_formula_units_Z 28
_cell_length_a 9.409682
_cell_length_b 26.075282
_cell_length_c 9.699037
_cell_angle_alpha 90.000000
_cell_angle_beta 33.889487
_cell_angle_gamma 90.000000
_cell_volume 1326.935267
_symmetry_space_group_name_H-M "P 21/M"
_symmetry_group_IT_number 11
_symmetry_cell_setting 'monoclinic'
loop_
_space_group_symop_operation_xyz
x,y,z
-x,1/2+y,-z
-x,-y,-z
x,1/2-y,z
loop_
_atom_site_type_symbol
_atom_site_label
_atom_site_fract_x
_atom_site_fract_y
_atom_site_fract_z
Si Si1 0.037266 0.193761 0.053952
Si Si2 0.750002 0.542218 0.499999
Si Si3 0.235383 0.403205 0.232000
Si Si4 0.750003 0.141412 0.499997
Si Si5 0.250002 0.019934 0.999999
Si Si6 0.462742 0.306240 0.946041
Si Si7 0.264621 0.403205 0.767997
O O1 0.005459 0.250000 0.009424
O O2 0.250005 0.195675 0.999995
O O3 0.104220 0.150025 0.887731
O O4 0.780861 0.177579 0.340306
O O5 0.825486 0.578521 0.566207
O O6 0.491647 0.511996 0.746814
O O7 0.674513 0.578520 0.433794
O O8 0.008359 0.511997 0.253182
O O9 0.983192 0.395568 0.343756
O O10 0.371291 0.447043 0.029673
O O11 0.395785 0.349975 0.112265
O O12 0.719147 0.177579 0.659687
O O13 0.516815 0.104432 0.656235
O O14 0.128713 0.052957 0.970325
O O15 0.494550 0.250000 0.990568
#
# Coordination Sequence:
#
# PCOD8069884 Si02
#       7
#     4   4   4   4   4   4   4
#     4   9  18  34  62  93 122 159 208 259 312 372
#     4  12  29  40  66  94 131 167 212 261 322 364
#     4  11  23  41  63  92 128 162 211 264 310 377
#     4  10  18  36  65  88 130 159 212 251 317 362
#     4  12  24  44  65  92 123 174 218 256 306 376
#     4   9  18  34  62  93 122 159 208 259 312 372
#     4  11  23  41  63  92 128 162 211 264 310 377
#
# _framework density 21.101257
#
# number of rings (size 3 to 8) (size 9 to 14) (size 15 to 20)
#    0.000    1.429    4.286    3.000    4.000    1.143 
#    0.000    0.714    0.000    1.714    0.000    0.000 
#    0.000    0.000    0.000    0.000    0.000    0.000 
#
# Total GULP energy -346922.748653 kJ/mol
# GULP energy per Si atom -12390.098166 kJ/mol
# Density = 2.105323 g / cm^3
# Si number density = 21.101257 Si / 1000 Ang^3
#
#
#
# Elastic Constant Matrix: (Units=GPa)
#
#
# Indices 1 2 3 4 5 6 
#
# 1 44.5651 42.2230 34.5911 0.0000 19.4638 0.0000
# 2 42.2230 173.3637 85.6889 0.0000 20.8018 0.0000
# 3 34.5911 85.6889 145.7610 0.0000 13.3156 0.0000
# 4 0.0000 0.0000 0.0000 15.0651 0.0000 -4.0375
# 5 19.4638 20.8018 13.3156 0.0000 36.0308 0.0000
# 6 0.0000 0.0000 0.0000 -4.0375 0.0000 1.8449
#
#
#
# Elastic Compliance Matrix: (Units=1/GPa)
#
#
# Indices 1 2 3 4 5 6 
#
# 1 0.037587 -0.005030 -0.004526 0.000000 -0.015728 0.000000
# 2 -0.005030 0.009137 -0.004082 0.000000 -0.001049 0.000000
# 3 -0.004526 -0.004082 0.010241 0.000000 0.001017 0.000000
# 4 0.000000 0.000000 0.000000 0.160536 0.000000 0.351331
# 5 -0.015728 -0.001049 0.001017 0.000000 0.036480 0.000000
# 6 0.000000 0.000000 0.000000 0.351331 0.000000 1.310920
#
#
# Mechanical properties :
#
#
# Convention : Reuss Voigt Hill
#
# Bulk Modulus (GPa) = 33.68216 76.52176 55.10196
# Shear Modulus (GPa) = 3.12096 24.00060 13.56078
#
# Velocity S-wave (km/s) = 1.21748 3.37620 2.53781
# Velocity P-wave (km/s) = 4.23947 7.17921 5.89552
#
# Compressibility (1/GPa) = 0.02968931
#
# Stress axis : x y z
#
# Youngs Moduli (GPa) = 26.60487 109.44942 97.64433
#
# Poissons Ratio (x) = 0.55054 0.44195
# Poissons Ratio (y) = 0.13383 0.39855
# Poissons Ratio (z) = 0.12042 0.44673
#
# Static dielectric constant tensor:
#      x y z
#    x 3.285400 0.000000 0.015470 
#    y 0.000000 4.313510 0.000000 
#    z 0.015470 0.000000 4.227300 
# 
# 
# High freq. dielectric constant tensor:
#      x y z
#    x 1.766040 0.000000 -0.000750 
#    y 0.000000 1.842210 0.000000 
#    z -0.000750 0.000000 1.844460 
# 
# From -- ./inp_files/15249.got.cif
#   From: 2010.06.25/outbox.cif.g09.slc.cpg/sg11_8_cif.got.tgz:15249.got - 2010.06.27 23:14:04.
