data_PCOD8069091
_publ_section_title
;
Structure prediction by ZEFSAII (Michael W. Deem and Ramdas Pophale) SiO2 
 PCOD8069091
Probable space group: P 21/M
;
_chemical_formula_sum "Si O2"
_cell_formula_units_Z 32
_cell_length_a 18.911703
_cell_length_b 13.067161
_cell_length_c 11.647685
_cell_angle_alpha 90.000000
_cell_angle_beta 153.172809
_cell_angle_gamma 90.000000
_cell_volume 1299.026100
_symmetry_space_group_name_H-M "P 21/M"
_symmetry_group_IT_number 11
_symmetry_cell_setting 'monoclinic'
loop_
_space_group_symop_operation_xyz
x,y,z
-x,1/2+y,-z
-x,-y,-z
x,1/2-y,z
loop_
_atom_site_type_symbol
_atom_site_label
_atom_site_fract_x
_atom_site_fract_y
_atom_site_fract_z
Si Si1 0.393968 0.870491 0.784545
Si Si2 0.817887 0.962410 0.912341
Si Si3 0.301710 0.633859 0.394014
Si Si4 0.622332 0.866508 0.441103
Si Si5 0.880821 0.870951 0.354801
Si Si6 0.724647 0.870579 0.344577
Si Si7 0.607285 0.535207 0.820304
Si Si8 0.084031 0.627091 0.444463
O O1 0.401413 0.750000 0.808367
O O2 0.338380 0.900474 0.576981
O O3 0.260273 0.913642 0.678041
O O4 0.561300 0.917945 0.059970
O O5 0.729450 0.876585 0.708785
O O6 0.712353 0.998054 0.865992
O O7 0.837331 0.064231 0.860889
O O8 0.980484 0.915694 0.189350
O O9 0.248741 0.750000 0.303235
O O10 0.465853 0.607651 0.568109
O O11 0.565419 0.750000 0.342988
O O12 0.729796 0.899811 0.486153
O O13 0.465148 0.934438 0.223380
O O14 0.901352 0.750000 0.380077
O O15 0.872456 0.910195 0.477302
O O16 0.023633 0.915471 0.482246
O O17 0.711678 0.898004 0.057884
O O18 0.723496 0.750000 0.324454
O O19 0.074137 0.750000 0.424558
#
# Coordination Sequence:
#
# PCOD8069091 Si02
#       8
#     4   4   4   4   4   4   4   4
#     4   9  17  31  51  77 102 132 178 217 253 300
#     4  10  21  33  48  77 108 136 176 208 257 322
#     4  10  18  30  49  74 102 133 171 218 261 297
#     4  10  20  32  48  76 109 138 164 212 268 310
#     4   9  16  30  51  76 101 130 170 217 258 290
#     4   9  17  31  52  78 103 130 174 218 255 306
#     4  10  19  31  49  76 103 132 174 214 251 309
#     4   9  18  32  53  77 105 139 171 213 257 301
#
# _framework density 24.633841
#
# number of rings (size 3 to 8) (size 9 to 14) (size 15 to 20)
#    0.000    2.500    1.250    2.250    0.000    4.000 
#    0.000    0.000    0.000    3.000    6.500    0.000 
#    0.000    0.000    0.000    0.000    0.000    0.000 
#
# Total GULP energy -396488.288909 kJ/mol
# GULP energy per Si atom -12390.259028 kJ/mol
# Density = 2.457777 g / cm^3
# Si number density = 24.633841 Si / 1000 Ang^3
#
#
#
# Elastic Constant Matrix: (Units=GPa)
#
#
# Indices 1 2 3 4 5 6 
#
# 1 108.4847 19.9047 25.2917 0.0000 13.8837 0.0000
# 2 19.9047 48.9658 -6.7268 0.0000 5.2069 0.0000
# 3 25.2917 -6.7268 39.1233 0.0000 15.3109 0.0000
# 4 0.0000 0.0000 0.0000 -11.5044 0.0000 -4.1631
# 5 13.8837 5.2069 15.3109 0.0000 30.9616 0.0000
# 6 0.0000 0.0000 0.0000 -4.1631 0.0000 22.0201
#
#
#
# Elastic Compliance Matrix: (Units=1/GPa)
#
#
# Indices 1 2 3 4 5 6 
#
# 1 0.012526 -0.006354 -0.009188 0.000000 -0.000005 0.000000
# 2 -0.006354 0.025275 0.011162 0.000000 -0.006921 0.000000
# 3 -0.009188 0.011162 0.040350 0.000000 -0.017711 0.000000
# 4 0.000000 0.000000 0.000000 -0.081357 0.000000 -0.015381
# 5 -0.000005 -0.006921 -0.017711 0.000000 0.042222 0.000000
# 6 0.000000 0.000000 0.000000 -0.015381 0.000000 0.042505
#
#
# Mechanical properties :
#
#
# Convention : Reuss Voigt Hill
#
# Bulk Modulus (GPa) = 14.41127 30.39032 22.40080
# Shear Modulus (GPa) = 44.08690 18.83575 31.46132
#
# Velocity S-wave (km/s) = 4.23506 2.76819 3.57761
# Velocity P-wave (km/s) = 5.45685 4.75192 5.11654
#
# Compressibility (1/GPa) = 0.06939012
#
# Stress axis : x y z
#
# Youngs Moduli (GPa) = 79.83106 39.56541 24.78296
#
# Poissons Ratio (x) = 0.25139 0.22772
# Poissons Ratio (y) = 0.50723 -0.27662
# Poissons Ratio (z) = 0.73353 -0.44162
#
# Static dielectric constant tensor:
#      x y z
#    x 5.085860 0.000000 0.089010 
#    y 0.000000 4.461260 0.000000 
#    z 0.089010 0.000000 4.094090 
# 
# 
# High freq. dielectric constant tensor:
#      x y z
#    x 2.000560 0.000000 0.001470 
#    y 0.000000 1.999400 0.000000 
#    z 0.001470 0.000000 1.942810 
# 
# From -- ./inp_files/41736.got.cif
#   From: 2010.06.25/outbox.cif.g09.slc.cpg/sg11_21_cif.got.tgz:41736.got - 2010.06.27 23:14:04.
