data_PCOD8069819
_publ_section_title
;
Structure prediction by ZEFSAII (Michael W. Deem and Ramdas Pophale) SiO2 
 PCOD8069819
Probable space group: P 21/M
;
_chemical_formula_sum "Si O2"
_cell_formula_units_Z 24
_cell_length_a 10.838387
_cell_length_b 15.211634
_cell_length_c 13.836244
_cell_angle_alpha 90.000000
_cell_angle_beta 29.996277
_cell_angle_gamma 90.000000
_cell_volume 1140.459471
_symmetry_space_group_name_H-M "P 21/M"
_symmetry_group_IT_number 11
_symmetry_cell_setting 'monoclinic'
loop_
_space_group_symop_operation_xyz
x,y,z
-x,1/2+y,-z
-x,-y,-z
x,1/2-y,z
loop_
_atom_site_type_symbol
_atom_site_label
_atom_site_fract_x
_atom_site_fract_y
_atom_site_fract_z
Si Si1 0.589045 0.011197 0.547437
Si Si2 0.531091 0.389359 0.047535
Si Si3 0.634598 0.848717 0.641740
Si Si4 0.840199 0.938112 0.847754
Si Si5 0.846394 0.346415 0.658792
Si Si6 0.574260 0.854341 0.193230
O O1 0.427737 0.089197 0.706707
O O2 0.878138 0.033842 0.352903
O O3 0.500000 0.000000 0.500000
O O4 0.522858 0.917522 0.641653
O O5 0.527145 0.338880 0.151882
O O6 0.253354 0.393423 0.189150
O O7 0.647260 0.483305 0.993222
O O8 0.701733 0.337375 0.857680
O O9 0.659145 0.750000 0.579219
O O10 0.895408 0.894605 0.496307
O O11 0.807062 0.875557 0.965130
O O12 0.917717 0.250000 0.573568
O O13 0.672513 0.388814 0.695261
O O14 0.573343 0.750000 0.216790
#
# Coordination Sequence:
#
# PCOD8069819 Si02
#       6
#     4   4   4   4   4   4
#     4  12  26  42  62  84 124 169 214 246 290 350
#     4  10  18  34  63  94 119 149 188 248 314 369
#     4  11  22  37  59  91 124 158 200 248 308 366
#     4  10  21  37  64  92 120 155 194 246 308 366
#     4   9  18  33  59  94 125 150 189 249 313 372
#     4  10  22  41  64  92 121 156 203 254 307 359
#
# _framework density 21.044150999999999
#
# number of rings (size 3 to 8) (size 9 to 14) (size 15 to 20)
#    0.000    1.667    3.333    1.500    0.000    4.000 
#    0.000    0.000    0.000    0.000    0.000    0.000 
#    0.000    0.000    0.000    0.000    0.000    0.000 
#
# Total GULP energy -297368.115318 kJ/mol
# GULP energy per Si atom -12390.338138 kJ/mol
# Density = 2.099625 g / cm^3
# Si number density = 21.044151 Si / 1000 Ang^3
#
#
#
# Elastic Constant Matrix: (Units=GPa)
#
#
# Indices 1 2 3 4 5 6 
#
# 1 83.6897 36.2552 32.6054 0.0000 32.6561 0.0000
# 2 36.2552 115.5269 21.9766 0.0000 19.1029 0.0000
# 3 32.6054 21.9766 61.4764 0.0000 15.7083 0.0000
# 4 0.0000 0.0000 0.0000 28.4635 0.0000 4.9455
# 5 32.6561 19.1029 15.7083 0.0000 27.2122 0.0000
# 6 0.0000 0.0000 0.0000 4.9455 0.0000 13.9627
#
#
#
# Elastic Compliance Matrix: (Units=1/GPa)
#
#
# Indices 1 2 3 4 5 6 
#
# 1 0.025128 -0.002632 -0.006045 0.000000 -0.024818 0.000000
# 2 -0.002632 0.010293 -0.001460 0.000000 -0.003224 0.000000
# 3 -0.006045 -0.001460 0.020972 0.000000 -0.003827 0.000000
# 4 0.000000 0.000000 0.000000 0.037437 0.000000 -0.013260
# 5 -0.024818 -0.003224 -0.003827 0.000000 0.071004 0.000000
# 6 0.000000 0.000000 0.000000 -0.013260 0.000000 0.076316
#
#
# Mechanical properties :
#
#
# Convention : Reuss Voigt Hill
#
# Bulk Modulus (GPa) = 27.68554 49.15193 38.41873
# Shear Modulus (GPa) = 18.28395 25.25140 21.76768
#
# Velocity S-wave (km/s) = 2.95080 3.46775 3.21967
# Velocity P-wave (km/s) = 4.97937 6.28021 5.66724
#
# Compressibility (1/GPa) = 0.03611994
#
# Stress axis : x y z
#
# Youngs Moduli (GPa) = 39.79549 97.15497 47.68212
#
# Poissons Ratio (x) = 0.25573 0.28824
# Poissons Ratio (y) = 0.10475 0.06960
# Poissons Ratio (z) = 0.24056 0.14181
#
# Static dielectric constant tensor:
#      x y z
#    x 3.571250 0.000000 0.104760 
#    y 0.000000 3.765170 0.000000 
#    z 0.104760 0.000000 3.729410 
# 
# 
# High freq. dielectric constant tensor:
#      x y z
#    x 1.788850 0.000000 0.018300 
#    y 0.000000 1.826430 0.000000 
#    z 0.018300 0.000000 1.825080 
# 
# From -- ./inp_files/50326.got.cif
#   From: 2010.06.25/outbox.cif.g09.slc.cpg/sg11_26_cif.got.tgz:50326.got - 2010.06.27 23:14:04.
