data_PCOD8069867
_publ_section_title
;
Structure prediction by ZEFSAII (Michael W. Deem and Ramdas Pophale) SiO2 
 PCOD8069867
Probable space group: P 21/M
;
_chemical_formula_sum "Si O2"
_cell_formula_units_Z 32
_cell_length_a 11.478706
_cell_length_b 16.623090
_cell_length_c 16.608529
_cell_angle_alpha 90.000000
_cell_angle_beta 33.025468
_cell_angle_gamma 90.000000
_cell_volume 1727.196462
_symmetry_space_group_name_H-M "P 21/M"
_symmetry_group_IT_number 11
_symmetry_cell_setting 'monoclinic'
loop_
_space_group_symop_operation_xyz
x,y,z
-x,1/2+y,-z
-x,-y,-z
x,1/2-y,z
loop_
_atom_site_type_symbol
_atom_site_label
_atom_site_fract_x
_atom_site_fract_y
_atom_site_fract_z
Si Si1 0.653148 0.338720 0.603534
Si Si2 0.126238 0.570142 0.035346
Si Si3 0.556762 0.844383 0.751490
Si Si4 0.744639 0.339287 0.369938
Si Si5 0.933288 0.939241 0.607860
Si Si6 0.271635 0.053734 0.828432
Si Si7 0.462119 0.080998 0.406846
Si Si8 0.039749 0.996228 0.713508
O O1 0.641403 0.250000 0.647218
O O2 0.622592 0.339641 0.525482
O O3 0.457852 0.388794 0.753239
O O4 0.880740 0.373914 0.495400
O O5 0.910858 0.602184 0.115540
O O6 0.089799 0.554136 0.151249
O O7 0.312235 0.635523 0.916221
O O8 0.179846 0.485173 0.962687
O O9 0.595965 0.750000 0.740099
O O10 0.710899 0.894468 0.720763
O O11 0.614149 0.870630 0.627608
O O12 0.845882 0.250000 0.296227
O O13 0.565946 0.354892 0.406436
O O14 0.925910 0.408477 0.265099
O O15 0.000000 0.000000 0.500000
O O16 0.907394 0.986453 0.707429
O O17 0.361441 0.985228 0.717235
O O18 0.267545 0.035745 0.561902
#
# Coordination Sequence:
#
# PCOD8069867 Si02
#       8
#     4   4   4   4   4   4   4   4
#     4  10  20  34  57  88 114 143 187 250 300 329
#     4  10  22  35  58  86 119 157 189 226 286 359
#     4  11  24  40  57  84 122 161 194 236 294 347
#     4  10  19  30  53  90 119 139 182 246 302 334
#     4  11  20  39  63  84 108 147 208 246 281 338
#     4  10  18  36  57  86 118 152 190 229 281 364
#     4  11  18  36  61  86 113 150 199 242 286 348
#     4  11  20  36  63  87 113 150 202 246 282 343
#
# _framework density 18.527135000000001
#
# number of rings (size 3 to 8) (size 9 to 14) (size 15 to 20)
#    0.000    1.500    5.000    2.625    0.000    1.500 
#    0.000    1.875    0.000    1.500    0.000    0.000 
#    0.000    0.000    0.000    0.000    0.000    0.000 
#
# Total GULP energy -396795.913431 kJ/mol
# GULP energy per Si atom -12399.872295 kJ/mol
# Density = 1.848497 g / cm^3
# Si number density = 18.527135 Si / 1000 Ang^3
#
#
#
# Elastic Constant Matrix: (Units=GPa)
#
#
# Indices 1 2 3 4 5 6 
#
# 1 97.7375 18.6432 23.9911 0.0000 0.7705 0.0000
# 2 18.6432 76.9491 19.4497 0.0000 3.1387 0.0000
# 3 23.9911 19.4497 77.6230 0.0000 -1.6453 0.0000
# 4 0.0000 0.0000 0.0000 18.7629 0.0000 -4.6870
# 5 0.7705 3.1387 -1.6453 0.0000 29.4526 0.0000
# 6 0.0000 0.0000 0.0000 -4.6870 0.0000 24.9750
#
#
#
# Elastic Compliance Matrix: (Units=1/GPa)
#
#
# Indices 1 2 3 4 5 6 
#
# 1 0.011352 -0.001977 -0.003018 0.000000 -0.000255 0.000000
# 2 -0.001977 0.014302 -0.003007 0.000000 -0.001640 0.000000
# 3 -0.003018 -0.003007 0.014595 0.000000 0.001215 0.000000
# 4 0.000000 0.000000 0.000000 0.055918 0.000000 0.010494
# 5 -0.000255 -0.001640 0.001215 0.000000 0.034202 0.000000
# 6 0.000000 0.000000 0.000000 0.010494 0.000000 0.042009
#
#
# Mechanical properties :
#
#
# Convention : Reuss Voigt Hill
#
# Bulk Modulus (GPa) = 41.24939 41.83085 41.54012
# Shear Modulus (GPa) = 25.44995 27.31982 26.38489
#
# Velocity S-wave (km/s) = 3.71031 3.84420 3.77785
# Velocity P-wave (km/s) = 6.37713 6.50623 6.44200
#
# Compressibility (1/GPa) = 0.02424278
#
# Stress axis : x y z
#
# Youngs Moduli (GPa) = 88.09398 69.92234 68.51677
#
# Poissons Ratio (x) = 0.13823 0.20682
# Poissons Ratio (y) = 0.17415 0.20605
# Poissons Ratio (z) = 0.26591 0.21027
#
# Static dielectric constant tensor:
#      x y z
#    x 3.738320 0.000000 -0.039460 
#    y 0.000000 3.538920 0.000000 
#    z -0.039460 0.000000 3.329780 
# 
# 
# High freq. dielectric constant tensor:
#      x y z
#    x 1.723090 0.000000 -0.000760 
#    y 0.000000 1.711080 0.000000 
#    z -0.000760 0.000000 1.703830 
# 
# From -- ./inp_files/59608.got.cif
#   From: 2010.06.25/outbox.cif.g09.slc.cpg/sg11_30_cif.got.tgz:59608.got - 2010.06.27 23:14:04.
