data_PCOD8069946
_publ_section_title
;
Structure prediction by ZEFSAII (Michael W. Deem and Ramdas Pophale) SiO2 
 PCOD8069946
Probable space group: P 21/M
;
_chemical_formula_sum "Si O2"
_cell_formula_units_Z 32
_cell_length_a 11.244825
_cell_length_b 28.686523
_cell_length_c 5.335968
_cell_angle_alpha 90.000000
_cell_angle_beta 96.453345
_cell_angle_gamma 90.000000
_cell_volume 1710.343166
_symmetry_space_group_name_H-M "P 21/M"
_symmetry_group_IT_number 11
_symmetry_cell_setting 'monoclinic'
loop_
_space_group_symop_operation_xyz
x,y,z
-x,1/2+y,-z
-x,-y,-z
x,1/2-y,z
loop_
_atom_site_type_symbol
_atom_site_label
_atom_site_fract_x
_atom_site_fract_y
_atom_site_fract_z
Si Si1 0.791302 0.801921 0.107085
Si Si2 0.794693 0.852003 0.608636
Si Si3 0.886750 0.940932 0.395560
Si Si4 0.520477 0.458921 0.315679
Si Si5 0.489545 0.355740 0.451116
Si Si6 0.506838 0.803067 0.047237
Si Si7 0.300169 0.009611 0.963609
Si Si8 0.908324 0.020619 0.781023
O O1 0.841722 0.750000 0.089328
O O2 0.841230 0.831113 0.882188
O O3 0.839141 0.821936 0.381041
O O4 0.649062 0.801840 0.074809
O O5 0.855563 0.902000 0.590730
O O6 0.652921 0.855839 0.577411
O O7 0.780179 0.948436 0.169212
O O8 0.019411 0.932863 0.299353
O O9 0.889452 0.989818 0.533672
O O10 0.500000 0.500000 0.500000
O O11 0.535360 0.409015 0.453491
O O12 0.643798 0.471151 0.206492
O O13 0.404729 0.459037 0.109603
O O14 0.538277 0.331051 0.716373
O O15 0.538618 0.328243 0.217840
O O16 0.457150 0.750000 0.044858
O O17 0.223033 0.975346 0.127457
O O18 0.000000 0.000000 0.000000
#
# Coordination Sequence:
#
# PCOD8069946 Si02
#       8
#     4   4   4   4   4   4   4   4
#     4   9  18  30  44  68  99 134 163 208 260 306
#     4  10  19  28  50  69 100 132 175 209 243 320
#     4  10  20  33  51  76  97 139 177 214 258 297
#     4  11  23  33  49  74 108 146 181 212 256 316
#     4  10  20  30  49  71 101 137 176 212 260 314
#     4   9  18  32  48  68  96 132 174 219 264 311
#     4  10  21  34  51  68 106 143 176 216 257 302
#     4   9  19  34  52  70 101 132 170 219 255 299
#
# _framework density 18.709695
#
# number of rings (size 3 to 8) (size 9 to 14) (size 15 to 20)
#    0.000    2.250    0.000    3.000   12.250    3.000 
#    0.000    0.000    0.000    0.000    0.000    0.000 
#    0.000    6.000    0.000    0.000    0.000    0.000 
#
# Total GULP energy -396449.315143 kJ/mol
# GULP energy per Si atom -12389.041098 kJ/mol
# Density = 1.866711 g / cm^3
# Si number density = 18.709695 Si / 1000 Ang^3
#
#
#
# Elastic Constant Matrix: (Units=GPa)
#
#
# Indices 1 2 3 4 5 6 
#
# 1 58.4456 21.0529 16.2280 0.0000 -26.1185 0.0000
# 2 21.0529 125.2994 51.8991 0.0000 -16.8130 0.0000
# 3 16.2280 51.8991 114.0068 0.0000 -28.3258 0.0000
# 4 0.0000 0.0000 0.0000 36.0697 0.0000 -10.8842
# 5 -26.1185 -16.8130 -28.3258 0.0000 23.3650 0.0000
# 6 0.0000 0.0000 0.0000 -10.8842 0.0000 16.4983
#
#
#
# Elastic Compliance Matrix: (Units=1/GPa)
#
#
# Indices 1 2 3 4 5 6 
#
# 1 0.039118 -0.003248 0.008865 0.000000 0.052137 0.000000
# 2 -0.003248 0.010197 -0.004663 0.000000 -0.001947 0.000000
# 3 0.008865 -0.004663 0.016115 0.000000 0.026090 0.000000
# 4 0.000000 0.000000 0.000000 0.034615 0.000000 0.022836
# 5 0.052137 -0.001947 0.026090 0.000000 0.131309 0.000000
# 6 0.000000 0.000000 0.000000 0.022836 0.000000 0.075678
#
#
# Mechanical properties :
#
#
# Convention : Reuss Voigt Hill
#
# Bulk Modulus (GPa) = 14.85104 52.90132 33.87618
# Shear Modulus (GPa) = 15.26386 29.09138 22.17762
#
# Velocity S-wave (km/s) = 2.85937 3.94748 3.44663
# Velocity P-wave (km/s) = 4.34237 7.00807 5.82963
#
# Compressibility (1/GPa) = 0.06733536
#
# Stress axis : x y z
#
# Youngs Moduli (GPa) = 25.56355 98.06825 62.05522
#
# Poissons Ratio (x) = 0.31857 -0.55009
# Poissons Ratio (y) = 0.08304 0.28939
# Poissons Ratio (z) = -0.22661 0.45733
#
# Static dielectric constant tensor:
#      x y z
#    x 3.236920 0.000000 -0.222370 
#    y 0.000000 3.366860 0.000000 
#    z -0.222370 0.000000 4.039620 
# 
# 
# High freq. dielectric constant tensor:
#      x y z
#    x 1.674910 0.000000 -0.016670 
#    y 0.000000 1.707420 0.000000 
#    z -0.016670 0.000000 1.752190 
# 
# From -- ./inp_files/5599.got.cif
#   From: 2010.06.25/outbox.cif.g09.slc.cpg/sg11_3_cif.got.tgz:5599.got - 2010.06.27 23:14:04.
