data_PCOD8069196
_publ_section_title
;
Structure prediction by ZEFSAII (Michael W. Deem and Ramdas Pophale) SiO2 
 PCOD8069196
Probable space group: P 21/M
;
_chemical_formula_sum "Si O2"
_cell_formula_units_Z 28
_cell_length_a 30.287392
_cell_length_b 8.369582
_cell_length_c 10.191602
_cell_angle_alpha 90.000000
_cell_angle_beta 146.260819
_cell_angle_gamma 90.000000
_cell_volume 1434.908851
_symmetry_space_group_name_H-M "P 21/M"
_symmetry_group_IT_number 11
_symmetry_cell_setting 'monoclinic'
loop_
_space_group_symop_operation_xyz
x,y,z
-x,1/2+y,-z
-x,-y,-z
x,1/2-y,z
loop_
_atom_site_type_symbol
_atom_site_label
_atom_site_fract_x
_atom_site_fract_y
_atom_site_fract_z
Si Si1 0.823171 0.066058 0.081975
Si Si2 0.323212 0.436497 0.707323
Si Si3 0.913212 0.566015 0.540740
Si Si4 0.334839 0.562274 0.446699
Si Si5 0.083966 0.433819 0.927572
Si Si6 0.506265 0.936385 0.871293
Si Si7 0.838848 0.064218 0.620839
O O1 0.828100 0.250000 0.137586
O O2 0.849781 0.956353 0.267979
O O3 0.878577 0.042828 0.092522
O O4 0.732736 0.016081 0.824408
O O5 0.307622 0.250000 0.696264
O O6 0.320260 0.464342 0.543572
O O7 0.255973 0.538483 0.614158
O O8 0.409261 0.497338 0.979843
O O9 0.938244 0.750000 0.613059
O O10 0.875202 0.510821 0.581526
O O11 0.990056 0.461099 0.699151
O O12 0.330497 0.750000 0.471756
O O13 0.421453 0.519402 0.593695
O O14 0.100965 0.250000 0.936009
O O15 0.122620 0.475579 0.161378
O O16 0.517148 0.750000 0.906878
O O17 0.500000 0.000000 0.000000
O O18 0.859634 0.250000 0.678960
#
# Coordination Sequence:
#
# PCOD8069196 Si02
#       7
#     4   4   4   4   4   4   4
#     4  11  22  38  60  87 118 153 191 233 281 334
#     4  10  18  30  52  82 115 147 187 231 279 331
#     4  12  26  43  60  82 113 150 191 236 288 340
#     4   9  17  31  53  80 114 150 187 228 277 330
#     4  12  24  41  63  87 114 146 189 236 284 336
#     4   8  15  27  46  77 112 146 181 227 276 325
#     4  12  24  40  60  84 115 150 190 235 286 341
#
# _framework density 19.513435000000001
#
# number of rings (size 3 to 8) (size 9 to 14) (size 15 to 20)
#    0.000    1.429    1.429    5.571    0.000    1.143 
#    0.000    0.000    0.000    0.857    0.000    0.000 
#    0.000    0.000    0.000    0.000    0.000    0.000 
#
# Total GULP energy -347083.552113 kJ/mol
# GULP energy per Si atom -12395.841147 kJ/mol
# Density = 1.946902 g / cm^3
# Si number density = 19.513435 Si / 1000 Ang^3
#
#
#
# Elastic Constant Matrix: (Units=GPa)
#
#
# Indices 1 2 3 4 5 6 
#
# 1 2640.4239 -500.5027 2071.4012 0.0000 -393.8247 0.0000
# 2 -500.5027 158.3858 -384.6208 0.0000 79.3708 0.0000
# 3 2071.4012 -384.6208 1692.1113 0.0000 -264.7567 0.0000
# 4 0.0000 0.0000 0.0000 25.5344 0.0000 -1.6166
# 5 -393.8247 79.3708 -264.7567 0.0000 102.7766 0.0000
# 6 0.0000 0.0000 0.0000 -1.6166 0.0000 26.8575
#
#
#
# Elastic Compliance Matrix: (Units=1/GPa)
#
#
# Indices 1 2 3 4 5 6 
#
# 1 0.040770 0.004933 -0.041779 0.000000 0.044789 0.000000
# 2 0.004933 0.015991 -0.002309 0.000000 0.000603 0.000000
# 3 -0.041779 -0.002309 0.044293 0.000000 -0.044207 0.000000
# 4 0.000000 0.000000 0.000000 0.039313 0.000000 0.002366
# 5 0.044789 0.000603 -0.044207 0.000000 0.067011 0.000000
# 6 0.000000 0.000000 0.000000 0.002366 0.000000 0.037376
#
#
# Mechanical properties :
#
#
# Convention : Reuss Voigt Hill
#
# Bulk Modulus (GPa) = 43.96863 762.60850 403.28856
# Shear Modulus (GPa) = 15.12189 251.34324 133.23257
#
# Velocity S-wave (km/s) = 2.78681 11.36155 8.27198
# Velocity P-wave (km/s) = 5.73903 23.74392 17.27296
#
# Compressibility (1/GPa) = 0.02274349
#
# Stress axis : x y z
#
# Youngs Moduli (GPa) = 24.52807 62.53346 22.57682
#
# Poissons Ratio (x) = -0.30845 0.94324
# Poissons Ratio (y) = -0.12099 0.05213
# Poissons Ratio (z) = 1.02476 0.14438
#
# Static dielectric constant tensor:
#      x y z
#    x 3.511640 0.000000 0.598690 
#    y 0.000000 3.516870 0.000000 
#    z 0.598690 0.000000 3.924410 
# 
# 
# High freq. dielectric constant tensor:
#      x y z
#    x 1.738170 0.000000 0.035030 
#    y 0.000000 1.766860 0.000000 
#    z 0.035030 0.000000 1.766140 
# 
# From -- ./inp_files/28613.got.cif
#   From: 2010.06.25/outbox.cif.g09.slc.cpg/sg11_15_cif.got.tgz:28613.got - 2010.06.27 23:14:04.
