data_PCOD8069713
_publ_section_title
;
Structure prediction by ZEFSAII (Michael W. Deem and Ramdas Pophale) SiO2 
 PCOD8069713
Probable space group: P 21/M
;
_chemical_formula_sum "Si O2"
_cell_formula_units_Z 28
_cell_length_a 9.092648
_cell_length_b 16.695524
_cell_length_c 20.361009
_cell_angle_alpha 90.000000
_cell_angle_beta 149.714670
_cell_angle_gamma 90.000000
_cell_volume 1558.778232
_symmetry_space_group_name_H-M "P 21/M"
_symmetry_group_IT_number 11
_symmetry_cell_setting 'monoclinic'
loop_
_space_group_symop_operation_xyz
x,y,z
-x,1/2+y,-z
-x,-y,-z
x,1/2-y,z
loop_
_atom_site_type_symbol
_atom_site_label
_atom_site_fract_x
_atom_site_fract_y
_atom_site_fract_z
Si Si1 0.661236 0.054787 0.256855
Si Si2 0.984668 0.657909 0.529963
Si Si3 0.020282 0.845910 0.290708
Si Si4 0.489482 0.960778 0.066900
Si Si5 0.583728 0.072131 0.664359
Si Si6 0.892755 0.974044 0.888278
Si Si7 0.150593 0.933342 0.470906
O O1 0.395946 0.076092 0.204791
O O2 0.877044 0.131566 0.345800
O O3 0.567429 0.034445 0.146461
O O4 0.841929 0.979287 0.354607
O O5 0.016519 0.750000 0.531271
O O6 0.648300 0.633723 0.395240
O O7 0.175976 0.615019 0.547919
O O8 0.990771 0.750000 0.274793
O O9 0.239475 0.879829 0.321714
O O10 0.153992 0.871070 0.412170
O O11 0.703499 0.885632 0.156943
O O12 0.161502 0.928039 0.956199
O O13 0.500000 0.000000 0.000000
O O14 0.805518 0.048125 0.807777
O O15 0.425067 0.994120 0.571499
O O16 0.000000 0.000000 0.000000
#
# Coordination Sequence:
#
# PCOD8069713 Si02
#       7
#     4   4   4   4   4   4   4
#     4   9  18  35  55  79 108 136 186 229 264 328
#     4  11  20  33  55  85 115 142 174 232 290 323
#     4  11  23  37  53  83 116 142 183 241 281 315
#     4  10  20  35  59  78 102 150 193 218 263 330
#     4  11  19  36  59  82 109 144 190 224 270 342
#     4  10  18  33  59  81 101 136 192 229 255 314
#     4  10  19  35  58  82 106 147 185 223 273 343
#
# _framework density 17.962786000000001
#
# number of rings (size 3 to 8) (size 9 to 14) (size 15 to 20)
#    0.000    1.714    4.286    2.143    0.000    0.000 
#    0.000    1.429    0.000    0.000    0.000    0.000 
#    0.000    0.000    0.000    0.000    0.000    0.000 
#
# Total GULP energy -346920.126482 kJ/mol
# GULP energy per Si atom -12390.004517 kJ/mol
# Density = 1.792190 g / cm^3
# Si number density = 17.962786 Si / 1000 Ang^3
#
#
#
# Elastic Constant Matrix: (Units=GPa)
#
#
# Indices 1 2 3 4 5 6 
#
# 1 110.2273 49.5683 50.1360 0.0000 3.4184 0.0000
# 2 49.5683 102.1472 43.6630 0.0000 2.5704 0.0000
# 3 50.1360 43.6630 97.4797 0.0000 -4.5884 0.0000
# 4 0.0000 0.0000 0.0000 18.6104 0.0000 2.4526
# 5 3.4184 2.5704 -4.5884 0.0000 30.4641 0.0000
# 6 0.0000 0.0000 0.0000 2.4526 0.0000 18.7754
#
#
#
# Elastic Compliance Matrix: (Units=1/GPa)
#
#
# Indices 1 2 3 4 5 6 
#
# 1 0.013345 -0.004274 -0.005038 0.000000 -0.001896 0.000000
# 2 -0.004274 0.013582 -0.003944 0.000000 -0.001260 0.000000
# 3 -0.005038 -0.003944 0.014763 0.000000 0.003122 0.000000
# 4 0.000000 0.000000 0.000000 0.054675 0.000000 -0.007142
# 5 -0.001896 -0.001260 0.003122 0.000000 0.033615 0.000000
# 6 0.000000 0.000000 0.000000 -0.007142 0.000000 0.054194
#
#
# Mechanical properties :
#
#
# Convention : Reuss Voigt Hill
#
# Bulk Modulus (GPa) = 65.89339 66.28761 66.09050
# Shear Modulus (GPa) = 23.17540 24.66910 23.92225
#
# Velocity S-wave (km/s) = 3.59582 3.70989 3.65330
# Velocity P-wave (km/s) = 7.34866 7.43867 7.39380
#
# Compressibility (1/GPa) = 0.01517603
#
# Stress axis : x y z
#
# Youngs Moduli (GPa) = 74.93637 73.62798 67.73475
#
# Poissons Ratio (x) = 0.31472 0.34125
# Poissons Ratio (y) = 0.32031 0.26718
# Poissons Ratio (z) = 0.37754 0.29042
#
# Static dielectric constant tensor:
#      x y z
#    x 3.729530 0.000000 0.302520 
#    y 0.000000 3.036360 0.000000 
#    z 0.302520 0.000000 4.047310 
# 
# 
# High freq. dielectric constant tensor:
#      x y z
#    x 1.707230 0.000000 0.002300 
#    y 0.000000 1.653880 0.000000 
#    z 0.002300 0.000000 1.713740 
# 
# From -- ./inp_files/22093.got.cif
#   From: 2010.06.25/outbox.cif.g09.slc.cpg/sg11_12_cif.got.tgz:22093.got - 2010.06.27 23:14:04.
