data_PCOD8069006
_publ_section_title
;
Structure prediction by ZEFSAII (Michael W. Deem and Ramdas Pophale) SiO2 
 PCOD8069006
Probable space group: P 21/M
;
_chemical_formula_sum "Si O2"
_cell_formula_units_Z 32
_cell_length_a 19.232062
_cell_length_b 8.509239
_cell_length_c 11.144193
_cell_angle_alpha 90.000000
_cell_angle_beta 96.020618
_cell_angle_gamma 90.000000
_cell_volume 1813.690139
_symmetry_space_group_name_H-M "P 21/M"
_symmetry_group_IT_number 11
_symmetry_cell_setting 'monoclinic'
loop_
_space_group_symop_operation_xyz
x,y,z
-x,1/2+y,-z
-x,-y,-z
x,1/2-y,z
loop_
_atom_site_type_symbol
_atom_site_label
_atom_site_fract_x
_atom_site_fract_y
_atom_site_fract_z
Si Si1 0.871717 0.434874 0.310467
Si Si2 0.980941 0.564644 0.626580
Si Si3 0.724224 0.065998 0.231427
Si Si4 0.534573 0.568960 0.821567
Si Si5 0.841819 0.434433 0.571394
Si Si6 0.596104 0.568735 0.085275
Si Si7 0.432924 0.566731 0.421265
Si Si8 0.296182 0.433010 0.511204
O O1 0.866945 0.250000 0.322443
O O2 0.805105 0.489255 0.218326
O O3 0.860236 0.499348 0.442503
O O4 0.950170 0.481139 0.278491
O O5 0.970911 0.750000 0.619633
O O6 0.908933 0.488094 0.664530
O O7 0.000000 0.500000 0.500000
O O8 0.713825 0.250000 0.205483
O O9 0.675979 0.969652 0.131589
O O10 0.705427 0.031571 0.366127
O O11 0.541008 0.750000 0.783684
O O12 0.453956 0.534819 0.839528
O O13 0.559461 0.457868 0.719318
O O14 0.583568 0.528331 0.943850
O O15 0.831375 0.250000 0.582793
O O16 0.768229 0.518277 0.589068
O O17 0.579247 0.750000 0.107736
O O18 0.500000 0.500000 0.500000
O O19 0.423893 0.750000 0.448144
O O20 0.366522 0.470805 0.454010
O O21 0.293285 0.250000 0.542069
#
# Coordination Sequence:
#
# PCOD8069006 Si02
#       8
#     4   4   4   4   4   4   4   4
#     4   7  13  23  36  56  84 117 152 188 224 267
#     4   9  14  22  36  55  81 116 155 192 230 272
#     4  10  18  30  47  68  96 128 160 194 234 277
#     4  10  21  37  54  72  94 121 156 195 234 277
#     4   9  16  27  40  58  85 118 155 192 232 276
#     4  10  20  34  52  73  96 122 154 193 235 279
#     4  12  24  38  54  72  96 124 156 193 235 280
#     4  11  21  33  48  68  94 125 161 196 235 281
#
# _framework density 17.643587
#
# number of rings (size 3 to 8) (size 9 to 14) (size 15 to 20)
#    0.000    2.250    0.000    6.375    0.000    1.500 
#    0.000    1.875    0.000    0.000    0.000    0.000 
#    0.000    1.000    0.000    3.000    0.000    6.250 
#
# Total GULP energy -396517.525002 kJ/mol
# GULP energy per Si atom -12391.172656 kJ/mol
# Density = 1.760343 g / cm^3
# Si number density = 17.643587 Si / 1000 Ang^3
#
#
#
# Elastic Constant Matrix: (Units=GPa)
#
#
# Indices 1 2 3 4 5 6 
#
# 1 160.3459 26.3240 34.5230 0.0000 26.0954 0.0000
# 2 26.3240 64.9771 11.2977 0.0000 3.9009 0.0000
# 3 34.5230 11.2977 45.5113 0.0000 9.6635 0.0000
# 4 0.0000 0.0000 0.0000 18.9663 0.0000 2.4926
# 5 26.0954 3.9009 9.6635 0.0000 18.7949 0.0000
# 6 0.0000 0.0000 0.0000 2.4926 0.0000 30.6765
#
#
#
# Elastic Compliance Matrix: (Units=1/GPa)
#
#
# Indices 1 2 3 4 5 6 
#
# 1 0.009177 -0.002377 -0.004233 0.000000 -0.010072 0.000000
# 2 -0.002377 0.016735 -0.002598 0.000000 0.001163 0.000000
# 3 -0.004233 -0.002598 0.027464 0.000000 -0.007705 0.000000
# 4 0.000000 0.000000 0.000000 0.053294 0.000000 -0.004330
# 5 -0.010072 0.001163 -0.007705 0.000000 0.070911 0.000000
# 6 0.000000 0.000000 0.000000 -0.004330 0.000000 0.032950
#
#
# Mechanical properties :
#
#
# Convention : Reuss Voigt Hill
#
# Bulk Modulus (GPa) = 28.60357 46.12485 37.36421
# Shear Modulus (GPa) = 20.78126 26.93351 23.85739
#
# Velocity S-wave (km/s) = 3.43569 3.91133 3.68120
# Velocity P-wave (km/s) = 5.65559 6.82622 6.26829
#
# Compressibility (1/GPa) = 0.03496067
#
# Stress axis : x y z
#
# Youngs Moduli (GPa) = 108.96404 59.75484 36.41098
#
# Poissons Ratio (x) = 0.14206 0.15412
# Poissons Ratio (y) = 0.25905 0.09459
# Poissons Ratio (z) = 0.46121 0.15524
#
# Static dielectric constant tensor:
#      x y z
#    x 4.019910 0.000000 0.358700 
#    y 0.000000 3.270720 0.000000 
#    z 0.358700 0.000000 2.820960 
# 
# 
# High freq. dielectric constant tensor:
#      x y z
#    x 1.705060 0.000000 0.027730 
#    y 0.000000 1.690100 0.000000 
#    z 0.027730 0.000000 1.611060 
# 
# From -- ./inp_files/40700.got.cif
#   From: 2010.06.25/outbox.cif.g09.slc.cpg/sg11_21_cif.got.tgz:40700.got - 2010.06.27 23:14:04.
