data_PCOD8069911
_publ_section_title
;
Structure prediction by ZEFSAII (Michael W. Deem and Ramdas Pophale) SiO2 
 PCOD8069911
Probable space group: P 21/M
;
_chemical_formula_sum "Si O2"
_cell_formula_units_Z 24
_cell_length_a 14.823872
_cell_length_b 14.107002
_cell_length_c 8.692524
_cell_angle_alpha 90.000000
_cell_angle_beta 137.473844
_cell_angle_gamma 90.000000
_cell_volume 1228.688777
_symmetry_space_group_name_H-M "P 21/M"
_symmetry_group_IT_number 11
_symmetry_cell_setting 'monoclinic'
loop_
_space_group_symop_operation_xyz
x,y,z
-x,1/2+y,-z
-x,-y,-z
x,1/2-y,z
loop_
_atom_site_type_symbol
_atom_site_label
_atom_site_fract_x
_atom_site_fract_y
_atom_site_fract_z
Si Si1 0.390149 0.750000 0.711344
Si Si2 0.692348 0.613745 0.595184
Si Si3 0.188139 0.250000 0.721955
Si Si4 0.004063 0.856844 0.937498
Si Si5 0.222762 0.934426 0.429309
Si Si6 0.933019 0.940575 0.548111
Si Si7 0.422894 0.250000 0.786001
Si Si8 0.634161 0.750000 0.783252
O O1 0.301394 0.842335 0.576623
O O2 0.505490 0.750000 0.729257
O O3 0.435260 0.750000 0.947177
O O4 0.687926 0.499191 0.575579
O O5 0.598901 0.656537 0.343534
O O6 0.634188 0.653700 0.681763
O O7 0.845552 0.647097 0.767995
O O8 0.106901 0.343206 0.581508
O O9 0.323194 0.250000 0.800329
O O10 0.226776 0.250000 0.949701
O O11 0.058622 0.750000 0.990418
O O12 0.032139 0.913605 0.813751
O O13 0.082221 0.908676 0.172655
O O14 0.190980 0.998698 0.539492
O O15 0.000000 0.000000 0.500000
#
# Coordination Sequence:
#
# PCOD8069911 Si02
#       8
#     2   4   2   4   4   4   2   2
#     4  11  26  42  56  93 124 161 207 254 308 352
#     4  10  19  40  67  90 110 162 210 242 303 371
#     4  11  20  38  56  88 125 150 206 260 283 359
#     4  11  19  39  65  92 126 160 191 254 313 374
#     4  11  24  40  63  90 129 162 197 250 320 369
#     4  11  23  37  61  96 125 159 201 247 316 369
#     4  10  18  41  63  79 115 163 207 248 289 354
#     4  10  24  37  63  88 114 160 214 252 290 353
#
# _framework density 19.533018999999999
#
# number of rings (size 3 to 8) (size 9 to 14) (size 15 to 20)
#    0.000    1.333    6.667    2.000    4.667    2.000 
#    0.000    3.333    0.000    0.000    0.000    0.000 
#    0.000    0.000    0.000    0.000    0.000    0.000 
#
# Total GULP energy -297450.591978 kJ/mol
# GULP energy per Si atom -12393.774666 kJ/mol
# Density = 1.948856 g / cm^3
# Si number density = 19.533019 Si / 1000 Ang^3
#
#
#
# Elastic Constant Matrix: (Units=GPa)
#
#
# Indices 1 2 3 4 5 6 
#
# 1 74.0798 40.7566 35.6326 0.0000 -15.9849 0.0000
# 2 40.7566 170.3593 64.9732 0.0000 -4.6752 0.0000
# 3 35.6326 64.9732 139.5382 0.0000 -14.3524 0.0000
# 4 0.0000 0.0000 0.0000 47.0447 0.0000 -40.7604
# 5 -15.9849 -4.6752 -14.3524 0.0000 22.2274 0.0000
# 6 0.0000 0.0000 0.0000 -40.7604 0.0000 103.5100
#
#
#
# Elastic Compliance Matrix: (Units=1/GPa)
#
#
# Indices 1 2 3 4 5 6 
#
# 1 0.018843 -0.003415 -0.002037 0.000000 0.011517 0.000000
# 2 -0.003415 0.007766 -0.003030 0.000000 -0.002779 0.000000
# 3 -0.002037 -0.003030 0.009513 0.000000 0.004040 0.000000
# 4 0.000000 0.000000 0.000000 0.032264 0.000000 0.012705
# 5 0.011517 -0.002779 0.004040 0.000000 0.055297 0.000000
# 6 0.000000 0.000000 0.000000 0.012705 0.000000 0.014664
#
#
# Mechanical properties :
#
#
# Convention : Reuss Voigt Hill
#
# Bulk Modulus (GPa) = 52.19675 74.07802 63.13738
# Shear Modulus (GPa) = 30.92204 50.73074 40.82639
#
# Velocity S-wave (km/s) = 3.98309 5.10178 4.57674
# Velocity P-wave (km/s) = 6.92342 8.52708 7.76675
#
# Compressibility (1/GPa) = 0.01915828
#
# Stress axis : x y z
#
# Youngs Moduli (GPa) = 53.07079 128.76160 105.11820
#
# Poissons Ratio (x) = 0.43972 0.21412
# Poissons Ratio (y) = 0.18124 0.31851
# Poissons Ratio (z) = 0.10810 0.39015
#
# Static dielectric constant tensor:
#      x y z
#    x 3.353020 0.000000 -0.336990 
#    y 0.000000 3.773690 0.000000 
#    z -0.336990 0.000000 3.859970 
# 
# 
# High freq. dielectric constant tensor:
#      x y z
#    x 1.731640 0.000000 -0.023940 
#    y 0.000000 1.781150 0.000000 
#    z -0.023940 0.000000 1.759100 
# 
# From -- ./inp_files/22378.got.cif
#   From: 2010.06.25/outbox.cif.g09.slc.cpg/sg11_12_cif.got.tgz:22378.got - 2010.06.27 23:14:04.
