data_PCOD8069577
_publ_section_title
;
Structure prediction by ZEFSAII (Michael W. Deem and Ramdas Pophale) SiO2 
 PCOD8069577
Probable space group: P 21/M
;
_chemical_formula_sum "Si O2"
_cell_formula_units_Z 28
_cell_length_a 11.579605
_cell_length_b 9.287670
_cell_length_c 15.147050
_cell_angle_alpha 90.000000
_cell_angle_beta 115.775670
_cell_angle_gamma 90.000000
_cell_volume 1466.945531
_symmetry_space_group_name_H-M "P 21/M"
_symmetry_group_IT_number 11
_symmetry_cell_setting 'monoclinic'
loop_
_space_group_symop_operation_xyz
x,y,z
-x,1/2+y,-z
-x,-y,-z
x,1/2-y,z
loop_
_atom_site_type_symbol
_atom_site_label
_atom_site_fract_x
_atom_site_fract_y
_atom_site_fract_z
Si Si1 0.170919 0.413526 0.354807
Si Si2 0.017904 0.418006 0.136034
Si Si3 0.476347 0.419375 0.082572
Si Si4 0.546172 0.913901 0.598536
Si Si5 0.188199 0.082396 0.029606
Si Si6 0.128705 0.579482 0.516504
Si Si7 0.620203 0.419497 0.298595
O O1 0.150935 0.250000 0.383632
O O2 0.059036 0.456604 0.249511
O O3 0.301135 0.423433 0.341769
O O4 0.175128 0.523975 0.436978
O O5 0.990193 0.250000 0.117546
O O6 0.129493 0.465046 0.104466
O O7 0.886142 0.500765 0.073430
O O8 0.489038 0.250000 0.069187
O O9 0.337331 0.459009 0.075915
O O10 0.582413 0.476358 0.188659
O O11 0.500000 0.500000 0.000000
O O12 0.499721 0.750000 0.570811
O O13 0.480155 0.982592 0.663181
O O14 0.500000 0.000000 0.500000
O O15 0.167987 0.250000 0.006045
O O16 0.106498 0.750000 0.504246
O O17 0.234948 0.539131 0.625746
O O18 0.000000 0.500000 0.500000
O O19 0.601160 0.250000 0.290729
#
# Coordination Sequence:
#
# PCOD8069577 Si02
#       7
#     4   4   4   4   4   4   4
#     4  10  20  34  55  83 112 143 179 221 272 330
#     4   9  18  33  55  81 110 144 178 218 272 332
#     4  10  21  38  58  79 106 142 186 229 271 322
#     4  10  18  32  56  84 111 139 177 222 271 324
#     4   9  18  34  55  80 108 140 180 228 277 321
#     4  11  23  39  57  78 108 146 186 223 266 323
#     4   9  19  37  59  80 107 145 181 220 275 333
#
# _framework density 19.087278999999999
#
# number of rings (size 3 to 8) (size 9 to 14) (size 15 to 20)
#    0.000    2.286    1.429    1.286    0.000    5.714 
#    0.000    6.429    0.000    3.429    0.000    0.000 
#    0.000    0.000    0.000    0.000    0.000    0.000 
#
# Total GULP energy -347167.187677 kJ/mol
# GULP energy per Si atom -12398.828131 kJ/mol
# Density = 1.904384 g / cm^3
# Si number density = 19.087279 Si / 1000 Ang^3
#
#
#
# Elastic Constant Matrix: (Units=GPa)
#
#
# Indices 1 2 3 4 5 6 
#
# 1 96.3841 39.0634 58.2649 0.0000 7.3223 0.0000
# 2 39.0634 55.8578 52.3403 0.0000 7.1861 0.0000
# 3 58.2649 52.3403 163.7135 0.0000 12.2755 0.0000
# 4 0.0000 0.0000 0.0000 31.2236 0.0000 -0.6967
# 5 7.3223 7.1861 12.2755 0.0000 30.2589 0.0000
# 6 0.0000 0.0000 0.0000 -0.6967 0.0000 30.0366
#
#
#
# Elastic Compliance Matrix: (Units=1/GPa)
#
#
# Indices 1 2 3 4 5 6 
#
# 1 0.015404 -0.007991 -0.002878 0.000000 -0.000662 0.000000
# 2 -0.007991 0.029944 -0.006540 0.000000 -0.002524 0.000000
# 3 -0.002878 -0.006540 0.009339 0.000000 -0.001539 0.000000
# 4 0.000000 0.000000 0.000000 0.032044 0.000000 0.000743
# 5 -0.000662 -0.002524 -0.001539 0.000000 0.034432 0.000000
# 6 0.000000 0.000000 0.000000 0.000743 0.000000 0.033310
#
#
# Mechanical properties :
#
#
# Convention : Reuss Voigt Hill
#
# Bulk Modulus (GPa) = 50.32920 68.36583 59.34751
# Shear Modulus (GPa) = 25.52169 29.38960 27.45565
#
# Velocity S-wave (km/s) = 3.66061 3.92822 3.79677
# Velocity P-wave (km/s) = 6.65522 7.51464 7.09795
#
# Compressibility (1/GPa) = 0.01986918
#
# Stress axis : x y z
#
# Youngs Moduli (GPa) = 64.91993 33.39602 107.08084
#
# Poissons Ratio (x) = 0.26685 0.30816
# Poissons Ratio (y) = 0.51874 0.70032
# Poissons Ratio (z) = 0.18683 0.21841
#
# Static dielectric constant tensor:
#      x y z
#    x 3.668140 0.000000 0.122630 
#    y 0.000000 3.337970 0.000000 
#    z 0.122630 0.000000 3.706030 
# 
# 
# High freq. dielectric constant tensor:
#      x y z
#    x 1.742610 0.000000 0.007410 
#    y 0.000000 1.719480 0.000000 
#    z 0.007410 0.000000 1.749960 
# 
# From -- ./inp_files/37507.got.cif
#   From: 2010.06.25/outbox.cif.g09.slc.cpg/sg11_19_cif.got.tgz:37507.got - 2010.06.27 23:14:04.
