data_PCOD8069675
_publ_section_title
;
Structure prediction by ZEFSAII (Michael W. Deem and Ramdas Pophale) SiO2 
 PCOD8069675
Probable space group: P 21/M
;
_chemical_formula_sum "Si O2"
_cell_formula_units_Z 24
_cell_length_a 9.360578
_cell_length_b 15.012805
_cell_length_c 11.429735
_cell_angle_alpha 90.000000
_cell_angle_beta 122.289223
_cell_angle_gamma 90.000000
_cell_volume 1357.824252
_symmetry_space_group_name_H-M "P 21/M"
_symmetry_group_IT_number 11
_symmetry_cell_setting 'monoclinic'
loop_
_space_group_symop_operation_xyz
x,y,z
-x,1/2+y,-z
-x,-y,-z
x,1/2-y,z
loop_
_atom_site_type_symbol
_atom_site_label
_atom_site_fract_x
_atom_site_fract_y
_atom_site_fract_z
Si Si1 0.202271 0.750000 0.994857
Si Si2 0.674269 0.597153 0.729165
Si Si3 0.976688 0.603456 0.009319
Si Si4 0.788261 0.405040 0.692660
Si Si5 0.858686 0.250000 0.293982
Si Si6 0.747578 0.750000 0.580774
Si Si7 0.570275 0.250000 0.696095
Si Si8 0.692296 0.349161 0.412920
O O1 0.237028 0.750000 0.871872
O O2 0.097308 0.660957 0.977905
O O3 0.379378 0.750000 0.143849
O O4 0.783394 0.627064 0.891609
O O5 0.730019 0.501432 0.708167
O O6 0.707812 0.662926 0.637643
O O7 0.479527 0.595840 0.683691
O O8 0.000000 0.500000 0.000000
O O9 0.032353 0.623095 0.168216
O O10 0.642369 0.337945 0.666975
O O11 0.806830 0.399439 0.560275
O O12 0.799019 0.338767 0.339361
O O13 0.058813 0.250000 0.372642
O O14 0.631896 0.750000 0.412719
O O15 0.642738 0.250000 0.437866
#
# Coordination Sequence:
#
# PCOD8069675 Si02
#       8
#     2   4   4   4   2   2   2   4
#     4  10  18  34  55  73 108 152 160 215 285 305
#     4  11  18  32  59  83 103 137 186 223 259 309
#     4   9  19  30  54  87 106 128 183 229 258 306
#     4  10  18  33  56  83 109 134 174 236 268 295
#     4  10  22  36  54  72 117 147 172 212 274 336
#     4  12  19  34  52  82 103 138 187 219 250 328
#     4  10  19  32  53  81 106 131 187 222 263 309
#     4  10  20  35  52  79 108 139 175 221 266 314
#
# _framework density 17.675335
#
# number of rings (size 3 to 8) (size 9 to 14) (size 15 to 20)
#    0.500    1.333    5.000    0.500    0.000    0.000 
#    0.000    2.500    0.000    9.000    0.000    0.000 
#    0.000    0.000    0.000    0.000    0.000    0.000 
#
# Total GULP energy -297351.712017 kJ/mol
# GULP energy per Si atom -12389.654667 kJ/mol
# Density = 1.763510 g / cm^3
# Si number density = 17.675335 Si / 1000 Ang^3
#
#
#
# Elastic Constant Matrix: (Units=GPa)
#
#
# Indices 1 2 3 4 5 6 
#
# 1 77.8112 21.2529 63.8353 0.0000 -2.1975 0.0000
# 2 21.2529 83.1599 26.1323 0.0000 -4.7466 0.0000
# 3 63.8353 26.1323 187.7912 0.0000 13.7895 0.0000
# 4 0.0000 0.0000 0.0000 24.6880 0.0000 2.8436
# 5 -2.1975 -4.7466 13.7895 0.0000 25.3040 0.0000
# 6 0.0000 0.0000 0.0000 2.8436 0.0000 11.0094
#
#
#
# Elastic Compliance Matrix: (Units=1/GPa)
#
#
# Indices 1 2 3 4 5 6 
#
# 1 0.018959 -0.002557 -0.006432 0.000000 0.004672 0.000000
# 2 -0.002557 0.013216 -0.001183 0.000000 0.002902 0.000000
# 3 -0.006432 -0.001183 0.008056 0.000000 -0.005170 0.000000
# 4 0.000000 0.000000 0.000000 0.041748 0.000000 -0.010783
# 5 0.004672 0.002902 -0.005170 0.000000 0.043287 0.000000
# 6 0.000000 0.000000 0.000000 -0.010783 0.000000 0.093616
#
#
# Mechanical properties :
#
#
# Convention : Reuss Voigt Hill
#
# Bulk Modulus (GPa) = 50.28593 63.46703 56.87648
# Shear Modulus (GPa) = 20.33730 28.03639 24.18685
#
# Velocity S-wave (km/s) = 3.39573 3.98702 3.70320
# Velocity P-wave (km/s) = 6.62467 7.56176 7.10867
#
# Compressibility (1/GPa) = 0.01988628
#
# Stress axis : x y z
#
# Youngs Moduli (GPa) = 52.74665 75.66626 124.13700
#
# Poissons Ratio (x) = 0.19351 0.79841
# Poissons Ratio (y) = 0.13490 0.14683
# Poissons Ratio (z) = 0.33925 0.08950
#
# Static dielectric constant tensor:
#      x y z
#    x 2.872480 0.000000 0.267590 
#    y 0.000000 3.350930 0.000000 
#    z 0.267590 0.000000 3.983660 
# 
# 
# High freq. dielectric constant tensor:
#      x y z
#    x 1.624760 0.000000 0.019500 
#    y 0.000000 1.689450 0.000000 
#    z 0.019500 0.000000 1.711950 
# 
# From -- ./inp_files/32124.got.cif
#   From: 2010.06.25/outbox.cif.g09.slc.cpg/sg11_17_cif.got.tgz:32124.got - 2010.06.27 23:14:04.
