data_PCOD8069639
_publ_section_title
;
Structure prediction by ZEFSAII (Michael W. Deem and Ramdas Pophale) SiO2 
 PCOD8069639
Probable space group: P 21/M
;
_chemical_formula_sum "Si O2"
_cell_formula_units_Z 24
_cell_length_a 15.370494
_cell_length_b 10.189164
_cell_length_c 15.331747
_cell_angle_alpha 90.000000
_cell_angle_beta 149.989556
_cell_angle_gamma 90.000000
_cell_volume 1200.950519
_symmetry_space_group_name_H-M "P 21/M"
_symmetry_group_IT_number 11
_symmetry_cell_setting 'monoclinic'
loop_
_space_group_symop_operation_xyz
x,y,z
-x,1/2+y,-z
-x,-y,-z
x,1/2-y,z
loop_
_atom_site_type_symbol
_atom_site_label
_atom_site_fract_x
_atom_site_fract_y
_atom_site_fract_z
Si Si1 0.015730 0.606182 0.892834
Si Si2 0.259484 0.540408 0.250302
Si Si3 0.776206 0.403847 0.461668
Si Si4 0.446345 0.892504 0.574878
Si Si5 0.128596 0.097151 0.845908
Si Si6 0.501522 0.403985 0.082724
O O1 0.014416 0.750000 0.845915
O O2 0.098743 0.495565 0.903029
O O3 0.822823 0.569558 0.756926
O O4 0.119967 0.620865 0.074419
O O5 0.383507 0.480009 0.284141
O O6 0.364726 0.631677 0.408196
O O7 0.755548 0.250000 0.442537
O O8 0.687656 0.459493 0.473275
O O9 0.982227 0.441151 0.644756
O O10 0.668104 0.454300 0.283894
O O11 0.502369 0.750000 0.660086
O O12 0.101839 0.250000 0.850158
O O13 0.321893 0.073562 0.978571
O O14 0.518285 0.250000 0.070064
O O15 0.500000 0.500000 0.000000
#
# Coordination Sequence:
#
# PCOD8069639 Si02
#       6
#     4   4   4   4   4   4
#     4  11  22  35  52  82 119 154 194 243 290 332
#     4  10  21  32  50  77 114 156 197 238 284 332
#     4   9  18  35  59  83 110 147 190 232 278 339
#     4  10  18  33  54  77 106 150 200 238 275 326
#     4  10  21  39  62  84 112 153 195 233 283 349
#     4  10  22  40  63  89 114 142 183 232 290 357
#
# _framework density 19.984172000000001
#
# number of rings (size 3 to 8) (size 9 to 14) (size 15 to 20)
#    0.000    2.000    1.667    2.000    0.000    6.000 
#    0.000    0.833    0.000    0.000    0.000    0.000 
#    0.000    0.000    0.000    0.000    0.000    0.000 
#
# Total GULP energy -297335.611142 kJ/mol
# GULP energy per Si atom -12388.983798 kJ/mol
# Density = 1.993869 g / cm^3
# Si number density = 19.984172 Si / 1000 Ang^3
#
#
#
# Elastic Constant Matrix: (Units=GPa)
#
#
# Indices 1 2 3 4 5 6 
#
# 1 57.0104 30.7110 20.2415 0.0000 -4.1627 0.0000
# 2 30.7110 84.5930 17.7507 0.0000 -1.5768 0.0000
# 3 20.2415 17.7507 106.6552 0.0000 -6.9646 0.0000
# 4 0.0000 0.0000 0.0000 11.8851 0.0000 -4.3949
# 5 -4.1627 -1.5768 -6.9646 0.0000 31.0633 0.0000
# 6 0.0000 0.0000 0.0000 -4.3949 0.0000 30.1622
#
#
#
# Elastic Compliance Matrix: (Units=1/GPa)
#
#
# Indices 1 2 3 4 5 6 
#
# 1 0.022845 -0.007641 -0.002932 0.000000 0.002016 0.000000
# 2 -0.007641 0.014806 -0.001047 0.000000 -0.000507 0.000000
# 3 -0.002932 -0.001047 0.010227 0.000000 0.001847 0.000000
# 4 0.000000 0.000000 0.000000 0.088930 0.000000 0.012958
# 5 0.002016 -0.000507 0.001847 0.000000 0.032851 0.000000
# 6 0.000000 0.000000 0.000000 0.012958 0.000000 0.035042
#
#
# Mechanical properties :
#
#
# Convention : Reuss Voigt Hill
#
# Bulk Modulus (GPa) = 40.58864 42.85166 41.72015
# Shear Modulus (GPa) = 21.17259 26.59249 23.88254
#
# Velocity S-wave (km/s) = 3.25848 3.65180 3.46073
# Velocity P-wave (km/s) = 5.87464 6.26660 6.07378
#
# Compressibility (1/GPa) = 0.02463744
#
# Stress axis : x y z
#
# Youngs Moduli (GPa) = 43.77317 67.54233 97.77668
#
# Poissons Ratio (x) = 0.51608 0.28671
# Poissons Ratio (y) = 0.33446 0.10238
# Poissons Ratio (z) = 0.12836 0.07072
#
# Static dielectric constant tensor:
#      x y z
#    x 3.461600 0.000000 0.071130 
#    y 0.000000 3.360320 0.000000 
#    z 0.071130 0.000000 4.007920 
# 
# 
# High freq. dielectric constant tensor:
#      x y z
#    x 1.758060 0.000000 0.008480 
#    y 0.000000 1.752440 0.000000 
#    z 0.008480 0.000000 1.799490 
# 
# From -- ./inp_files/27549.got.cif
#   From: 2010.06.25/outbox.cif.g09.slc.cpg/sg11_14_cif.got.tgz:27549.got - 2010.06.27 23:14:04.
