data_PCOD8069322
_publ_section_title
;
Structure prediction by ZEFSAII (Michael W. Deem and Ramdas Pophale) SiO2 
 PCOD8069322
Probable space group: P 21/M
;
_chemical_formula_sum "Si O2"
_cell_formula_units_Z 32
_cell_length_a 11.927221
_cell_length_b 18.816531
_cell_length_c 9.979600
_cell_angle_alpha 90.000000
_cell_angle_beta 120.630444
_cell_angle_gamma 90.000000
_cell_volume 1927.207224
_symmetry_space_group_name_H-M "P 21/M"
_symmetry_group_IT_number 11
_symmetry_cell_setting 'monoclinic'
loop_
_space_group_symop_operation_xyz
x,y,z
-x,1/2+y,-z
-x,-y,-z
x,1/2-y,z
loop_
_atom_site_type_symbol
_atom_site_label
_atom_site_fract_x
_atom_site_fract_y
_atom_site_fract_z
Si Si1 0.715727 0.331562 0.213596
Si Si2 0.164014 0.465612 0.281914
Si Si3 0.507794 0.560127 0.895362
Si Si4 0.103622 0.592473 0.885548
Si Si5 0.400763 0.529600 0.546797
Si Si6 0.057627 0.617403 0.151066
Si Si7 0.211492 0.061600 0.019113
Si Si8 0.262821 0.828759 0.468768
O O1 0.685522 0.250000 0.162662
O O2 0.579725 0.373103 0.116119
O O3 0.821878 0.359936 0.175548
O O4 0.773878 0.341799 0.398304
O O5 0.269412 0.481232 0.462209
O O6 0.097157 0.536603 0.190731
O O7 0.044623 0.416988 0.260886
O O8 0.234832 0.434074 0.193653
O O9 0.459248 0.523385 0.729158
O O10 0.500000 0.500000 0.000000
O O11 0.655852 0.587318 0.970443
O O12 0.178253 0.517811 0.948231
O O13 0.094169 0.636443 0.019598
O O14 0.500000 0.500000 0.500000
O O15 0.366294 0.611393 0.485934
O O16 0.131436 0.668097 0.300320
O O17 0.902197 0.618646 0.085149
O O18 0.324681 0.750000 0.488062
#
# Coordination Sequence:
#
# PCOD8069322 Si02
#       8
#     4   4   4   4   4   4   4   4
#     4  10  21  35  49  69 100 137 167 202 251 303
#     4   8  15  29  49  74  97 122 156 203 249 284
#     4  11  20  31  49  75 105 132 167 205 247 302
#     4   9  16  30  51  71  98 126 160 205 247 290
#     4  10  18  31  52  74 100 134 169 206 249 293
#     4   8  16  29  50  74  95 122 158 203 245 286
#     4   9  15  29  49  74 103 123 154 205 251 285
#     4   9  19  34  48  70 101 133 168 203 249 302
#
# _framework density 16.604337000000001
#
# number of rings (size 3 to 8) (size 9 to 14) (size 15 to 20)
#    0.000    2.750    2.500    1.500    0.000    0.500 
#    2.250    3.125    0.000    1.500    0.000    0.000 
#    0.000    0.000    0.000    0.000    0.000    0.000 
#
# Total GULP energy -396579.661529 kJ/mol
# GULP energy per Si atom -12393.114423 kJ/mol
# Density = 1.656654 g / cm^3
# Si number density = 16.604337 Si / 1000 Ang^3
#
#
#
# Elastic Constant Matrix: (Units=GPa)
#
#
# Indices 1 2 3 4 5 6 
#
# 1 143.6688 56.6867 52.2629 0.0000 1.8538 0.0000
# 2 56.6867 84.4782 44.4989 0.0000 -4.9358 0.0000
# 3 52.2629 44.4989 93.9838 0.0000 6.4721 0.0000
# 4 0.0000 0.0000 0.0000 18.3518 0.0000 -1.8735
# 5 1.8538 -4.9358 6.4721 0.0000 21.3085 0.0000
# 6 0.0000 0.0000 0.0000 -1.8735 0.0000 20.3628
#
#
#
# Elastic Compliance Matrix: (Units=1/GPa)
#
#
# Indices 1 2 3 4 5 6 
#
# 1 0.010178 -0.005275 -0.003082 0.000000 -0.001171 0.000000
# 2 -0.005275 0.019306 -0.006687 0.000000 0.006962 0.000000
# 3 -0.003082 -0.006687 0.015942 0.000000 -0.006123 0.000000
# 4 0.000000 0.000000 0.000000 0.055007 0.000000 0.005061
# 5 -0.001171 0.006962 -0.006123 0.000000 0.050504 0.000000
# 6 0.000000 0.000000 0.000000 0.005061 0.000000 0.049575
#
#
# Mechanical properties :
#
#
# Convention : Reuss Voigt Hill
#
# Bulk Modulus (GPa) = 65.19548 69.89199 67.54373
# Shear Modulus (GPa) = 21.21238 23.25008 22.23123
#
# Velocity S-wave (km/s) = 3.57812 3.74604 3.66304
# Velocity P-wave (km/s) = 7.51132 7.80349 7.65880
#
# Compressibility (1/GPa) = 0.01533849
#
# Stress axis : x y z
#
# Youngs Moduli (GPa) = 98.25308 51.79725 62.72896
#
# Poissons Ratio (x) = 0.27322 0.19331
# Poissons Ratio (y) = 0.51826 0.41948
# Poissons Ratio (z) = 0.30278 0.34638
#
# Static dielectric constant tensor:
#      x y z
#    x 3.206910 0.000000 0.160170 
#    y 0.000000 2.977930 0.000000 
#    z 0.160170 0.000000 3.325160 
# 
# 
# High freq. dielectric constant tensor:
#      x y z
#    x 1.638560 0.000000 0.005630 
#    y 0.000000 1.608060 0.000000 
#    z 0.005630 0.000000 1.639700 
# 
# From -- ./inp_files/19183.got.cif
#   From: 2010.06.25/outbox.cif.g09.slc.cpg/sg11_10_cif.got.tgz:19183.got - 2010.06.27 23:14:04.
