data_PCOD8069829
_publ_section_title
;
Structure prediction by ZEFSAII (Michael W. Deem and Ramdas Pophale) SiO2 
 PCOD8069829
Probable space group: P 21/M
;
_chemical_formula_sum "Si O2"
_cell_formula_units_Z 28
_cell_length_a 13.513900
_cell_length_b 13.795558
_cell_length_c 8.768650
_cell_angle_alpha 90.000000
_cell_angle_beta 74.614562
_cell_angle_gamma 90.000000
_cell_volume 1576.170187
_symmetry_space_group_name_H-M "P 21/M"
_symmetry_group_IT_number 11
_symmetry_cell_setting 'monoclinic'
loop_
_space_group_symop_operation_xyz
x,y,z
-x,1/2+y,-z
-x,-y,-z
x,1/2-y,z
loop_
_atom_site_type_symbol
_atom_site_label
_atom_site_fract_x
_atom_site_fract_y
_atom_site_fract_z
Si Si1 0.470927 0.361045 0.121302
Si Si2 0.021085 0.997115 0.813173
Si Si3 0.181233 0.530592 0.290903
Si Si4 0.759034 0.962403 0.283945
Si Si5 0.652089 0.005171 0.023209
Si Si6 0.835221 0.137873 0.397257
Si Si7 0.713993 0.640531 0.587336
O O1 0.486833 0.250000 0.066576
O O2 0.581030 0.408144 0.114521
O O3 0.399049 0.371661 0.297628
O O4 0.418535 0.416667 0.002494
O O5 0.120080 0.067626 0.752738
O O6 0.923154 0.032755 0.761472
O O7 0.055925 0.892288 0.727943
O O8 0.000000 0.000000 0.000000
O O9 0.168491 0.615514 0.420191
O O10 0.201061 0.427874 0.366919
O O11 0.276051 0.549930 0.138392
O O12 0.698812 0.887300 0.416042
O O13 0.720480 0.958046 0.127586
O O14 0.746166 0.073269 0.352545
O O15 0.813260 0.250000 0.377717
O O16 0.753985 0.750000 0.589949
#
# Coordination Sequence:
#
# PCOD8069829 Si02
#       7
#     4   4   4   4   4   4   4
#     4   9  20  36  55  79 106 136 181 226 268 324
#     4  10  19  36  54  76 112 143 175 221 258 307
#     4  10  18  35  56  76 110 145 178 217 257 317
#     4   9  20  34  55  78 111 140 174 225 260 319
#     4  10  19  35  58  80 104 144 176 218 278 312
#     4   9  20  34  52  78 110 145 177 214 258 312
#     4   9  19  35  54  78 105 140 182 222 268 315
#
# _framework density 17.764579000000001
#
# number of rings (size 3 to 8) (size 9 to 14) (size 15 to 20)
#    0.857    1.714    1.429    0.429    0.000    2.857 
#    0.000    2.857    0.000    0.000    0.000    0.000 
#    0.000    0.000    0.000    0.000    0.000    0.000 
#
# Total GULP energy -346916.878557 kJ/mol
# GULP energy per Si atom -12389.888520 kJ/mol
# Density = 1.772415 g / cm^3
# Si number density = 17.764579 Si / 1000 Ang^3
#
#
#
# Elastic Constant Matrix: (Units=GPa)
#
#
# Indices 1 2 3 4 5 6 
#
# 1 75.3255 17.1167 29.7083 0.0000 -4.7244 0.0000
# 2 17.1167 74.8029 32.8579 0.0000 -16.0842 0.0000
# 3 29.7083 32.8579 115.1022 0.0000 1.8895 0.0000
# 4 0.0000 0.0000 0.0000 19.5412 0.0000 -5.1995
# 5 -4.7244 -16.0842 1.8895 0.0000 23.4608 0.0000
# 6 0.0000 0.0000 0.0000 -5.1995 0.0000 13.8555
#
#
#
# Elastic Compliance Matrix: (Units=1/GPa)
#
#
# Indices 1 2 3 4 5 6 
#
# 1 0.015142 -0.001394 -0.003549 0.000000 0.002379 0.000000
# 2 -0.001394 0.018775 -0.005213 0.000000 0.013011 0.000000
# 3 -0.003549 -0.005213 0.011177 0.000000 -0.005189 0.000000
# 4 0.000000 0.000000 0.000000 0.056851 0.000000 0.021334
# 5 0.002379 0.013011 -0.005189 0.000000 0.052441 0.000000
# 6 0.000000 0.000000 0.000000 0.021334 0.000000 0.080179
#
#
# Mechanical properties :
#
#
# Convention : Reuss Voigt Hill
#
# Bulk Modulus (GPa) = 40.35419 47.17739 43.76579
# Shear Modulus (GPa) = 19.00136 23.74135 21.37135
#
# Velocity S-wave (km/s) = 3.27405 3.65971 3.47224
# Velocity P-wave (km/s) = 6.08753 6.66878 6.38477
#
# Compressibility (1/GPa) = 0.02478058
#
# Stress axis : x y z
#
# Youngs Moduli (GPa) = 66.04358 53.26176 89.46600
#
# Poissons Ratio (x) = 0.07426 0.31753
# Poissons Ratio (y) = 0.09208 0.46643
# Poissons Ratio (z) = 0.23440 0.27768
#
# Static dielectric constant tensor:
#      x y z
#    x 3.203670 0.000000 -0.083330 
#    y 0.000000 3.090270 0.000000 
#    z -0.083330 0.000000 3.511860 
# 
# 
# High freq. dielectric constant tensor:
#      x y z
#    x 1.675690 0.000000 -0.003580 
#    y 0.000000 1.661210 0.000000 
#    z -0.003580 0.000000 1.702500 
# 
# From -- ./inp_files/21792.got.cif
#   From: 2010.06.25/outbox.cif.g09.slc.cpg/sg11_11_cif.got.tgz:21792.got - 2010.06.27 23:14:04.
