data_PCOD8069398
_publ_section_title
;
Structure prediction by ZEFSAII (Michael W. Deem and Ramdas Pophale) SiO2 
 PCOD8069398
Probable space group: P 21/M
;
_chemical_formula_sum "Si O2"
_cell_formula_units_Z 24
_cell_length_a 11.831517
_cell_length_b 10.087570
_cell_length_c 11.960323
_cell_angle_alpha 90.000000
_cell_angle_beta 119.452023
_cell_angle_gamma 90.000000
_cell_volume 1243.003139
_symmetry_space_group_name_H-M "P 21/M"
_symmetry_group_IT_number 11
_symmetry_cell_setting 'monoclinic'
loop_
_space_group_symop_operation_xyz
x,y,z
-x,1/2+y,-z
-x,-y,-z
x,1/2-y,z
loop_
_atom_site_type_symbol
_atom_site_label
_atom_site_fract_x
_atom_site_fract_y
_atom_site_fract_z
Si Si1 0.132357 0.099159 0.295468
Si Si2 0.920046 0.892226 0.122187
Si Si3 0.875246 0.593033 0.454540
Si Si4 0.302227 0.451480 0.829239
Si Si5 0.721329 0.901654 0.845161
Si Si6 0.589222 0.391653 0.928606
O O1 0.086744 0.250000 0.250938
O O2 0.177140 0.080301 0.444554
O O3 0.254099 0.065047 0.273654
O O4 0.010490 0.006679 0.211643
O O5 0.994183 0.750000 0.152268
O O6 0.799136 0.868336 0.146741
O O7 0.860829 0.928285 0.972155
O O8 0.902658 0.750000 0.439558
O O9 0.763371 0.527593 0.323653
O O10 0.000000 0.500000 0.500000
O O11 0.436875 0.375571 0.878088
O O12 0.335140 0.583288 0.917407
O O13 0.674947 0.750000 0.839390
O O14 0.612781 0.996666 0.845696
O O15 0.639336 0.250000 0.907521
#
# Coordination Sequence:
#
# PCOD8069398 Si02
#       6
#     4   4   4   4   4   4
#     4  10  21  35  53  79 111 148 185 223 271 334
#     4  10  18  31  54  78 108 145 180 226 279 327
#     4  11  22  37  57  81 115 151 184 223 277 338
#     4  10  21  36  56  84 116 145 180 233 290 328
#     4   9  20  37  53  77 113 148 183 227 283 326
#     4  10  21  37  61  85 108 145 194 237 274 329
#
# _framework density 19.308077000000001
#
# number of rings (size 3 to 8) (size 9 to 14) (size 15 to 20)
#    0.000    2.000    1.667    2.000    0.000    8.667 
#    0.000    0.833    0.000    0.000    0.000    0.000 
#    0.000    0.000    0.000    0.000    0.000    0.000 
#
# Total GULP energy -297349.668851 kJ/mol
# GULP energy per Si atom -12389.569535 kJ/mol
# Density = 1.926413 g / cm^3
# Si number density = 19.308077 Si / 1000 Ang^3
#
#
#
# Elastic Constant Matrix: (Units=GPa)
#
#
# Indices 1 2 3 4 5 6 
#
# 1 91.4442 54.6592 43.1240 0.0000 -18.5163 0.0000
# 2 54.6592 111.2078 38.9066 0.0000 -2.5413 0.0000
# 3 43.1240 38.9066 103.2144 0.0000 -16.9741 0.0000
# 4 0.0000 0.0000 0.0000 10.6542 0.0000 -6.2821
# 5 -18.5163 -2.5413 -16.9741 0.0000 32.7783 0.0000
# 6 0.0000 0.0000 0.0000 -6.2821 0.0000 5.2862
#
#
#
# Elastic Compliance Matrix: (Units=1/GPa)
#
#
# Indices 1 2 3 4 5 6 
#
# 1 0.019040 -0.007904 -0.003615 0.000000 0.008271 0.000000
# 2 -0.007904 0.013693 -0.002644 0.000000 -0.004773 0.000000
# 3 -0.003615 -0.002644 0.012927 0.000000 0.004447 0.000000
# 4 0.000000 0.000000 0.000000 0.313634 0.000000 0.372724
# 5 0.008271 -0.004773 0.004447 0.000000 0.037113 0.000000
# 6 0.000000 0.000000 0.000000 0.372724 0.000000 0.632119
#
#
# Mechanical properties :
#
#
# Convention : Reuss Voigt Hill
#
# Bulk Modulus (GPa) = 57.69455 64.36068 61.02762
# Shear Modulus (GPa) = 4.70530 21.02217 12.86374
#
# Velocity S-wave (km/s) = 1.56277 3.30324 2.58396
# Velocity P-wave (km/s) = 5.76214 6.92491 6.37011
#
# Compressibility (1/GPa) = 0.01733266
#
# Stress axis : x y z
#
# Youngs Moduli (GPa) = 52.52094 73.02903 77.35692
#
# Poissons Ratio (x) = 0.57725 0.27968
# Poissons Ratio (y) = 0.41515 0.20453
# Poissons Ratio (z) = 0.18989 0.19309
#
# Static dielectric constant tensor:
#      x y z
#    x 3.447960 0.000000 -0.316750 
#    y 0.000000 3.515820 0.000000 
#    z -0.316750 0.000000 3.670680 
# 
# 
# High freq. dielectric constant tensor:
#      x y z
#    x 1.739740 0.000000 -0.022780 
#    y 0.000000 1.754690 0.000000 
#    z -0.022780 0.000000 1.737180 
# 
# From -- ./inp_files/34914.got.cif
#   From: 2010.06.25/outbox.cif.g09.slc.cpg/sg11_18_cif.got.tgz:34914.got - 2010.06.27 23:14:04.
