data_PCOD8069024
_publ_section_title
;
Structure prediction by ZEFSAII (Michael W. Deem and Ramdas Pophale) SiO2 
 PCOD8069024
Probable space group: P 21/M
;
_chemical_formula_sum "Si O2"
_cell_formula_units_Z 32
_cell_length_a 30.319216
_cell_length_b 9.341097
_cell_length_c 14.868865
_cell_angle_alpha 90.000000
_cell_angle_beta 151.268375
_cell_angle_gamma 90.000000
_cell_volume 2024.298869
_symmetry_space_group_name_H-M "P 21/M"
_symmetry_group_IT_number 11
_symmetry_cell_setting 'monoclinic'
loop_
_space_group_symop_operation_xyz
x,y,z
-x,1/2+y,-z
-x,-y,-z
x,1/2-y,z
loop_
_atom_site_type_symbol
_atom_site_label
_atom_site_fract_x
_atom_site_fract_y
_atom_site_fract_z
Si Si1 0.399446 0.415008 0.729876
Si Si2 0.887196 0.412992 0.367142
Si Si3 0.804041 0.583739 0.677667
Si Si4 0.939562 0.084120 0.264512
Si Si5 0.574916 0.583757 0.016074
Si Si6 0.740364 0.414701 0.246299
Si Si7 0.116603 0.582322 0.344341
Si Si8 0.083417 0.083700 0.947019
O O1 0.423135 0.250000 0.752869
O O2 0.302447 0.461169 0.514560
O O3 0.476600 0.512040 0.821131
O O4 0.394760 0.445034 0.827622
O O5 0.919977 0.250000 0.445645
O O6 0.878542 0.439809 0.244965
O O7 0.788463 0.439510 0.235812
O O8 0.959867 0.518725 0.541673
O O9 0.815331 0.750000 0.673360
O O10 0.862893 0.496992 0.711375
O O11 0.841371 0.548603 0.843154
O O12 0.951195 0.250000 0.262099
O O13 0.888752 0.005801 0.091501
O O14 0.567693 0.750000 0.979757
O O15 0.650328 0.512385 0.086641
O O16 0.711148 0.250000 0.207323
O O17 0.810184 0.462420 0.449345
O O18 0.119229 0.750000 0.329349
O O19 0.016449 0.534233 0.197912
O O20 0.083061 0.250000 0.920710
#
# Coordination Sequence:
#
# PCOD8069024 Si02
#       8
#     4   4   4   4   4   4   4   4
#     4   9  18  32  46  65  91 121 156 192 232 279
#     4   9  18  33  49  67  95 126 156 191 238 285
#     4  10  20  33  49  67  92 127 164 200 231 268
#     4  10  19  30  48  71  93 122 160 200 233 270
#     4  10  19  30  47  69  93 119 152 195 235 275
#     4  10  18  30  48  68  94 128 155 183 231 284
#     4  10  19  30  45  66  95 130 162 190 226 272
#     4  10  20  34  48  65  95 132 163 193 234 277
#
# _framework density 15.807943
#
# number of rings (size 3 to 8) (size 9 to 14) (size 15 to 20)
#    0.000    2.250    2.500    1.125    0.000    3.000 
#    0.000    0.000    0.000    0.000    0.000    0.875 
#    0.000    0.000    0.000    0.000    0.000    0.000 
#
# Total GULP energy -396882.678543 kJ/mol
# GULP energy per Si atom -12402.583704 kJ/mol
# Density = 1.577196 g / cm^3
# Si number density = 15.807943 Si / 1000 Ang^3
#
#
#
# Elastic Constant Matrix: (Units=GPa)
#
#
# Indices 1 2 3 4 5 6 
#
# 1 99.7295 54.1357 51.3714 0.0000 1.1640 0.0000
# 2 54.1357 71.5355 40.2609 0.0000 1.1436 0.0000
# 3 51.3714 40.2609 82.1324 0.0000 2.1999 0.0000
# 4 0.0000 0.0000 0.0000 20.7553 0.0000 -0.1569
# 5 1.1640 1.1436 2.1999 0.0000 22.7929 0.0000
# 6 0.0000 0.0000 0.0000 -0.1569 0.0000 28.0931
#
#
#
# Elastic Compliance Matrix: (Units=1/GPa)
#
#
# Indices 1 2 3 4 5 6 
#
# 1 0.019451 -0.010872 -0.006842 0.000000 0.000213 0.000000
# 2 -0.010872 0.025382 -0.005637 0.000000 -0.000174 0.000000
# 3 -0.006842 -0.005637 0.019251 0.000000 -0.001226 0.000000
# 4 0.000000 0.000000 0.000000 0.048183 0.000000 0.000269
# 5 0.000213 -0.000174 -0.001226 0.000000 0.043990 0.000000
# 6 0.000000 0.000000 0.000000 0.000269 0.000000 0.035597
#
#
# Mechanical properties :
#
#
# Convention : Reuss Voigt Hill
#
# Bulk Modulus (GPa) = 57.53414 60.54814 59.04114
# Shear Modulus (GPa) = 20.46234 21.50354 20.98294
#
# Velocity S-wave (km/s) = 3.60173 3.69223 3.64726
# Velocity P-wave (km/s) = 7.33289 7.52079 7.42743
#
# Compressibility (1/GPa) = 0.01738099
#
# Stress axis : x y z
#
# Youngs Moduli (GPa) = 51.41162 39.39723 51.94481
#
# Poissons Ratio (x) = 0.42834 0.35541
# Poissons Ratio (y) = 0.55897 0.29283
# Poissons Ratio (z) = 0.35176 0.22210
#
# Static dielectric constant tensor:
#      x y z
#    x 2.988010 0.000000 0.011370 
#    y 0.000000 3.032540 0.000000 
#    z 0.011370 0.000000 2.894600 
# 
# 
# High freq. dielectric constant tensor:
#      x y z
#    x 1.597010 0.000000 0.005780 
#    y 0.000000 1.612650 0.000000 
#    z 0.005780 0.000000 1.584040 
# 
# From -- ./inp_files/51214.got.cif
#   From: 2010.06.25/outbox.cif.g09.slc.cpg/sg11_26_cif.got.tgz:51214.got - 2010.06.27 23:14:04.
