data_PCOD8069580
_publ_section_title
;
Structure prediction by ZEFSAII (Michael W. Deem and Ramdas Pophale) SiO2 
 PCOD8069580
Probable space group: P 21/M
;
_chemical_formula_sum "Si O2"
_cell_formula_units_Z 28
_cell_length_a 9.117269
_cell_length_b 8.967670
_cell_length_c 29.991455
_cell_angle_alpha 90.000000
_cell_angle_beta 40.536794
_cell_angle_gamma 90.000000
_cell_volume 1593.722371
_symmetry_space_group_name_H-M "P 21/M"
_symmetry_group_IT_number 11
_symmetry_cell_setting 'monoclinic'
loop_
_space_group_symop_operation_xyz
x,y,z
-x,1/2+y,-z
-x,-y,-z
x,1/2-y,z
loop_
_atom_site_type_symbol
_atom_site_label
_atom_site_fract_x
_atom_site_fract_y
_atom_site_fract_z
Si Si1 0.684648 0.572887 0.426141
Si Si2 0.582063 0.577824 0.198986
Si Si3 0.575393 0.074020 0.937187
Si Si4 0.238673 0.074020 0.937187
Si Si5 0.801777 0.418521 0.314923
Si Si6 0.123606 0.418521 0.314923
Si Si7 0.923008 0.922176 0.198986
O O1 0.500000 0.500000 0.500000
O O2 0.670608 0.750000 0.431757
O O3 0.641652 0.515396 0.385133
O O4 0.932683 0.515396 0.385133
O O5 0.511033 0.750000 0.212460
O O6 0.659169 0.517514 0.133123
O O7 0.368196 0.487211 0.265872
O O8 0.787608 0.551515 0.184957
O O9 0.574750 0.250000 0.944281
O O10 0.406885 0.023191 0.937246
O O11 0.824782 0.017514 0.866877
O O12 0.500000 0.000000 0.000000
O O13 0.203847 0.250000 0.944280
O O14 0.000000 0.000000 0.000000
O O15 0.707812 0.250000 0.333841
O O16 0.802446 0.487211 0.265872
O O17 0.054815 0.419979 0.278074
O O18 0.122983 0.250000 0.333841
O O19 0.926669 0.750000 0.212460
#
# Coordination Sequence:
#
# PCOD8069580 Si02
#       7
#     4   4   4   4   4   4   4
#     4  10  18  32  56  84 114 144 178 222 266 316
#     4  10  20  34  53  76 103 139 182 226 275 328
#     4  10  21  36  54  76 103 138 181 226 276 328
#     4  10  21  36  54  76 103 138 181 226 276 328
#     4   9  19  33  51  79 108 138 178 218 264 316
#     4   9  19  33  51  79 108 138 178 218 264 316
#     4  10  20  34  53  76 103 139 182 226 275 328
#
# _framework density 17.568933000000001
#
# number of rings (size 3 to 8) (size 9 to 14) (size 15 to 20)
#    0.857    1.429    0.000    3.429    0.000    4.571 
#    0.000    0.000    0.000    0.857    0.000    0.000 
#    0.000    0.000    0.000    0.000    0.000    0.000 
#
# Total GULP energy -347099.219627 kJ/mol
# GULP energy per Si atom -12396.400701 kJ/mol
# Density = 1.752894 g / cm^3
# Si number density = 17.568933 Si / 1000 Ang^3
#
#
#
# Elastic Constant Matrix: (Units=GPa)
#
#
# Indices 1 2 3 4 5 6 
#
# 1 89.1545 41.7547 57.2185 0.0000 0.3265 0.0000
# 2 41.7547 104.7010 66.7452 0.0000 0.3122 0.0000
# 3 57.2185 66.7452 146.9854 0.0000 0.3961 0.0000
# 4 0.0000 0.0000 0.0000 36.1440 0.0000 0.1144
# 5 0.3265 0.3122 0.3961 0.0000 29.0332 0.0000
# 6 0.0000 0.0000 0.0000 0.1144 0.0000 26.9853
#
#
#
# Elastic Compliance Matrix: (Units=1/GPa)
#
#
# Indices 1 2 3 4 5 6 
#
# 1 0.015739 -0.003337 -0.004612 0.000000 -0.000078 0.000000
# 2 -0.003337 0.014150 -0.005126 0.000000 -0.000045 0.000000
# 3 -0.004612 -0.005126 0.010926 0.000000 -0.000042 0.000000
# 4 0.000000 0.000000 0.000000 0.027668 0.000000 -0.000117
# 5 -0.000078 -0.000045 -0.000042 0.000000 0.034445 0.000000
# 6 0.000000 0.000000 0.000000 -0.000117 0.000000 0.037058
#
#
# Mechanical properties :
#
#
# Convention : Reuss Voigt Hill
#
# Bulk Modulus (GPa) = 68.18353 74.69752 71.44052
# Shear Modulus (GPa) = 29.23570 30.10732 29.67151
#
# Velocity S-wave (km/s) = 4.08371 4.14414 4.11404
# Velocity P-wave (km/s) = 7.81850 8.09368 7.95728
#
# Compressibility (1/GPa) = 0.01466630
#
# Stress axis : x y z
#
# Youngs Moduli (GPa) = 63.53584 70.67259 91.52062
#
# Poissons Ratio (x) = 0.23582 0.42205
# Poissons Ratio (y) = 0.21200 0.46916
# Poissons Ratio (z) = 0.29300 0.36229
#
# Static dielectric constant tensor:
#      x y z
#    x 3.165600 0.000000 0.000240 
#    y 0.000000 3.071380 0.000000 
#    z 0.000240 0.000000 3.185210 
# 
# 
# High freq. dielectric constant tensor:
#      x y z
#    x 1.665090 0.000000 0.000110 
#    y 0.000000 1.683050 0.000000 
#    z 0.000110 0.000000 1.674180 
# 
# From -- ./inp_files/72726.got.cif
#   From: 2010.06.25/outbox.cif.g09.slc.cpg/sg11_37_cif.got.tgz:72726.got - 2010.06.27 23:14:04.
