data_PCOD8069356
_publ_section_title
;
Structure prediction by ZEFSAII (Michael W. Deem and Ramdas Pophale) SiO2 
 PCOD8069356
Probable space group: P 21/M
;
_chemical_formula_sum "Si O2"
_cell_formula_units_Z 28
_cell_length_a 15.972044
_cell_length_b 8.862491
_cell_length_c 20.667874
_cell_angle_alpha 90.000000
_cell_angle_beta 27.894308
_cell_angle_gamma 90.000000
_cell_volume 1368.709658
_symmetry_space_group_name_H-M "P 21/M"
_symmetry_group_IT_number 11
_symmetry_cell_setting 'monoclinic'
loop_
_space_group_symop_operation_xyz
x,y,z
-x,1/2+y,-z
-x,-y,-z
x,1/2-y,z
loop_
_atom_site_type_symbol
_atom_site_label
_atom_site_fract_x
_atom_site_fract_y
_atom_site_fract_z
Si Si1 0.427938 0.419173 0.160312
Si Si2 0.267272 0.073555 0.975109
Si Si3 0.513857 0.927258 0.298515
Si Si4 0.016064 0.427402 0.753056
Si Si5 0.119753 0.427142 0.283462
Si Si6 0.201592 0.078957 0.439984
Si Si7 0.571165 0.572469 0.516240
O O1 0.509848 0.250000 0.102984
O O2 0.585253 0.534404 0.070550
O O3 0.327783 0.458817 0.161220
O O4 0.268689 0.427754 0.321296
O O5 0.229050 0.250000 0.004914
O O6 0.337338 0.024816 0.856226
O O7 0.083965 0.983133 0.113385
O O8 0.515998 0.750000 0.308752
O O9 0.320432 0.976937 0.405984
O O10 0.549694 0.010236 0.342029
O O11 0.995172 0.250000 0.759367
O O12 0.914396 0.509592 0.764270
O O13 0.222454 0.475670 0.615223
O O14 0.078470 0.250000 0.313912
O O15 0.997023 0.512711 0.419748
O O16 0.205331 0.250000 0.464578
O O17 0.500000 0.500000 0.500000
O O18 0.548022 0.750000 0.527683
#
# Coordination Sequence:
#
# PCOD8069356 Si02
#       7
#     4   4   4   4   4   4   4
#     4   9  20  35  52  79 116 160 205 248 293 344
#     4  10  22  39  61  88 119 160 204 244 293 348
#     4  10  20  37  62  90 120 155 196 242 292 352
#     4  11  24  41  61  87 119 157 197 242 297 356
#     4  11  21  33  53  81 116 158 203 250 298 345
#     4  10  18  31  52  80 116 155 199 247 295 348
#     4  11  24  42  67  96 122 150 190 239 296 358
#
# _framework density 20.457225000000001
#
# number of rings (size 3 to 8) (size 9 to 14) (size 15 to 20)
#    0.000    1.714    1.429    3.000    0.000    5.714 
#    0.000    0.714    0.000    0.000    0.000    0.000 
#    0.000    0.000    0.000    0.000    0.000    0.000 
#
# Total GULP energy -347222.916544 kJ/mol
# GULP energy per Si atom -12400.818448 kJ/mol
# Density = 2.041066 g / cm^3
# Si number density = 20.457225 Si / 1000 Ang^3
#
#
#
# Elastic Constant Matrix: (Units=GPa)
#
#
# Indices 1 2 3 4 5 6 
#
# 1 112.2553 38.3469 27.8019 0.0000 9.8934 0.0000
# 2 38.3469 76.9443 40.8048 0.0000 5.6417 0.0000
# 3 27.8019 40.8048 88.1535 0.0000 8.3647 0.0000
# 4 0.0000 0.0000 0.0000 34.9090 0.0000 2.1666
# 5 9.8934 5.6417 8.3647 0.0000 7.8985 0.0000
# 6 0.0000 0.0000 0.0000 2.1666 0.0000 33.2543
#
#
#
# Elastic Compliance Matrix: (Units=1/GPa)
#
#
# Indices 1 2 3 4 5 6 
#
# 1 0.011580 -0.004758 -0.000440 0.000000 -0.010641 0.000000
# 2 -0.004758 0.019311 -0.007443 0.000000 0.000048 0.000000
# 3 -0.000440 -0.007443 0.015977 0.000000 -0.011052 0.000000
# 4 0.000000 0.000000 0.000000 0.028762 0.000000 -0.001874
# 5 -0.010641 0.000048 -0.011052 0.000000 0.151603 0.000000
# 6 0.000000 0.000000 0.000000 -0.001874 0.000000 0.030193
#
#
# Mechanical properties :
#
#
# Convention : Reuss Voigt Hill
#
# Bulk Modulus (GPa) = 46.32565 54.58449 50.45507
# Shear Modulus (GPa) = 17.24709 26.57234 21.90972
#
# Velocity S-wave (km/s) = 2.90674 3.60797 3.27617
# Velocity P-wave (km/s) = 5.82750 6.64054 6.24726
#
# Compressibility (1/GPa) = 0.02158631
#
# Stress axis : x y z
#
# Youngs Moduli (GPa) = 86.35331 51.78393 62.59173
#
# Poissons Ratio (x) = 0.24637 0.02756
# Poissons Ratio (y) = 0.41084 0.46586
# Poissons Ratio (z) = 0.03802 0.38542
#
# Static dielectric constant tensor:
#      x y z
#    x 3.731870 0.000000 0.220290 
#    y 0.000000 3.725130 0.000000 
#    z 0.220290 0.000000 3.813210 
# 
# 
# High freq. dielectric constant tensor:
#      x y z
#    x 1.783850 0.000000 0.016480 
#    y 0.000000 1.808170 0.000000 
#    z 0.016480 0.000000 1.798370 
# 
# From -- ./inp_files/65372.got.cif
#   From: 2010.06.25/outbox.cif.g09.slc.cpg/sg11_33_cif.got.tgz:65372.got - 2010.06.27 23:14:04.
