data_PCOD8069515
_publ_section_title
;
Structure prediction by ZEFSAII (Michael W. Deem and Ramdas Pophale) SiO2 
 PCOD8069515
Probable space group: P 21/M
;
_chemical_formula_sum "Si O2"
_cell_formula_units_Z 24
_cell_length_a 12.523293
_cell_length_b 9.070238
_cell_length_c 24.058609
_cell_angle_alpha 90.000000
_cell_angle_beta 150.653612
_cell_angle_gamma 90.000000
_cell_volume 1339.313072
_symmetry_space_group_name_H-M "P 21/M"
_symmetry_group_IT_number 11
_symmetry_cell_setting 'monoclinic'
loop_
_space_group_symop_operation_xyz
x,y,z
-x,1/2+y,-z
-x,-y,-z
x,1/2-y,z
loop_
_atom_site_type_symbol
_atom_site_label
_atom_site_fract_x
_atom_site_fract_y
_atom_site_fract_z
Si Si1 0.377031 0.574783 0.995129
Si Si2 0.860520 0.423458 0.616775
Si Si3 0.695775 0.923809 0.234249
Si Si4 0.230888 0.423886 0.610357
Si Si5 0.471692 0.079035 0.609916
Si Si6 0.934942 0.079439 0.777035
O O1 0.385665 0.750000 0.991376
O O2 0.496055 0.521417 0.105680
O O3 0.500000 0.500000 0.000000
O O4 0.129756 0.521333 0.887438
O O5 0.840971 0.250000 0.599694
O O6 0.647135 0.494465 0.493480
O O7 0.870535 0.467332 0.685675
O O8 0.075408 0.489089 0.684229
O O9 0.712272 0.750000 0.236383
O O10 0.658645 0.972886 0.281207
O O11 0.191665 0.250000 0.591355
O O12 0.389196 0.476184 0.632678
O O13 0.000000 0.500000 0.500000
O O14 0.419817 0.250000 0.577732
O O15 0.729575 0.049188 0.723767
O O16 0.008361 0.250000 0.811760
#
# Coordination Sequence:
#
# PCOD8069515 Si02
#       6
#     4   4   4   4   4   4
#     4  11  21  36  57  79 104 138 178 216 258 310
#     4  10  18  32  54  76 107 142 168 207 264 320
#     4   9  18  33  53  77 104 135 169 211 262 310
#     4  10  19  34  54  76 103 137 173 211 258 308
#     4  10  21  34  52  79 109 138 173 218 261 305
#     4  10  21  37  52  75 111 143 172 212 264 311
#
# _framework density 17.919635
#
# number of rings (size 3 to 8) (size 9 to 14) (size 15 to 20)
#    0.000    2.000    3.333    1.000    0.000    1.333 
#    0.000    2.500    0.000    0.000    0.000    0.000 
#    0.000    0.000    0.000    0.000    0.000    0.000 
#
# Total GULP energy -297615.054137 kJ/mol
# GULP energy per Si atom -12400.627256 kJ/mol
# Density = 1.787885 g / cm^3
# Si number density = 17.919635 Si / 1000 Ang^3
#
#
#
# Elastic Constant Matrix: (Units=GPa)
#
#
# Indices 1 2 3 4 5 6 
#
# 1 125.8487 29.1153 64.2432 0.0000 -1.1231 0.0000
# 2 29.1153 39.9856 43.6725 0.0000 -1.9889 0.0000
# 3 64.2432 43.6725 135.7803 0.0000 -7.2086 0.0000
# 4 0.0000 0.0000 0.0000 31.6182 0.0000 4.5585
# 5 -1.1231 -1.9889 -7.2086 0.0000 32.2073 0.0000
# 6 0.0000 0.0000 0.0000 4.5585 0.0000 17.5194
#
#
#
# Elastic Compliance Matrix: (Units=1/GPa)
#
#
# Indices 1 2 3 4 5 6 
#
# 1 0.010805 -0.003511 -0.004022 0.000000 -0.000740 0.000000
# 2 -0.003511 0.039699 -0.011116 0.000000 -0.000159 0.000000
# 3 -0.004022 -0.011116 0.012953 0.000000 0.002072 0.000000
# 4 0.000000 0.000000 0.000000 0.032860 0.000000 -0.008550
# 5 -0.000740 -0.000159 0.002072 0.000000 0.031477 0.000000
# 6 0.000000 0.000000 0.000000 -0.008550 0.000000 0.059304
#
#
# Mechanical properties :
#
#
# Convention : Reuss Voigt Hill
#
# Bulk Modulus (GPa) = 38.22891 63.96405 51.09648
# Shear Modulus (GPa) = 21.44850 27.24121 24.34485
#
# Velocity S-wave (km/s) = 3.46342 3.90319 3.68986
# Velocity P-wave (km/s) = 6.11339 7.48903 6.83590
#
# Compressibility (1/GPa) = 0.02615821
#
# Stress axis : x y z
#
# Youngs Moduli (GPa) = 92.54919 25.18977 77.20088
#
# Poissons Ratio (x) = 0.08845 0.31052
# Poissons Ratio (y) = 0.32498 0.85815
# Poissons Ratio (z) = 0.37225 0.28000
#
# Static dielectric constant tensor:
#      x y z
#    x 3.576340 0.000000 -0.120140 
#    y 0.000000 3.176740 0.000000 
#    z -0.120140 0.000000 3.488680 
# 
# 
# High freq. dielectric constant tensor:
#      x y z
#    x 1.698620 0.000000 -0.002030 
#    y 0.000000 1.674860 0.000000 
#    z -0.002030 0.000000 1.693190 
# 
# From -- ./inp_files/33690.got.cif
#   From: 2010.06.25/outbox.cif.g09.slc.cpg/sg11_17_cif.got.tgz:33690.got - 2010.06.27 23:14:04.
