data_PCOD8069313
_publ_section_title
;
Structure prediction by ZEFSAII (Michael W. Deem and Ramdas Pophale) SiO2 
 PCOD8069313
Probable space group: P 21/M
;
_chemical_formula_sum "Si O2"
_cell_formula_units_Z 28
_cell_length_a 10.199652
_cell_length_b 9.002743
_cell_length_c 30.675970
_cell_angle_alpha 90.000000
_cell_angle_beta 33.327197
_cell_angle_gamma 90.000000
_cell_volume 1547.613739
_symmetry_space_group_name_H-M "P 21/M"
_symmetry_group_IT_number 11
_symmetry_cell_setting 'monoclinic'
loop_
_space_group_symop_operation_xyz
x,y,z
-x,1/2+y,-z
-x,-y,-z
x,1/2-y,z
loop_
_atom_site_type_symbol
_atom_site_label
_atom_site_fract_x
_atom_site_fract_y
_atom_site_fract_z
Si Si1 0.138074 0.079721 0.499008
Si Si2 0.021276 0.922110 0.086302
Si Si3 0.717805 0.424932 0.670483
Si Si4 0.444303 0.923402 0.818850
Si Si5 0.495626 0.422091 0.097024
Si Si6 0.427715 0.924798 0.672985
Si Si7 0.950323 0.076587 0.820435
O O1 0.095657 0.250000 0.500998
O O2 0.419719 0.043062 0.414351
O O3 0.001655 0.040408 0.582313
O O4 0.000000 0.000000 0.500000
O O5 0.954292 0.750000 0.098588
O O6 0.058540 0.962590 0.126237
O O7 0.259642 0.964629 0.994563
O O8 0.812012 0.021042 0.125246
O O9 0.664016 0.250000 0.686386
O O10 0.656721 0.494845 0.733991
O O11 0.547662 0.496103 0.681124
O O12 0.461743 0.750000 0.804468
O O13 0.478149 0.961066 0.859777
O O14 0.430847 0.250000 0.107390
O O15 0.293163 0.524781 0.133460
O O16 0.411092 0.750000 0.687390
O O17 0.167138 0.990487 0.737037
O O18 0.984777 0.250000 0.802606
#
# Coordination Sequence:
#
# PCOD8069313 Si02
#       7
#     4   4   4   4   4   4   4
#     4   8  16  28  46  74 105 137 171 212 261 310
#     4  10  21  38  58  79 106 138 178 226 270 317
#     4  10  18  31  51  77 109 140 175 218 263 312
#     4  11  22  35  55  81 108 142 182 220 265 318
#     4  10  23  40  55  76 107 144 183 222 266 317
#     4  10  18  31  52  78 108 140 175 216 263 313
#     4  11  22  35  55  82 109 141 179 219 268 321
#
# _framework density 18.092369999999999
#
# number of rings (size 3 to 8) (size 9 to 14) (size 15 to 20)
#    0.000    2.000    1.429    2.571    0.000    3.429 
#    0.000    0.000    0.000    0.857    0.000    0.000 
#    0.000    0.000    0.000    0.000    0.000    0.000 
#
# Total GULP energy -347069.323794 kJ/mol
# GULP energy per Si atom -12395.332993 kJ/mol
# Density = 1.805119 g / cm^3
# Si number density = 18.092370 Si / 1000 Ang^3
#
#
#
# Elastic Constant Matrix: (Units=GPa)
#
#
# Indices 1 2 3 4 5 6 
#
# 1 89.2501 52.1044 62.5954 0.0000 -1.8521 0.0000
# 2 52.1044 89.8466 70.3334 0.0000 -0.8019 0.0000
# 3 62.5954 70.3334 187.9953 0.0000 -2.7074 0.0000
# 4 0.0000 0.0000 0.0000 34.2241 0.0000 13.7264
# 5 -1.8521 -0.8019 -2.7074 0.0000 5.1276 0.0000
# 6 0.0000 0.0000 0.0000 13.7264 0.0000 59.5588
#
#
#
# Elastic Compliance Matrix: (Units=1/GPa)
#
#
# Indices 1 2 3 4 5 6 
#
# 1 0.018102 -0.008186 -0.002911 0.000000 0.003721 0.000000
# 2 -0.008186 0.019444 -0.004582 0.000000 -0.002335 0.000000
# 3 -0.002911 -0.004582 0.008039 0.000000 0.002476 0.000000
# 4 0.000000 0.000000 0.000000 0.032195 0.000000 -0.007420
# 5 0.003721 -0.002335 0.002476 0.000000 0.197311 0.000000
# 6 0.000000 0.000000 0.000000 -0.007420 0.000000 0.018500
#
#
# Mechanical properties :
#
#
# Convention : Reuss Voigt Hill
#
# Bulk Modulus (GPa) = 70.29553 81.90646 76.10100
# Shear Modulus (GPa) = 15.16568 31.91936 23.54252
#
# Velocity S-wave (km/s) = 2.89837 4.20485 3.61118
# Velocity P-wave (km/s) = 7.08087 8.30324 7.71630
#
# Compressibility (1/GPa) = 0.01422565
#
# Stress axis : x y z
#
# Youngs Moduli (GPa) = 55.24112 51.43096 124.39874
#
# Poissons Ratio (x) = 0.42101 0.36217
# Poissons Ratio (y) = 0.45219 0.57004
# Poissons Ratio (z) = 0.16083 0.23567
#
# Static dielectric constant tensor:
#      x y z
#    x 2.778650 0.000000 -0.152550 
#    y 0.000000 3.413490 0.000000 
#    z -0.152550 0.000000 3.965070 
# 
# 
# High freq. dielectric constant tensor:
#      x y z
#    x 1.657870 0.000000 -0.001610 
#    y 0.000000 1.712230 0.000000 
#    z -0.001610 0.000000 1.730170 
# 
# From -- ./inp_files/28348.got.cif
#   From: 2010.06.25/outbox.cif.g09.slc.cpg/sg11_15_cif.got.tgz:28348.got - 2010.06.27 23:14:04.
