data_PCOD8069878
_publ_section_title
;
Structure prediction by ZEFSAII (Michael W. Deem and Ramdas Pophale) SiO2 
 PCOD8069878
Probable space group: P 21/M
;
_chemical_formula_sum "Si O2"
_cell_formula_units_Z 32
_cell_length_a 13.694835
_cell_length_b 18.885271
_cell_length_c 11.072770
_cell_angle_alpha 90.000000
_cell_angle_beta 146.368765
_cell_angle_gamma 90.000000
_cell_volume 1586.079547
_symmetry_space_group_name_H-M "P 21/M"
_symmetry_group_IT_number 11
_symmetry_cell_setting 'monoclinic'
loop_
_space_group_symop_operation_xyz
x,y,z
-x,1/2+y,-z
-x,-y,-z
x,1/2-y,z
loop_
_atom_site_type_symbol
_atom_site_label
_atom_site_fract_x
_atom_site_fract_y
_atom_site_fract_z
Si Si1 0.992251 0.101985 0.390390
Si Si2 0.501900 0.167128 0.669621
Si Si3 0.179725 0.833283 0.181481
Si Si4 0.532540 0.056934 0.137471
Si Si5 0.140499 0.098327 0.284315
Si Si6 0.159276 0.557115 0.360877
Si Si7 0.848206 0.947517 0.209776
Si Si8 0.358577 0.830407 0.932081
O O1 0.852468 0.164209 0.269077
O O2 0.103186 0.118517 0.385002
O O3 0.124288 0.096938 0.639006
O O4 0.879525 0.030281 0.264398
O O5 0.458470 0.250000 0.623446
O O6 0.668498 0.149793 0.757673
O O7 0.334475 0.124519 0.447736
O O8 0.547318 0.139784 0.850560
O O9 0.167564 0.750000 0.198964
O O10 0.224905 0.876917 0.349299
O O11 0.994811 0.861320 0.941146
O O12 0.696206 0.035403 0.390007
O O13 0.576227 0.131019 0.120448
O O14 0.356038 0.063743 0.037397
O O15 0.500000 0.000000 0.000000
O O16 0.126722 0.013744 0.248350
O O17 0.976906 0.580395 0.237382
O O18 0.411142 0.750000 0.966971
#
# Coordination Sequence:
#
# PCOD8069878 Si02
#       8
#     4   4   4   4   4   4   4   4
#     4  10  18  36  60  92 125 155 197 253 309 365
#     4  10  22  39  61  90 120 161 209 255 313 369
#     4  11  25  45  62  82 124 170 204 251 311 364
#     4  12  21  39  66  89 125 167 197 251 313 361
#     4  11  22  38  67  93 118 154 208 263 305 358
#     4  11  25  39  61  97 122 158 210 255 300 369
#     4  10  20  37  61  91 122 159 204 243 305 371
#     4  11  21  35  58  92 127 160 202 255 316 372
#
# _framework density 20.175533000000001
#
# number of rings (size 3 to 8) (size 9 to 14) (size 15 to 20)
#    0.000    1.250    3.750    3.750    0.000    2.500 
#    0.000    1.250    0.000    0.000    0.000    0.000 
#    0.000    0.000    0.000    0.000    0.000    0.000 
#
# Total GULP energy -396916.668017 kJ/mol
# GULP energy per Si atom -12403.645876 kJ/mol
# Density = 2.012961 g / cm^3
# Si number density = 20.175533 Si / 1000 Ang^3
#
#
#
# Elastic Constant Matrix: (Units=GPa)
#
#
# Indices 1 2 3 4 5 6 
#
# 1 54.6007 28.3317 28.9505 0.0000 13.2020 0.0000
# 2 28.3317 71.6009 27.4213 0.0000 0.0858 0.0000
# 3 28.9505 27.4213 89.1111 0.0000 18.3385 0.0000
# 4 0.0000 0.0000 0.0000 27.5496 0.0000 -2.8852
# 5 13.2020 0.0858 18.3385 0.0000 35.5373 0.0000
# 6 0.0000 0.0000 0.0000 -2.8852 0.0000 32.1346
#
#
#
# Elastic Compliance Matrix: (Units=1/GPa)
#
#
# Indices 1 2 3 4 5 6 
#
# 1 0.027278 -0.009075 -0.004462 0.000000 -0.007809 0.000000
# 2 -0.009075 0.019099 -0.004042 0.000000 0.005411 0.000000
# 3 -0.004462 -0.004042 0.015185 0.000000 -0.006169 0.000000
# 4 0.000000 0.000000 0.000000 0.036643 0.000000 0.003290
# 5 -0.007809 0.005411 -0.006169 0.000000 0.034211 0.000000
# 6 0.000000 0.000000 0.000000 0.003290 0.000000 0.031415
#
#
# Mechanical properties :
#
#
# Convention : Reuss Voigt Hill
#
# Bulk Modulus (GPa) = 37.87601 42.74661 40.31131
# Shear Modulus (GPa) = 24.06269 27.75159 25.90714
#
# Velocity S-wave (km/s) = 3.45725 3.71281 3.58730
# Velocity P-wave (km/s) = 5.89498 6.29391 6.09770
#
# Compressibility (1/GPa) = 0.02640194
#
# Stress axis : x y z
#
# Youngs Moduli (GPa) = 36.65949 52.35903 65.85417
#
# Poissons Ratio (x) = 0.47517 0.29387
# Poissons Ratio (y) = 0.33269 0.26621
# Poissons Ratio (z) = 0.16359 0.21165
#
# Static dielectric constant tensor:
#      x y z
#    x 3.711850 0.000000 0.145150 
#    y 0.000000 3.526880 0.000000 
#    z 0.145150 0.000000 3.646680 
# 
# 
# High freq. dielectric constant tensor:
#      x y z
#    x 1.784810 0.000000 0.015120 
#    y 0.000000 1.775470 0.000000 
#    z 0.015120 0.000000 1.787690 
# 
# From -- ./inp_files/40033.got.cif
#   From: 2010.06.25/outbox.cif.g09.slc.cpg/sg11_21_cif.got.tgz:40033.got - 2010.06.27 23:14:04.
