data_PCOD8069464
_publ_section_title
;
Structure prediction by ZEFSAII (Michael W. Deem and Ramdas Pophale) SiO2 
 PCOD8069464
Probable space group: P 21/M
;
_chemical_formula_sum "Si O2"
_cell_formula_units_Z 28
_cell_length_a 20.530531
_cell_length_b 8.790532
_cell_length_c 12.475372
_cell_angle_alpha 90.000000
_cell_angle_beta 46.886839
_cell_angle_gamma 90.000000
_cell_volume 1643.595197
_symmetry_space_group_name_H-M "P 21/M"
_symmetry_group_IT_number 11
_symmetry_cell_setting 'monoclinic'
loop_
_space_group_symop_operation_xyz
x,y,z
-x,1/2+y,-z
-x,-y,-z
x,1/2-y,z
loop_
_atom_site_type_symbol
_atom_site_label
_atom_site_fract_x
_atom_site_fract_y
_atom_site_fract_z
Si Si1 0.938543 0.916425 0.923626
Si Si2 0.427156 0.569720 0.310482
Si Si3 0.296963 0.429082 0.615572
Si Si4 0.380145 0.570006 0.936850
Si Si5 0.597719 0.568208 0.874889
Si Si6 0.745140 0.929181 0.094251
Si Si7 0.105282 0.416574 0.778970
O O1 0.949281 0.750000 0.862047
O O2 0.848087 0.988269 0.976150
O O3 0.928329 0.906772 0.062147
O O4 0.030695 0.000871 0.790295
O O5 0.432347 0.750000 0.291128
O O6 0.377935 0.524783 0.475385
O O7 0.526636 0.503724 0.203941
O O8 0.369996 0.495379 0.276582
O O9 0.308266 0.250000 0.579591
O O10 0.297588 0.459305 0.741564
O O11 0.204010 0.491181 0.667740
O O12 0.392232 0.750000 0.934819
O O13 0.306283 0.531350 0.932592
O O14 0.345898 0.498082 0.088541
O O15 0.598316 0.750000 0.875137
O O16 0.500000 0.500000 0.000000
O O17 0.739369 0.750000 0.073093
O O18 0.113652 0.250000 0.719472
#
# Coordination Sequence:
#
# PCOD8069464 Si02
#       7
#     4   4   4   4   4   4   4
#     4   8  14  25  42  63  88 118 151 188 227 266
#     4  11  21  33  49  69  93 121 155 193 232 273
#     4   9  18  32  47  66  95 128 159 190 227 273
#     4  11  21  33  49  69  93 121 155 193 232 273
#     4  10  18  32  52  70  89 114 149 192 234 272
#     4   9  18  32  47  66  95 128 159 190 227 273
#     4   8  14  25  42  63  88 118 151 188 227 266
#
# _framework density 17.035824999999999
#
# number of rings (size 3 to 8) (size 9 to 14) (size 15 to 20)
#    0.000    2.571    0.000    7.286    0.000    2.286 
#    0.000    2.857    0.000    0.000    0.000    1.000 
#    0.000    0.000    0.000    0.000    0.000    0.000 
#
# Total GULP energy -346944.222515 kJ/mol
# GULP energy per Si atom -12390.865090 kJ/mol
# Density = 1.699705 g / cm^3
# Si number density = 17.035825 Si / 1000 Ang^3
#
#
#
# Elastic Constant Matrix: (Units=GPa)
#
#
# Indices 1 2 3 4 5 6 
#
# 1 112.7271 48.9844 31.0526 0.0000 0.3502 0.0000
# 2 48.9844 108.9456 14.7761 0.0000 5.1152 0.0000
# 3 31.0526 14.7761 12.9498 0.0000 6.7700 0.0000
# 4 0.0000 0.0000 0.0000 23.2115 0.0000 -0.2974
# 5 0.3502 5.1152 6.7700 0.0000 16.3544 0.0000
# 6 0.0000 0.0000 0.0000 -0.2974 0.0000 30.3823
#
#
#
# Elastic Compliance Matrix: (Units=1/GPa)
#
#
# Indices 1 2 3 4 5 6 
#
# 1 0.057418 -0.006471 -0.166817 0.000000 0.069849 0.000000
# 2 -0.006471 0.011652 0.005175 0.000000 -0.005648 0.000000
# 3 -0.166817 0.005175 0.600195 0.000000 -0.246500 0.000000
# 4 0.000000 0.000000 0.000000 0.043087 0.000000 0.000422
# 5 0.069849 -0.005648 -0.246500 0.000000 0.163456 0.000000
# 6 0.000000 0.000000 0.000000 0.000422 0.000000 0.032918
#
#
# Mechanical properties :
#
#
# Convention : Reuss Voigt Hill
#
# Bulk Modulus (GPa) = 3.00265 47.13872 25.07069
# Shear Modulus (GPa) = 3.68741 23.31028 13.49885
#
# Velocity S-wave (km/s) = 1.47282 3.70308 2.81798
# Velocity P-wave (km/s) = 2.15839 6.78337 5.03353
#
# Compressibility (1/GPa) = 0.33303930
#
# Stress axis : x y z
#
# Youngs Moduli (GPa) = 17.41601 85.82378 1.66613
#
# Poissons Ratio (x) = 0.55538 0.27794
# Poissons Ratio (y) = 0.11270 -0.00862
# Poissons Ratio (z) = 2.90528 -0.44414
#
# Static dielectric constant tensor:
#      x y z
#    x 3.347530 0.000000 0.072820 
#    y 0.000000 3.297700 0.000000 
#    z 0.072820 0.000000 3.128510 
# 
# 
# High freq. dielectric constant tensor:
#      x y z
#    x 1.650280 0.000000 -0.005390 
#    y 0.000000 1.660260 0.000000 
#    z -0.005390 0.000000 1.619510 
# 
# From -- ./inp_files/42334.got.cif
#   From: 2010.06.25/outbox.cif.g09.slc.cpg/sg11_22_cif.got.tgz:42334.got - 2010.06.27 23:14:04.
