data_PCOD8069400
_publ_section_title
;
Structure prediction by ZEFSAII (Michael W. Deem and Ramdas Pophale) SiO2 
 PCOD8069400
Probable space group: P 21/M
;
_chemical_formula_sum "Si O2"
_cell_formula_units_Z 32
_cell_length_a 15.817299
_cell_length_b 17.971630
_cell_length_c 12.551193
_cell_angle_alpha 90.000000
_cell_angle_beta 29.134184
_cell_angle_gamma 90.000000
_cell_volume 1737.024199
_symmetry_space_group_name_H-M "P 21/M"
_symmetry_group_IT_number 11
_symmetry_cell_setting 'monoclinic'
loop_
_space_group_symop_operation_xyz
x,y,z
-x,1/2+y,-z
-x,-y,-z
x,1/2-y,z
loop_
_atom_site_type_symbol
_atom_site_label
_atom_site_fract_x
_atom_site_fract_y
_atom_site_fract_z
Si Si1 0.619059 0.662909 0.512270
Si Si2 0.964876 0.521830 0.658475
Si Si3 0.726830 0.432500 0.422259
Si Si4 0.074042 0.834164 0.655591
Si Si5 0.726961 0.092854 0.180142
Si Si6 0.094124 0.068944 0.707850
Si Si7 0.267961 0.332006 0.842950
Si Si8 0.366325 0.034751 0.856068
O O1 0.627411 0.750000 0.527512
O O2 0.415045 0.639390 0.732413
O O3 0.734590 0.621362 0.475196
O O4 0.709941 0.638901 0.301582
O O5 0.000000 0.500000 0.500000
O O6 0.026373 0.606889 0.614689
O O7 0.063682 0.460074 0.620695
O O8 0.755642 0.517993 0.908224
O O9 0.755859 0.363407 0.470279
O O10 0.686063 0.400151 0.350162
O O11 0.883667 0.492543 0.247078
O O12 0.569525 0.482387 0.647051
O O13 0.100368 0.750000 0.580184
O O14 0.933704 0.833526 0.904667
O O15 0.711780 0.007455 0.160530
O O16 0.926231 0.116122 0.934424
O O17 0.348803 0.250000 0.761015
O O18 0.369944 0.378826 0.818898
#
# Coordination Sequence:
#
# PCOD8069400 Si02
#       8
#     4   4   4   4   4   4   4   4
#     4  11  21  33  51  77 113 152 188 223 264 325
#     4   9  20  39  60  81 101 138 191 233 287 329
#     4  11  18  30  53  81 113 144 179 216 267 332
#     4   9  19  33  52  79 112 140 176 227 278 329
#     4  11  20  32  52  78 117 150 185 211 266 328
#     4  10  21  35  53  78 109 145 183 233 271 323
#     4   9  17  30  46  73 111 148 176 211 263 321
#     4  10  18  31  54  79 105 144 180 224 268 314
#
# _framework density 18.422312999999999
#
# number of rings (size 3 to 8) (size 9 to 14) (size 15 to 20)
#    0.000    2.000    2.500    3.000    0.000    1.500 
#    0.000    3.125    0.000    0.750    0.000    0.000 
#    0.000    0.000    0.000    0.000    0.000    0.000 
#
# Total GULP energy -396492.612168 kJ/mol
# GULP energy per Si atom -12390.394130 kJ/mol
# Density = 1.838038 g / cm^3
# Si number density = 18.422313 Si / 1000 Ang^3
#
#
#
# Elastic Constant Matrix: (Units=GPa)
#
#
# Indices 1 2 3 4 5 6 
#
# 1 86.6453 41.4630 59.4428 0.0000 -1.0442 0.0000
# 2 41.4630 86.8217 37.3024 0.0000 -0.8290 0.0000
# 3 59.4428 37.3024 85.6908 0.0000 -5.1243 0.0000
# 4 0.0000 0.0000 0.0000 21.5041 0.0000 -3.7437
# 5 -1.0442 -0.8290 -5.1243 0.0000 32.0400 0.0000
# 6 0.0000 0.0000 0.0000 -3.7437 0.0000 22.0559
#
#
#
# Elastic Compliance Matrix: (Units=1/GPa)
#
#
# Indices 1 2 3 4 5 6 
#
# 1 0.023914 -0.005248 -0.014404 0.000000 -0.001660 0.000000
# 2 -0.005248 0.015332 -0.003049 0.000000 -0.000262 0.000000
# 3 -0.014404 -0.003049 0.023178 0.000000 0.003159 0.000000
# 4 0.000000 0.000000 0.000000 0.047919 0.000000 0.008134
# 5 -0.001660 -0.000262 0.003159 0.000000 0.031655 0.000000
# 6 0.000000 0.000000 0.000000 0.008134 0.000000 0.046720
#
#
# Mechanical properties :
#
#
# Convention : Reuss Voigt Hill
#
# Bulk Modulus (GPa) = 58.74850 59.50822 59.12836
# Shear Modulus (GPa) = 20.85118 23.18331 22.01725
#
# Velocity S-wave (km/s) = 3.36794 3.55129 3.46083
# Velocity P-wave (km/s) = 6.86171 7.01341 6.93798
#
# Compressibility (1/GPa) = 0.01702171
#
# Stress axis : x y z
#
# Youngs Moduli (GPa) = 41.81571 65.22426 43.14431
#
# Poissons Ratio (x) = 0.34230 0.62145
# Poissons Ratio (y) = 0.21945 0.13156
# Poissons Ratio (z) = 0.60231 0.19889
#
# Static dielectric constant tensor:
#      x y z
#    x 3.105870 0.000000 -0.369930 
#    y 0.000000 3.478940 0.000000 
#    z -0.369930 0.000000 3.396000 
# 
# 
# High freq. dielectric constant tensor:
#      x y z
#    x 1.681880 0.000000 -0.035330 
#    y 0.000000 1.713340 0.000000 
#    z -0.035330 0.000000 1.701180 
# 
# From -- ./inp_files/36351.got.cif
#   From: 2010.06.25/outbox.cif.g09.slc.cpg/sg11_19_cif.got.tgz:36351.got - 2010.06.27 23:14:04.
