data_PCOD8069441
_publ_section_title
;
Structure prediction by ZEFSAII (Michael W. Deem and Ramdas Pophale) SiO2 
 PCOD8069441
Probable space group: P 21/M
;
_chemical_formula_sum "Si O2"
_cell_formula_units_Z 32
_cell_length_a 20.721587
_cell_length_b 8.786769
_cell_length_c 12.493066
_cell_angle_alpha 90.000000
_cell_angle_beta 125.347058
_cell_angle_gamma 90.000000
_cell_volume 1855.375704
_symmetry_space_group_name_H-M "P 21/M"
_symmetry_group_IT_number 11
_symmetry_cell_setting 'monoclinic'
loop_
_space_group_symop_operation_xyz
x,y,z
-x,1/2+y,-z
-x,-y,-z
x,1/2-y,z
loop_
_atom_site_type_symbol
_atom_site_label
_atom_site_fract_x
_atom_site_fract_y
_atom_site_fract_z
Si Si1 0.600581 0.573696 0.685503
Si Si2 0.008167 0.071963 0.392264
Si Si3 0.164522 0.569706 0.533832
Si Si4 0.419526 0.926353 0.552588
Si Si5 0.316415 0.926299 0.041643
Si Si6 0.414832 0.926022 0.927163
Si Si7 0.835628 0.072574 0.223003
Si Si8 0.323894 0.070495 0.648464
O O1 0.611882 0.750000 0.668687
O O2 0.618248 0.477423 0.596003
O O3 0.512700 0.539601 0.643248
O O4 0.662604 0.524076 0.834697
O O5 0.025462 0.250000 0.418693
O O6 0.922505 0.042757 0.253532
O O7 0.000000 0.000000 0.500000
O O8 0.081730 0.991076 0.402574
O O9 0.166608 0.750000 0.526427
O O10 0.169051 0.507899 0.660551
O O11 0.237709 0.498890 0.539189
O O12 0.400478 0.750000 0.553785
O O13 0.383886 0.025717 0.613036
O O14 0.308670 0.750000 0.067301
O O15 0.384216 0.947252 0.018045
O O16 0.233262 0.995381 0.918006
O O17 0.420666 0.750000 0.900430
O O18 0.353347 0.005607 0.789389
O O19 0.500000 0.000000 0.000000
O O20 0.817726 0.250000 0.217285
O O21 0.318273 0.250000 0.650895
#
# Coordination Sequence:
#
# PCOD8069441 Si02
#       8
#     4   4   4   4   4   4   4   4
#     4  10  21  36  54  77 100 125 167 220 261 298
#     4   9  16  27  45  69  97 132 171 209 251 298
#     4  10  18  32  49  69 101 137 171 209 252 302
#     4  10  21  38  57  73  96 132 171 213 262 308
#     4  10  19  33  51  71  99 138 172 203 249 303
#     4  11  22  35  50  70 102 139 175 209 250 305
#     4   8  15  29  47  68  98 134 169 205 245 296
#     4  12  23  34  51  76 104 134 171 213 257 305
#
# _framework density 17.247181000000001
#
# number of rings (size 3 to 8) (size 9 to 14) (size 15 to 20)
#    0.000    2.000    1.250    4.500    0.000    4.500 
#    0.000    1.250    0.000    0.000    0.000    0.875 
#    0.000    0.000    0.000    0.000    0.000    0.000 
#
# Total GULP energy -396759.067410 kJ/mol
# GULP energy per Si atom -12398.720857 kJ/mol
# Density = 1.720793 g / cm^3
# Si number density = 17.247181 Si / 1000 Ang^3
#
#
#
# Elastic Constant Matrix: (Units=GPa)
#
#
# Indices 1 2 3 4 5 6 
#
# 1 38.6988 26.7101 19.1667 0.0000 14.6870 0.0000
# 2 26.7101 92.7577 24.3335 0.0000 7.8337 0.0000
# 3 19.1667 24.3335 74.0267 0.0000 11.2094 0.0000
# 4 0.0000 0.0000 0.0000 26.5016 0.0000 2.8628
# 5 14.6870 7.8337 11.2094 0.0000 27.5800 0.0000
# 6 0.0000 0.0000 0.0000 2.8628 0.0000 28.2728
#
#
#
# Elastic Compliance Matrix: (Units=1/GPa)
#
#
# Indices 1 2 3 4 5 6 
#
# 1 0.041166 -0.009066 -0.005060 0.000000 -0.017290 0.000000
# 2 -0.009066 0.013888 -0.002506 0.000000 0.001902 0.000000
# 3 -0.005060 -0.002506 0.016119 0.000000 -0.003145 0.000000
# 4 0.000000 0.000000 0.000000 0.038151 0.000000 -0.003863
# 5 -0.017290 0.001902 -0.003145 0.000000 0.046203 0.000000
# 6 0.000000 0.000000 0.000000 -0.003863 0.000000 0.035761
#
#
# Mechanical properties :
#
#
# Convention : Reuss Voigt Hill
#
# Bulk Modulus (GPa) = 26.37930 38.43376 32.40653
# Shear Modulus (GPa) = 21.08018 25.48909 23.28464
#
# Velocity S-wave (km/s) = 3.49985 3.84848 3.67830
# Velocity P-wave (km/s) = 5.62672 6.48692 6.07207
#
# Compressibility (1/GPa) = 0.03790851
#
# Stress axis : x y z
#
# Youngs Moduli (GPa) = 24.29160 72.00339 62.03983
#
# Poissons Ratio (x) = 0.65281 0.31394
# Poissons Ratio (y) = 0.22024 0.15546
# Poissons Ratio (z) = 0.12292 0.18042
#
# Static dielectric constant tensor:
#      x y z
#    x 3.323280 0.000000 0.372470 
#    y 0.000000 3.241530 0.000000 
#    z 0.372470 0.000000 3.262720 
# 
# 
# High freq. dielectric constant tensor:
#      x y z
#    x 1.653980 0.000000 0.026200 
#    y 0.000000 1.671000 0.000000 
#    z 0.026200 0.000000 1.645210 
# 
# From -- ./inp_files/42942.got.cif
#   From: 2010.06.25/outbox.cif.g09.slc.cpg/sg11_22_cif.got.tgz:42942.got - 2010.06.27 23:14:04.
