data_PCOD8069413
_publ_section_title
;
Structure prediction by ZEFSAII (Michael W. Deem and Ramdas Pophale) SiO2 
 PCOD8069413
Probable space group: P 21/M
;
_chemical_formula_sum "Si O2"
_cell_formula_units_Z 28
_cell_length_a 15.142130
_cell_length_b 8.758957
_cell_length_c 12.160307
_cell_angle_alpha 90.000000
_cell_angle_beta 52.045565
_cell_angle_gamma 90.000000
_cell_volume 1271.702910
_symmetry_space_group_name_H-M "P 21/M"
_symmetry_group_IT_number 11
_symmetry_cell_setting 'monoclinic'
loop_
_space_group_symop_operation_xyz
x,y,z
-x,1/2+y,-z
-x,-y,-z
x,1/2-y,z
loop_
_atom_site_type_symbol
_atom_site_label
_atom_site_fract_x
_atom_site_fract_y
_atom_site_fract_z
Si Si1 0.233924 0.066519 0.882822
Si Si2 0.179719 0.430637 0.313534
Si Si3 0.469998 0.417483 0.733358
Si Si4 0.396349 0.415624 0.033685
Si Si5 0.908058 0.430222 0.820675
Si Si6 0.282559 0.574303 0.442603
Si Si7 0.122244 0.926009 0.762087
O O1 0.227771 0.250000 0.882076
O O2 0.362894 0.009755 0.751019
O O3 0.150677 0.990280 0.859859
O O4 0.193488 0.010773 0.034368
O O5 0.159198 0.250000 0.330502
O O6 0.284457 0.494901 0.162420
O O7 0.081910 0.509437 0.315007
O O8 0.198778 0.488494 0.422987
O O9 0.497911 0.250000 0.663336
O O10 0.590911 0.502497 0.649014
O O11 0.405867 0.402410 0.897297
O O12 0.395165 0.250000 0.090578
O O13 0.500000 0.500000 0.000000
O O14 0.890353 0.250000 0.835081
O O15 0.024227 0.471977 0.788646
O O16 0.292558 0.750000 0.395767
O O17 0.231574 0.559011 0.602130
O O18 0.083166 0.750000 0.801393
#
# Coordination Sequence:
#
# PCOD8069413 Si02
#       7
#     4   4   4   4   4   4   4
#     4  11  22  41  67  94 124 157 200 254 309 358
#     4  11  22  37  60  93 127 159 198 249 307 363
#     4   9  18  35  60  90 124 159 196 242 300 359
#     4  10  18  31  54  86 123 158 193 241 301 358
#     4  12  25  42  66  92 119 157 206 256 309 362
#     4  10  22  41  63  89 125 168 206 243 293 363
#     4  11  25  44  63  87 122 163 209 255 301 356
#
# _framework density 22.017720000000001
#
# number of rings (size 3 to 8) (size 9 to 14) (size 15 to 20)
#    0.000    1.429    2.857    3.000    0.000    2.857 
#    0.000    1.429    0.000    0.000    0.000    0.000 
#    0.000    0.000    0.000    0.000    0.000    0.000 
#
# Total GULP energy -346886.489528 kJ/mol
# GULP energy per Si atom -12388.803197 kJ/mol
# Density = 2.196761 g / cm^3
# Si number density = 22.017720 Si / 1000 Ang^3
#
#
#
# Elastic Constant Matrix: (Units=GPa)
#
#
# Indices 1 2 3 4 5 6 
#
# 1 107.5833 25.7290 -2.5428 0.0000 2.0420 0.0000
# 2 25.7290 90.9968 15.6225 0.0000 2.8152 0.0000
# 3 -2.5428 15.6225 37.6707 0.0000 0.4697 0.0000
# 4 0.0000 0.0000 0.0000 23.1158 0.0000 4.4095
# 5 2.0420 2.8152 0.4697 0.0000 31.6909 0.0000
# 6 0.0000 0.0000 0.0000 4.4095 0.0000 28.1796
#
#
#
# Elastic Compliance Matrix: (Units=1/GPa)
#
#
# Indices 1 2 3 4 5 6 
#
# 1 0.010114 -0.003193 0.002012 0.000000 -0.000398 0.000000
# 2 -0.003193 0.012870 -0.005542 0.000000 -0.000855 0.000000
# 3 0.002012 -0.005542 0.028981 0.000000 -0.000067 0.000000
# 4 0.000000 0.000000 0.000000 0.044591 0.000000 -0.006978
# 5 -0.000398 -0.000855 -0.000067 0.000000 0.031657 0.000000
# 6 0.000000 0.000000 0.000000 -0.006978 0.000000 0.036578
#
#
# Mechanical properties :
#
#
# Convention : Reuss Voigt Hill
#
# Bulk Modulus (GPa) = 25.96168 34.87425 30.41796
# Shear Modulus (GPa) = 26.16733 29.76008 27.96370
#
# Velocity S-wave (km/s) = 3.45115 3.68046 3.56765
# Velocity P-wave (km/s) = 5.26284 5.82534 5.55122
#
# Compressibility (1/GPa) = 0.03851831
#
# Stress axis : x y z
#
# Youngs Moduli (GPa) = 98.87514 77.69953 34.50546
#
# Poissons Ratio (x) = 0.24807 -0.06941
# Poissons Ratio (y) = 0.31568 0.19124
# Poissons Ratio (z) = -0.19891 0.43063
#
# Static dielectric constant tensor:
#      x y z
#    x 4.246980 0.000000 -0.112120 
#    y 0.000000 3.753300 0.000000 
#    z -0.112120 0.000000 3.779510 
# 
# 
# High freq. dielectric constant tensor:
#      x y z
#    x 1.888780 0.000000 -0.006480 
#    y 0.000000 1.843220 0.000000 
#    z -0.006480 0.000000 1.856360 
# 
# From -- ./inp_files/37844.got.cif
#   From: 2010.06.25/outbox.cif.g09.slc.cpg/sg11_19_cif.got.tgz:37844.got - 2010.06.27 23:14:04.
