data_PCOD8069676
_publ_section_title
;
Structure prediction by ZEFSAII (Michael W. Deem and Ramdas Pophale) SiO2 
 PCOD8069676
Probable space group: P 21/M
;
_chemical_formula_sum "Si O2"
_cell_formula_units_Z 28
_cell_length_a 18.683233
_cell_length_b 8.644090
_cell_length_c 9.871128
_cell_angle_alpha 90.000000
_cell_angle_beta 114.209138
_cell_angle_gamma 90.000000
_cell_volume 1453.981872
_symmetry_space_group_name_H-M "P 21/M"
_symmetry_group_IT_number 11
_symmetry_cell_setting 'monoclinic'
loop_
_space_group_symop_operation_xyz
x,y,z
-x,1/2+y,-z
-x,-y,-z
x,1/2-y,z
loop_
_atom_site_type_symbol
_atom_site_label
_atom_site_fract_x
_atom_site_fract_y
_atom_site_fract_z
Si Si1 0.649242 0.431406 0.940152
Si Si2 0.228972 0.428699 0.165237
Si Si3 0.491079 0.566358 0.843887
Si Si4 0.332064 0.066472 0.749336
Si Si5 0.054045 0.071715 0.928408
Si Si6 0.973828 0.932539 0.620272
Si Si7 0.198059 0.066622 0.441833
O O1 0.640316 0.250000 0.956058
O O2 0.675581 0.505894 0.103293
O O3 0.712123 0.466078 0.873737
O O4 0.566232 0.500845 0.821088
O O5 0.255705 0.250000 0.178261
O O6 0.228439 0.491444 0.319154
O O7 0.143825 0.450409 0.035953
O O8 0.491828 0.750000 0.841985
O O9 0.407345 0.502978 0.726849
O O10 0.500000 0.500000 0.000000
O O11 0.339605 0.250000 0.759670
O O12 0.256266 0.011569 0.605938
O O13 0.031869 0.250000 0.893670
O O14 0.039354 0.982520 0.778010
O O15 0.000000 0.000000 0.000000
O O16 0.970000 0.750000 0.607491
O O17 0.888501 0.000653 0.595359
O O18 0.000000 0.000000 0.500000
O O19 0.192782 0.250000 0.431615
#
# Coordination Sequence:
#
# PCOD8069676 Si02
#       7
#     4   4   4   4   4   4   4
#     4  11  22  36  56  87 117 146 189 237 280 334
#     4  10  21  40  60  81 112 153 193 233 284 343
#     4  10  18  33  56  83 114 149 186 230 282 336
#     4  10  19  35  60  86 113 150 189 232 285 340
#     4  11  22  39  63  86 114 155 197 241 291 347
#     4  11  23  41  60  87 119 154 197 243 292 347
#     4   9  20  39  60  81 113 153 190 230 287 345
#
# _framework density 19.257462
#
# number of rings (size 3 to 8) (size 9 to 14) (size 15 to 20)
#    0.000    1.714    1.429    5.571    2.000    1.143 
#    0.000    4.286    0.000    0.000    0.000    0.000 
#    0.000    0.000    0.000    0.000    0.000    0.000 
#
# Total GULP energy -347197.008151 kJ/mol
# GULP energy per Si atom -12399.893148 kJ/mol
# Density = 1.921363 g / cm^3
# Si number density = 19.257462 Si / 1000 Ang^3
#
#
#
# Elastic Constant Matrix: (Units=GPa)
#
#
# Indices 1 2 3 4 5 6 
#
# 1 122.9117 44.3451 45.8628 0.0000 -9.1869 0.0000
# 2 44.3451 104.5126 29.2037 0.0000 1.2905 0.0000
# 3 45.8628 29.2037 98.2601 0.0000 -10.8853 0.0000
# 4 0.0000 0.0000 0.0000 25.6413 0.0000 -0.4635
# 5 -9.1869 1.2905 -10.8853 0.0000 30.1401 0.0000
# 6 0.0000 0.0000 0.0000 -0.4635 0.0000 35.3528
#
#
#
# Elastic Compliance Matrix: (Units=1/GPa)
#
#
# Indices 1 2 3 4 5 6 
#
# 1 0.011039 -0.003639 -0.003834 0.000000 0.002136 0.000000
# 2 -0.003639 0.011712 -0.002043 0.000000 -0.002348 0.000000
# 3 -0.003834 -0.002043 0.012973 0.000000 0.003604 0.000000
# 4 0.000000 0.000000 0.000000 0.039009 0.000000 0.000511
# 5 0.002136 -0.002348 0.003604 0.000000 0.035231 0.000000
# 6 0.000000 0.000000 0.000000 0.000511 0.000000 0.028293
#
#
# Mechanical properties :
#
#
# Convention : Reuss Voigt Hill
#
# Bulk Modulus (GPa) = 59.90727 62.72305 61.31516
# Shear Modulus (GPa) = 30.70245 31.97838 31.34041
#
# Velocity S-wave (km/s) = 3.99722 4.07943 4.03853
# Velocity P-wave (km/s) = 7.24429 7.40476 7.32497
#
# Compressibility (1/GPa) = 0.01669247
#
# Stress axis : x y z
#
# Youngs Moduli (GPa) = 90.58630 85.38270 77.08252
#
# Poissons Ratio (x) = 0.31070 0.29557
# Poissons Ratio (y) = 0.32963 0.15745
# Poissons Ratio (z) = 0.34735 0.17440
#
# Static dielectric constant tensor:
#      x y z
#    x 3.959790 0.000000 0.221610 
#    y 0.000000 3.517280 0.000000 
#    z 0.221610 0.000000 3.542300 
# 
# 
# High freq. dielectric constant tensor:
#      x y z
#    x 1.760830 0.000000 0.009880 
#    y 0.000000 1.747520 0.000000 
#    z 0.009880 0.000000 1.740160 
# 
# From -- ./inp_files/42214.got.cif
#   From: 2010.06.25/outbox.cif.g09.slc.cpg/sg11_22_cif.got.tgz:42214.got - 2010.06.27 23:14:04.
