data_PCOD8069033
_publ_section_title
;
Structure prediction by ZEFSAII (Michael W. Deem and Ramdas Pophale) SiO2 
 PCOD8069033
Probable space group: P 21/M
;
_chemical_formula_sum "Si O2"
_cell_formula_units_Z 32
_cell_length_a 28.228808
_cell_length_b 8.692524
_cell_length_c 20.167151
_cell_angle_alpha 90.000000
_cell_angle_beta 20.769504
_cell_angle_gamma 90.000000
_cell_volume 1754.822385
_symmetry_space_group_name_H-M "P 21/M"
_symmetry_group_IT_number 11
_symmetry_cell_setting 'monoclinic'
loop_
_space_group_symop_operation_xyz
x,y,z
-x,1/2+y,-z
-x,-y,-z
x,1/2-y,z
loop_
_atom_site_type_symbol
_atom_site_label
_atom_site_fract_x
_atom_site_fract_y
_atom_site_fract_z
Si Si1 0.910616 0.066906 0.310829
Si Si2 0.373501 0.917827 0.301782
Si Si3 0.103289 0.431893 0.813397
Si Si4 0.618682 0.420388 0.551466
Si Si5 0.653126 0.069586 0.083110
Si Si6 0.095102 0.429441 0.189495
Si Si7 0.659099 0.565929 0.931776
Si Si8 0.919414 0.069369 0.544757
O O1 0.894125 0.250000 0.321538
O O2 0.768986 0.000483 0.526932
O O3 0.029601 0.027257 0.204911
O O4 0.940826 0.988487 0.201511
O O5 0.370658 0.750000 0.271796
O O6 0.383251 0.903591 0.367710
O O7 0.513325 0.999219 0.097152
O O8 0.099100 0.250000 0.820855
O O9 0.250524 0.487048 0.642312
O O10 0.000000 0.500000 0.000000
O O11 0.619971 0.250000 0.517300
O O12 0.485287 0.510353 0.703826
O O13 0.643532 0.250000 0.083800
O O14 0.770738 0.028732 0.980512
O O15 0.690672 0.989108 0.964746
O O16 0.131404 0.250000 0.146177
O O17 0.990895 0.474972 0.383059
O O18 0.658642 0.750000 0.932829
O O19 0.771010 0.502111 0.735832
O O20 0.908278 0.250000 0.569692
O O21 0.000000 0.000000 0.500000
#
# Coordination Sequence:
#
# PCOD8069033 Si02
#       8
#     4   4   4   4   4   4   4   4
#     4   9  18  36  57  77 103 140 181 219 262 317
#     4   7  13  27  49  71  93 126 167 212 261 309
#     4  11  21  35  58  88 116 141 172 211 256 308
#     4   9  17  32  53  78 108 138 173 216 260 308
#     4  11  20  30  49  76 105 137 178 225 269 315
#     4  10  21  35  52  72 102 143 184 223 271 323
#     4  10  18  30  48  70  98 132 175 226 277 321
#     4  11  21  32  47  70 100 137 181 229 274 319
#
# _framework density 18.235464
#
# number of rings (size 3 to 8) (size 9 to 14) (size 15 to 20)
#    0.000    2.250    1.250    4.875    0.000    1.000 
#    0.000    1.250    0.000    0.750    0.000    0.000 
#    0.000    0.000    0.000    0.000    0.000    0.000 
#
# Total GULP energy -396607.980447 kJ/mol
# GULP energy per Si atom -12393.999389 kJ/mol
# Density = 1.819396 g / cm^3
# Si number density = 18.235464 Si / 1000 Ang^3
#
#
#
# Elastic Constant Matrix: (Units=GPa)
#
#
# Indices 1 2 3 4 5 6 
#
# 1 66.9731 36.4933 51.7619 0.0000 -11.1391 0.0000
# 2 36.4933 103.5786 56.5925 0.0000 -5.2720 0.0000
# 3 51.7619 56.5925 142.3406 0.0000 -12.5200 0.0000
# 4 0.0000 0.0000 0.0000 32.7116 0.0000 -1.8511
# 5 -11.1391 -5.2720 -12.5200 0.0000 23.9204 0.0000
# 6 0.0000 0.0000 0.0000 -1.8511 0.0000 18.0294
#
#
#
# Elastic Compliance Matrix: (Units=1/GPa)
#
#
# Indices 1 2 3 4 5 6 
#
# 1 0.023170 -0.004524 -0.006044 0.000000 0.006629 0.000000
# 2 -0.004524 0.013218 -0.003710 0.000000 -0.001135 0.000000
# 3 -0.006044 -0.003710 0.010880 0.000000 0.002062 0.000000
# 4 0.000000 0.000000 0.000000 0.030749 0.000000 0.003157
# 5 0.006629 -0.001135 0.002062 0.000000 0.045722 0.000000
# 6 0.000000 0.000000 0.000000 0.003157 0.000000 0.055789
#
#
# Mechanical properties :
#
#
# Convention : Reuss Voigt Hill
#
# Bulk Modulus (GPa) = 53.44164 66.95421 60.19792
# Shear Modulus (GPa) = 23.32960 26.13524 24.73242
#
# Velocity S-wave (km/s) = 3.58068 3.78988 3.68677
# Velocity P-wave (km/s) = 6.81653 7.47978 7.15585
#
# Compressibility (1/GPa) = 0.01871200
#
# Stress axis : x y z
#
# Youngs Moduli (GPa) = 43.15877 75.65722 91.91373
#
# Poissons Ratio (x) = 0.34225 0.55555
# Poissons Ratio (y) = 0.19523 0.34099
# Poissons Ratio (z) = 0.26086 0.28068
#
# Static dielectric constant tensor:
#      x y z
#    x 3.094200 0.000000 -0.345940 
#    y 0.000000 3.330390 0.000000 
#    z -0.345940 0.000000 3.749400 
# 
# 
# High freq. dielectric constant tensor:
#      x y z
#    x 1.667070 0.000000 -0.027060 
#    y 0.000000 1.701170 0.000000 
#    z -0.027060 0.000000 1.717160 
# 
# From -- ./inp_files/67394.got.cif
#   From: 2010.06.25/outbox.cif.g09.slc.cpg/sg11_34_cif.got.tgz:67394.got - 2010.06.27 23:14:04.
