data_PCOD8069239
_publ_section_title
;
Structure prediction by ZEFSAII (Michael W. Deem and Ramdas Pophale) SiO2 
 PCOD8069239
Probable space group: P 21/M
;
_chemical_formula_sum "Si O2"
_cell_formula_units_Z 32
_cell_length_a 23.623779
_cell_length_b 8.734813
_cell_length_c 12.541724
_cell_angle_alpha 90.000000
_cell_angle_beta 46.776764
_cell_angle_gamma 90.000000
_cell_volume 1885.834601
_symmetry_space_group_name_H-M "P 21/M"
_symmetry_group_IT_number 11
_symmetry_cell_setting 'monoclinic'
loop_
_space_group_symop_operation_xyz
x,y,z
-x,1/2+y,-z
-x,-y,-z
x,1/2-y,z
loop_
_atom_site_type_symbol
_atom_site_label
_atom_site_fract_x
_atom_site_fract_y
_atom_site_fract_z
Si Si1 0.169011 0.570032 0.378579
Si Si2 0.999294 0.070101 0.384604
Si Si3 0.328411 0.930146 0.256050
Si Si4 0.418482 0.573219 0.573858
Si Si5 0.404527 0.928810 0.939306
Si Si6 0.152861 0.931087 0.157271
Si Si7 0.432211 0.572633 0.312047
Si Si8 0.304348 0.069538 0.884940
O O1 0.181383 0.750000 0.351692
O O2 0.242286 0.497765 0.347870
O O3 0.167356 0.507485 0.259167
O O4 0.088270 0.534906 0.546053
O O5 0.014960 0.250000 0.369569
O O6 0.067613 0.990008 0.228018
O O7 0.000000 0.000000 0.500000
O O8 0.319653 0.750000 0.276740
O O9 0.384725 0.974933 0.085859
O O10 0.366043 0.991197 0.317171
O O11 0.500000 0.500000 0.500000
O O12 0.421767 0.750000 0.602936
O O13 0.401193 0.552218 0.471350
O O14 0.348468 0.492393 0.724729
O O15 0.390080 0.750000 0.936985
O O16 0.492635 0.969724 0.801641
O O17 0.348243 0.022241 0.935376
O O18 0.155466 0.750000 0.145203
O O19 0.217588 0.001743 0.996423
O O20 0.453151 0.750000 0.261305
O O21 0.300502 0.250000 0.882364
#
# Coordination Sequence:
#
# PCOD8069239 Si02
#       8
#     4   4   4   4   4   4   4   4
#     4   8  14  26  46  70  99 132 162 191 237 294
#     4   9  16  26  43  69 100 135 168 198 237 292
#     4   9  17  31  50  74 101 133 166 202 245 295
#     4  11  22  36  53  73  97 129 168 211 255 295
#     4  11  20  32  52  72 100 134 165 202 251 299
#     4  10  18  31  49  71 100 131 163 202 250 301
#     4  10  21  35  52  72  97 128 171 212 246 294
#     4  12  23  34  51  74  99 130 170 211 251 298
#
# _framework density 16.968613999999999
#
# number of rings (size 3 to 8) (size 9 to 14) (size 15 to 20)
#    0.000    2.000    2.500    3.750    0.000    0.500 
#    0.000    0.625    0.000    0.000    0.000    0.875 
#    0.000    0.000    0.000    0.000    0.000    0.000 
#
# Total GULP energy -396672.091239 kJ/mol
# GULP energy per Si atom -12396.002851 kJ/mol
# Density = 1.692999 g / cm^3
# Si number density = 16.968614 Si / 1000 Ang^3
#
#
#
# Elastic Constant Matrix: (Units=GPa)
#
#
# Indices 1 2 3 4 5 6 
#
# 1 45.5528 33.0799 51.8448 0.0000 -11.4736 0.0000
# 2 33.0799 86.4985 49.1657 0.0000 -10.9037 0.0000
# 3 51.8448 49.1657 119.0507 0.0000 -23.5096 0.0000
# 4 0.0000 0.0000 0.0000 25.7687 0.0000 -5.4666
# 5 -11.4736 -10.9037 -23.5096 0.0000 34.2212 0.0000
# 6 0.0000 0.0000 0.0000 -5.4666 0.0000 15.1013
#
#
#
# Elastic Compliance Matrix: (Units=1/GPa)
#
#
# Indices 1 2 3 4 5 6 
#
# 1 0.047887 -0.008412 -0.017052 0.000000 0.001661 0.000000
# 2 -0.008412 0.016596 -0.003128 0.000000 0.000319 0.000000
# 3 -0.017052 -0.003128 0.018270 0.000000 0.005838 0.000000
# 4 0.000000 0.000000 0.000000 0.042035 0.000000 0.015217
# 5 0.001661 0.000319 0.005838 0.000000 0.033890 0.000000
# 6 0.000000 0.000000 0.000000 0.015217 0.000000 0.071728
#
#
# Mechanical properties :
#
#
# Convention : Reuss Voigt Hill
#
# Bulk Modulus (GPa) = 39.10869 57.69810 48.40340
# Shear Modulus (GPa) = 16.88549 22.81901 19.85225
#
# Velocity S-wave (km/s) = 3.15795 3.67110 3.42415
# Velocity P-wave (km/s) = 6.03279 7.21429 6.64983
#
# Compressibility (1/GPa) = 0.02556976
#
# Stress axis : x y z
#
# Youngs Moduli (GPa) = 20.88255 60.25642 54.73400
#
# Poissons Ratio (x) = 0.50686 0.93333
# Poissons Ratio (y) = 0.17566 0.17118
# Poissons Ratio (z) = 0.35609 0.18845
#
# Static dielectric constant tensor:
#      x y z
#    x 3.592950 0.000000 -0.355580 
#    y 0.000000 3.155170 0.000000 
#    z -0.355580 0.000000 3.331010 
# 
# 
# High freq. dielectric constant tensor:
#      x y z
#    x 1.637190 0.000000 -0.027200 
#    y 0.000000 1.647490 0.000000 
#    z -0.027200 0.000000 1.644920 
# 
# From -- ./inp_files/43756.got.cif
#   From: 2010.06.25/outbox.cif.g09.slc.cpg/sg11_22_cif.got.tgz:43756.got - 2010.06.27 23:14:04.
