data_PCOD8069735
_publ_section_title
;
Structure prediction by ZEFSAII (Michael W. Deem and Ramdas Pophale) SiO2 
 PCOD8069735
Probable space group: P 21/M
;
_chemical_formula_sum "Si O2"
_cell_formula_units_Z 32
_cell_length_a 11.016617
_cell_length_b 14.297858
_cell_length_c 17.592766
_cell_angle_alpha 90.000000
_cell_angle_beta 149.924160
_cell_angle_gamma 90.000000
_cell_volume 1388.729061
_symmetry_space_group_name_H-M "P 21/M"
_symmetry_group_IT_number 11
_symmetry_cell_setting 'monoclinic'
loop_
_space_group_symop_operation_xyz
x,y,z
-x,1/2+y,-z
-x,-y,-z
x,1/2-y,z
loop_
_atom_site_type_symbol
_atom_site_label
_atom_site_fract_x
_atom_site_fract_y
_atom_site_fract_z
Si Si1 0.244090 0.501921 0.679657
Si Si2 0.622615 0.359062 0.522553
Si Si3 0.930625 0.051616 0.815755
Si Si4 0.530081 0.509100 0.350017
Si Si5 0.358168 0.354476 0.856814
Si Si6 0.100380 0.851859 0.877748
Si Si7 0.578787 0.640159 0.936995
Si Si8 0.206496 0.148691 0.419457
O O1 0.464285 0.493788 0.737837
O O2 0.199405 0.419866 0.716636
O O3 0.328751 0.595042 0.770403
O O4 0.000000 0.500000 0.500000
O O5 0.688012 0.250000 0.544042
O O6 0.847415 0.411118 0.686911
O O7 0.562684 0.408852 0.409530
O O8 0.388107 0.371831 0.447537
O O9 0.711199 0.067084 0.756424
O O10 0.973339 0.940473 0.846452
O O11 0.175384 0.106025 0.973052
O O12 0.765548 0.571153 0.501137
O O13 0.246771 0.250000 0.797296
O O14 0.616014 0.356087 0.954991
O O15 0.380558 0.393414 0.954245
O O16 0.999780 0.750000 0.853715
O O17 0.057737 0.855008 0.762724
O O18 0.547319 0.750000 0.911266
O O19 0.258924 0.250000 0.484573
#
# Coordination Sequence:
#
# PCOD8069735 Si02
#       8
#     4   4   4   4   4   4   4   4
#     4  12  29  45  68  99 142 183 222 276 351 412
#     4  10  19  33  57  95 135 178 224 267 327 397
#     4  11  20  39  68  96 133 174 231 279 335 404
#     4  11  23  38  60  97 140 182 211 274 349 406
#     4  10  24  47  72  97 126 176 236 281 327 399
#     4  10  18  33  65  98 124 164 225 284 324 383
#     4  11  26  48  73  99 131 177 233 285 334 404
#     4   9  17  32  57  93 129 166 218 272 325 389
#
# _framework density 23.042650999999999
#
# number of rings (size 3 to 8) (size 9 to 14) (size 15 to 20)
#    0.000    1.500    3.750    1.500    3.500    2.500 
#    0.000    0.000    0.000    0.000    0.000    0.000 
#    0.000    0.000    0.000    0.000    0.000    0.000 
#
# Total GULP energy -396518.184906 kJ/mol
# GULP energy per Si atom -12391.193278 kJ/mol
# Density = 2.299020 g / cm^3
# Si number density = 23.042651 Si / 1000 Ang^3
#
#
#
# Elastic Constant Matrix: (Units=GPa)
#
#
# Indices 1 2 3 4 5 6 
#
# 1 63.1135 26.9595 22.2531 0.0000 -21.1118 0.0000
# 2 26.9595 129.8780 52.8734 0.0000 -13.3652 0.0000
# 3 22.2531 52.8734 124.8831 0.0000 -1.7193 0.0000
# 4 0.0000 0.0000 0.0000 15.4942 0.0000 -0.2573
# 5 -21.1118 -13.3652 -1.7193 0.0000 24.8180 0.0000
# 6 0.0000 0.0000 0.0000 -0.2573 0.0000 21.6966
#
#
#
# Elastic Compliance Matrix: (Units=1/GPa)
#
#
# Indices 1 2 3 4 5 6 
#
# 1 0.024264 -0.001665 -0.003350 0.000000 0.019511 0.000000
# 2 -0.001665 0.010010 -0.003890 0.000000 0.003705 0.000000
# 3 -0.003350 -0.003890 0.010193 0.000000 -0.004239 0.000000
# 4 0.000000 0.000000 0.000000 0.064553 0.000000 0.000765
# 5 0.019511 0.003705 -0.004239 0.000000 0.058593 0.000000
# 6 0.000000 0.000000 0.000000 0.000765 0.000000 0.046099
#
#
# Mechanical properties :
#
#
# Convention : Reuss Voigt Hill
#
# Bulk Modulus (GPa) = 37.51477 58.00518 47.75997
# Shear Modulus (GPa) = 20.79799 26.78768 23.79284
#
# Velocity S-wave (km/s) = 3.00757 3.41328 3.21683
# Velocity P-wave (km/s) = 5.32696 6.38448 5.87955
#
# Compressibility (1/GPa) = 0.02665617
#
# Stress axis : x y z
#
# Youngs Moduli (GPa) = 41.21416 99.89815 98.10423
#
# Poissons Ratio (x) = 0.16632 0.32865
# Poissons Ratio (y) = 0.06862 0.38167
# Poissons Ratio (z) = 0.13807 0.38865
#
# Static dielectric constant tensor:
#      x y z
#    x 3.973460 0.000000 0.150570 
#    y 0.000000 4.300480 0.000000 
#    z 0.150570 0.000000 4.194070 
# 
# 
# High freq. dielectric constant tensor:
#      x y z
#    x 1.881080 0.000000 0.021990 
#    y 0.000000 1.915920 0.000000 
#    z 0.021990 0.000000 1.909070 
# 
# From -- ./inp_files/59490.got.cif
#   From: 2010.06.25/outbox.cif.g09.slc.cpg/sg11_30_cif.got.tgz:59490.got - 2010.06.27 23:14:04.
