data_PCOD8069495
_publ_section_title
;
Structure prediction by ZEFSAII (Michael W. Deem and Ramdas Pophale) SiO2 
 PCOD8069495
Probable space group: P 21/M
;
_chemical_formula_sum "Si O2"
_cell_formula_units_Z 24
_cell_length_a 12.621681
_cell_length_b 9.097261
_cell_length_c 24.213018
_cell_angle_alpha 90.000000
_cell_angle_beta 28.828262
_cell_angle_gamma 90.000000
_cell_volume 1340.575432
_symmetry_space_group_name_H-M "P 21/M"
_symmetry_group_IT_number 11
_symmetry_cell_setting 'monoclinic'
loop_
_space_group_symop_operation_xyz
x,y,z
-x,1/2+y,-z
-x,-y,-z
x,1/2-y,z
loop_
_atom_site_type_symbol
_atom_site_label
_atom_site_fract_x
_atom_site_fract_y
_atom_site_fract_z
Si Si1 0.115403 0.924341 0.748794
Si Si2 0.867831 0.418003 0.381968
Si Si3 0.773006 0.577797 0.616742
Si Si4 0.454711 0.422368 0.389571
Si Si5 0.648911 0.918440 0.794401
Si Si6 0.373770 0.074963 0.007393
O O1 0.108350 0.750000 0.750721
O O2 0.172891 0.980714 0.660920
O O3 0.304447 0.983718 0.703845
O O4 0.878220 0.980854 0.876819
O O5 0.790774 0.250000 0.422832
O O6 0.733693 0.511736 0.486535
O O7 0.124693 0.433358 0.276332
O O8 0.824625 0.750000 0.595605
O O9 0.593364 0.537853 0.652122
O O10 0.676406 0.524173 0.719200
O O11 0.000000 0.500000 0.500000
O O12 0.446605 0.250000 0.403294
O O13 0.566254 0.750000 0.833256
O O14 0.471244 0.022462 0.904583
O O15 0.393836 0.250000 0.004164
O O16 0.500000 0.000000 0.000000
#
# Coordination Sequence:
#
# PCOD8069495 Si02
#       6
#     4   4   4   4   4   4
#     4   9  19  35  52  74 107 140 169 211 267 312
#     4  10  18  32  53  76 109 141 164 210 270 312
#     4  10  20  34  54  77 105 139 174 216 259 307
#     4  10  20  34  53  78 105 137 177 213 256 315
#     4  10  20  35  53  78 109 138 172 216 264 307
#     4  11  21  36  57  79 105 139 177 217 260 310
#
# _framework density 17.902760000000001
#
# number of rings (size 3 to 8) (size 9 to 14) (size 15 to 20)
#    0.000    2.000    3.333    1.000    0.000    1.333 
#    0.000    2.500    0.000    0.000    0.000    0.000 
#    0.000    0.000    0.000    0.000    0.000    0.000 
#
# Total GULP energy -297604.769877 kJ/mol
# GULP energy per Si atom -12400.198745 kJ/mol
# Density = 1.786201 g / cm^3
# Si number density = 17.902760 Si / 1000 Ang^3
#
#
#
# Elastic Constant Matrix: (Units=GPa)
#
#
# Indices 1 2 3 4 5 6 
#
# 1 118.7834 27.7844 30.5341 0.0000 16.7724 0.0000
# 2 27.7844 37.3495 27.8715 0.0000 3.5846 0.0000
# 3 30.5341 27.8715 74.6311 0.0000 18.4155 0.0000
# 4 0.0000 0.0000 0.0000 28.0492 0.0000 6.8749
# 5 16.7724 3.5846 18.4155 0.0000 28.7169 0.0000
# 6 0.0000 0.0000 0.0000 6.8749 0.0000 20.2157
#
#
#
# Elastic Compliance Matrix: (Units=1/GPa)
#
#
# Indices 1 2 3 4 5 6 
#
# 1 0.010987 -0.007316 -0.000481 0.000000 -0.005195 0.000000
# 2 -0.007316 0.042618 -0.015045 0.000000 0.008601 0.000000
# 3 -0.000481 -0.015045 0.022194 0.000000 -0.012073 0.000000
# 4 0.000000 0.000000 0.000000 0.038894 0.000000 -0.013227
# 5 -0.005195 0.008601 -0.012073 0.000000 0.044526 0.000000
# 6 0.000000 0.000000 0.000000 -0.013227 0.000000 0.053965
#
#
# Mechanical properties :
#
#
# Convention : Reuss Voigt Hill
#
# Bulk Modulus (GPa) = 33.20601 44.79380 38.99991
# Shear Modulus (GPa) = 18.59383 25.03463 21.81423
#
# Velocity S-wave (km/s) = 3.22623 3.74353 3.49447
# Velocity P-wave (km/s) = 5.69792 6.61516 6.17360
#
# Compressibility (1/GPa) = 0.03011503
#
# Stress axis : x y z
#
# Youngs Moduli (GPa) = 91.01518 23.46413 45.05715
#
# Poissons Ratio (x) = 0.17166 0.02168
# Poissons Ratio (y) = 0.66584 0.67790
# Poissons Ratio (z) = 0.04379 0.35303
#
# Static dielectric constant tensor:
#      x y z
#    x 3.705760 0.000000 -0.058310 
#    y 0.000000 3.297830 0.000000 
#    z -0.058310 0.000000 3.415710 
# 
# 
# High freq. dielectric constant tensor:
#      x y z
#    x 1.701680 0.000000 0.003810 
#    y 0.000000 1.673790 0.000000 
#    z 0.003810 0.000000 1.690520 
# 
# From -- ./inp_files/33673.got.cif
#   From: 2010.06.25/outbox.cif.g09.slc.cpg/sg11_17_cif.got.tgz:33673.got - 2010.06.27 23:14:04.
