data_PCOD8069347
_publ_section_title
;
Structure prediction by ZEFSAII (Michael W. Deem and Ramdas Pophale) SiO2 
 PCOD8069347
Probable space group: P 21/M
;
_chemical_formula_sum "Si O2"
_cell_formula_units_Z 32
_cell_length_a 8.648811
_cell_length_b 21.838099
_cell_length_c 15.760702
_cell_angle_alpha 90.000000
_cell_angle_beta 37.119099
_cell_angle_gamma 90.000000
_cell_volume 1796.409031
_symmetry_space_group_name_H-M "P 21/M"
_symmetry_group_IT_number 11
_symmetry_cell_setting 'monoclinic'
loop_
_space_group_symop_operation_xyz
x,y,z
-x,1/2+y,-z
-x,-y,-z
x,1/2-y,z
loop_
_atom_site_type_symbol
_atom_site_label
_atom_site_fract_x
_atom_site_fract_y
_atom_site_fract_z
Si Si1 0.639453 0.317355 0.478025
Si Si2 0.679054 0.993308 0.543268
Si Si3 0.093906 0.680578 0.818918
Si Si4 0.438451 0.904908 0.780589
Si Si5 0.268293 0.420329 0.638048
Si Si6 0.031382 0.404222 0.373204
Si Si7 0.229745 0.554218 0.045894
Si Si8 0.254150 0.419877 0.095972
O O1 0.583068 0.250000 0.537402
O O2 0.764304 0.315713 0.331544
O O3 0.368380 0.351120 0.590185
O O4 0.833537 0.348181 0.460157
O O5 0.506114 0.962028 0.690694
O O6 0.802101 0.942515 0.426375
O O7 0.496060 0.037699 0.571284
O O8 0.911089 0.037016 0.476033
O O9 0.020611 0.750000 0.880879
O O10 0.287549 0.649676 0.801048
O O11 0.837874 0.638674 0.919558
O O12 0.709622 0.879874 0.696860
O O13 0.260689 0.929330 0.933962
O O14 0.032450 0.418771 0.804916
O O15 0.077821 0.427119 0.256392
O O16 0.224690 0.480781 0.053115
O O17 0.450973 0.586291 0.005352
#
# Coordination Sequence:
#
# PCOD8069347 Si02
#       8
#     4   4   4   4   4   4   4   4
#     4   9  18  34  55  74  97 138 182 215 249 310
#     4  10  18  31  52  78 110 133 164 216 264 309
#     4  10  20  35  54  75 104 140 180 218 256 309
#     4  11  21  32  52  85 108 134 173 217 267 315
#     4  10  18  32  54  77 101 138 172 208 254 310
#     4   9  18  32  52  78 107 135 172 217 268 304
#     4  10  20  33  55  81 109 134 168 222 268 311
#     4   9  18  35  53  76 105 141 177 209 259 324
#
# _framework density 17.813316
#
# number of rings (size 3 to 8) (size 9 to 14) (size 15 to 20)
#    0.000    2.250    2.500    1.125    0.000    2.500 
#    0.000    3.125    0.000    0.000    0.000    0.000 
#    0.000    0.000    0.000    0.000    0.000    0.000 
#
# Total GULP energy -396673.998255 kJ/mol
# GULP energy per Si atom -12396.062445 kJ/mol
# Density = 1.777277 g / cm^3
# Si number density = 17.813316 Si / 1000 Ang^3
#
#
#
# Elastic Constant Matrix: (Units=GPa)
#
#
# Indices 1 2 3 4 5 6 
#
# 1 60.6779 50.5100 7.9176 0.0000 0.7100 0.0000
# 2 50.5100 139.6777 36.1916 0.0000 -5.8642 0.0000
# 3 7.9176 36.1916 69.9014 0.0000 -4.0649 0.0000
# 4 0.0000 0.0000 0.0000 21.1663 0.0000 -4.7583
# 5 0.7100 -5.8642 -4.0649 0.0000 21.3985 0.0000
# 6 0.0000 0.0000 0.0000 -4.7583 0.0000 19.5012
#
#
#
# Elastic Compliance Matrix: (Units=1/GPa)
#
#
# Indices 1 2 3 4 5 6 
#
# 1 0.024012 -0.009307 0.001926 0.000000 -0.002981 0.000000
# 2 -0.009307 0.011922 -0.004965 0.000000 0.002633 0.000000
# 3 0.001926 -0.004965 0.016761 0.000000 0.001759 0.000000
# 4 0.000000 0.000000 0.000000 0.049987 0.000000 0.012197
# 5 -0.002981 0.002633 0.001759 0.000000 0.047887 0.000000
# 6 0.000000 0.000000 0.000000 0.012197 0.000000 0.054255
#
#
# Mechanical properties :
#
#
# Convention : Reuss Voigt Hill
#
# Bulk Modulus (GPa) = 35.71321 51.05507 43.38414
# Shear Modulus (GPa) = 20.93358 24.12238 22.52798
#
# Velocity S-wave (km/s) = 3.43179 3.68391 3.56008
# Velocity P-wave (km/s) = 5.98289 6.84239 6.42702
#
# Compressibility (1/GPa) = 0.02800084
#
# Stress axis : x y z
#
# Youngs Moduli (GPa) = 41.64645 83.87799 59.66275
#
# Poissons Ratio (x) = 0.78067 -0.11489
# Poissons Ratio (y) = 0.38761 0.29625
# Poissons Ratio (z) = -0.08020 0.41648
#
# Static dielectric constant tensor:
#      x y z
#    x 3.336280 0.000000 -0.116640 
#    y 0.000000 3.469310 0.000000 
#    z -0.116640 0.000000 3.210180 
# 
# 
# High freq. dielectric constant tensor:
#      x y z
#    x 1.688500 0.000000 -0.008190 
#    y 0.000000 1.676830 0.000000 
#    z -0.008190 0.000000 1.675810 
# 
# From -- ./inp_files/23110.got.cif
#   From: 2010.06.25/outbox.cif.g09.slc.cpg/sg11_12_cif.got.tgz:23110.got - 2010.06.27 23:14:04.
