data_PCOD8069876
_publ_section_title
;
Structure prediction by ZEFSAII (Michael W. Deem and Ramdas Pophale) SiO2 
 PCOD8069876
Probable space group: P 21/M
;
_chemical_formula_sum "Si O2"
_cell_formula_units_Z 32
_cell_length_a 25.006788
_cell_length_b 8.858069
_cell_length_c 19.944229
_cell_angle_alpha 90.000000
_cell_angle_beta 156.682904
_cell_angle_gamma 90.000000
_cell_volume 1748.684436
_symmetry_space_group_name_H-M "P 21/M"
_symmetry_group_IT_number 11
_symmetry_cell_setting 'monoclinic'
loop_
_space_group_symop_operation_xyz
x,y,z
-x,1/2+y,-z
-x,-y,-z
x,1/2-y,z
loop_
_atom_site_type_symbol
_atom_site_label
_atom_site_fract_x
_atom_site_fract_y
_atom_site_fract_z
Si Si1 0.187296 0.424205 0.767821
Si Si2 0.091461 0.422313 0.019516
Si Si3 0.843851 0.924889 0.052860
Si Si4 0.644434 0.428802 0.426164
Si Si5 0.182838 0.424661 0.268360
Si Si6 0.877316 0.075700 0.438533
Si Si7 0.355133 0.927990 0.074896
Si Si8 0.861394 0.428178 0.569591
O O1 0.227779 0.250000 0.820115
O O2 0.199835 0.475087 0.704961
O O3 0.037160 0.455078 0.621706
O O4 0.288686 0.521064 0.928883
O O5 0.037352 0.250000 0.961180
O O6 0.179002 0.445651 0.053130
O O7 0.185722 0.458905 0.191932
O O8 0.962108 0.530121 0.868492
O O9 0.830876 0.750000 0.059946
O O10 0.730351 0.019149 0.959671
O O11 0.990978 0.991553 0.241409
O O12 0.629941 0.250000 0.406963
O O13 0.698514 0.478421 0.561284
O O14 0.501945 0.501743 0.247800
O O15 0.747991 0.492228 0.488998
O O16 0.208810 0.250000 0.313758
O O17 0.847336 0.250000 0.388062
O O18 0.823091 0.027465 0.449252
O O19 0.366732 0.750000 0.089396
O O20 0.868730 0.250000 0.586483
#
# Coordination Sequence:
#
# PCOD8069876 Si02
#       8
#     4   4   4   4   4   4   4   4
#     4  10  19  34  56  82 112 148 184 221 273 338
#     4   9  18  33  56  83 114 149 187 229 277 331
#     4  10  18  36  60  84 110 145 191 233 274 330
#     4  11  22  39  60  81 110 154 193 227 279 342
#     4  10  19  32  53  85 118 147 183 232 281 328
#     4   9  17  32  55  84 113 139 176 233 280 319
#     4  12  25  39  55  82 116 149 185 233 285 334
#     4   9  17  33  59  85 109 140 187 233 273 325
#
# _framework density 18.299472000000002
#
# number of rings (size 3 to 8) (size 9 to 14) (size 15 to 20)
#    0.000    2.000    2.500    2.250    0.000    1.500 
#    0.000    2.500    0.000    0.000    0.000    0.000 
#    0.000    0.000    0.000    0.000    0.000    0.000 
#
# Total GULP energy -396850.708907 kJ/mol
# GULP energy per Si atom -12401.584653 kJ/mol
# Density = 1.825782 g / cm^3
# Si number density = 18.299472 Si / 1000 Ang^3
#
#
#
# Elastic Constant Matrix: (Units=GPa)
#
#
# Indices 1 2 3 4 5 6 
#
# 1 111.1308 37.9839 61.3315 0.0000 -8.2705 0.0000
# 2 37.9839 84.9777 47.5322 0.0000 -2.4073 0.0000
# 3 61.3315 47.5322 95.6701 0.0000 -5.4326 0.0000
# 4 0.0000 0.0000 0.0000 30.2077 0.0000 -5.2561
# 5 -8.2705 -2.4073 -5.4326 0.0000 27.7522 0.0000
# 6 0.0000 0.0000 0.0000 -5.2561 0.0000 24.8795
#
#
#
# Elastic Compliance Matrix: (Units=1/GPa)
#
#
# Indices 1 2 3 4 5 6 
#
# 1 0.014276 -0.001760 -0.008135 0.000000 0.002509 0.000000
# 2 -0.001760 0.016514 -0.007104 0.000000 -0.000483 0.000000
# 3 -0.008135 -0.007104 0.019239 0.000000 0.000725 0.000000
# 4 0.000000 0.000000 0.000000 0.034367 0.000000 0.007261
# 5 0.002509 -0.000483 0.000725 0.000000 0.036881 0.000000
# 6 0.000000 0.000000 0.000000 0.007261 0.000000 0.041728
#
#
# Mechanical properties :
#
#
# Convention : Reuss Voigt Hill
#
# Bulk Modulus (GPa) = 62.37960 65.05264 63.71612
# Shear Modulus (GPa) = 24.70986 26.22995 25.46990
#
# Velocity S-wave (km/s) = 3.67864 3.79010 3.73478
# Velocity P-wave (km/s) = 7.22533 7.40130 7.31384
#
# Compressibility (1/GPa) = 0.01603088
#
# Stress axis : x y z
#
# Youngs Moduli (GPa) = 70.04535 60.55303 51.97821
#
# Poissons Ratio (x) = 0.10656 0.42287
# Poissons Ratio (y) = 0.12326 0.36927
# Poissons Ratio (z) = 0.56985 0.43018
#
# Static dielectric constant tensor:
#      x y z
#    x 3.550690 0.000000 -0.200980 
#    y 0.000000 3.298590 0.000000 
#    z -0.200980 0.000000 3.261690 
# 
# 
# High freq. dielectric constant tensor:
#      x y z
#    x 1.713360 0.000000 -0.022280 
#    y 0.000000 1.701290 0.000000 
#    z -0.022280 0.000000 1.693280 
# 
# From -- ./inp_files/67290.got.cif
#   From: 2010.06.25/outbox.cif.g09.slc.cpg/sg11_34_cif.got.tgz:67290.got - 2010.06.27 23:14:04.
