data_PCOD8069138
_publ_section_title
;
Structure prediction by ZEFSAII (Michael W. Deem and Ramdas Pophale) SiO2 
 PCOD8069138
Probable space group: P 21/M
;
_chemical_formula_sum "Si O2"
_cell_formula_units_Z 24
_cell_length_a 11.159912
_cell_length_b 8.754952
_cell_length_c 19.859567
_cell_angle_alpha 90.000000
_cell_angle_beta 43.879799
_cell_angle_gamma 90.000000
_cell_volume 1344.962343
_symmetry_space_group_name_H-M "P 21/M"
_symmetry_group_IT_number 11
_symmetry_cell_setting 'monoclinic'
loop_
_space_group_symop_operation_xyz
x,y,z
-x,1/2+y,-z
-x,-y,-z
x,1/2-y,z
loop_
_atom_site_type_symbol
_atom_site_label
_atom_site_fract_x
_atom_site_fract_y
_atom_site_fract_z
Si Si1 0.307882 0.928860 0.218360
Si Si2 0.618119 0.929375 0.009150
Si Si3 0.814127 0.431202 0.589249
Si Si4 0.629648 0.927385 0.541181
Si Si5 0.088097 0.930954 0.180267
Si Si6 0.253900 0.927954 0.639087
O O1 0.276225 0.750000 0.232927
O O2 0.253821 0.998959 0.311997
O O3 0.185174 0.992430 0.208257
O O4 0.512216 0.962955 0.121311
O O5 0.642076 0.750000 0.987776
O O6 0.804922 0.011582 0.929059
O O7 0.500000 0.000000 0.000000
O O8 0.827508 0.250000 0.585177
O O9 0.678043 0.481090 0.588190
O O10 0.000000 0.500000 0.500000
O O11 0.669935 0.750000 0.535480
O O12 0.429201 0.960547 0.608536
O O13 0.745944 0.985002 0.432123
O O14 0.071449 0.750000 0.184347
O O15 0.899797 0.006348 0.253153
O O16 0.228606 0.750000 0.634926
#
# Coordination Sequence:
#
# PCOD8069138 Si02
#       6
#     4   4   4   4   4   4
#     4   8  17  31  47  69  99 132 161 198 244 289
#     4   9  16  29  47  69  98 130 165 204 248 293
#     4  11  21  34  52  74 101 134 170 203 244 296
#     4  10  21  36  51  72 102 131 164 207 251 294
#     4  10  18  30  50  76 103 128 160 205 253 297
#     4  10  20  34  53  74  97 130 168 205 247 297
#
# _framework density 17.844365
#
# number of rings (size 3 to 8) (size 9 to 14) (size 15 to 20)
#    0.000    2.333    0.000    4.500    0.000    3.333 
#    0.000    9.167    0.000    1.000    0.000    0.000 
#    0.000    0.000    0.000    0.000    0.000    0.000 
#
# Total GULP energy -297528.229579 kJ/mol
# GULP energy per Si atom -12397.009566 kJ/mol
# Density = 1.780375 g / cm^3
# Si number density = 17.844365 Si / 1000 Ang^3
#
#
#
# Elastic Constant Matrix: (Units=GPa)
#
#
# Indices 1 2 3 4 5 6 
#
# 1 58.1820 29.2848 43.6615 0.0000 1.1452 0.0000
# 2 29.2848 66.3690 44.5020 0.0000 -5.4772 0.0000
# 3 43.6615 44.5020 158.3007 0.0000 -11.8617 0.0000
# 4 0.0000 0.0000 0.0000 31.8268 0.0000 -4.7157
# 5 1.1452 -5.4772 -11.8617 0.0000 26.8211 0.0000
# 6 0.0000 0.0000 0.0000 -4.7157 0.0000 25.7749
#
#
#
# Elastic Compliance Matrix: (Units=1/GPa)
#
#
# Indices 1 2 3 4 5 6 
#
# 1 0.025149 -0.008140 -0.005019 0.000000 -0.004956 0.000000
# 2 -0.008140 0.021263 -0.003497 0.000000 0.003143 0.000000
# 3 -0.005019 -0.003497 0.008943 0.000000 0.003455 0.000000
# 4 0.000000 0.000000 0.000000 0.032296 0.000000 0.005909
# 5 -0.004956 0.003143 0.003455 0.000000 0.039666 0.000000
# 6 0.000000 0.000000 0.000000 0.005909 0.000000 0.039879
#
#
# Mechanical properties :
#
#
# Convention : Reuss Voigt Hill
#
# Bulk Modulus (GPa) = 45.36639 57.52760 51.44699
# Shear Modulus (GPa) = 24.05514 27.91145 25.98329
#
# Velocity S-wave (km/s) = 3.67557 3.95924 3.82004
# Velocity P-wave (km/s) = 6.59482 7.29447 6.95345
#
# Compressibility (1/GPa) = 0.02204275
#
# Stress axis : x y z
#
# Youngs Moduli (GPa) = 39.76324 47.02960 111.81322
#
# Poissons Ratio (x) = 0.38283 0.56123
# Poissons Ratio (y) = 0.32368 0.39100
# Poissons Ratio (z) = 0.19959 0.16446
#
# Static dielectric constant tensor:
#      x y z
#    x 3.138200 0.000000 -0.012660 
#    y 0.000000 3.343860 0.000000 
#    z -0.012660 0.000000 3.859530 
# 
# 
# High freq. dielectric constant tensor:
#      x y z
#    x 1.652510 0.000000 -0.013760 
#    y 0.000000 1.694100 0.000000 
#    z -0.013760 0.000000 1.706200 
# 
# From -- ./inp_files/42261.got.cif
#   From: 2010.06.25/outbox.cif.g09.slc.cpg/sg11_22_cif.got.tgz:42261.got - 2010.06.27 23:14:04.
