data_PCOD8069245
_publ_section_title
;
Structure prediction by ZEFSAII (Michael W. Deem and Ramdas Pophale) SiO2 
 PCOD8069245
Probable space group: P 21/M
;
_chemical_formula_sum "Si O2"
_cell_formula_units_Z 32
_cell_length_a 24.637732
_cell_length_b 8.928746
_cell_length_c 17.910900
_cell_angle_alpha 90.000000
_cell_angle_beta 26.528766
_cell_angle_gamma 90.000000
_cell_volume 1759.839628
_symmetry_space_group_name_H-M "P 21/M"
_symmetry_group_IT_number 11
_symmetry_cell_setting 'monoclinic'
loop_
_space_group_symop_operation_xyz
x,y,z
-x,1/2+y,-z
-x,-y,-z
x,1/2-y,z
loop_
_atom_site_type_symbol
_atom_site_label
_atom_site_fract_x
_atom_site_fract_y
_atom_site_fract_z
Si Si1 0.261534 0.927804 0.588378
Si Si2 0.481992 0.924452 0.733160
Si Si3 0.896305 0.078142 0.583104
Si Si4 0.954774 0.927313 0.220948
Si Si5 0.398740 0.574517 0.673660
Si Si6 0.754549 0.424545 0.893560
Si Si7 0.176751 0.926754 0.852965
Si Si8 0.969184 0.573458 0.721249
O O1 0.256046 0.750000 0.592346
O O2 0.215984 0.993761 0.724377
O O3 0.397711 0.979009 0.403020
O O4 0.174679 0.994155 0.631357
O O5 0.518158 0.750000 0.688758
O O6 0.415251 0.971746 0.738916
O O7 0.385418 0.964786 0.916761
O O8 0.928508 0.250000 0.548863
O O9 0.771808 0.043689 0.782420
O O10 0.910378 0.033723 0.478323
O O11 0.000000 0.000000 0.500000
O O12 0.938052 0.750000 0.245278
O O13 0.016320 0.982009 0.221038
O O14 0.042074 0.975851 0.044217
O O15 0.500000 0.500000 0.500000
O O16 0.410885 0.750000 0.647553
O O17 0.268821 0.516243 0.803908
O O18 0.778844 0.250000 0.882977
O O19 0.846359 0.522229 0.830548
O O20 0.184288 0.750000 0.837289
O O21 0.960765 0.750000 0.748925
#
# Coordination Sequence:
#
# PCOD8069245 Si02
#       8
#     4   4   4   4   4   4   4   4
#     4  11  22  37  54  72  99 133 172 218 262 299
#     4  10  20  33  52  76 104 137 174 208 246 303
#     4   8  15  28  49  76 106 136 163 199 248 301
#     4  11  22  37  55  73  98 134 175 214 254 304
#     4  10  18  31  49  72 100 130 162 199 244 294
#     4   9  17  32  54  79 107 139 170 202 247 303
#     4   9  19  35  54  74  99 130 167 211 256 302
#     4  10  19  32  51  80 111 134 165 208 255 302
#
# _framework density 18.183474
#
# number of rings (size 3 to 8) (size 9 to 14) (size 15 to 20)
#    0.000    2.250    1.250    2.250    0.000    3.000 
#    0.000    4.375    0.000    0.750    0.000    0.000 
#    0.000    0.000    0.000    0.000    0.000    0.000 
#
# Total GULP energy -396544.335915 kJ/mol
# GULP energy per Si atom -12392.010497 kJ/mol
# Density = 1.814209 g / cm^3
# Si number density = 18.183474 Si / 1000 Ang^3
#
#
#
# Elastic Constant Matrix: (Units=GPa)
#
#
# Indices 1 2 3 4 5 6 
#
# 1 47.4870 21.7145 43.7106 0.0000 3.1364 0.0000
# 2 21.7145 50.2092 39.0612 0.0000 1.1770 0.0000
# 3 43.7106 39.0612 122.0019 0.0000 12.5994 0.0000
# 4 0.0000 0.0000 0.0000 26.1379 0.0000 -1.4611
# 5 3.1364 1.1770 12.5994 0.0000 34.2889 0.0000
# 6 0.0000 0.0000 0.0000 -1.4611 0.0000 22.8398
#
#
#
# Elastic Compliance Matrix: (Units=1/GPa)
#
#
# Indices 1 2 3 4 5 6 
#
# 1 0.033083 -0.006713 -0.009786 0.000000 0.000800 0.000000
# 2 -0.006713 0.028061 -0.006801 0.000000 0.002150 0.000000
# 3 -0.009786 -0.006801 0.014307 0.000000 -0.004128 0.000000
# 4 0.000000 0.000000 0.000000 0.038396 0.000000 0.002456
# 5 0.000800 0.002150 -0.004128 0.000000 0.030534 0.000000
# 6 0.000000 0.000000 0.000000 0.002456 0.000000 0.043940
#
#
# Mechanical properties :
#
#
# Convention : Reuss Voigt Hill
#
# Bulk Modulus (GPa) = 34.66260 47.63008 41.14634
# Shear Modulus (GPa) = 20.44671 24.33411 22.39041
#
# Velocity S-wave (km/s) = 3.35694 3.66218 3.51288
# Velocity P-wave (km/s) = 5.84205 6.64328 6.25550
#
# Compressibility (1/GPa) = 0.02884954
#
# Stress axis : x y z
#
# Youngs Moduli (GPa) = 30.22670 35.63726 69.89782
#
# Poissons Ratio (x) = 0.23924 0.68404
# Poissons Ratio (y) = 0.20292 0.47537
# Poissons Ratio (z) = 0.29581 0.24237
#
# Static dielectric constant tensor:
#      x y z
#    x 5.893980 0.000000 1.107340 
#    y 0.000000 3.253870 0.000000 
#    z 1.107340 0.000000 3.887600 
# 
# 
# High freq. dielectric constant tensor:
#      x y z
#    x 1.685880 0.000000 0.018540 
#    y 0.000000 1.696950 0.000000 
#    z 0.018540 0.000000 1.707710 
# 
# From -- ./inp_files/67069.got.cif
#   From: 2010.06.25/outbox.cif.g09.slc.cpg/sg11_34_cif.got.tgz:67069.got - 2010.06.27 23:14:04.
