data_PCOD8069357
_publ_section_title
;
Structure prediction by ZEFSAII (Michael W. Deem and Ramdas Pophale) SiO2 
 PCOD8069357
Probable space group: P 21/M
;
_chemical_formula_sum "Si O2"
_cell_formula_units_Z 32
_cell_length_a 25.354368
_cell_length_b 8.924145
_cell_length_c 16.806412
_cell_angle_alpha 90.000000
_cell_angle_beta 154.867329
_cell_angle_gamma 90.000000
_cell_volume 1615.075218
_symmetry_space_group_name_H-M "P 21/M"
_symmetry_group_IT_number 11
_symmetry_cell_setting 'monoclinic'
loop_
_space_group_symop_operation_xyz
x,y,z
-x,1/2+y,-z
-x,-y,-z
x,1/2-y,z
loop_
_atom_site_type_symbol
_atom_site_label
_atom_site_fract_x
_atom_site_fract_y
_atom_site_fract_z
Si Si1 0.684721 0.423872 0.118767
Si Si2 0.749182 0.573518 0.369008
Si Si3 0.802868 0.081926 0.896336
Si Si4 0.635803 0.424854 0.529709
Si Si5 0.594590 0.576133 0.310865
Si Si6 0.795224 0.924915 0.128816
Si Si7 0.606644 0.079115 0.760487
Si Si8 0.987968 0.574987 0.258847
O O1 0.711099 0.250000 0.167121
O O2 0.688616 0.500360 0.209333
O O3 0.794044 0.489842 0.211834
O O4 0.551347 0.456174 0.897513
O O5 0.749345 0.750000 0.357455
O O6 0.664901 0.523466 0.327828
O O7 0.887771 0.518968 0.573709
O O8 0.857018 0.250000 0.979789
O O9 0.766436 0.048000 0.754874
O O10 0.673503 0.067826 0.767246
O O11 0.904857 0.966774 0.068504
O O12 0.600735 0.250000 0.483011
O O13 0.650446 0.480820 0.459608
O O14 0.532674 0.519342 0.436453
O O15 0.619669 0.750000 0.362495
O O16 0.788767 0.750000 0.137063
O O17 0.916605 0.967465 0.243108
O O18 0.673731 0.974507 0.915776
O O19 0.606288 0.250000 0.792100
O O20 0.018112 0.750000 0.296231
#
# Coordination Sequence:
#
# PCOD8069357 Si02
#       8
#     4   4   4   4   4   4   4   4
#     4  11  22  38  62  90 119 149 188 237 293 350
#     4  11  24  42  63  84 112 153 197 241 291 346
#     4   9  20  36  55  83 117 155 195 235 284 340
#     4  11  21  33  55  86 118 153 193 236 285 344
#     4  10  23  41  60  86 118 152 192 240 291 342
#     4  10  20  35  57  87 120 153 190 234 288 344
#     4  10  18  31  52  80 119 157 189 231 285 341
#     4  10  22  40  61  86 117 153 197 243 286 339
#
# _framework density 19.813317999999999
#
# number of rings (size 3 to 8) (size 9 to 14) (size 15 to 20)
#    0.000    1.750    1.250    3.000    0.000    5.000 
#    0.000    0.625    0.000    0.000    0.000    0.000 
#    0.000    0.000    0.000    0.000    0.000    0.000 
#
# Total GULP energy -396862.246169 kJ/mol
# GULP energy per Si atom -12401.945193 kJ/mol
# Density = 1.976822 g / cm^3
# Si number density = 19.813318 Si / 1000 Ang^3
#
#
#
# Elastic Constant Matrix: (Units=GPa)
#
#
# Indices 1 2 3 4 5 6 
#
# 1 -72.3345 19.3791 25.6473 0.0000 -12.1984 0.0000
# 2 19.3791 78.9524 26.4541 0.0000 -4.3604 0.0000
# 3 25.6473 26.4541 43.9694 0.0000 -10.3957 0.0000
# 4 0.0000 0.0000 0.0000 31.4443 0.0000 -3.5226
# 5 -12.1984 -4.3604 -10.3957 0.0000 31.3477 0.0000
# 6 0.0000 0.0000 0.0000 -3.5226 0.0000 31.0620
#
#
#
# Elastic Compliance Matrix: (Units=1/GPa)
#
#
# Indices 1 2 3 4 5 6 
#
# 1 -0.011249 0.000778 0.005517 0.000000 -0.002440 0.000000
# 2 0.000778 0.015841 -0.010191 0.000000 -0.000873 0.000000
# 3 0.005517 -0.010191 0.028027 0.000000 0.010023 0.000000
# 4 0.000000 0.000000 0.000000 0.032211 0.000000 0.003653
# 5 -0.002440 -0.000873 0.010023 0.000000 0.034154 0.000000
# 6 0.000000 0.000000 0.000000 0.003653 0.000000 0.032608
#
#
# Mechanical properties :
#
#
# Convention : Reuss Voigt Hill
#
# Bulk Modulus (GPa) = 40.28061 21.50536 30.89298
# Shear Modulus (GPa) = 33.86142 17.37793 25.61968
#
# Velocity S-wave (km/s) = 4.13852 2.96477 3.59981
# Velocity P-wave (km/s) = 6.57348 4.75367 5.73620
#
# Compressibility (1/GPa) = 0.02482584
#
# Stress axis : x y z
#
# Youngs Moduli (GPa) = -88.89814 63.12587 35.68035
#
# Poissons Ratio (x) = -0.04911 -0.19683
# Poissons Ratio (y) = 0.06915 0.36363
# Poissons Ratio (z) = 0.49042 0.64333
#
# Static dielectric constant tensor:
#      x y z
#    x 3.698210 0.000000 -0.089960 
#    y 0.000000 3.651090 0.000000 
#    z -0.089960 0.000000 3.426610 
# 
# 
# High freq. dielectric constant tensor:
#      x y z
#    x 1.769110 0.000000 -0.012040 
#    y 0.000000 1.781250 0.000000 
#    z -0.012040 0.000000 1.763870 
# 
# From -- ./inp_files/55755.got.cif
#   From: 2010.06.25/outbox.cif.g09.slc.cpg/sg11_28_cif.got.tgz:55755.got - 2010.06.27 23:14:04.
