data_PCOD8069124
_publ_section_title
;
Structure prediction by ZEFSAII (Michael W. Deem and Ramdas Pophale) SiO2 
 PCOD8069124
Probable space group: P 21/M
;
_chemical_formula_sum "Si O2"
_cell_formula_units_Z 32
_cell_length_a 11.819372
_cell_length_b 8.951322
_cell_length_c 19.086088
_cell_angle_alpha 90.000000
_cell_angle_beta 130.653526
_cell_angle_gamma 90.000000
_cell_volume 1531.959975
_symmetry_space_group_name_H-M "P 21/M"
_symmetry_group_IT_number 11
_symmetry_cell_setting 'monoclinic'
loop_
_space_group_symop_operation_xyz
x,y,z
-x,1/2+y,-z
-x,-y,-z
x,1/2-y,z
loop_
_atom_site_type_symbol
_atom_site_label
_atom_site_fract_x
_atom_site_fract_y
_atom_site_fract_z
Si Si1 0.280960 0.424306 0.449589
Si Si2 0.400920 0.575939 0.363452
Si Si3 0.866738 0.927948 0.988502
Si Si4 0.986897 0.928777 0.338639
Si Si5 0.902207 0.910123 0.157244
Si Si6 0.692681 0.077108 0.263588
Si Si7 0.585434 0.588392 0.091606
Si Si8 0.397973 0.423389 0.219322
O O1 0.247132 0.250000 0.430335
O O2 0.304312 0.488768 0.381458
O O3 0.424259 0.458111 0.555201
O O4 0.141453 0.506478 0.431411
O O5 0.365639 0.750000 0.357209
O O6 0.349296 0.520354 0.266490
O O7 0.881414 0.750000 0.996282
O O8 0.707605 0.972247 0.889018
O O9 0.883618 0.994904 0.075021
O O10 0.000000 0.000000 0.000000
O O11 0.984074 0.750000 0.339872
O O12 0.983310 0.992135 0.255939
O O13 0.848095 0.985851 0.330402
O O14 0.982964 0.750000 0.175877
O O15 0.743603 0.873903 0.124596
O O16 0.734220 0.250000 0.272152
O O17 0.575943 0.049556 0.279754
O O18 0.593052 0.022537 0.159332
O O19 0.511554 0.750000 0.081475
O O20 0.500000 0.500000 0.000000
O O21 0.369084 0.250000 0.224277
#
# Coordination Sequence:
#
# PCOD8069124 Si02
#       8
#     4   4   4   4   4   4   4   4
#     4  10  21  39  62  89 119 148 188 241 294 352
#     4  10  22  39  62  89 116 151 193 240 294 347
#     4  10  21  37  53  76 110 150 192 236 283 338
#     4  10  20  35  59  89 118 152 192 240 292 344
#     4   8  17  33  50  71 105 143 181 224 275 328
#     4  10  20  36  56  81 113 153 194 238 293 349
#     4  10  18  30  50  74 101 140 188 240 288 336
#     4  10  22  39  59  82 117 158 195 238 293 350
#
# _framework density 20.888273000000002
#
# number of rings (size 3 to 8) (size 9 to 14) (size 15 to 20)
#    0.000    2.250    0.000    3.375    1.750    5.000 
#    0.000    5.000    0.000    0.000    0.000    0.000 
#    0.000    0.000    0.000    0.000    0.000    0.000 
#
# Total GULP energy -396430.923057 kJ/mol
# GULP energy per Si atom -12388.466346 kJ/mol
# Density = 2.084073 g / cm^3
# Si number density = 20.888273 Si / 1000 Ang^3
#
#
#
# Elastic Constant Matrix: (Units=GPa)
#
#
# Indices 1 2 3 4 5 6 
#
# 1 55.7890 33.9608 18.2112 0.0000 7.0568 0.0000
# 2 33.9608 68.3040 9.9800 0.0000 16.9211 0.0000
# 3 18.2112 9.9800 37.2556 0.0000 16.8523 0.0000
# 4 0.0000 0.0000 0.0000 73.8621 0.0000 -10.8342
# 5 7.0568 16.9211 16.8523 0.0000 35.3606 0.0000
# 6 0.0000 0.0000 0.0000 -10.8342 0.0000 36.1560
#
#
#
# Elastic Compliance Matrix: (Units=1/GPa)
#
#
# Indices 1 2 3 4 5 6 
#
# 1 0.031014 -0.015285 -0.014755 0.000000 0.008157 0.000000
# 2 -0.015285 0.024177 0.006181 0.000000 -0.011465 0.000000
# 3 -0.014755 0.006181 0.041310 0.000000 -0.019701 0.000000
# 4 0.000000 0.000000 0.000000 0.014161 0.000000 0.004243
# 5 0.008157 -0.011465 -0.019701 0.000000 0.041528 0.000000
# 6 0.000000 0.000000 0.000000 0.004243 0.000000 0.028929
#
#
# Mechanical properties :
#
#
# Convention : Reuss Voigt Hill
#
# Bulk Modulus (GPa) = 20.49914 31.73918 26.11916
# Shear Modulus (GPa) = 20.39989 35.68887 28.04438
#
# Velocity S-wave (km/s) = 3.12848 4.13796 3.66811
# Velocity P-wave (km/s) = 4.78381 6.16911 5.52009
#
# Compressibility (1/GPa) = 0.04878254
#
# Stress axis : x y z
#
# Youngs Moduli (GPa) = 32.24344 41.36110 24.20719
#
# Poissons Ratio (x) = 0.63221 0.35719
# Poissons Ratio (y) = 0.49284 -0.14963
# Poissons Ratio (z) = 0.47577 -0.25566
#
# Static dielectric constant tensor:
#      x y z
#    x 3.668590 0.000000 0.015230 
#    y 0.000000 3.818780 0.000000 
#    z 0.015230 0.000000 3.744220 
# 
# 
# High freq. dielectric constant tensor:
#      x y z
#    x 1.811910 0.000000 0.011360 
#    y 0.000000 1.809290 0.000000 
#    z 0.011360 0.000000 1.812730 
# 
# From -- ./inp_files/64432.got.cif
#   From: 2010.06.25/outbox.cif.g09.slc.cpg/sg11_33_cif.got.tgz:64432.got - 2010.06.27 23:14:04.
