data_PCOD8069750
_publ_section_title
;
Structure prediction by ZEFSAII (Michael W. Deem and Ramdas Pophale) SiO2 
 PCOD8069750
Probable space group: P 21/M
;
_chemical_formula_sum "Si O2"
_cell_formula_units_Z 24
_cell_length_a 8.744155
_cell_length_b 18.611258
_cell_length_c 15.351704
_cell_angle_alpha 90.000000
_cell_angle_beta 25.684506
_cell_angle_gamma 90.000000
_cell_volume 1082.815595
_symmetry_space_group_name_H-M "P 21/M"
_symmetry_group_IT_number 11
_symmetry_cell_setting 'monoclinic'
loop_
_space_group_symop_operation_xyz
x,y,z
-x,1/2+y,-z
-x,-y,-z
x,1/2-y,z
loop_
_atom_site_type_symbol
_atom_site_label
_atom_site_fract_x
_atom_site_fract_y
_atom_site_fract_z
Si Si1 0.721491 0.088897 0.171318
Si Si2 0.621886 0.168726 0.050808
Si Si3 0.169910 0.833249 0.719722
Si Si4 0.215345 0.829819 0.506370
Si Si5 0.540305 0.422066 0.938682
Si Si6 0.511933 0.446267 0.766294
O O1 0.789175 0.139441 0.053541
O O2 0.596843 0.135592 0.319536
O O3 0.425138 0.027341 0.303144
O O4 0.097597 0.054474 0.001656
O O5 0.745861 0.250000 0.974093
O O6 0.765928 0.124276 0.892864
O O7 0.202737 0.160726 0.274348
O O8 0.073208 0.750000 0.787526
O O9 0.375477 0.840089 0.521776
O O10 0.817455 0.879009 0.892891
O O11 0.308898 0.750000 0.423397
O O12 0.382303 0.887719 0.357881
O O13 0.500000 0.500000 0.000000
O O14 0.720497 0.432168 0.750468
#
# Coordination Sequence:
#
# PCOD8069750 Si02
#       6
#     4   4   4   4   4   4
#     4  10  20  35  56  84 109 142 185 226 273 329
#     4  10  20  36  57  80 108 148 189 226 271 329
#     4   9  19  36  56  76 108 151 185 218 275 337
#     4   9  20  37  55  79 109 144 186 224 269 331
#     4  10  18  34  54  79 110 143 179 225 268 330
#     4  10  21  35  56  83 113 142 180 229 279 323
#
# _framework density 22.164437
#
# number of rings (size 3 to 8) (size 9 to 14) (size 15 to 20)
#    0.000    2.333    1.667    2.000    0.000    5.333 
#    0.000    1.667    0.000    0.000    0.000    0.000 
#    0.000    0.000    0.000    0.000    0.000    0.000 
#
# Total GULP energy -297372.490651 kJ/mol
# GULP energy per Si atom -12390.520444 kJ/mol
# Density = 2.211399 g / cm^3
# Si number density = 22.164437 Si / 1000 Ang^3
#
#
#
# Elastic Constant Matrix: (Units=GPa)
#
#
# Indices 1 2 3 4 5 6 
#
# 1 135.6772 65.9387 19.0762 0.0000 53.2846 0.0000
# 2 65.9387 180.9329 26.1055 0.0000 36.7433 0.0000
# 3 19.0762 26.1055 27.1209 0.0000 24.0061 0.0000
# 4 0.0000 0.0000 0.0000 29.9484 0.0000 14.0738
# 5 53.2846 36.7433 24.0061 0.0000 36.0583 0.0000
# 6 0.0000 0.0000 0.0000 14.0738 0.0000 45.0855
#
#
#
# Elastic Compliance Matrix: (Units=1/GPa)
#
#
# Indices 1 2 3 4 5 6 
#
# 1 0.031833 -0.003125 0.047326 0.000000 -0.075364 0.000000
# 2 -0.003125 0.007288 -0.005675 0.000000 0.000970 0.000000
# 3 0.047326 -0.005675 0.160290 0.000000 -0.170867 0.000000
# 4 0.000000 0.000000 0.000000 0.039131 0.000000 -0.012215
# 5 -0.075364 0.000970 -0.170867 0.000000 0.251869 0.000000
# 6 0.000000 0.000000 0.000000 -0.012215 0.000000 0.025993
#
#
# Mechanical properties :
#
#
# Convention : Reuss Voigt Hill
#
# Bulk Modulus (GPa) = 3.61713 62.88576 33.25144
# Shear Modulus (GPa) = 9.40724 37.72581 23.56652
#
# Velocity S-wave (km/s) = 2.06240 4.13011 3.26430
# Velocity P-wave (km/s) = 2.70312 7.15386 5.40761
#
# Compressibility (1/GPa) = 0.27646233
#
# Stress axis : x y z
#
# Youngs Moduli (GPa) = 31.41414 137.22015 6.23870
#
# Poissons Ratio (x) = 0.42876 -0.29525
# Poissons Ratio (y) = 0.09816 0.03541
# Poissons Ratio (z) = -1.48671 0.77877
#
# Static dielectric constant tensor:
#      x y z
#    x 4.742730 0.000000 0.477850 
#    y 0.000000 4.312350 0.000000 
#    z 0.477850 0.000000 3.474430 
# 
# 
# High freq. dielectric constant tensor:
#      x y z
#    x 1.891690 0.000000 0.028830 
#    y 0.000000 1.890920 0.000000 
#    z 0.028830 0.000000 1.818870 
# 
# From -- ./inp_files/22327.got.cif
#   From: 2010.06.25/outbox.cif.g09.slc.cpg/sg11_12_cif.got.tgz:22327.got - 2010.06.27 23:14:04.
