data_PCOD8069101
_publ_section_title
;
Structure prediction by ZEFSAII (Michael W. Deem and Ramdas Pophale) SiO2 
 PCOD8069101
Probable space group: P 21/M
;
_chemical_formula_sum "Si O2"
_cell_formula_units_Z 32
_cell_length_a 10.927251
_cell_length_b 9.558582
_cell_length_c 16.285292
_cell_angle_alpha 90.000000
_cell_angle_beta 91.991026
_cell_angle_gamma 90.000000
_cell_volume 1699.955951
_symmetry_space_group_name_H-M "P 21/M"
_symmetry_group_IT_number 11
_symmetry_cell_setting 'monoclinic'
loop_
_space_group_symop_operation_xyz
x,y,z
-x,1/2+y,-z
-x,-y,-z
x,1/2-y,z
loop_
_atom_site_type_symbol
_atom_site_label
_atom_site_fract_x
_atom_site_fract_y
_atom_site_fract_z
Si Si1 0.697262 0.083244 0.142990
Si Si2 0.581990 0.907130 0.815824
Si Si3 0.966229 0.102318 0.397693
Si Si4 0.623586 0.586344 0.996921
Si Si5 0.384322 0.094109 0.587918
Si Si6 0.818561 0.590237 0.282218
Si Si7 0.802322 0.027418 0.538142
Si Si8 0.372701 0.905991 0.331116
O O1 0.720655 0.250000 0.132636
O O2 0.560367 0.053077 0.172724
O O3 0.796868 0.013707 0.205584
O O4 0.717601 0.998426 0.057659
O O5 0.588138 0.750000 0.781722
O O6 0.660988 0.919091 0.901852
O O7 0.648196 0.005642 0.751669
O O8 0.949090 0.250000 0.349778
O O9 0.883744 0.118468 0.478055
O O10 0.929396 0.971688 0.339799
O O11 0.108081 0.094918 0.428020
O O12 0.608403 0.750000 0.024050
O O13 0.500000 0.500000 0.000000
O O14 0.408460 0.250000 0.557673
O O15 0.303086 0.089924 0.667328
O O16 0.514773 0.024717 0.614561
O O17 0.319808 0.018714 0.511347
O O18 0.851612 0.750000 0.256258
O O19 0.751056 0.104551 0.617820
O O20 0.410511 0.750000 0.304497
#
# Coordination Sequence:
#
# PCOD8069101 Si02
#       8
#     4   4   4   4   4   4   4   4
#     4  10  18  30  49  75 105 137 174 210 250 303
#     4   9  19  32  46  71 105 139 171 205 248 302
#     4  10  21  37  55  73  98 132 175 224 266 306
#     4   9  17  29  46  70 102 139 175 209 248 299
#     4   9  18  32  49  73 102 134 169 207 257 310
#     4  10  19  32  52  76 104 136 170 213 260 307
#     4  10  21  35  53  74 100 132 174 218 266 307
#     4  11  21  33  51  75 104 136 173 212 255 311
#
# _framework density 18.824016
#
# number of rings (size 3 to 8) (size 9 to 14) (size 15 to 20)
#    0.000    2.250    1.250    3.000    0.000    7.000 
#    0.000    0.625    0.000    0.000    0.000    0.875 
#    0.000    0.000    0.000    0.000    0.000    0.000 
#
# Total GULP energy -396436.409608 kJ/mol
# GULP energy per Si atom -12388.637800 kJ/mol
# Density = 1.878117 g / cm^3
# Si number density = 18.824016 Si / 1000 Ang^3
#
#
#
# Elastic Constant Matrix: (Units=GPa)
#
#
# Indices 1 2 3 4 5 6 
#
# 1 42.8432 25.3019 35.1488 0.0000 6.4070 0.0000
# 2 25.3019 133.6272 58.8750 0.0000 11.0013 0.0000
# 3 35.1488 58.8750 103.4244 0.0000 13.6340 0.0000
# 4 0.0000 0.0000 0.0000 18.0144 0.0000 5.0606
# 5 6.4070 11.0013 13.6340 0.0000 15.7040 0.0000
# 6 0.0000 0.0000 0.0000 5.0606 0.0000 -1.4506
#
#
#
# Elastic Compliance Matrix: (Units=1/GPa)
#
#
# Indices 1 2 3 4 5 6 
#
# 1 0.032860 -0.001614 -0.009746 0.000000 -0.003815 0.000000
# 2 -0.001614 0.010144 -0.004942 0.000000 -0.002158 0.000000
# 3 -0.009746 -0.004942 0.016728 0.000000 -0.007085 0.000000
# 4 0.000000 0.000000 0.000000 0.028035 0.000000 0.097806
# 5 -0.003815 -0.002158 -0.007085 0.000000 0.072897 0.000000
# 6 0.000000 0.000000 0.000000 0.097806 0.000000 -0.348161
#
#
# Mechanical properties :
#
#
# Convention : Reuss Voigt Hill
#
# Bulk Modulus (GPa) = 36.86058 57.61624 47.23841
# Shear Modulus (GPa) = -34.28160 17.15817 -8.56172
#
# Velocity S-wave (km/s) = -4.27214 3.02239 -2.13499
# Velocity P-wave (km/s) = 2.17042 6.54630 4.36711
#
# Compressibility (1/GPa) = 0.02712925
#
# Stress axis : x y z
#
# Youngs Moduli (GPa) = 30.43203 98.58090 59.77971
#
# Poissons Ratio (x) = 0.15910 0.58261
# Poissons Ratio (y) = 0.04912 0.29541
# Poissons Ratio (z) = 0.29659 0.48715
#
# Static dielectric constant tensor:
#      x y z
#    x 3.114800 0.000000 0.219140 
#    y 0.000000 3.478030 0.000000 
#    z 0.219140 0.000000 3.628970 
# 
# 
# High freq. dielectric constant tensor:
#      x y z
#    x 1.688880 0.000000 0.021270 
#    y 0.000000 1.737000 0.000000 
#    z 0.021270 0.000000 1.723360 
# 
# From -- ./inp_files/49405.got.cif
#   From: 2010.06.25/outbox.cif.g09.slc.cpg/sg11_25_cif.got.tgz:49405.got - 2010.06.27 23:14:04.
