data_PCOD8069349
_publ_section_title
;
Structure prediction by ZEFSAII (Michael W. Deem and Ramdas Pophale) SiO2 
 PCOD8069349
Probable space group: P 21/M
;
_chemical_formula_sum "Si O2"
_cell_formula_units_Z 28
_cell_length_a 8.551908
_cell_length_b 13.799344
_cell_length_c 14.103391
_cell_angle_alpha 90.000000
_cell_angle_beta 66.646091
_cell_angle_gamma 90.000000
_cell_volume 1527.997368
_symmetry_space_group_name_H-M "P 21/M"
_symmetry_group_IT_number 11
_symmetry_cell_setting 'monoclinic'
loop_
_space_group_symop_operation_xyz
x,y,z
-x,1/2+y,-z
-x,-y,-z
x,1/2-y,z
loop_
_atom_site_type_symbol
_atom_site_label
_atom_site_fract_x
_atom_site_fract_y
_atom_site_fract_z
Si Si1 0.652892 0.859536 0.242773
Si Si2 0.114456 0.522371 0.330592
Si Si3 0.439147 0.141845 0.518141
Si Si4 0.768003 0.464431 0.491591
Si Si5 0.452216 0.503871 0.160781
Si Si6 0.018592 0.638825 0.176952
Si Si7 0.630365 0.136368 0.990961
O O1 0.623251 0.750000 0.209126
O O2 0.630693 0.858621 0.359804
O O3 0.525535 0.938465 0.232256
O O4 0.842317 0.902902 0.177154
O O5 0.189089 0.565891 0.410770
O O6 0.264694 0.465434 0.237337
O O7 0.062762 0.608157 0.272978
O O8 0.946194 0.458257 0.390703
O O9 0.431617 0.250000 0.475938
O O10 0.636764 0.107978 0.471859
O O11 0.317401 0.071874 0.485507
O O12 0.459481 0.582297 0.074563
O O13 0.562498 0.409823 0.105399
O O14 0.981309 0.750000 0.198731
O O15 0.167405 0.617655 0.065564
O O16 0.585432 0.250000 0.998711
#
# Coordination Sequence:
#
# PCOD8069349 Si02
#       7
#     4   4   4   4   4   4   4
#     4  10  18  31  52  79 103 131 171 217 261 303
#     4  10  19  32  50  77 106 139 168 209 258 304
#     4  10  20  35  53  75 103 138 174 216 257 298
#     4  10  20  34  53  76 107 136 172 212 253 309
#     4  10  19  33  54  78 103 137 171 210 266 305
#     4   9  18  32  53  79 103 129 173 223 261 297
#     4   9  19  35  53  75 102 133 171 214 259 315
#
# _framework density 18.324638
#
# number of rings (size 3 to 8) (size 9 to 14) (size 15 to 20)
#    0.000    2.286    2.857    0.429    0.000    1.714 
#    0.000    3.571    0.000    0.000    0.000    0.000 
#    0.000    0.000    0.000    0.000    0.000    0.000 
#
# Total GULP energy -346954.932652 kJ/mol
# GULP energy per Si atom -12391.247595 kJ/mol
# Density = 1.828293 g / cm^3
# Si number density = 18.324638 Si / 1000 Ang^3
#
#
#
# Elastic Constant Matrix: (Units=GPa)
#
#
# Indices 1 2 3 4 5 6 
#
# 1 82.1045 26.9515 31.2833 0.0000 -27.7345 0.0000
# 2 26.9515 75.0582 26.0558 0.0000 -15.4189 0.0000
# 3 31.2833 26.0558 79.5415 0.0000 -27.6230 0.0000
# 4 0.0000 0.0000 0.0000 24.8640 0.0000 0.1355
# 5 -27.7345 -15.4189 -27.6230 0.0000 27.9707 0.0000
# 6 0.0000 0.0000 0.0000 0.1355 0.0000 21.2529
#
#
#
# Elastic Compliance Matrix: (Units=1/GPa)
#
#
# Indices 1 2 3 4 5 6 
#
# 1 0.019054 -0.003216 -0.000753 0.000000 0.016376 0.000000
# 2 -0.003216 0.016091 -0.003094 0.000000 0.002625 0.000000
# 3 -0.000753 -0.003094 0.019832 0.000000 0.017132 0.000000
# 4 0.000000 0.000000 0.000000 0.040220 0.000000 -0.000257
# 5 0.016376 0.002625 0.017132 0.000000 0.070356 0.000000
# 6 0.000000 0.000000 0.000000 -0.000257 0.000000 0.047054
#
#
# Mechanical properties :
#
#
# Convention : Reuss Voigt Hill
#
# Bulk Modulus (GPa) = 24.48014 45.03172 34.75593
# Shear Modulus (GPa) = 20.80281 24.97845 22.89063
#
# Velocity S-wave (km/s) = 3.37298 3.69603 3.53820
# Velocity P-wave (km/s) = 5.34392 6.54538 5.97493
#
# Compressibility (1/GPa) = 0.04084944
#
# Stress axis : x y z
#
# Youngs Moduli (GPa) = 52.48182 62.14495 50.42437
#
# Poissons Ratio (x) = 0.19988 0.03798
# Poissons Ratio (y) = 0.16880 0.15604
# Poissons Ratio (z) = 0.03953 0.19231
#
# Static dielectric constant tensor:
#      x y z
#    x 3.594990 0.000000 -0.276400 
#    y 0.000000 3.298650 0.000000 
#    z -0.276400 0.000000 3.401550 
# 
# 
# High freq. dielectric constant tensor:
#      x y z
#    x 1.719870 0.000000 -0.022080 
#    y 0.000000 1.680270 0.000000 
#    z -0.022080 0.000000 1.703870 
# 
# From -- ./inp_files/21188.got.cif
#   From: 2010.06.25/outbox.cif.g09.slc.cpg/sg11_11_cif.got.tgz:21188.got - 2010.06.27 23:14:04.
