data_PCOD8069142
_publ_section_title
;
Structure prediction by ZEFSAII (Michael W. Deem and Ramdas Pophale) SiO2 
 PCOD8069142
Probable space group: P 21/M
;
_chemical_formula_sum "Si O2"
_cell_formula_units_Z 28
_cell_length_a 15.097041
_cell_length_b 10.273373
_cell_length_c 13.057279
_cell_angle_alpha 90.000000
_cell_angle_beta 130.011448
_cell_angle_gamma 90.000000
_cell_volume 1551.096131
_symmetry_space_group_name_H-M "P 21/M"
_symmetry_group_IT_number 11
_symmetry_cell_setting 'monoclinic'
loop_
_space_group_symop_operation_xyz
x,y,z
-x,1/2+y,-z
-x,-y,-z
x,1/2-y,z
loop_
_atom_site_type_symbol
_atom_site_label
_atom_site_fract_x
_atom_site_fract_y
_atom_site_fract_z
Si Si1 0.481684 0.894085 0.842950
Si Si2 0.657744 0.894171 0.592236
Si Si3 0.143401 0.095919 0.407274
Si Si4 0.545244 0.474025 0.695608
Si Si5 0.218716 0.601765 0.634678
Si Si6 0.347266 0.604728 0.029321
Si Si7 0.887551 0.099707 0.231083
O O1 0.524709 0.750000 0.906845
O O2 0.496793 0.907037 0.729692
O O3 0.348434 0.912917 0.775157
O O4 0.559818 0.006772 0.955088
O O5 0.659085 0.750000 0.638691
O O6 0.784078 0.929857 0.641939
O O7 0.627207 0.987815 0.662475
O O8 0.565265 0.898897 0.431101
O O9 0.147571 0.250000 0.441261
O O10 0.012617 0.043292 0.291807
O O11 0.199107 0.008432 0.536691
O O12 0.624735 0.384145 0.828425
O O13 0.201006 0.750000 0.578978
O O14 0.131562 0.573577 0.662910
O O15 0.358012 0.750000 0.988178
O O16 0.219230 0.543605 0.915484
O O17 0.891184 0.250000 0.208175
#
# Coordination Sequence:
#
# PCOD8069142 Si02
#       7
#     4   4   4   4   4   4   4
#     4   9  18  31  49  73 102 130 156 200 254 293
#     4  10  18  30  50  77 100 126 163 201 250 297
#     4  10  19  34  53  75  99 130 170 207 240 289
#     4   9  18  30  49  74  98 128 154 203 249 292
#     4  10  19  33  51  75 103 132 162 203 255 295
#     4   9  18  34  52  72  99 132 170 205 238 292
#     4   9  19  34  53  72  99 135 169 204 245 288
#
# _framework density 18.051752
#
# number of rings (size 3 to 8) (size 9 to 14) (size 15 to 20)
#    0.857    1.714    1.429    1.286    0.000    1.143 
#    0.000    2.857    0.000    0.000    0.000    0.000 
#    0.000    0.000    0.000    0.000    0.000    0.000 
#
# Total GULP energy -346877.676000 kJ/mol
# GULP energy per Si atom -12388.488429 kJ/mol
# Density = 1.801067 g / cm^3
# Si number density = 18.051752 Si / 1000 Ang^3
#
#
#
# Elastic Constant Matrix: (Units=GPa)
#
#
# Indices 1 2 3 4 5 6 
#
# 1 87.3938 23.8189 15.4409 0.0000 31.5232 0.0000
# 2 23.8189 71.0968 24.2137 0.0000 18.7415 0.0000
# 3 15.4409 24.2137 50.5751 0.0000 22.7549 0.0000
# 4 0.0000 0.0000 0.0000 14.9895 0.0000 5.5952
# 5 31.5232 18.7415 22.7549 0.0000 25.9348 0.0000
# 6 0.0000 0.0000 0.0000 5.5952 0.0000 19.2506
#
#
#
# Elastic Compliance Matrix: (Units=1/GPa)
#
#
# Indices 1 2 3 4 5 6 
#
# 1 0.022782 -0.001697 0.009524 0.000000 -0.034821 0.000000
# 2 -0.001697 0.018118 -0.005276 0.000000 -0.006401 0.000000
# 3 0.009524 -0.005276 0.037809 0.000000 -0.040937 0.000000
# 4 0.000000 0.000000 0.000000 0.074832 0.000000 -0.021750
# 5 -0.034821 -0.006401 -0.040937 0.000000 0.121425 0.000000
# 6 0.000000 0.000000 0.000000 -0.021750 0.000000 0.058268
#
#
# Mechanical properties :
#
#
# Convention : Reuss Voigt Hill
#
# Bulk Modulus (GPa) = 11.93166 37.33473 24.63320
# Shear Modulus (GPa) = 14.04210 21.74113 17.89161
#
# Velocity S-wave (km/s) = 2.79208 3.47418 3.15164
# Velocity P-wave (km/s) = 4.12532 6.06796 5.18838
#
# Compressibility (1/GPa) = 0.08381063
#
# Stress axis : x y z
#
# Youngs Moduli (GPa) = 43.89340 55.19329 26.44840
#
# Poissons Ratio (x) = 0.09367 -0.25189
# Poissons Ratio (y) = 0.07449 0.13955
# Poissons Ratio (z) = -0.41803 0.29123
#
# Static dielectric constant tensor:
#      x y z
#    x 3.348390 0.000000 0.302590 
#    y 0.000000 3.150750 0.000000 
#    z 0.302590 0.000000 3.350900 
# 
# 
# High freq. dielectric constant tensor:
#      x y z
#    x 1.698700 0.000000 0.011360 
#    y 0.000000 1.683200 0.000000 
#    z 0.011360 0.000000 1.685270 
# 
# From -- ./inp_files/52135.got.cif
#   From: 2010.06.25/outbox.cif.g09.slc.cpg/sg11_27_cif.got.tgz:52135.got - 2010.06.27 23:14:04.
