data_PCOD8069992
_publ_section_title
;
Structure prediction by ZEFSAII (Michael W. Deem and Ramdas Pophale) SiO2 
 PCOD8069992
Probable space group: P 21/M
;
_chemical_formula_sum "Si O2"
_cell_formula_units_Z 32
_cell_length_a 23.044939
_cell_length_b 9.198248
_cell_length_c 14.131654
_cell_angle_alpha 90.000000
_cell_angle_beta 36.368313
_cell_angle_gamma 90.000000
_cell_volume 1776.270373
_symmetry_space_group_name_H-M "P 21/M"
_symmetry_group_IT_number 11
_symmetry_cell_setting 'monoclinic'
loop_
_space_group_symop_operation_xyz
x,y,z
-x,1/2+y,-z
-x,-y,-z
x,1/2-y,z
loop_
_atom_site_type_symbol
_atom_site_label
_atom_site_fract_x
_atom_site_fract_y
_atom_site_fract_z
Si Si1 0.573921 0.579667 0.031201
Si Si2 0.207061 0.582432 0.574360
Si Si3 0.852516 0.079935 0.956969
Si Si4 0.965690 0.089139 0.327429
Si Si5 0.899883 0.420823 0.102792
Si Si6 0.096612 0.587426 0.391621
Si Si7 0.623089 0.920567 0.755604
Si Si8 0.279370 0.578720 0.035368
O O1 0.560047 0.750000 0.066841
O O2 0.632447 0.548970 0.856209
O O3 0.627122 0.511594 0.053086
O O4 0.468528 0.506198 0.165744
O O5 0.238166 0.750000 0.514501
O O6 0.097940 0.549322 0.680086
O O7 0.191492 0.549577 0.706118
O O8 0.282773 0.475127 0.425181
O O9 0.866104 0.250000 0.939576
O O10 0.751425 0.041840 0.033375
O O11 0.858057 0.019918 0.056907
O O12 0.943714 0.018792 0.777209
O O13 0.011333 0.250000 0.258047
O O14 0.888490 0.083087 0.515111
O O15 0.924077 0.250000 0.067396
O O16 0.000000 0.500000 0.000000
O O17 0.081528 0.750000 0.372404
O O18 0.191582 0.521271 0.217302
O O19 0.000000 0.500000 0.500000
O O20 0.609082 0.750000 0.755161
O O21 0.300260 0.750000 0.021625
#
# Coordination Sequence:
#
# PCOD8069992 Si02
#       8
#     4   4   4   4   4   4   4   4
#     4  10  21  37  58  83 109 138 173 215 264 321
#     4  10  20  34  53  77 107 141 176 220 272 318
#     4  10  20  33  50  73 103 140 181 220 259 306
#     4  10  19  30  46  70 101 138 177 215 258 309
#     4  10  20  34  53  77 106 142 183 226 270 313
#     4  10  19  29  43  66  98 136 175 211 251 303
#     4  10  21  37  58  84 109 136 172 217 267 319
#     4  10  20  34  51  73 105 145 180 216 264 314
#
# _framework density 18.015276
#
# number of rings (size 3 to 8) (size 9 to 14) (size 15 to 20)
#    0.000    2.000    2.500    1.500    0.000    4.500 
#    0.000    0.000    0.000    0.750    0.000    0.000 
#    0.000    0.000    0.000    0.000    0.000    0.000 
#
# Total GULP energy -396621.088178 kJ/mol
# GULP energy per Si atom -12394.409006 kJ/mol
# Density = 1.797427 g / cm^3
# Si number density = 18.015276 Si / 1000 Ang^3
#
#
#
# Elastic Constant Matrix: (Units=GPa)
#
#
# Indices 1 2 3 4 5 6 
#
# 1 124.8634 45.8441 27.0678 0.0000 0.6747 0.0000
# 2 45.8441 61.5447 24.7135 0.0000 -4.2250 0.0000
# 3 27.0678 24.7135 50.3744 0.0000 3.8333 0.0000
# 4 0.0000 0.0000 0.0000 28.2442 0.0000 -5.8975
# 5 0.6747 -4.2250 3.8333 0.0000 21.1581 0.0000
# 6 0.0000 0.0000 0.0000 -5.8975 0.0000 28.4979
#
#
#
# Elastic Compliance Matrix: (Units=1/GPa)
#
#
# Indices 1 2 3 4 5 6 
#
# 1 0.011298 -0.007627 -0.002216 0.000000 -0.001482 0.000000
# 2 -0.007627 0.026143 -0.009271 0.000000 0.007143 0.000000
# 3 -0.002216 -0.009271 0.026085 0.000000 -0.006507 0.000000
# 4 0.000000 0.000000 0.000000 0.037004 0.000000 0.007658
# 5 -0.001482 0.007143 -0.006507 0.000000 0.049916 0.000000
# 6 0.000000 0.000000 0.000000 0.007658 0.000000 0.036675
#
#
# Mechanical properties :
#
#
# Convention : Reuss Voigt Hill
#
# Bulk Modulus (GPa) = 39.52899 48.00369 43.76634
# Shear Modulus (GPa) = 21.38745 24.85717 23.12231
#
# Velocity S-wave (km/s) = 3.44929 3.71857 3.58646
# Velocity P-wave (km/s) = 6.15248 6.71870 6.44182
#
# Compressibility (1/GPa) = 0.02529789
#
# Stress axis : x y z
#
# Youngs Moduli (GPa) = 88.51495 38.25106 38.33569
#
# Poissons Ratio (x) = 0.29176 0.08494
# Poissons Ratio (y) = 0.67514 0.35540
# Poissons Ratio (z) = 0.19613 0.35462
#
# Static dielectric constant tensor:
#      x y z
#    x 3.675610 0.000000 0.298890 
#    y 0.000000 3.244050 0.000000 
#    z 0.298890 0.000000 3.185910 
# 
# 
# High freq. dielectric constant tensor:
#      x y z
#    x 1.703190 0.000000 0.010680 
#    y 0.000000 1.695560 0.000000 
#    z 0.010680 0.000000 1.669330 
# 
# From -- ./inp_files/55513.got.cif
#   From: 2010.06.25/outbox.cif.g09.slc.cpg/sg11_28_cif.got.tgz:55513.got - 2010.06.27 23:14:04.
