data_PCOD8069450
_publ_section_title
;
Structure prediction by ZEFSAII (Michael W. Deem and Ramdas Pophale) SiO2 
 PCOD8069450
Probable space group: P 21/M
;
_chemical_formula_sum "Si O2"
_cell_formula_units_Z 28
_cell_length_a 16.953818
_cell_length_b 22.068143
_cell_length_c 8.410066
_cell_angle_alpha 90.000000
_cell_angle_beta 151.157752
_cell_angle_gamma 90.000000
_cell_volume 1517.888049
_symmetry_space_group_name_H-M "P 21/M"
_symmetry_group_IT_number 11
_symmetry_cell_setting 'monoclinic'
loop_
_space_group_symop_operation_xyz
x,y,z
-x,1/2+y,-z
-x,-y,-z
x,1/2-y,z
loop_
_atom_site_type_symbol
_atom_site_label
_atom_site_fract_x
_atom_site_fract_y
_atom_site_fract_z
Si Si1 0.016178 0.890404 0.261691
Si Si2 0.655847 0.179998 0.174851
Si Si3 0.729464 0.890175 0.975318
Si Si4 0.793926 0.999993 0.293761
Si Si5 0.797075 0.580118 0.599092
Si Si6 0.363024 0.180029 0.881501
Si Si7 0.504546 0.919673 0.306897
O O1 0.158055 0.841979 0.476495
O O2 0.076377 0.945596 0.480275
O O3 0.861529 0.860970 0.084442
O O4 0.963070 0.913474 0.993327
O O5 0.656416 0.250000 0.127899
O O6 0.549930 0.169079 0.149810
O O7 0.573268 0.144167 0.883941
O O8 0.567064 0.913117 0.597754
O O9 0.827419 0.945346 0.231785
O O10 0.660937 0.841612 0.979936
O O11 0.803073 0.975053 0.488071
O O12 0.618672 0.025191 0.932605
O O13 0.762412 0.643998 0.451842
O O14 0.655785 0.561015 0.468026
O O15 0.314874 0.250000 0.784766
#
# Coordination Sequence:
#
# PCOD8069450 Si02
#       7
#     4   4   4   4   4   4   4
#     4  10  20  33  51  77 105 132 164 204 251 298
#     4   9  19  36  54  72  97 130 169 210 249 293
#     4  10  20  33  51  77 105 132 164 204 251 298
#     4  10  18  32  50  74 105 136 163 202 247 296
#     4   9  18  32  52  76 100 132 171 206 243 292
#     4   9  19  36  54  72  97 130 169 210 249 293
#     4   9  18  32  52  76 100 132 171 206 243 292
#
# _framework density 18.446681999999999
#
# number of rings (size 3 to 8) (size 9 to 14) (size 15 to 20)
#    0.000    2.571    0.000    1.714    0.000    2.857 
#    0.000   10.000    0.000    0.000    0.000    0.000 
#    0.000    0.000    0.000    0.000    0.000    0.000 
#
# Total GULP energy -347027.593135 kJ/mol
# GULP energy per Si atom -12393.842612 kJ/mol
# Density = 1.840470 g / cm^3
# Si number density = 18.446682 Si / 1000 Ang^3
#
#
#
# Elastic Constant Matrix: (Units=GPa)
#
#
# Indices 1 2 3 4 5 6 
#
# 1 92.2422 30.6479 27.9311 0.0000 -11.9625 0.0000
# 2 30.6479 76.3330 16.4049 0.0000 6.4389 0.0000
# 3 27.9311 16.4049 104.8262 0.0000 4.3281 0.0000
# 4 0.0000 0.0000 0.0000 20.1039 0.0000 -3.5851
# 5 -11.9625 6.4389 4.3281 0.0000 34.7415 0.0000
# 6 0.0000 0.0000 0.0000 -3.5851 0.0000 13.3672
#
#
#
# Elastic Compliance Matrix: (Units=1/GPa)
#
#
# Indices 1 2 3 4 5 6 
#
# 1 0.014557 -0.005691 -0.003255 0.000000 0.006473 0.000000
# 2 -0.005691 0.015960 -0.000782 0.000000 -0.004820 0.000000
# 3 -0.003255 -0.000782 0.010624 0.000000 -0.002300 0.000000
# 4 0.000000 0.000000 0.000000 0.052240 0.000000 0.014011
# 5 0.006473 -0.004820 -0.002300 0.000000 0.032193 0.000000
# 6 0.000000 0.000000 0.000000 0.014011 0.000000 0.078568
#
#
# Mechanical properties :
#
#
# Convention : Reuss Voigt Hill
#
# Bulk Modulus (GPa) = 46.11663 47.04101 46.57882
# Shear Modulus (GPa) = 21.66117 26.87035 24.26576
#
# Velocity S-wave (km/s) = 3.43046 3.82075 3.63085
# Velocity P-wave (km/s) = 6.38318 6.70974 6.54850
#
# Compressibility (1/GPa) = 0.02168415
#
# Stress axis : x y z
#
# Youngs Moduli (GPa) = 68.69512 62.65587 94.12326
#
# Poissons Ratio (x) = 0.35658 0.30641
# Poissons Ratio (y) = 0.39095 0.07363
# Poissons Ratio (z) = 0.22363 0.04902
#
# Static dielectric constant tensor:
#      x y z
#    x 3.367000 0.000000 -0.051560 
#    y 0.000000 3.291540 0.000000 
#    z -0.051560 0.000000 3.468800 
# 
# 
# High freq. dielectric constant tensor:
#      x y z
#    x 1.713970 0.000000 -0.001260 
#    y 0.000000 1.707030 0.000000 
#    z -0.001260 0.000000 1.716500 
# 
# From -- ./inp_files/19596.got.cif
#   From: 2010.06.25/outbox.cif.g09.slc.cpg/sg11_10_cif.got.tgz:19596.got - 2010.06.27 23:14:04.
