data_PCOD8069925
_publ_section_title
;
Structure prediction by ZEFSAII (Michael W. Deem and Ramdas Pophale) SiO2 
 PCOD8069925
Probable space group: P 21/M
;
_chemical_formula_sum "Si O2"
_cell_formula_units_Z 32
_cell_length_a 20.664871
_cell_length_b 9.041288
_cell_length_c 12.466827
_cell_angle_alpha 90.000000
_cell_angle_beta 59.048032
_cell_angle_gamma 90.000000
_cell_volume 1997.574942
_symmetry_space_group_name_H-M "P 21/M"
_symmetry_group_IT_number 11
_symmetry_cell_setting 'monoclinic'
loop_
_space_group_symop_operation_xyz
x,y,z
-x,1/2+y,-z
-x,-y,-z
x,1/2-y,z
loop_
_atom_site_type_symbol
_atom_site_label
_atom_site_fract_x
_atom_site_fract_y
_atom_site_fract_z
Si Si1 0.132467 0.416720 0.720667
Si Si2 0.421233 0.577100 0.046792
Si Si3 0.574753 0.574234 0.165010
Si Si4 0.313740 0.921249 0.780588
Si Si5 0.007247 0.076825 0.107277
Si Si6 0.719236 0.076627 0.436967
Si Si7 0.403839 0.578464 0.295865
Si Si8 0.830124 0.585892 0.061295
O O1 0.125773 0.250000 0.683092
O O2 0.054033 0.502636 0.760541
O O3 0.202246 0.496348 0.602734
O O4 0.146124 0.421219 0.835435
O O5 0.432176 0.750000 0.013168
O O6 0.375141 0.553504 0.197435
O O7 0.500000 0.500000 0.000000
O O8 0.384018 0.497203 0.975305
O O9 0.579744 0.750000 0.152504
O O10 0.616686 0.516520 0.234808
O O11 0.488280 0.515246 0.243400
O O12 0.327870 0.750000 0.792334
O O13 0.308813 0.956692 0.659124
O O14 0.236026 0.969096 0.906200
O O15 0.989108 0.250000 0.110748
O O16 0.094076 0.052091 0.073248
O O17 0.000000 0.000000 0.000000
O O18 0.732280 0.250000 0.443622
O O19 0.656657 0.007941 0.570936
O O20 0.408894 0.750000 0.319009
O O21 0.799481 0.750000 0.060014
#
# Coordination Sequence:
#
# PCOD8069925 Si02
#       8
#     4   4   4   4   4   4   4   4
#     4   9  16  25  37  56  81 109 141 174 209 247
#     4   9  16  29  48  67  85 104 134 176 221 262
#     4  10  19  31  46  62  84 113 144 179 218 256
#     4  10  19  28  41  61  85 114 146 177 209 250
#     4   9  15  23  37  56  77 105 140 175 210 248
#     4   9  17  30  44  59  84 116 147 175 209 254
#     4   8  16  30  47  64  82 109 141 176 217 257
#     4   8  15  26  38  53  77 108 140 172 207 247
#
# _framework density 16.019424999999998
#
# number of rings (size 3 to 8) (size 9 to 14) (size 15 to 20)
#    0.000    3.000    0.000    3.375    0.000    4.500 
#    0.000    3.750    0.000    0.000    0.000    0.000 
#    0.000    1.000    0.000    3.000    0.000    4.875 
#
# Total GULP energy -396504.389806 kJ/mol
# GULP energy per Si atom -12390.762181 kJ/mol
# Density = 1.598296 g / cm^3
# Si number density = 16.019425 Si / 1000 Ang^3
#
#
#
# Elastic Constant Matrix: (Units=GPa)
#
#
# Indices 1 2 3 4 5 6 
#
# 1 39.9858 28.0783 50.5755 0.0000 -21.0486 0.0000
# 2 28.0783 85.7313 44.8735 0.0000 -10.2377 0.0000
# 3 50.5755 44.8735 91.2236 0.0000 -20.7098 0.0000
# 4 0.0000 0.0000 0.0000 17.1620 0.0000 -2.8113
# 5 -21.0486 -10.2377 -20.7098 0.0000 20.6019 0.0000
# 6 0.0000 0.0000 0.0000 -2.8113 0.0000 26.5465
#
#
#
# Elastic Compliance Matrix: (Units=1/GPa)
#
#
# Indices 1 2 3 4 5 6 
#
# 1 0.165778 -0.008254 -0.065211 0.000000 0.099718 0.000000
# 2 -0.008254 0.016120 -0.004469 0.000000 -0.004915 0.000000
# 3 -0.065211 -0.004469 0.043645 0.000000 -0.024972 0.000000
# 4 0.000000 0.000000 0.000000 0.059297 0.000000 0.006280
# 5 0.099718 -0.004915 -0.024972 0.000000 0.122874 0.000000
# 6 0.000000 0.000000 0.000000 0.006280 0.000000 0.038335
#
#
# Mechanical properties :
#
#
# Convention : Reuss Voigt Hill
#
# Bulk Modulus (GPa) = 14.35244 51.55505 32.95374
# Shear Modulus (GPa) = 7.99818 19.08964 13.54391
#
# Velocity S-wave (km/s) = 2.23688 3.45578 2.91085
# Velocity P-wave (km/s) = 3.95605 6.94089 5.64917
#
# Compressibility (1/GPa) = 0.06967456
#
# Stress axis : x y z
#
# Youngs Moduli (GPa) = 6.03216 62.03464 22.91205
#
# Poissons Ratio (x) = 0.51204 1.49412
# Poissons Ratio (y) = 0.04979 0.10240
# Poissons Ratio (z) = 0.39336 0.27725
#
# Static dielectric constant tensor:
#      x y z
#    x 3.042450 0.000000 -0.359540 
#    y 0.000000 3.125540 0.000000 
#    z -0.359540 0.000000 3.241340 
# 
# 
# High freq. dielectric constant tensor:
#      x y z
#    x 1.587190 0.000000 -0.026870 
#    y 0.000000 1.620820 0.000000 
#    z -0.026870 0.000000 1.588180 
# 
# From -- ./inp_files/42447.got.cif
#   From: 2010.06.25/outbox.cif.g09.slc.cpg/sg11_22_cif.got.tgz:42447.got - 2010.06.27 23:14:04.
