data_PCOD8069224
_publ_section_title
;
Structure prediction by ZEFSAII (Michael W. Deem and Ramdas Pophale) SiO2 
 PCOD8069224
Probable space group: P 21/M
;
_chemical_formula_sum "Si O2"
_cell_formula_units_Z 32
_cell_length_a 9.342934
_cell_length_b 19.488362
_cell_length_c 12.434891
_cell_angle_alpha 90.000000
_cell_angle_beta 127.806612
_cell_angle_gamma 90.000000
_cell_volume 1788.850394
_symmetry_space_group_name_H-M "P 21/M"
_symmetry_group_IT_number 11
_symmetry_cell_setting 'monoclinic'
loop_
_space_group_symop_operation_xyz
x,y,z
-x,1/2+y,-z
-x,-y,-z
x,1/2-y,z
loop_
_atom_site_type_symbol
_atom_site_label
_atom_site_fract_x
_atom_site_fract_y
_atom_site_fract_z
Si Si1 0.641054 0.173526 0.875642
Si Si2 0.198401 0.488748 0.820491
Si Si3 0.315625 0.081128 0.081956
Si Si4 0.985390 0.674887 0.667424
Si Si5 0.555765 0.958518 0.265177
Si Si6 0.942367 0.672020 0.895958
Si Si7 0.109697 0.034789 0.456224
Si Si8 0.365601 0.864752 0.894533
O O1 0.600753 0.250000 0.810808
O O2 0.536313 0.115840 0.758491
O O3 0.854497 0.157388 0.970860
O O4 0.573584 0.172253 0.968223
O O5 0.307768 0.452908 0.773605
O O6 0.304022 0.558351 0.898118
O O7 0.985739 0.504147 0.695091
O O8 0.197406 0.441022 0.924353
O O9 0.470714 0.133451 0.114533
O O10 0.189392 0.119144 0.107533
O O11 0.402234 0.015454 0.180438
O O12 0.916155 0.750000 0.598322
O O13 0.910116 0.617579 0.551900
O O14 0.923347 0.658936 0.760313
O O15 0.203591 0.675668 0.762549
O O16 0.676273 0.979136 0.426416
O O17 0.887546 0.750000 0.898919
O O18 0.000000 0.000000 0.500000
#
# Coordination Sequence:
#
# PCOD8069224 Si02
#       8
#     4   4   4   4   4   4   4   4
#     4  10  18  31  47  70 106 132 164 218 261 300
#     4   9  16  31  51  76 107 133 160 213 268 306
#     4  11  18  31  56  77 107 132 170 215 261 313
#     4   9  18  35  54  74 106 143 175 208 256 312
#     4  10  18  32  50  80 102 131 173 218 260 306
#     4   9  21  35  50  77 108 137 172 215 260 311
#     4   9  19  33  54  77 109 134 171 220 263 299
#     4   9  15  29  50  77  99 128 167 211 257 302
#
# _framework density 17.888584000000002
#
# number of rings (size 3 to 8) (size 9 to 14) (size 15 to 20)
#    0.000    2.500    2.500    2.625    0.000    2.000 
#    0.000    0.625    0.000    0.000    0.000    0.000 
#    0.000    0.000    0.000    0.000    0.000    0.000 
#
# Total GULP energy -396582.503000 kJ/mol
# GULP energy per Si atom -12393.203219 kJ/mol
# Density = 1.784787 g / cm^3
# Si number density = 17.888584 Si / 1000 Ang^3
#
#
#
# Elastic Constant Matrix: (Units=GPa)
#
#
# Indices 1 2 3 4 5 6 
#
# 1 79.4222 59.7782 30.5300 0.0000 5.1817 0.0000
# 2 59.7782 109.1992 45.1760 0.0000 3.2295 0.0000
# 3 30.5300 45.1760 80.0929 0.0000 16.4061 0.0000
# 4 0.0000 0.0000 0.0000 25.7547 0.0000 -2.7259
# 5 5.1817 3.2295 16.4061 0.0000 16.8418 0.0000
# 6 0.0000 0.0000 0.0000 -2.7259 0.0000 28.1769
#
#
#
# Elastic Compliance Matrix: (Units=1/GPa)
#
#
# Indices 1 2 3 4 5 6 
#
# 1 0.021812 -0.011327 -0.001243 0.000000 -0.003327 0.000000
# 2 -0.011327 0.018224 -0.007445 0.000000 0.007243 0.000000
# 3 -0.001243 -0.007445 0.020973 0.000000 -0.018620 0.000000
# 4 0.000000 0.000000 0.000000 0.039230 0.000000 0.003795
# 5 -0.003327 0.007243 -0.018620 0.000000 0.077149 0.000000
# 6 0.000000 0.000000 0.000000 0.003795 0.000000 0.035857
#
#
# Mechanical properties :
#
#
# Convention : Reuss Voigt Hill
#
# Bulk Modulus (GPa) = 47.67144 59.96476 53.81810
# Shear Modulus (GPa) = 19.21083 23.03668 21.12376
#
# Velocity S-wave (km/s) = 3.28062 3.59247 3.44008
# Velocity P-wave (km/s) = 6.40757 7.12754 6.77712
#
# Compressibility (1/GPa) = 0.02097692
#
# Stress axis : x y z
#
# Youngs Moduli (GPa) = 45.84669 54.87150 47.68024
#
# Poissons Ratio (x) = 0.62156 0.05929
# Poissons Ratio (y) = 0.51933 0.35499
# Poissons Ratio (z) = 0.05701 0.40853
#
# Static dielectric constant tensor:
#      x y z
#    x 3.078850 0.000000 0.238800 
#    y 0.000000 3.425410 0.000000 
#    z 0.238800 0.000000 3.413850 
# 
# 
# High freq. dielectric constant tensor:
#      x y z
#    x 1.660910 0.000000 0.017210 
#    y 0.000000 1.695990 0.000000 
#    z 0.017210 0.000000 1.676430 
# 
# From -- ./inp_files/32687.got.cif
#   From: 2010.06.25/outbox.cif.g09.slc.cpg/sg11_17_cif.got.tgz:32687.got - 2010.06.27 23:14:04.
