data_PCOD8069294
_publ_section_title
;
Structure prediction by ZEFSAII (Michael W. Deem and Ramdas Pophale) SiO2 
 PCOD8069294
Probable space group: P 21/M
;
_chemical_formula_sum "Si O2"
_cell_formula_units_Z 24
_cell_length_a 16.465859
_cell_length_b 8.668312
_cell_length_c 18.504121
_cell_angle_alpha 90.000000
_cell_angle_beta 150.207262
_cell_angle_gamma 90.000000
_cell_volume 1312.275113
_symmetry_space_group_name_H-M "P 21/M"
_symmetry_group_IT_number 11
_symmetry_cell_setting 'monoclinic'
loop_
_space_group_symop_operation_xyz
x,y,z
-x,1/2+y,-z
-x,-y,-z
x,1/2-y,z
loop_
_atom_site_type_symbol
_atom_site_label
_atom_site_fract_x
_atom_site_fract_y
_atom_site_fract_z
Si Si1 0.022402 0.433685 0.182076
Si Si2 0.332086 0.929352 0.845789
Si Si3 0.854763 0.429365 0.433104
Si Si4 0.844455 0.934187 0.921280
Si Si5 0.666721 0.433786 0.659189
Si Si6 0.987583 0.431886 0.319438
O O1 0.031562 0.250000 0.180681
O O2 0.187154 0.508423 0.278767
O O3 0.003714 0.488323 0.249972
O O4 0.862023 0.499661 0.016234
O O5 0.340426 0.750000 0.868141
O O6 0.307470 0.961677 0.740492
O O7 0.181127 0.997566 0.776441
O O8 0.500000 0.000000 0.000000
O O9 0.884343 0.250000 0.465878
O O10 0.000000 0.500000 0.500000
O O11 0.856000 0.505812 0.513704
O O12 0.841472 0.750000 0.919192
O O13 0.687420 0.000691 0.757218
O O14 0.000000 0.000000 0.000000
O O15 0.500000 0.500000 0.500000
O O16 0.663033 0.250000 0.658049
O O17 0.992044 0.250000 0.327701
#
# Coordination Sequence:
#
# PCOD8069294 Si02
#       6
#     4   4   4   4   4   4
#     4  10  19  34  54  76 102 134 169 209 253 301
#     4   9  18  32  49  73  99 128 164 203 244 291
#     4   9  17  30  49  71  97 128 167 207 247 297
#     4  10  18  31  51  75 101 133 170 206 246 299
#     4  11  21  35  54  77 103 132 168 210 253 302
#     4   9  19  34  52  74 101 131 167 205 247 298
#
# _framework density 18.288847000000001
#
# number of rings (size 3 to 8) (size 9 to 14) (size 15 to 20)
#    0.000    2.333    0.000    7.000    0.000    4.667 
#    0.000    1.667    0.000    6.000    0.000    0.000 
#    0.000    0.000    0.000    0.000    0.000    0.000 
#
# Total GULP energy -297404.235167 kJ/mol
# GULP energy per Si atom -12391.843132 kJ/mol
# Density = 1.824722 g / cm^3
# Si number density = 18.288847 Si / 1000 Ang^3
#
#
#
# Elastic Constant Matrix: (Units=GPa)
#
#
# Indices 1 2 3 4 5 6 
#
# 1 80.8604 36.3440 67.5827 0.0000 -30.6607 0.0000
# 2 36.3440 97.2193 62.8775 0.0000 -17.0403 0.0000
# 3 67.5827 62.8775 183.5945 0.0000 -32.3521 0.0000
# 4 0.0000 0.0000 0.0000 38.6302 0.0000 -4.0609
# 5 -30.6607 -17.0403 -32.3521 0.0000 35.8938 0.0000
# 6 0.0000 0.0000 0.0000 -4.0609 0.0000 23.5104
#
#
#
# Elastic Compliance Matrix: (Units=1/GPa)
#
#
# Indices 1 2 3 4 5 6 
#
# 1 0.023188 -0.002955 -0.005089 0.000000 0.013818 0.000000
# 2 -0.002955 0.013798 -0.003481 0.000000 0.000888 0.000000
# 3 -0.005089 -0.003481 0.008863 0.000000 0.001989 0.000000
# 4 0.000000 0.000000 0.000000 0.026365 0.000000 0.004554
# 5 0.013818 0.000888 0.001989 0.000000 0.041877 0.000000
# 6 0.000000 0.000000 0.000000 0.004554 0.000000 0.043321
#
#
# Mechanical properties :
#
#
# Convention : Reuss Voigt Hill
#
# Bulk Modulus (GPa) = 43.86316 77.25364 60.55840
# Shear Modulus (GPa) = 26.58705 32.59819 29.59262
#
# Velocity S-wave (km/s) = 3.81692 4.22644 4.02689
# Velocity P-wave (km/s) = 6.59248 8.13324 7.40305
#
# Compressibility (1/GPa) = 0.02279817
#
# Stress axis : x y z
#
# Youngs Moduli (GPa) = 43.12626 72.47425 112.83380
#
# Poissons Ratio (x) = 0.21419 0.57416
# Poissons Ratio (y) = 0.12746 0.39279
# Poissons Ratio (z) = 0.21945 0.25229
#
# Static dielectric constant tensor:
#      x y z
#    x 3.467700 0.000000 -0.250930 
#    y 0.000000 3.505880 0.000000 
#    z -0.250930 0.000000 4.172700 
# 
# 
# High freq. dielectric constant tensor:
#      x y z
#    x 1.669320 0.000000 -0.031130 
#    y 0.000000 1.719520 0.000000 
#    z -0.031130 0.000000 1.725780 
# 
# From -- ./inp_files/25612.got.cif
#   From: 2010.06.25/outbox.cif.g09.slc.cpg/sg11_13_cif.got.tgz:25612.got - 2010.06.27 23:14:04.
