data_PCOD8069636
_publ_section_title
;
Structure prediction by ZEFSAII (Michael W. Deem and Ramdas Pophale) SiO2 
 PCOD8069636
Probable space group: P 21/M
;
_chemical_formula_sum "Si O2"
_cell_formula_units_Z 24
_cell_length_a 9.254961
_cell_length_b 16.580988
_cell_length_c 15.660510
_cell_angle_alpha 90.000000
_cell_angle_beta 31.507756
_cell_angle_gamma 90.000000
_cell_volume 1255.948762
_symmetry_space_group_name_H-M "P 21/M"
_symmetry_group_IT_number 11
_symmetry_cell_setting 'monoclinic'
loop_
_space_group_symop_operation_xyz
x,y,z
-x,1/2+y,-z
-x,-y,-z
x,1/2-y,z
loop_
_atom_site_type_symbol
_atom_site_label
_atom_site_fract_x
_atom_site_fract_y
_atom_site_fract_z
Si Si1 0.732775 0.345849 0.370680
Si Si2 0.301643 0.659925 0.426641
Si Si3 0.691844 0.613445 0.742332
Si Si4 0.361912 0.343576 0.048801
Si Si5 0.665552 0.655426 0.575784
Si Si6 0.738953 0.424663 0.720823
O O1 0.742066 0.250000 0.365121
O O2 0.605595 0.373829 0.526704
O O3 0.540514 0.379978 0.392221
O O4 0.047354 0.376356 0.199841
O O5 0.418572 0.750000 0.351265
O O6 0.397939 0.602839 0.300451
O O7 0.970058 0.665916 0.596821
O O8 0.527984 0.641100 0.909704
O O9 0.527333 0.635387 0.737958
O O10 0.768174 0.519863 0.706518
O O11 0.392501 0.250000 0.008605
O O12 0.544321 0.397096 0.894988
O O13 0.709949 0.750000 0.539856
O O14 0.958871 0.612126 0.418521
#
# Coordination Sequence:
#
# PCOD8069636 Si02
#       6
#     4   4   4   4   4   4
#     4   8  17  32  52  72  95 127 167 201 237 288
#     4   9  16  31  51  71  95 132 168 196 235 294
#     4  10  19  32  49  73 102 132 160 196 244 297
#     4  10  19  35  53  70  94 132 167 197 241 298
#     4  10  18  33  54  76  97 127 167 206 237 279
#     4  11  20  31  50  78 102 124 161 208 244 280
#
# _framework density 19.109059999999999
#
# number of rings (size 3 to 8) (size 9 to 14) (size 15 to 20)
#    0.000    2.333    0.000    7.500    0.000    0.000 
#    0.000   10.000    0.000    4.000    0.000    0.000 
#    0.000    0.000    0.000    0.000    0.000    0.000 
#
# Total GULP energy -297473.610128 kJ/mol
# GULP energy per Si atom -12394.733755 kJ/mol
# Density = 1.906557 g / cm^3
# Si number density = 19.109060 Si / 1000 Ang^3
#
#
#
# Elastic Constant Matrix: (Units=GPa)
#
#
# Indices 1 2 3 4 5 6 
#
# 1 143.3191 14.2402 41.0664 0.0000 26.4126 0.0000
# 2 14.2402 65.0457 6.7802 0.0000 -3.2325 0.0000
# 3 41.0664 6.7802 76.6706 0.0000 22.4427 0.0000
# 4 0.0000 0.0000 0.0000 34.3109 0.0000 8.9754
# 5 26.4126 -3.2325 22.4427 0.0000 28.3035 0.0000
# 6 0.0000 0.0000 0.0000 8.9754 0.0000 10.2441
#
#
#
# Elastic Compliance Matrix: (Units=1/GPa)
#
#
# Indices 1 2 3 4 5 6 
#
# 1 0.009203 -0.002048 -0.002820 0.000000 -0.006585 0.000000
# 2 -0.002048 0.016280 -0.001884 0.000000 0.005264 0.000000
# 3 -0.002820 -0.001884 0.018248 0.000000 -0.012053 0.000000
# 4 0.000000 0.000000 0.000000 0.037811 0.000000 -0.033129
# 5 -0.006585 0.005264 -0.012053 0.000000 0.051635 0.000000
# 6 0.000000 0.000000 0.000000 -0.033129 0.000000 0.126643
#
#
# Mechanical properties :
#
#
# Convention : Reuss Voigt Hill
#
# Bulk Modulus (GPa) = 33.08323 45.46768 39.27545
# Shear Modulus (GPa) = 17.64295 29.43494 23.53894
#
# Velocity S-wave (km/s) = 3.04184 3.92901 3.51354
# Velocity P-wave (km/s) = 5.44862 6.66545 6.08752
#
# Compressibility (1/GPa) = 0.03022679
#
# Stress axis : x y z
#
# Youngs Moduli (GPa) = 108.66348 61.42463 54.80044
#
# Poissons Ratio (x) = 0.12580 0.15456
# Poissons Ratio (y) = 0.22254 0.10322
# Poissons Ratio (z) = 0.30648 0.11570
#
# Static dielectric constant tensor:
#      x y z
#    x 4.047030 0.000000 0.495060 
#    y 0.000000 3.350990 0.000000 
#    z 0.495060 0.000000 3.347240 
# 
# 
# High freq. dielectric constant tensor:
#      x y z
#    x 1.741140 0.000000 0.040090 
#    y 0.000000 1.738940 0.000000 
#    z 0.040090 0.000000 1.715490 
# 
# From -- ./inp_files/12612.got.cif
#   From: 2010.06.25/outbox.cif.g09.slc.cpg/sg11_7_cif.got.tgz:12612.got - 2010.06.27 23:14:04.
