data_PCOD8069311
_publ_section_title
;
Structure prediction by ZEFSAII (Michael W. Deem and Ramdas Pophale) SiO2 
 PCOD8069311
Probable space group: P 21/M
;
_chemical_formula_sum "Si O2"
_cell_formula_units_Z 32
_cell_length_a 17.048460
_cell_length_b 8.720999
_cell_length_c 25.751981
_cell_angle_alpha 90.000000
_cell_angle_beta 154.722982
_cell_angle_gamma 90.000000
_cell_volume 1634.876754
_symmetry_space_group_name_H-M "P 21/M"
_symmetry_group_IT_number 11
_symmetry_cell_setting 'monoclinic'
loop_
_space_group_symop_operation_xyz
x,y,z
-x,1/2+y,-z
-x,-y,-z
x,1/2-y,z
loop_
_atom_site_type_symbol
_atom_site_label
_atom_site_fract_x
_atom_site_fract_y
_atom_site_fract_z
Si Si1 0.866922 0.067714 0.247301
Si Si2 0.425926 0.571282 0.845462
Si Si3 0.260601 0.926036 0.105161
Si Si4 0.635824 0.425558 0.305241
Si Si5 0.038653 0.932771 0.144276
Si Si6 0.622299 0.424258 0.711483
Si Si7 0.239888 0.432184 0.519864
Si Si8 0.811939 0.431135 0.097717
O O1 0.872310 0.250000 0.252730
O O2 0.700822 0.008007 0.183843
O O3 0.832942 0.007245 0.168951
O O4 0.060164 0.000979 0.383970
O O5 0.475791 0.750000 0.882395
O O6 0.310968 0.546172 0.723277
O O7 0.614301 0.476598 0.957071
O O8 0.291440 0.750000 0.106337
O O9 0.251803 0.939707 0.161950
O O10 0.423982 0.029234 0.181528
O O11 0.075861 0.990085 0.970186
O O12 0.660909 0.250000 0.336084
O O13 0.760962 0.523179 0.419655
O O14 0.018659 0.750000 0.129184
O O15 0.251657 0.985154 0.260881
O O16 0.974843 0.992433 0.162045
O O17 0.573614 0.250000 0.670498
O O18 0.422523 0.504223 0.600881
O O19 0.243378 0.250000 0.519805
O O20 0.835659 0.250000 0.109059
#
# Coordination Sequence:
#
# PCOD8069311 Si02
#       8
#     4   4   4   4   4   4   4   4
#     4   9  20  38  59  79 102 141 185 227 268 313
#     4  10  20  36  57  81 110 140 173 218 277 326
#     4  10  18  31  51  77 108 141 180 215 259 318
#     4  10  19  31  51  81 115 143 171 213 268 321
#     4  11  20  32  50  76 109 141 175 218 271 318
#     4   8  17  31  51  77 104 140 178 213 259 319
#     4   9  18  37  59  77 105 143 184 221 260 314
#     4  11  22  36  55  80 108 139 183 227 267 316
#
# _framework density 19.573340000000002
#
# number of rings (size 3 to 8) (size 9 to 14) (size 15 to 20)
#    0.000    2.250    1.250    3.000    0.000    1.000 
#    0.000    8.750    0.000    0.000    0.000    0.000 
#    0.000    0.000    0.000    0.000    0.000    0.000 
#
# Total GULP energy -396627.124750 kJ/mol
# GULP energy per Si atom -12394.597648 kJ/mol
# Density = 1.952879 g / cm^3
# Si number density = 19.573340 Si / 1000 Ang^3
#
#
#
# Elastic Constant Matrix: (Units=GPa)
#
#
# Indices 1 2 3 4 5 6 
#
# 1 122.5587 17.8902 35.3308 0.0000 5.5271 0.0000
# 2 17.8902 21.8247 7.3013 0.0000 -1.2451 0.0000
# 3 35.3308 7.3013 72.1055 0.0000 -9.6878 0.0000
# 4 0.0000 0.0000 0.0000 16.4540 0.0000 -3.1675
# 5 5.5271 -1.2451 -9.6878 0.0000 19.1370 0.0000
# 6 0.0000 0.0000 0.0000 -3.1675 0.0000 22.7529
#
#
#
# Elastic Compliance Matrix: (Units=1/GPa)
#
#
# Indices 1 2 3 4 5 6 
#
# 1 0.011185 -0.007675 -0.005584 0.000000 -0.006557 0.000000
# 2 -0.007675 0.052701 -0.000877 0.000000 0.005201 0.000000
# 3 -0.005584 -0.000877 0.018136 0.000000 0.010737 0.000000
# 4 0.000000 0.000000 0.000000 0.062449 0.000000 0.008694
# 5 -0.006557 0.005201 0.010737 0.000000 0.059922 0.000000
# 6 0.000000 0.000000 0.000000 0.008694 0.000000 0.045161
#
#
# Mechanical properties :
#
#
# Convention : Reuss Voigt Hill
#
# Bulk Modulus (GPa) = 18.60466 37.50372 28.05419
# Shear Modulus (GPa) = 16.90653 22.06654 19.48654
#
# Velocity S-wave (km/s) = 2.94216 3.36129 3.15868
# Velocity P-wave (km/s) = 4.58993 5.85376 5.25994
#
# Compressibility (1/GPa) = 0.05374997
#
# Stress axis : x y z
#
# Youngs Moduli (GPa) = 89.40391 18.97502 55.13816
#
# Poissons Ratio (x) = 0.14563 0.30792
# Poissons Ratio (y) = 0.68614 0.04837
# Poissons Ratio (z) = 0.49927 0.01664
#
# Static dielectric constant tensor:
#      x y z
#    x 3.837200 0.000000 0.069790 
#    y 0.000000 3.323130 0.000000 
#    z 0.069790 0.000000 3.581260 
# 
# 
# High freq. dielectric constant tensor:
#      x y z
#    x 1.771270 0.000000 0.006260 
#    y 0.000000 1.738590 0.000000 
#    z 0.006260 0.000000 1.746240 
# 
# From -- ./inp_files/69167.got.cif
#   From: 2010.06.25/outbox.cif.g09.slc.cpg/sg11_35_cif.got.tgz:69167.got - 2010.06.27 23:14:04.
