data_PCOD8069643
_publ_section_title
;
Structure prediction by ZEFSAII (Michael W. Deem and Ramdas Pophale) SiO2 
 PCOD8069643
Probable space group: P 21/M
;
_chemical_formula_sum "Si O2"
_cell_formula_units_Z 32
_cell_length_a 20.269426
_cell_length_b 9.323370
_cell_length_c 19.670660
_cell_angle_alpha 90.000000
_cell_angle_beta 150.651986
_cell_angle_gamma 90.000000
_cell_volume 1821.921208
_symmetry_space_group_name_H-M "P 21/M"
_symmetry_group_IT_number 11
_symmetry_cell_setting 'monoclinic'
loop_
_space_group_symop_operation_xyz
x,y,z
-x,1/2+y,-z
-x,-y,-z
x,1/2-y,z
loop_
_atom_site_type_symbol
_atom_site_label
_atom_site_fract_x
_atom_site_fract_y
_atom_site_fract_z
Si Si1 0.220100 0.418915 0.808084
Si Si2 0.384202 0.909456 0.312184
Si Si3 0.540692 0.079756 0.910563
Si Si4 0.690568 0.590550 0.636425
Si Si5 0.965110 0.920328 0.625333
Si Si6 0.231845 0.080008 0.436113
Si Si7 0.757838 0.583312 0.327373
Si Si8 0.516183 0.419812 0.736821
O O1 0.224152 0.250000 0.827442
O O2 0.193100 0.449497 0.704534
O O3 0.104539 0.495196 0.747687
O O4 0.361547 0.490043 0.953751
O O5 0.323446 0.750000 0.256629
O O6 0.535547 0.907655 0.475557
O O7 0.387625 0.975798 0.238367
O O8 0.288136 0.999849 0.275782
O O9 0.556468 0.250000 0.938624
O O10 0.391249 0.021922 0.793412
O O11 0.575300 0.039595 0.863423
O O12 0.741026 0.750000 0.698754
O O13 0.775756 0.524671 0.649135
O O14 0.991600 0.750000 0.642656
O O15 0.899818 0.962320 0.639272
O O16 0.867537 0.980100 0.478063
O O17 0.246959 0.250000 0.446979
O O18 0.364840 0.016948 0.592980
O O19 0.747816 0.750000 0.334491
O O20 0.506571 0.250000 0.720447
#
# Coordination Sequence:
#
# PCOD8069643 Si02
#       8
#     4   4   4   4   4   4   4   4
#     4  11  23  35  45  69 106 131 150 192 249 295
#     4   8  13  21  35  59  90 120 146 179 225 273
#     4  10  18  33  55  74  90 122 168 204 233 276
#     4   8  13  21  35  59  90 120 146 179 225 273
#     4  10  18  33  55  74  90 122 168 204 233 276
#     4   8  13  24  45  69  90 115 155 201 233 262
#     4   9  18  33  55  75  92 119 161 206 242 279
#     4   8  13  24  45  69  90 115 155 201 233 262
#
# _framework density 17.563877000000002
#
# number of rings (size 3 to 8) (size 9 to 14) (size 15 to 20)
#    0.000    3.000    1.250    2.625    0.000    0.000 
#    0.000    3.125    0.000    1.500    0.000    0.875 
#    0.000    0.000    0.000    0.000    0.000    0.000 
#
# Total GULP energy -396539.923211 kJ/mol
# GULP energy per Si atom -12391.872600 kJ/mol
# Density = 1.752390 g / cm^3
# Si number density = 17.563877 Si / 1000 Ang^3
#
#
#
# Elastic Constant Matrix: (Units=GPa)
#
#
# Indices 1 2 3 4 5 6 
#
# 1 109.2442 30.9989 11.6654 0.0000 4.4733 0.0000
# 2 30.9989 44.9964 13.1746 0.0000 2.4218 0.0000
# 3 11.6654 13.1746 35.3293 0.0000 12.9376 0.0000
# 4 0.0000 0.0000 0.0000 16.1067 0.0000 -2.2272
# 5 4.4733 2.4218 12.9376 0.0000 15.9609 0.0000
# 6 0.0000 0.0000 0.0000 -2.2272 0.0000 22.8987
#
#
#
# Elastic Compliance Matrix: (Units=1/GPa)
#
#
# Indices 1 2 3 4 5 6 
#
# 1 0.011444 -0.007720 -0.000220 0.000000 -0.001858 0.000000
# 2 -0.007720 0.030480 -0.011257 0.000000 0.006664 0.000000
# 3 -0.000220 -0.011257 0.045405 0.000000 -0.035035 0.000000
# 4 0.000000 0.000000 0.000000 0.062933 0.000000 0.006121
# 5 -0.001858 0.006664 -0.035035 0.000000 0.090562 0.000000
# 6 0.000000 0.000000 0.000000 0.006121 0.000000 0.044266
#
#
# Mechanical properties :
#
#
# Convention : Reuss Voigt Hill
#
# Bulk Modulus (GPa) = 20.43496 33.47198 26.95347
# Shear Modulus (GPa) = 14.71479 19.90864 17.31171
#
# Velocity S-wave (km/s) = 2.89760 3.37040 3.14290
# Velocity P-wave (km/s) = 4.78065 5.85190 5.34319
#
# Compressibility (1/GPa) = 0.04893575
#
# Stress axis : x y z
#
# Youngs Moduli (GPa) = 87.38328 32.80883 22.02380
#
# Poissons Ratio (x) = 0.25327 0.00484
# Poissons Ratio (y) = 0.67456 0.24793
# Poissons Ratio (z) = 0.01918 0.36934
#
# Static dielectric constant tensor:
#      x y z
#    x 3.709630 0.000000 -0.160090 
#    y 0.000000 2.943760 0.000000 
#    z -0.160090 0.000000 2.917060 
# 
# 
# High freq. dielectric constant tensor:
#      x y z
#    x 1.700320 0.000000 -0.009510 
#    y 0.000000 1.634810 0.000000 
#    z -0.009510 0.000000 1.635800 
# 
# From -- ./inp_files/66465.got.cif
#   From: 2010.06.25/outbox.cif.g09.slc.cpg/sg11_34_cif.got.tgz:66465.got - 2010.06.27 23:14:04.
