data_PCOD8069720
_publ_section_title
;
Structure prediction by ZEFSAII (Michael W. Deem and Ramdas Pophale) SiO2 
 PCOD8069720
Probable space group: P 21/M
;
_chemical_formula_sum "Si O2"
_cell_formula_units_Z 32
_cell_length_a 10.751665
_cell_length_b 14.700779
_cell_length_c 16.943137
_cell_angle_alpha 90.000000
_cell_angle_beta 34.265852
_cell_angle_gamma 90.000000
_cell_volume 1507.801625
_symmetry_space_group_name_H-M "P 21/M"
_symmetry_group_IT_number 11
_symmetry_cell_setting 'monoclinic'
loop_
_space_group_symop_operation_xyz
x,y,z
-x,1/2+y,-z
-x,-y,-z
x,1/2-y,z
loop_
_atom_site_type_symbol
_atom_site_label
_atom_site_fract_x
_atom_site_fract_y
_atom_site_fract_z
Si Si1 0.418111 0.475611 0.458283
Si Si2 0.435765 0.644318 0.853630
Si Si3 0.114240 0.355898 0.139752
Si Si4 0.093513 0.099566 0.439668
Si Si5 0.814485 0.351304 0.443245
Si Si6 0.988011 0.648973 0.347859
Si Si7 0.571218 0.141839 0.964602
Si Si8 0.213983 0.644088 0.816095
O O1 0.500000 0.500000 0.500000
O O2 0.367539 0.571882 0.440433
O O3 0.591604 0.416904 0.319994
O O4 0.195036 0.419234 0.587494
O O5 0.499071 0.750000 0.824701
O O6 0.641958 0.592900 0.705382
O O7 0.391307 0.606567 0.964996
O O8 0.221716 0.630206 0.907593
O O9 0.164313 0.250000 0.112696
O O10 0.348099 0.402115 0.042426
O O11 0.923658 0.378529 0.302608
O O12 0.019732 0.385532 0.102287
O O13 0.005119 0.149488 0.408577
O O14 0.017611 0.157357 0.554807
O O15 0.000000 0.000000 0.500000
O O16 0.707910 0.250000 0.495187
O O17 0.950101 0.750000 0.332149
O O18 0.222867 0.608938 0.195775
O O19 0.555401 0.250000 0.973001
O O20 0.261577 0.750000 0.769966
#
# Coordination Sequence:
#
# PCOD8069720 Si02
#       8
#     4   4   4   4   4   4   4   4
#     4  12  23  36  58  88 126 157 205 251 308 367
#     4  10  18  33  59  88 116 158 210 255 295 364
#     4   9  17  32  56  84 115 157 206 247 291 357
#     4  12  21  35  59  91 124 154 205 260 310 361
#     4  11  21  35  57  86 118 157 203 254 304 358
#     4  11  23  40  63  93 128 162 198 257 322 367
#     4   9  19  36  61  90 121 159 207 253 305 372
#     4  10  19  33  59  88 118 158 207 254 301 358
#
# _framework density 21.222951999999999
#
# number of rings (size 3 to 8) (size 9 to 14) (size 15 to 20)
#    0.000    1.500    5.000    1.500    0.000    0.500 
#    0.000    2.500    2.750    0.750    0.000    0.000 
#    0.000    0.000    0.000    0.000    0.000    0.000 
#
# Total GULP energy -396601.237451 kJ/mol
# GULP energy per Si atom -12393.788670 kJ/mol
# Density = 2.117465 g / cm^3
# Si number density = 21.222952 Si / 1000 Ang^3
#
#
#
# Elastic Constant Matrix: (Units=GPa)
#
#
# Indices 1 2 3 4 5 6 
#
# 1 178.6235 18.5593 46.1405 0.0000 -4.3405 0.0000
# 2 18.5593 79.5887 12.4674 0.0000 -12.0652 0.0000
# 3 46.1405 12.4674 86.4023 0.0000 1.0509 0.0000
# 4 0.0000 0.0000 0.0000 10.5375 0.0000 -4.2017
# 5 -4.3405 -12.0652 1.0509 0.0000 24.2560 0.0000
# 6 0.0000 0.0000 0.0000 -4.2017 0.0000 18.5332
#
#
#
# Elastic Compliance Matrix: (Units=1/GPa)
#
#
# Indices 1 2 3 4 5 6 
#
# 1 0.006590 -0.000868 -0.003405 0.000000 0.000895 0.000000
# 2 -0.000868 0.014074 -0.001652 0.000000 0.006917 0.000000
# 3 -0.003405 -0.001652 0.013655 0.000000 -0.002022 0.000000
# 4 0.000000 0.000000 0.000000 0.104330 0.000000 0.023653
# 5 0.000895 0.006917 -0.002022 0.000000 0.044915 0.000000
# 6 0.000000 0.000000 0.000000 0.023653 0.000000 0.059319
#
#
# Mechanical properties :
#
#
# Convention : Reuss Voigt Hill
#
# Bulk Modulus (GPa) = 44.50214 55.43877 49.97046
# Shear Modulus (GPa) = 19.06781 28.49518 23.78149
#
# Velocity S-wave (km/s) = 3.00067 3.66821 3.35110
# Velocity P-wave (km/s) = 5.74628 6.64227 6.21046
#
# Compressibility (1/GPa) = 0.02247083
#
# Stress axis : x y z
#
# Youngs Moduli (GPa) = 151.75079 71.05193 73.23386
#
# Poissons Ratio (x) = 0.06165 0.24934
# Poissons Ratio (y) = 0.13166 0.12096
# Poissons Ratio (z) = 0.51667 0.11735
#
# Static dielectric constant tensor:
#      x y z
#    x 4.240660 0.000000 -0.095930 
#    y 0.000000 4.658040 0.000000 
#    z -0.095930 0.000000 3.473130 
# 
# 
# High freq. dielectric constant tensor:
#      x y z
#    x 1.852360 0.000000 0.002000 
#    y 0.000000 1.826240 0.000000 
#    z 0.002000 0.000000 1.793420 
# 
# From -- ./inp_files/59454.got.cif
#   From: 2010.06.25/outbox.cif.g09.slc.cpg/sg11_30_cif.got.tgz:59454.got - 2010.06.27 23:14:04.
