data_PCOD8069383
_publ_section_title
;
Structure prediction by ZEFSAII (Michael W. Deem and Ramdas Pophale) SiO2 
 PCOD8069383
Probable space group: P 21/M
;
_chemical_formula_sum "Si O2"
_cell_formula_units_Z 28
_cell_length_a 9.403546
_cell_length_b 8.704793
_cell_length_c 26.231257
_cell_angle_alpha 90.000000
_cell_angle_beta 137.212250
_cell_angle_gamma 90.000000
_cell_volume 1458.548432
_symmetry_space_group_name_H-M "P 21/M"
_symmetry_group_IT_number 11
_symmetry_cell_setting 'monoclinic'
loop_
_space_group_symop_operation_xyz
x,y,z
-x,1/2+y,-z
-x,-y,-z
x,1/2-y,z
loop_
_atom_site_type_symbol
_atom_site_label
_atom_site_fract_x
_atom_site_fract_y
_atom_site_fract_z
Si Si1 0.125748 0.931014 0.145869
Si Si2 0.167264 0.567156 0.004937
Si Si3 0.789636 0.570073 0.724770
Si Si4 0.310893 0.570960 0.588760
Si Si5 0.931781 0.430616 0.296670
Si Si6 0.999696 0.069828 0.579898
Si Si7 0.541621 0.567514 0.843495
O O1 0.131318 0.750000 0.137894
O O2 0.145654 0.969258 0.210137
O O3 0.316919 0.008037 0.165708
O O4 0.901188 0.999509 0.067947
O O5 0.164795 0.750000 0.002965
O O6 0.390531 0.505455 0.083982
O O7 0.000000 0.500000 0.000000
O O8 0.816344 0.750000 0.744624
O O9 0.553381 0.530884 0.646370
O O10 0.937258 0.515780 0.717755
O O11 0.272771 0.750000 0.587820
O O12 0.190839 0.514199 0.506399
O O13 0.220218 0.485844 0.614547
O O14 0.940720 0.250000 0.304943
O O15 0.038199 0.501091 0.374508
O O16 0.693956 0.488077 0.228418
O O17 0.005346 0.250000 0.586653
O O18 0.561015 0.750000 0.851849
#
# Coordination Sequence:
#
# PCOD8069383 Si02
#       7
#     4   4   4   4   4   4   4
#     4  11  21  34  54  81 108 136 173 217 264 310
#     4  10  18  31  53  80 106 135 172 215 262 308
#     4  10  21  38  55  74 104 142 181 216 257 311
#     4   9  19  36  57  79 105 138 175 217 263 309
#     4  10  22  37  54  76 106 143 177 213 261 314
#     4  10  20  34  55  82 108 135 173 219 263 310
#     4  10  19  34  55  79 106 137 174 216 262 310
#
# _framework density 19.197168000000001
#
# number of rings (size 3 to 8) (size 9 to 14) (size 15 to 20)
#    0.000    2.000    0.000    6.000    0.000    6.857 
#    0.000    0.714    0.000    0.000    0.000    0.000 
#    0.000    0.000    0.000    0.000    0.000    0.000 
#
# Total GULP energy -347229.320439 kJ/mol
# GULP energy per Si atom -12401.047159 kJ/mol
# Density = 1.915347 g / cm^3
# Si number density = 19.197168 Si / 1000 Ang^3
#
#
#
# Elastic Constant Matrix: (Units=GPa)
#
#
# Indices 1 2 3 4 5 6 
#
# 1 103.2841 32.7560 60.8503 0.0000 -14.1806 0.0000
# 2 32.7560 73.6536 42.1985 0.0000 -7.9855 0.0000
# 3 60.8503 42.1985 121.8410 0.0000 -20.8550 0.0000
# 4 0.0000 0.0000 0.0000 33.0745 0.0000 -9.1247
# 5 -14.1806 -7.9855 -20.8550 0.0000 12.5724 0.0000
# 6 0.0000 0.0000 0.0000 -9.1247 0.0000 22.1626
#
#
#
# Elastic Compliance Matrix: (Units=1/GPa)
#
#
# Indices 1 2 3 4 5 6 
#
# 1 0.014465 -0.002787 -0.005264 0.000000 0.005814 0.000000
# 2 -0.002787 0.017494 -0.004613 0.000000 0.000316 0.000000
# 3 -0.005264 -0.004613 0.015245 0.000000 0.016420 0.000000
# 4 0.000000 0.000000 0.000000 0.034109 0.000000 0.014043
# 5 0.005814 0.000316 0.016420 0.000000 0.113535 0.000000
# 6 0.000000 0.000000 0.000000 0.014043 0.000000 0.050903
#
#
# Mechanical properties :
#
#
# Convention : Reuss Voigt Hill
#
# Bulk Modulus (GPa) = 45.71194 63.37648 54.54421
# Shear Modulus (GPa) = 17.96167 24.42682 21.19424
#
# Velocity S-wave (km/s) = 3.06214 3.57097 3.32630
# Velocity P-wave (km/s) = 6.03041 7.07725 6.57470
#
# Compressibility (1/GPa) = 0.02187612
#
# Stress axis : x y z
#
# Youngs Moduli (GPa) = 69.13029 57.16375 65.59701
#
# Poissons Ratio (x) = 0.15931 0.34530
# Poissons Ratio (y) = 0.19266 0.30258
# Poissons Ratio (z) = 0.36390 0.26368
#
# Static dielectric constant tensor:
#      x y z
#    x 3.336130 0.000000 -0.067110 
#    y 0.000000 3.466760 0.000000 
#    z -0.067110 0.000000 4.155020 
# 
# 
# High freq. dielectric constant tensor:
#      x y z
#    x 1.719640 0.000000 -0.008140 
#    y 0.000000 1.749620 0.000000 
#    z -0.008140 0.000000 1.765900 
# 
# From -- ./inp_files/70920.got.cif
#   From: 2010.06.25/outbox.cif.g09.slc.cpg/sg11_36_cif.got.tgz:70920.got - 2010.06.27 23:14:04.
