data_PCOD8069393
_publ_section_title
;
Structure prediction by ZEFSAII (Michael W. Deem and Ramdas Pophale) SiO2 
 PCOD8069393
Probable space group: P 21/M
;
_chemical_formula_sum "Si O2"
_cell_formula_units_Z 28
_cell_length_a 9.190329
_cell_length_b 13.504634
_cell_length_c 13.969277
_cell_angle_alpha 90.000000
_cell_angle_beta 123.229965
_cell_angle_gamma 90.000000
_cell_volume 1450.247887
_symmetry_space_group_name_H-M "P 21/M"
_symmetry_group_IT_number 11
_symmetry_cell_setting 'monoclinic'
loop_
_space_group_symop_operation_xyz
x,y,z
-x,1/2+y,-z
-x,-y,-z
x,1/2-y,z
loop_
_atom_site_type_symbol
_atom_site_label
_atom_site_fract_x
_atom_site_fract_y
_atom_site_fract_z
Si Si1 0.244024 0.958298 0.862528
Si Si2 0.452771 0.543042 0.275449
Si Si3 0.770688 0.360453 0.536741
Si Si4 0.659929 0.137516 0.293801
Si Si5 0.398643 0.364185 0.489849
Si Si6 0.860145 0.508828 0.714288
Si Si7 0.486707 0.364962 0.899815
O O1 0.238045 0.893923 0.763799
O O2 0.323244 0.067578 0.872895
O O3 0.346541 0.898177 0.979578
O O4 0.045376 0.965249 0.827115
O O5 0.494729 0.434055 0.249242
O O6 0.591094 0.574486 0.407404
O O7 0.257232 0.542736 0.246256
O O8 0.466519 0.621919 0.194820
O O9 0.816159 0.250000 0.586370
O O10 0.793963 0.372134 0.431024
O O11 0.570582 0.386954 0.490069
O O12 0.897573 0.432192 0.640770
O O13 0.589411 0.250000 0.260491
O O14 0.377955 0.250000 0.508415
O O15 0.236285 0.396387 0.366138
O O16 0.442112 0.250000 0.903720
#
# Coordination Sequence:
#
# PCOD8069393 Si02
#       7
#     4   4   4   4   4   4   4
#     4  10  24  38  60  83 111 150 188 237 284 328
#     4  10  19  36  61  84 112 150 188 230 276 333
#     4   9  17  31  53  80 116 153 182 217 272 338
#     4  10  18  34  55  79 112 155 193 219 269 336
#     4  10  18  31  53  86 118 151 181 222 281 338
#     4  11  20  35  56  88 119 139 180 238 285 332
#     4  10  22  44  61  77 108 152 196 233 277 334
#
# _framework density 19.307044999999999
#
# number of rings (size 3 to 8) (size 9 to 14) (size 15 to 20)
#    0.000    2.000    2.857    1.714    0.000    3.429 
#    0.000    0.000    0.000    0.000    0.000    0.000 
#    0.000    0.000    0.000    0.000    0.000    0.000 
#
# Total GULP energy -347201.031580 kJ/mol
# GULP energy per Si atom -12400.036842 kJ/mol
# Density = 1.926310 g / cm^3
# Si number density = 19.307045 Si / 1000 Ang^3
#
#
#
# Elastic Constant Matrix: (Units=GPa)
#
#
# Indices 1 2 3 4 5 6 
#
# 1 50.6551 13.4575 25.2926 0.0000 4.6856 0.0000
# 2 13.4575 113.3688 23.3137 0.0000 0.0181 0.0000
# 3 25.2926 23.3137 47.3293 0.0000 6.3885 0.0000
# 4 0.0000 0.0000 0.0000 22.3034 0.0000 -6.9699
# 5 4.6856 0.0181 6.3885 0.0000 30.2018 0.0000
# 6 0.0000 0.0000 0.0000 -6.9699 0.0000 18.7088
#
#
#
# Elastic Compliance Matrix: (Units=1/GPa)
#
#
# Indices 1 2 3 4 5 6 
#
# 1 0.026975 -0.000301 -0.014105 0.000000 -0.001201 0.000000
# 2 -0.000301 0.009851 -0.004835 0.000000 0.001064 0.000000
# 3 -0.014105 -0.004835 0.031656 0.000000 -0.004505 0.000000
# 4 0.000000 0.000000 0.000000 0.050744 0.000000 0.018905
# 5 -0.001201 0.001064 -0.004505 0.000000 0.034249 0.000000
# 6 0.000000 0.000000 0.000000 0.018905 0.000000 0.060494
#
#
# Mechanical properties :
#
#
# Convention : Reuss Voigt Hill
#
# Bulk Modulus (GPa) = 33.33376 37.27564 35.30470
# Shear Modulus (GPa) = 19.05124 24.19542 21.62333
#
# Velocity S-wave (km/s) = 3.14467 3.54388 3.35023
# Velocity P-wave (km/s) = 5.52158 6.00784 5.76983
#
# Compressibility (1/GPa) = 0.02999962
#
# Stress axis : x y z
#
# Youngs Moduli (GPa) = 37.07114 101.51650 31.58989
#
# Poissons Ratio (x) = 0.03059 0.44557
# Poissons Ratio (y) = 0.01117 0.15273
# Poissons Ratio (z) = 0.52288 0.49081
#
# Static dielectric constant tensor:
#      x y z
#    x 3.279060 0.000000 -0.267500 
#    y 0.000000 3.633060 0.000000 
#    z -0.267500 0.000000 3.455890 
# 
# 
# High freq. dielectric constant tensor:
#      x y z
#    x 1.726330 0.000000 -0.022180 
#    y 0.000000 1.764500 0.000000 
#    z -0.022180 0.000000 1.737300 
# 
# From -- ./inp_files/47677.got.cif
#   From: 2010.06.25/outbox.cif.g09.slc.cpg/sg11_24_cif.got.tgz:47677.got - 2010.06.27 23:14:04.
