data_PCOD8069418
_publ_section_title
;
Structure prediction by ZEFSAII (Michael W. Deem and Ramdas Pophale) SiO2 
 PCOD8069418
Probable space group: P 21/M
;
_chemical_formula_sum "Si O2"
_cell_formula_units_Z 28
_cell_length_a 19.258813
_cell_length_b 8.838362
_cell_length_c 21.902114
_cell_angle_alpha 90.000000
_cell_angle_beta 154.887252
_cell_angle_gamma 90.000000
_cell_volume 1582.208194
_symmetry_space_group_name_H-M "P 21/M"
_symmetry_group_IT_number 11
_symmetry_cell_setting 'monoclinic'
loop_
_space_group_symop_operation_xyz
x,y,z
-x,1/2+y,-z
-x,-y,-z
x,1/2-y,z
loop_
_atom_site_type_symbol
_atom_site_label
_atom_site_fract_x
_atom_site_fract_y
_atom_site_fract_z
Si Si1 0.726514 0.925238 0.647825
Si Si2 0.943075 0.928726 0.517337
Si Si3 0.931431 0.073284 0.140355
Si Si4 0.381083 0.926468 0.319455
Si Si5 0.340430 0.429212 0.159401
Si Si6 0.678690 0.420978 0.375116
Si Si7 0.011923 0.421301 0.690773
O O1 0.718031 0.750000 0.659806
O O2 0.569466 0.970338 0.482319
O O3 0.885647 0.963638 0.735455
O O4 0.731255 0.022554 0.713397
O O5 0.959963 0.750000 0.528206
O O6 0.753231 0.976933 0.379323
O O7 0.057843 0.996198 0.663176
O O8 0.000000 0.000000 0.500000
O O9 0.891950 0.250000 0.106981
O O10 0.908462 0.013398 0.190589
O O11 0.809133 0.985854 0.999471
O O12 0.357528 0.750000 0.289753
O O13 0.318105 0.011435 0.209760
O O14 0.342884 0.250000 0.162974
O O15 0.509801 0.491557 0.265169
O O16 0.652184 0.250000 0.329589
O O17 0.812750 0.420751 0.536991
O O18 0.080850 0.250000 0.745809
#
# Coordination Sequence:
#
# PCOD8069418 Si02
#       7
#     4   4   4   4   4   4   4
#     4   9  20  37  55  76 103 135 174 222 273 321
#     4  10  18  31  55  85 113 139 172 216 259 304
#     4  11  22  35  52  77 107 141 180 221 265 318
#     4  10  20  35  56  79 101 132 177 226 272 320
#     4  11  22  36  53  75 107 144 178 219 268 317
#     4   8  18  34  53  78 105 137 176 216 258 310
#     4   9  18  34  54  79 107 138 175 216 260 310
#
# _framework density 17.696785999999999
#
# number of rings (size 3 to 8) (size 9 to 14) (size 15 to 20)
#    0.857    1.429    0.000    3.429    0.000    3.429 
#    0.000    0.000    0.000    0.857    0.000    0.000 
#    0.000    0.000    0.000    0.000    0.000    0.000 
#
# Total GULP energy -347092.789615 kJ/mol
# GULP energy per Si atom -12396.171058 kJ/mol
# Density = 1.765651 g / cm^3
# Si number density = 17.696786 Si / 1000 Ang^3
#
#
#
# Elastic Constant Matrix: (Units=GPa)
#
#
# Indices 1 2 3 4 5 6 
#
# 1 103.9232 50.0541 33.5216 0.0000 -30.3759 0.0000
# 2 50.0541 83.7829 19.3430 0.0000 -11.5205 0.0000
# 3 33.5216 19.3430 54.7493 0.0000 -23.2058 0.0000
# 4 0.0000 0.0000 0.0000 27.9289 0.0000 -4.8987
# 5 -30.3759 -11.5205 -23.2058 0.0000 21.2401 0.0000
# 6 0.0000 0.0000 0.0000 -4.8987 0.0000 32.4091
#
#
#
# Elastic Compliance Matrix: (Units=1/GPa)
#
#
# Indices 1 2 3 4 5 6 
#
# 1 0.021879 -0.009647 0.001968 0.000000 0.028207 0.000000
# 2 -0.009647 0.017414 -0.003893 0.000000 -0.008603 0.000000
# 3 0.001968 -0.003893 0.034891 0.000000 0.038823 0.000000
# 4 0.000000 0.000000 0.000000 0.036780 0.000000 0.005559
# 5 0.028207 -0.008603 0.038823 0.000000 0.125171 0.000000
# 6 0.000000 0.000000 0.000000 0.005559 0.000000 0.031696
#
#
# Mechanical properties :
#
#
# Convention : Reuss Voigt Hill
#
# Bulk Modulus (GPa) = 19.59185 49.81030 34.70108
# Shear Modulus (GPa) = 16.23445 25.61804 20.92625
#
# Velocity S-wave (km/s) = 3.03209 3.80887 3.44246
# Velocity P-wave (km/s) = 4.83249 6.89572 5.95416
#
# Compressibility (1/GPa) = 0.05104162
#
# Stress axis : x y z
#
# Youngs Moduli (GPa) = 45.70679 57.42348 28.66082
#
# Poissons Ratio (x) = 0.55394 -0.05641
# Poissons Ratio (y) = 0.44092 0.11157
# Poissons Ratio (z) = -0.08996 0.22354
#
# Static dielectric constant tensor:
#      x y z
#    x 3.182050 0.000000 -0.002280 
#    y 0.000000 3.312920 0.000000 
#    z -0.002280 0.000000 3.117190 
# 
# 
# High freq. dielectric constant tensor:
#      x y z
#    x 1.676470 0.000000 -0.008180 
#    y 0.000000 1.696260 0.000000 
#    z -0.008180 0.000000 1.660940 
# 
# From -- ./inp_files/66020.got.cif
#   From: 2010.06.25/outbox.cif.g09.slc.cpg/sg11_34_cif.got.tgz:66020.got - 2010.06.27 23:14:04.
