data_PCOD8069158
_publ_section_title
;
Structure prediction by ZEFSAII (Michael W. Deem and Ramdas Pophale) SiO2 
 PCOD8069158
Probable space group: P 21/M
;
_chemical_formula_sum "Si O2"
_cell_formula_units_Z 24
_cell_length_a 8.662609
_cell_length_b 16.415042
_cell_length_c 15.938519
_cell_angle_alpha 90.000000
_cell_angle_beta 144.612262
_cell_angle_gamma 90.000000
_cell_volume 1312.493839
_symmetry_space_group_name_H-M "P 21/M"
_symmetry_group_IT_number 11
_symmetry_cell_setting 'monoclinic'
loop_
_space_group_symop_operation_xyz
x,y,z
-x,1/2+y,-z
-x,-y,-z
x,1/2-y,z
loop_
_atom_site_type_symbol
_atom_site_label
_atom_site_fract_x
_atom_site_fract_y
_atom_site_fract_z
Si Si1 0.321195 0.158032 0.333152
Si Si2 0.441163 0.576806 0.415998
Si Si3 0.678263 0.158032 0.333154
Si Si4 0.070390 0.990547 0.834919
Si Si5 0.565633 0.009454 0.165081
Si Si6 0.806829 0.576806 0.415997
O O1 0.213329 0.250000 0.276066
O O2 0.496576 0.153942 0.496849
O O3 0.508909 0.132861 0.339273
O O4 0.071217 0.097264 0.223384
O O5 0.500000 0.500000 0.500000
O O6 0.629675 0.580048 0.419783
O O7 0.135091 0.566903 0.251041
O O8 0.614873 0.250000 0.276068
O O9 0.598940 0.097265 0.223386
O O10 0.993972 0.153942 0.496851
O O11 0.224941 0.996438 0.816628
O O12 0.264994 0.000001 1.000000
O O13 0.618029 0.933098 0.251040
O O14 0.000000 0.500000 0.500000
#
# Coordination Sequence:
#
# PCOD8069158 Si02
#       6
#     4   4   4   4   4   4
#     4  10  20  34  53  76 102 132 168 212 257 300
#     4  10  18  30  51  74  98 129 165 204 244 293
#     4  10  20  34  53  76 102 132 168 212 257 300
#     4  10  20  34  53  76 103 136 171 207 251 303
#     4  10  20  34  53  76 103 136 171 207 251 303
#     4  10  18  30  51  74  98 129 165 204 244 293
#
# _framework density 18.285800999999999
#
# number of rings (size 3 to 8) (size 9 to 14) (size 15 to 20)
#    0.000    2.000    0.000    9.000    0.000    5.333 
#    0.000    1.667    0.000    2.000    0.000    0.000 
#    0.000    0.000    0.000    0.000    0.000    0.000 
#
# Total GULP energy -297473.227651 kJ/mol
# GULP energy per Si atom -12394.717819 kJ/mol
# Density = 1.824418 g / cm^3
# Si number density = 18.285801 Si / 1000 Ang^3
#
#
#
# Elastic Constant Matrix: (Units=GPa)
#
#
# Indices 1 2 3 4 5 6 
#
# 1 99.6072 12.7436 40.9182 0.0000 -0.5063 0.0000
# 2 12.7436 59.2989 30.8591 0.0000 -2.0612 0.0000
# 3 40.9182 30.8591 136.3441 0.0000 -3.6734 0.0000
# 4 0.0000 0.0000 0.0000 20.7105 0.0000 0.6354
# 5 -0.5063 -2.0612 -3.6734 0.0000 31.9308 0.0000
# 6 0.0000 0.0000 0.0000 0.6354 0.0000 26.2935
#
#
#
# Elastic Compliance Matrix: (Units=1/GPa)
#
#
# Indices 1 2 3 4 5 6 
#
# 1 0.011484 -0.000770 -0.003279 0.000000 -0.000245 0.000000
# 2 -0.000770 0.019184 -0.004091 0.000000 0.000756 0.000000
# 3 -0.003279 -0.004091 0.009264 0.000000 0.000750 0.000000
# 4 0.000000 0.000000 0.000000 0.048321 0.000000 -0.001168
# 5 -0.000245 0.000756 0.000750 0.000000 0.031449 0.000000
# 6 0.000000 0.000000 0.000000 -0.001168 0.000000 0.038060
#
#
# Mechanical properties :
#
#
# Convention : Reuss Voigt Hill
#
# Bulk Modulus (GPa) = 42.27705 51.58797 46.93251
# Shear Modulus (GPa) = 27.48384 29.83558 28.65971
#
# Velocity S-wave (km/s) = 3.88108 4.04372 3.96323
# Velocity P-wave (km/s) = 6.57678 7.07641 6.83116
#
# Compressibility (1/GPa) = 0.02365349
#
# Stress axis : x y z
#
# Youngs Moduli (GPa) = 87.08096 52.12628 107.94075
#
# Poissons Ratio (x) = 0.04015 0.35390
# Poissons Ratio (y) = 0.06707 0.44153
# Poissons Ratio (z) = 0.28550 0.21322
#
# Static dielectric constant tensor:
#      x y z
#    x 3.519360 0.000000 -0.043860 
#    y 0.000000 3.440180 0.000000 
#    z -0.043860 0.000000 3.904920 
# 
# 
# High freq. dielectric constant tensor:
#      x y z
#    x 1.730910 0.000000 0.003010 
#    y 0.000000 1.684130 0.000000 
#    z 0.003010 0.000000 1.704430 
# 
# From -- ./inp_files/58284.got.cif
#   From: 2010.06.25/outbox.cif.g09.slc.cpg/sg11_30_cif.got.tgz:58284.got - 2010.06.27 23:14:04.
