data_PCOD8069372
_publ_section_title
;
Structure prediction by ZEFSAII (Michael W. Deem and Ramdas Pophale) SiO2 
 PCOD8069372
Probable space group: P 21/M
;
_chemical_formula_sum "Si O2"
_cell_formula_units_Z 32
_cell_length_a 12.305052
_cell_length_b 8.943375
_cell_length_c 19.992219
_cell_angle_alpha 90.000000
_cell_angle_beta 54.675355
_cell_angle_gamma 90.000000
_cell_volume 1795.051654
_symmetry_space_group_name_H-M "P 21/M"
_symmetry_group_IT_number 11
_symmetry_cell_setting 'monoclinic'
loop_
_space_group_symop_operation_xyz
x,y,z
-x,1/2+y,-z
-x,-y,-z
x,1/2-y,z
loop_
_atom_site_type_symbol
_atom_site_label
_atom_site_fract_x
_atom_site_fract_y
_atom_site_fract_z
Si Si1 0.362498 0.923920 0.030092
Si Si2 0.847285 0.574210 0.286041
Si Si3 0.678515 0.426001 0.737819
Si Si4 0.363766 0.074302 0.525233
Si Si5 0.587249 0.079237 0.133918
Si Si6 0.608380 0.427633 0.618140
Si Si7 0.141506 0.572379 0.209810
Si Si8 0.666043 0.075021 0.250419
O O1 0.379335 0.750000 0.039978
O O2 0.329523 0.952628 0.963315
O O3 0.240259 0.989838 0.116976
O O4 0.500000 0.000000 0.000000
O O5 0.849169 0.750000 0.269905
O O6 0.752452 0.535617 0.381758
O O7 0.799367 0.487254 0.237011
O O8 0.993437 0.509927 0.251348
O O9 0.669114 0.250000 0.742794
O O10 0.545450 0.481964 0.820732
O O11 0.686700 0.479077 0.657584
O O12 0.805156 0.481522 0.736137
O O13 0.386331 0.250000 0.509874
O O14 0.500000 0.000000 0.500000
O O15 0.318423 0.004796 0.470377
O O16 0.539276 0.250000 0.154042
O O17 0.677035 0.042459 0.166987
O O18 0.606369 0.250000 0.609485
O O19 0.457121 0.485063 0.674357
O O20 0.136706 0.750000 0.208764
O O21 0.647703 0.250000 0.272313
#
# Coordination Sequence:
#
# PCOD8069372 Si02
#       8
#     4   4   4   4   4   4   4   4
#     4  10  18  31  53  78 104 133 170 211 251 298
#     4  10  21  36  53  73 100 136 176 211 250 306
#     4   9  17  31  52  76 101 133 170 206 248 302
#     4  11  21  33  52  76 102 132 172 220 259 299
#     4   9  18  30  48  77 106 131 163 210 259 298
#     4  10  19  31  51  78 104 129 166 212 256 304
#     4   9  18  34  54  75 102 138 173 207 252 304
#     4  10  19  32  50  73 104 136 167 207 258 304
#
# _framework density 17.826784
#
# number of rings (size 3 to 8) (size 9 to 14) (size 15 to 20)
#    0.000    2.250    2.500    1.125    0.000    1.500 
#    0.000    2.500    0.000    0.000    0.000    0.000 
#    0.000    0.000    0.000    0.000    0.000    0.000 
#
# Total GULP energy -396719.839368 kJ/mol
# GULP energy per Si atom -12397.494980 kJ/mol
# Density = 1.778621 g / cm^3
# Si number density = 17.826784 Si / 1000 Ang^3
#
#
#
# Elastic Constant Matrix: (Units=GPa)
#
#
# Indices 1 2 3 4 5 6 
#
# 1 154.2043 33.3356 75.2320 0.0000 6.0248 0.0000
# 2 33.3356 39.5216 32.5979 0.0000 3.4744 0.0000
# 3 75.2320 32.5979 111.9950 0.0000 7.2518 0.0000
# 4 0.0000 0.0000 0.0000 20.9207 0.0000 3.8087
# 5 6.0248 3.4744 7.2518 0.0000 30.3425 0.0000
# 6 0.0000 0.0000 0.0000 3.8087 0.0000 20.7130
#
#
#
# Elastic Compliance Matrix: (Units=1/GPa)
#
#
# Indices 1 2 3 4 5 6 
#
# 1 0.010071 -0.003826 -0.005638 0.000000 -0.000214 0.000000
# 2 -0.003826 0.034819 -0.007471 0.000000 -0.001442 0.000000
# 3 -0.005638 -0.007471 0.014995 0.000000 -0.001609 0.000000
# 4 0.000000 0.000000 0.000000 0.049455 0.000000 -0.009094
# 5 -0.000214 -0.001442 -0.001609 0.000000 0.033549 0.000000
# 6 0.000000 0.000000 0.000000 -0.009094 0.000000 0.049951
#
#
# Mechanical properties :
#
#
# Convention : Reuss Voigt Hill
#
# Bulk Modulus (GPa) = 38.43922 65.33910 51.88916
# Shear Modulus (GPa) = 21.24225 25.36561 23.30393
#
# Velocity S-wave (km/s) = 3.45569 3.77622 3.61950
# Velocity P-wave (km/s) = 6.12632 7.46625 6.82923
#
# Compressibility (1/GPa) = 0.02601509
#
# Stress axis : x y z
#
# Youngs Moduli (GPa) = 99.29798 28.72027 66.68997
#
# Poissons Ratio (x) = 0.10987 0.37597
# Poissons Ratio (y) = 0.37988 0.49826
# Poissons Ratio (z) = 0.55980 0.21458
#
# Static dielectric constant tensor:
#      x y z
#    x 3.631550 0.000000 0.348330 
#    y 0.000000 3.215870 0.000000 
#    z 0.348330 0.000000 3.480180 
# 
# 
# High freq. dielectric constant tensor:
#      x y z
#    x 1.687480 0.000000 0.028330 
#    y 0.000000 1.680250 0.000000 
#    z 0.028330 0.000000 1.680070 
# 
# From -- ./inp_files/42558.got.cif
#   From: 2010.06.25/outbox.cif.g09.slc.cpg/sg11_22_cif.got.tgz:42558.got - 2010.06.27 23:14:04.
