data_PCOD8069624
_publ_section_title
;
Structure prediction by ZEFSAII (Michael W. Deem and Ramdas Pophale) SiO2 
 PCOD8069624
Probable space group: P 21/M
;
_chemical_formula_sum "Si O2"
_cell_formula_units_Z 28
_cell_length_a 9.457007
_cell_length_b 18.675409
_cell_length_c 12.159607
_cell_angle_alpha 90.000000
_cell_angle_beta 132.784674
_cell_angle_gamma 90.000000
_cell_volume 1576.112133
_symmetry_space_group_name_H-M "P 21/M"
_symmetry_group_IT_number 11
_symmetry_cell_setting 'monoclinic'
loop_
_space_group_symop_operation_xyz
x,y,z
-x,1/2+y,-z
-x,-y,-z
x,1/2-y,z
loop_
_atom_site_type_symbol
_atom_site_label
_atom_site_fract_x
_atom_site_fract_y
_atom_site_fract_z
Si Si1 0.615201 0.165455 0.173891
Si Si2 0.233185 0.328274 0.241738
Si Si3 0.874011 0.413226 0.134347
Si Si4 0.897101 0.446786 0.725184
Si Si5 0.196085 0.129298 0.993671
Si Si6 0.300435 0.985316 0.155334
Si Si7 0.399765 0.914094 0.618202
O O1 0.644761 0.250000 0.175491
O O2 0.745618 0.122890 0.158574
O O3 0.394211 0.142462 0.032952
O O4 0.672159 0.141929 0.327686
O O5 0.276325 0.250000 0.315599
O O6 0.180250 0.314370 0.084603
O O7 0.421460 0.378639 0.354468
O O8 0.053943 0.361869 0.209606
O O9 0.953655 0.489010 0.220477
O O10 0.738253 0.422437 0.953794
O O11 0.759122 0.462346 0.754473
O O12 0.774531 0.432713 0.552416
O O13 0.019563 0.373543 0.814384
O O14 0.175981 0.053122 0.048428
O O15 0.522975 0.012618 0.281824
#
# Coordination Sequence:
#
# PCOD8069624 Si02
#       7
#     4   4   4   4   4   4   4
#     4  10  22  39  52  74 107 145 185 215 256 321
#     4  10  18  33  53  76 101 143 185 210 256 316
#     4  11  19  33  58  80 107 135 177 229 271 300
#     4  11  18  33  57  87 110 128 177 224 272 316
#     4   9  17  33  56  76 102 138 172 223 257 300
#     4   9  17  32  54  85 109 125 168 227 266 306
#     4  10  21  33  57  79 110 147 165 217 269 321
#
# _framework density 17.765234
#
# number of rings (size 3 to 8) (size 9 to 14) (size 15 to 20)
#    0.000    2.286    4.286    3.429    0.000    5.714 
#    0.000    2.857    0.000    0.000    0.000    0.000 
#    0.000    0.000    0.000    0.000    0.000    0.000 
#
# Total GULP energy -346931.877938 kJ/mol
# GULP energy per Si atom -12390.424212 kJ/mol
# Density = 1.772480 g / cm^3
# Si number density = 17.765234 Si / 1000 Ang^3
#
#
#
# Elastic Constant Matrix: (Units=GPa)
#
#
# Indices 1 2 3 4 5 6 
#
# 1 76.0485 21.2865 16.8941 0.0000 -2.4132 0.0000
# 2 21.2865 68.9689 30.8836 0.0000 0.1421 0.0000
# 3 16.8941 30.8836 119.2349 0.0000 4.1031 0.0000
# 4 0.0000 0.0000 0.0000 10.5006 0.0000 -0.1281
# 5 -2.4132 0.1421 4.1031 0.0000 15.6043 0.0000
# 6 0.0000 0.0000 0.0000 -0.1281 0.0000 12.6928
#
#
#
# Elastic Compliance Matrix: (Units=1/GPa)
#
#
# Indices 1 2 3 4 5 6 
#
# 1 0.014603 -0.004011 -0.001119 0.000000 0.002589 0.000000
# 2 -0.004011 0.017518 -0.003978 0.000000 0.000266 0.000000
# 3 -0.001119 -0.003978 0.009668 0.000000 -0.002679 0.000000
# 4 0.000000 0.000000 0.000000 0.095245 0.000000 0.000961
# 5 0.002589 0.000266 -0.002679 0.000000 0.065187 0.000000
# 6 0.000000 0.000000 0.000000 0.000961 0.000000 0.078795
#
#
# Mechanical properties :
#
#
# Convention : Reuss Voigt Hill
#
# Bulk Modulus (GPa) = 42.42356 44.70897 43.56627
# Shear Modulus (GPa) = 16.28183 20.77207 18.52695
#
# Velocity S-wave (km/s) = 3.03066 3.42315 3.23286
# Velocity P-wave (km/s) = 6.01485 6.39102 6.20579
#
# Compressibility (1/GPa) = 0.02357181
#
# Stress axis : x y z
#
# Youngs Moduli (GPa) = 68.47880 57.08348 103.43394
#
# Poissons Ratio (x) = 0.22898 0.11576
# Poissons Ratio (y) = 0.27468 0.41149
# Poissons Ratio (z) = 0.07664 0.22709
#
# Static dielectric constant tensor:
#      x y z
#    x 3.144960 0.000000 0.073960 
#    y 0.000000 3.335390 0.000000 
#    z 0.073960 0.000000 3.307030 
# 
# 
# High freq. dielectric constant tensor:
#      x y z
#    x 1.677460 0.000000 0.005430 
#    y 0.000000 1.678110 0.000000 
#    z 0.005430 0.000000 1.668740 
# 
# From -- ./inp_files/32705.got.cif
#   From: 2010.06.25/outbox.cif.g09.slc.cpg/sg11_17_cif.got.tgz:32705.got - 2010.06.27 23:14:04.
