data_PCOD8069558
_publ_section_title
;
Structure prediction by ZEFSAII (Michael W. Deem and Ramdas Pophale) SiO2 
 PCOD8069558
Probable space group: P 21/M
;
_chemical_formula_sum "Si O2"
_cell_formula_units_Z 32
_cell_length_a 11.211900
_cell_length_b 15.584741
_cell_length_c 14.922426
_cell_angle_alpha 90.000000
_cell_angle_beta 37.553375
_cell_angle_gamma 90.000000
_cell_volume 1589.249603
_symmetry_space_group_name_H-M "P 21/M"
_symmetry_group_IT_number 11
_symmetry_cell_setting 'monoclinic'
loop_
_space_group_symop_operation_xyz
x,y,z
-x,1/2+y,-z
-x,-y,-z
x,1/2-y,z
loop_
_atom_site_type_symbol
_atom_site_label
_atom_site_fract_x
_atom_site_fract_y
_atom_site_fract_z
Si Si1 0.880260 0.012288 0.209082
Si Si2 0.049874 0.344100 0.726014
Si Si3 0.853092 0.351417 0.370469
Si Si4 0.067129 0.106873 0.520894
Si Si5 0.363360 0.847827 0.957817
Si Si6 0.231137 0.154361 0.237952
Si Si7 0.291542 0.997061 0.879566
Si Si8 0.710872 0.067447 0.625098
O O1 0.797717 0.091486 0.317250
O O2 0.740241 0.003481 0.207399
O O3 0.852736 0.921975 0.277537
O O4 0.102684 0.033620 0.045435
O O5 0.109288 0.250000 0.731369
O O6 0.104599 0.341547 0.589343
O O7 0.816482 0.355991 0.868032
O O8 0.848467 0.250000 0.349416
O O9 0.710594 0.367341 0.540322
O O10 0.067606 0.389095 0.272601
O O11 0.833133 0.101300 0.638544
O O12 0.167920 0.155677 0.379227
O O13 0.170678 0.016248 0.476558
O O14 0.407077 0.750000 0.903052
O O15 0.553435 0.888186 0.895849
O O16 0.323439 0.898913 0.890093
O O17 0.244661 0.250000 0.193310
O O18 0.485145 0.052387 0.787361
#
# Coordination Sequence:
#
# PCOD8069558 Si02
#       8
#     4   4   4   4   4   4   4   4
#     4  10  22  39  58  81 108 149 193 229 273 320
#     4  10  20  35  55  81 113 143 179 231 278 327
#     4  10  21  38  57  80 115 149 181 228 277 327
#     4  10  18  32  55  84 109 139 177 217 279 334
#     4   9  18  32  53  81 110 142 183 230 280 327
#     4   9  17  31  53  81 111 144 181 221 274 335
#     4  10  21  38  58  79 110 148 189 234 271 319
#     4  10  20  35  56  82 111 143 179 224 273 329
#
# _framework density 20.135289
#
# number of rings (size 3 to 8) (size 9 to 14) (size 15 to 20)
#    0.000    2.250    2.500    0.375    0.000    2.500 
#    0.000    5.625    0.000    0.000    0.000    0.000 
#    0.000    0.000    0.000    0.000    0.000    0.000 
#
# Total GULP energy -396500.190806 kJ/mol
# GULP energy per Si atom -12390.630963 kJ/mol
# Density = 2.008946 g / cm^3
# Si number density = 20.135289 Si / 1000 Ang^3
#
#
#
# Elastic Constant Matrix: (Units=GPa)
#
#
# Indices 1 2 3 4 5 6 
#
# 1 33.9816 5.4114 0.0172 0.0000 8.7224 0.0000
# 2 5.4114 79.4699 6.0598 0.0000 9.8220 0.0000
# 3 0.0172 6.0598 26.8050 0.0000 6.0296 0.0000
# 4 0.0000 0.0000 0.0000 25.3399 0.0000 1.0530
# 5 8.7224 9.8220 6.0296 0.0000 34.2763 0.0000
# 6 0.0000 0.0000 0.0000 1.0530 0.0000 15.4117
#
#
#
# Elastic Compliance Matrix: (Units=1/GPa)
#
#
# Indices 1 2 3 4 5 6 
#
# 1 0.031705 -0.001323 0.002091 0.000000 -0.008057 0.000000
# 2 -0.001323 0.013226 -0.002303 0.000000 -0.003048 0.000000
# 3 0.002091 -0.002303 0.039354 0.000000 -0.006795 0.000000
# 4 0.000000 0.000000 0.000000 0.039576 0.000000 -0.002704
# 5 -0.008057 -0.003048 -0.006795 0.000000 0.033294 0.000000
# 6 0.000000 0.000000 0.000000 -0.002704 0.000000 0.065070
#
#
# Mechanical properties :
#
#
# Convention : Reuss Voigt Hill
#
# Bulk Modulus (GPa) = 12.31293 18.13703 15.22498
# Shear Modulus (GPa) = 19.81240 23.59012 21.70126
#
# Velocity S-wave (km/s) = 3.14022 3.42655 3.28651
# Velocity P-wave (km/s) = 4.39049 4.96811 4.68820
#
# Compressibility (1/GPa) = 0.08121542
#
# Stress axis : x y z
#
# Youngs Moduli (GPa) = 31.54046 75.60964 25.41017
#
# Poissons Ratio (x) = 0.10000 -0.05313
# Poissons Ratio (y) = 0.04171 0.05853
# Poissons Ratio (z) = -0.06595 0.17416
#
# Static dielectric constant tensor:
#      x y z
#    x 3.611610 0.000000 -0.163040 
#    y 0.000000 3.578460 0.000000 
#    z -0.163040 0.000000 3.542740 
# 
# 
# High freq. dielectric constant tensor:
#      x y z
#    x 1.772640 0.000000 -0.003270 
#    y 0.000000 1.776870 0.000000 
#    z -0.003270 0.000000 1.775740 
# 
# From -- ./inp_files/50360.got.cif
#   From: 2010.06.25/outbox.cif.g09.slc.cpg/sg11_26_cif.got.tgz:50360.got - 2010.06.27 23:14:04.
