data_PCOD8069521
_publ_section_title
;
Structure prediction by ZEFSAII (Michael W. Deem and Ramdas Pophale) SiO2 
 PCOD8069521
Probable space group: P 21/M
;
_chemical_formula_sum "Si O2"
_cell_formula_units_Z 32
_cell_length_a 20.205725
_cell_length_b 18.057093
_cell_length_c 14.140139
_cell_angle_alpha 90.000000
_cell_angle_beta 20.405783
_cell_angle_gamma 90.000000
_cell_volume 1798.814408
_symmetry_space_group_name_H-M "P 21/M"
_symmetry_group_IT_number 11
_symmetry_cell_setting 'monoclinic'
loop_
_space_group_symop_operation_xyz
x,y,z
-x,1/2+y,-z
-x,-y,-z
x,1/2-y,z
loop_
_atom_site_type_symbol
_atom_site_label
_atom_site_fract_x
_atom_site_fract_y
_atom_site_fract_z
Si Si1 0.508624 0.938967 0.302216
Si Si2 0.568890 0.666010 0.382670
Si Si3 0.782018 0.472601 0.685957
Si Si4 0.168861 0.666427 0.016081
Si Si5 0.165065 0.946179 0.180163
Si Si6 0.393023 0.539896 0.261375
Si Si7 0.910253 0.940820 0.254034
Si Si8 0.785219 0.951231 0.215798
O O1 0.577119 0.866232 0.265378
O O2 0.402427 0.913052 0.346857
O O3 0.372885 0.986525 0.552051
O O4 0.688094 0.988322 0.034793
O O5 0.645615 0.750000 0.278388
O O6 0.701458 0.618431 0.273293
O O7 0.353084 0.663040 0.704737
O O8 0.827738 0.423610 0.717827
O O9 0.729077 0.424017 0.662386
O O10 0.958717 0.525449 0.425789
O O11 0.604470 0.526234 0.941935
O O12 0.110487 0.750000 0.118514
O O13 0.215017 0.625886 0.052985
O O14 0.994872 0.630022 0.193188
O O15 0.287553 0.462715 0.430770
O O16 0.875057 0.919585 0.191866
O O17 0.055751 0.010504 0.063266
#
# Coordination Sequence:
#
# PCOD8069521 Si02
#       8
#     4   4   4   4   4   4   4   4
#     4  10  18  32  54  78 104 133 172 216 253 308
#     4  11  22  34  50  76 113 145 171 207 258 321
#     4   9  18  31  53  82  99 120 172 230 262 299
#     4  11  21  33  50  76 112 143 170 209 266 326
#     4  10  18  32  55  80 101 134 175 224 263 298
#     4   9  18  31  52  81 100 125 164 225 266 294
#     4  10  19  32  53  79 104 136 173 216 262 310
#     4  10  19  32  53  78 105 135 176 214 250 312
#
# _framework density 17.789494000000001
#
# number of rings (size 3 to 8) (size 9 to 14) (size 15 to 20)
#    0.000    2.000    3.750    1.125    0.000    0.500 
#    0.000    0.000    0.000    7.500    0.000    0.000 
#    0.000    0.000    0.000    0.000    0.000    0.000 
#
# Total GULP energy -396618.228923 kJ/mol
# GULP energy per Si atom -12394.319654 kJ/mol
# Density = 1.774900 g / cm^3
# Si number density = 17.789494 Si / 1000 Ang^3
#
#
#
# Elastic Constant Matrix: (Units=GPa)
#
#
# Indices 1 2 3 4 5 6 
#
# 1 128.0663 46.4050 12.6975 0.0000 -3.2943 0.0000
# 2 46.4050 78.9930 16.5133 0.0000 1.5423 0.0000
# 3 12.6975 16.5133 72.3812 0.0000 -3.5600 0.0000
# 4 0.0000 0.0000 0.0000 15.9883 0.0000 -4.8316
# 5 -3.2943 1.5423 -3.5600 0.0000 26.5054 0.0000
# 6 0.0000 0.0000 0.0000 -4.8316 0.0000 10.5998
#
#
#
# Elastic Compliance Matrix: (Units=1/GPa)
#
#
# Indices 1 2 3 4 5 6 
#
# 1 0.009994 -0.005828 -0.000348 0.000000 0.001535 0.000000
# 2 -0.005828 0.016730 -0.002897 0.000000 -0.002087 0.000000
# 3 -0.000348 -0.002897 0.014641 0.000000 0.002092 0.000000
# 4 0.000000 0.000000 0.000000 0.072538 0.000000 0.033064
# 5 0.001535 -0.002087 0.002092 0.000000 0.038321 0.000000
# 6 0.000000 0.000000 0.000000 0.033064 0.000000 0.109412
#
#
# Mechanical properties :
#
#
# Convention : Reuss Voigt Hill
#
# Bulk Modulus (GPa) = 43.07062 47.85247 45.46154
# Shear Modulus (GPa) = 17.38996 24.20702 20.79849
#
# Velocity S-wave (km/s) = 3.12996 3.69283 3.42299
# Velocity P-wave (km/s) = 6.10950 6.71866 6.42131
#
# Compressibility (1/GPa) = 0.02321769
#
# Stress axis : x y z
#
# Youngs Moduli (GPa) = 100.05602 59.77403 68.30323
#
# Poissons Ratio (x) = 0.34839 0.02377
# Poissons Ratio (y) = 0.58317 0.19787
# Poissons Ratio (z) = 0.03483 0.17316
#
# Static dielectric constant tensor:
#      x y z
#    x 3.860170 0.000000 0.013690 
#    y 0.000000 2.876580 0.000000 
#    z 0.013690 0.000000 3.427780 
# 
# 
# High freq. dielectric constant tensor:
#      x y z
#    x 1.718190 0.000000 -0.002820 
#    y 0.000000 1.621130 0.000000 
#    z -0.002820 0.000000 1.699650 
# 
# From -- ./inp_files/55099.got.cif
#   From: 2010.06.25/outbox.cif.g09.slc.cpg/sg11_28_cif.got.tgz:55099.got - 2010.06.27 23:14:04.
