data_PCOD8069330
_publ_section_title
;
Structure prediction by ZEFSAII (Michael W. Deem and Ramdas Pophale) SiO2 
 PCOD8069330
Probable space group: P 21/M
;
_chemical_formula_sum "Si O2"
_cell_formula_units_Z 32
_cell_length_a 28.176757
_cell_length_b 8.772624
_cell_length_c 21.963336
_cell_angle_alpha 90.000000
_cell_angle_beta 18.405080
_cell_angle_gamma 90.000000
_cell_volume 1714.111355
_symmetry_space_group_name_H-M "P 21/M"
_symmetry_group_IT_number 11
_symmetry_cell_setting 'monoclinic'
loop_
_space_group_symop_operation_xyz
x,y,z
-x,1/2+y,-z
-x,-y,-z
x,1/2-y,z
loop_
_atom_site_type_symbol
_atom_site_label
_atom_site_fract_x
_atom_site_fract_y
_atom_site_fract_z
Si Si1 0.547796 0.070195 0.746981
Si Si2 0.396873 0.431783 0.677927
Si Si3 0.138471 0.928472 0.573415
Si Si4 0.567302 0.070966 0.588214
Si Si5 0.091104 0.569741 0.834175
Si Si6 0.404550 0.578793 0.030284
Si Si7 0.726641 0.921585 0.701417
Si Si8 0.928259 0.430324 0.920630
O O1 0.526315 0.250000 0.776571
O O2 0.714474 0.026309 0.566751
O O3 0.526751 0.003686 0.704266
O O4 0.420302 0.995964 0.944601
O O5 0.500000 0.500000 0.500000
O O6 0.402018 0.250000 0.667426
O O7 0.456959 0.491824 0.670280
O O8 0.229381 0.490796 0.873553
O O9 0.104611 0.750000 0.617935
O O10 0.159983 0.977772 0.477109
O O11 0.994655 0.018698 0.774678
O O12 0.550255 0.250000 0.614538
O O13 0.736153 0.029350 0.363538
O O14 0.063339 0.750000 0.862246
O O15 0.045447 0.488130 0.827823
O O16 0.000000 0.500000 0.000000
O O17 0.346231 0.750000 0.093300
O O18 0.282061 0.488837 0.219774
O O19 0.563368 0.573425 0.870413
O O20 0.788363 0.750000 0.629743
O O21 0.908223 0.250000 0.947990
#
# Coordination Sequence:
#
# PCOD8069330 Si02
#       8
#     4   4   4   4   4   4   4   4
#     4   9  16  30  50  73 102 137 174 220 274 325
#     4  11  23  41  62  82 108 142 182 230 282 336
#     4  10  18  31  52  76 105 140 179 227 277 321
#     4   9  19  36  57  79 105 138 178 224 277 331
#     4  11  21  37  58  84 110 138 176 224 279 335
#     4   9  16  25  39  66 102 140 178 215 258 313
#     4   9  16  26  41  66 102 142 179 216 262 317
#     4  12  24  38  55  80 112 148 186 225 270 328
#
# _framework density 18.668565999999998
#
# number of rings (size 3 to 8) (size 9 to 14) (size 15 to 20)
#    0.000    2.000    1.250    3.750    0.000    4.500 
#    0.000    3.125    0.000    0.000    0.000    0.875 
#    0.000    0.000    0.000    0.000    0.000    0.000 
#
# Total GULP energy -396802.795535 kJ/mol
# GULP energy per Si atom -12400.087360 kJ/mol
# Density = 1.862608 g / cm^3
# Si number density = 18.668566 Si / 1000 Ang^3
#
#
#
# Elastic Constant Matrix: (Units=GPa)
#
#
# Indices 1 2 3 4 5 6 
#
# 1 76.1129 31.9807 32.4137 0.0000 27.4260 0.0000
# 2 31.9807 87.1506 32.7667 0.0000 13.2977 0.0000
# 3 32.4137 32.7667 70.3360 0.0000 25.4107 0.0000
# 4 0.0000 0.0000 0.0000 29.4699 0.0000 11.8490
# 5 27.4260 13.2977 25.4107 0.0000 36.6163 0.0000
# 6 0.0000 0.0000 0.0000 11.8490 0.0000 25.4192
#
#
#
# Elastic Compliance Matrix: (Units=1/GPa)
#
#
# Indices 1 2 3 4 5 6 
#
# 1 0.020581 -0.004598 -0.003172 0.000000 -0.011544 0.000000
# 2 -0.004598 0.014953 -0.005511 0.000000 0.001838 0.000000
# 3 -0.003172 -0.005511 0.022241 0.000000 -0.011058 0.000000
# 4 0.000000 0.000000 0.000000 0.041760 0.000000 -0.019466
# 5 -0.011544 0.001838 -0.011058 0.000000 0.042963 0.000000
# 6 0.000000 0.000000 0.000000 -0.019466 0.000000 0.048414
#
#
# Mechanical properties :
#
#
# Convention : Reuss Voigt Hill
#
# Bulk Modulus (GPa) = 32.03756 47.54684 39.79220
# Shear Modulus (GPa) = 21.94134 27.39698 24.66916
#
# Velocity S-wave (km/s) = 3.43200 3.83501 3.63909
# Velocity P-wave (km/s) = 5.73614 6.71818 6.24649
#
# Compressibility (1/GPa) = 0.03121336
#
# Stress axis : x y z
#
# Youngs Moduli (GPa) = 48.58850 66.87441 44.96105
#
# Poissons Ratio (x) = 0.30752 0.14260
# Poissons Ratio (y) = 0.22343 0.24779
# Poissons Ratio (z) = 0.15411 0.36856
#
# Static dielectric constant tensor:
#      x y z
#    x 3.628410 0.000000 0.313330 
#    y 0.000000 3.445510 0.000000 
#    z 0.313330 0.000000 3.397370 
# 
# 
# High freq. dielectric constant tensor:
#      x y z
#    x 1.709210 0.000000 0.037550 
#    y 0.000000 1.724780 0.000000 
#    z 0.037550 0.000000 1.711510 
# 
# From -- ./inp_files/67081.got.cif
#   From: 2010.06.25/outbox.cif.g09.slc.cpg/sg11_34_cif.got.tgz:67081.got - 2010.06.27 23:14:04.
