data_PCOD8069472
_publ_section_title
;
Structure prediction by ZEFSAII (Michael W. Deem and Ramdas Pophale) SiO2 
 PCOD8069472
Probable space group: P 21/M
;
_chemical_formula_sum "Si O2"
_cell_formula_units_Z 32
_cell_length_a 27.612764
_cell_length_b 8.642874
_cell_length_c 21.481373
_cell_angle_alpha 90.000000
_cell_angle_beta 161.256634
_cell_angle_gamma 90.000000
_cell_volume 1647.331995
_symmetry_space_group_name_H-M "P 21/M"
_symmetry_group_IT_number 11
_symmetry_cell_setting 'monoclinic'
loop_
_space_group_symop_operation_xyz
x,y,z
-x,1/2+y,-z
-x,-y,-z
x,1/2-y,z
loop_
_atom_site_type_symbol
_atom_site_label
_atom_site_fract_x
_atom_site_fract_y
_atom_site_fract_z
Si Si1 0.100128 0.433608 0.437555
Si Si2 0.530706 0.066152 0.715367
Si Si3 0.928241 0.570671 0.007785
Si Si4 0.155712 0.932464 0.964437
Si Si5 0.221382 0.931000 0.292512
Si Si6 0.059548 0.932803 0.635196
Si Si7 0.563224 0.934344 0.141534
Si Si8 0.608304 0.066623 0.946646
O O1 0.096729 0.250000 0.428246
O O2 0.269757 0.495611 0.638467
O O3 0.985769 0.502984 0.246634
O O4 0.048308 0.491216 0.441802
O O5 0.510873 0.250000 0.683863
O O6 0.530702 0.015164 0.787810
O O7 0.389589 0.978516 0.514495
O O8 0.683851 0.007946 0.867456
O O9 0.909245 0.750000 0.000243
O O10 0.868258 0.475340 0.993315
O O11 0.102752 0.530123 0.203717
O O12 0.822863 0.528183 0.821756
O O13 0.155685 0.750000 0.956663
O O14 0.213893 0.750000 0.267204
O O15 0.064448 0.750000 0.636763
O O16 0.223790 0.999978 0.849595
O O17 0.000000 0.000000 0.500000
O O18 0.558768 0.750000 0.130928
O O19 0.469681 0.999664 0.086233
O O20 0.500000 0.000000 0.000000
O O21 0.607823 0.250000 0.949371
#
# Coordination Sequence:
#
# PCOD8069472 Si02
#       8
#     4   4   4   4   4   4   4   4
#     4   9  18  33  53  77 105 140 183 226 271 329
#     4  10  20  36  59  86 114 148 190 234 279 332
#     4  10  22  40  61  87 117 149 186 228 274 329
#     4  10  20  36  59  86 114 148 190 234 279 332
#     4  10  22  40  61  87 117 149 186 228 274 329
#     4  10  18  32  52  74 103 138 179 224 269 322
#     4  10  20  34  52  76 105 140 183 230 279 330
#     4   9  18  33  53  77 105 140 183 226 271 329
#
# _framework density 19.425349000000001
#
# number of rings (size 3 to 8) (size 9 to 14) (size 15 to 20)
#    0.000    2.250    1.250    1.500    1.750    2.500 
#    0.000    2.500    0.000    0.000    0.000    0.000 
#    0.000    0.000    0.000    0.000    0.000    0.000 
#
# Total GULP energy -396694.047934 kJ/mol
# GULP energy per Si atom -12396.688998 kJ/mol
# Density = 1.938114 g / cm^3
# Si number density = 19.425349 Si / 1000 Ang^3
#
#
#
# Elastic Constant Matrix: (Units=GPa)
#
#
# Indices 1 2 3 4 5 6 
#
# 1 111.1424 6.9718 31.1596 0.0000 5.1287 0.0000
# 2 6.9718 14.7210 16.1639 0.0000 5.6743 0.0000
# 3 31.1596 16.1639 121.0989 0.0000 3.6582 0.0000
# 4 0.0000 0.0000 0.0000 24.5923 0.0000 -5.2658
# 5 5.1287 5.6743 3.6582 0.0000 29.8343 0.0000
# 6 0.0000 0.0000 0.0000 -5.2658 0.0000 26.8872
#
#
#
# Elastic Compliance Matrix: (Units=1/GPa)
#
#
# Indices 1 2 3 4 5 6 
#
# 1 0.009788 -0.001748 -0.002253 0.000000 -0.001074 0.000000
# 2 -0.001748 0.086085 -0.010594 0.000000 -0.014773 0.000000
# 3 -0.002253 -0.010594 0.010217 0.000000 0.001149 0.000000
# 4 0.000000 0.000000 0.000000 0.042443 0.000000 0.008312
# 5 -0.001074 -0.014773 0.001149 0.000000 0.036372 0.000000
# 6 0.000000 0.000000 0.000000 0.008312 0.000000 0.038820
#
#
# Mechanical properties :
#
#
# Convention : Reuss Voigt Hill
#
# Bulk Modulus (GPa) = 13.00397 39.50588 26.25492
# Shear Modulus (GPa) = 17.95019 29.10724 23.52871
#
# Velocity S-wave (km/s) = 3.04313 3.87514 3.48406
# Velocity P-wave (km/s) = 4.36536 6.35639 5.45253
#
# Compressibility (1/GPa) = 0.07689959
#
# Stress axis : x y z
#
# Youngs Moduli (GPa) = 102.16310 11.61644 97.87852
#
# Poissons Ratio (x) = 0.02031 0.22050
# Poissons Ratio (y) = 0.17859 1.03695
# Poissons Ratio (z) = 0.23016 0.12307
#
# Static dielectric constant tensor:
#      x y z
#    x 3.813100 0.000000 0.361330 
#    y 0.000000 3.955220 0.000000 
#    z 0.361330 0.000000 4.207380 
# 
# 
# High freq. dielectric constant tensor:
#      x y z
#    x 1.768710 0.000000 0.002520 
#    y 0.000000 1.720640 0.000000 
#    z 0.002520 0.000000 1.770210 
# 
# From -- ./inp_files/67308.got.cif
#   From: 2010.06.25/outbox.cif.g09.slc.cpg/sg11_34_cif.got.tgz:67308.got - 2010.06.27 23:14:04.
