data_PCOD8069780
_publ_section_title
;
Structure prediction by ZEFSAII (Michael W. Deem and Ramdas Pophale) SiO2 
 PCOD8069780
Probable space group: P 21/M
;
_chemical_formula_sum "Si O2"
_cell_formula_units_Z 24
_cell_length_a 13.133923
_cell_length_b 17.708301
_cell_length_c 10.832594
_cell_angle_alpha 90.000000
_cell_angle_beta 34.262420
_cell_angle_gamma 90.000000
_cell_volume 1418.404017
_symmetry_space_group_name_H-M "P 21/M"
_symmetry_group_IT_number 11
_symmetry_cell_setting 'monoclinic'
loop_
_space_group_symop_operation_xyz
x,y,z
-x,1/2+y,-z
-x,-y,-z
x,1/2-y,z
loop_
_atom_site_type_symbol
_atom_site_label
_atom_site_fract_x
_atom_site_fract_y
_atom_site_fract_z
Si Si1 0.113167 0.604932 0.221016
Si Si2 0.453480 0.485087 0.406061
Si Si3 0.242871 0.450495 0.064637
Si Si4 0.516706 0.334911 0.212122
Si Si5 0.041057 0.496863 0.815636
Si Si6 0.227311 0.337435 0.294722
O O1 0.198159 0.526415 0.189807
O O2 0.021800 0.584323 0.179163
O O3 0.968290 0.638812 0.459279
O O4 0.274998 0.664463 0.041253
O O5 0.500000 0.500000 0.500000
O O6 0.485748 0.395628 0.351395
O O7 0.250609 0.509945 0.579384
O O8 0.575420 0.536229 0.195336
O O9 0.270357 0.379698 0.124606
O O10 0.075299 0.437499 0.136744
O O11 0.472033 0.250000 0.304164
O O12 0.384449 0.357693 0.233056
O O13 0.000000 0.500000 0.000000
O O14 0.225285 0.250000 0.264411
#
# Coordination Sequence:
#
# PCOD8069780 Si02
#       6
#     4   4   4   4   4   4
#     4   9  19  33  55  79 106 140 180 220 262 316
#     4  11  19  36  59  79 104 141 182 228 267 314
#     4   9  21  32  54  81 104 139 181 223 262 314
#     4  10  20  34  53  81 109 141 179 220 268 318
#     4  10  18  34  57  82 104 131 183 226 266 311
#     4  11  21  35  52  78 115 147 177 217 267 322
#
# _framework density 16.920425999999999
#
# number of rings (size 3 to 8) (size 9 to 14) (size 15 to 20)
#    1.000    1.000    3.333    1.000    0.000    4.000 
#    0.000    0.833    0.000    5.000    0.000    0.000 
#    0.000    0.000    0.000    0.000    0.000    0.000 
#
# Total GULP energy -297427.440705 kJ/mol
# GULP energy per Si atom -12392.810029 kJ/mol
# Density = 1.688191 g / cm^3
# Si number density = 16.920426 Si / 1000 Ang^3
#
#
#
# Elastic Constant Matrix: (Units=GPa)
#
#
# Indices 1 2 3 4 5 6 
#
# 1 97.7950 52.1719 63.2470 0.0000 -7.2901 0.0000
# 2 52.1719 92.0742 53.8629 0.0000 15.1273 0.0000
# 3 63.2470 53.8629 128.5568 0.0000 -14.0972 0.0000
# 4 0.0000 0.0000 0.0000 17.3771 0.0000 1.4026
# 5 -7.2901 15.1273 -14.0972 0.0000 39.0523 0.0000
# 6 0.0000 0.0000 0.0000 1.4026 0.0000 24.7652
#
#
#
# Elastic Compliance Matrix: (Units=1/GPa)
#
#
# Indices 1 2 3 4 5 6 
#
# 1 0.018156 -0.008139 -0.005003 0.000000 0.004736 0.000000
# 2 -0.008139 0.020977 -0.006083 0.000000 -0.011841 0.000000
# 3 -0.005003 -0.006083 0.013478 0.000000 0.006288 0.000000
# 4 0.000000 0.000000 0.000000 0.057811 0.000000 -0.003274
# 5 0.004736 -0.011841 0.006288 0.000000 0.033347 0.000000
# 6 0.000000 0.000000 0.000000 -0.003274 0.000000 0.040565
#
#
# Mechanical properties :
#
#
# Convention : Reuss Voigt Hill
#
# Bulk Modulus (GPa) = 70.61762 72.99886 71.80824
# Shear Modulus (GPa) = 21.97762 26.18187 24.07974
#
# Velocity S-wave (km/s) = 3.60791 3.93791 3.77651
# Velocity P-wave (km/s) = 7.69297 7.99451 7.84519
#
# Compressibility (1/GPa) = 0.01416077
#
# Stress axis : x y z
#
# Youngs Moduli (GPa) = 55.07753 47.67221 74.19479
#
# Poissons Ratio (x) = 0.38802 0.37119
# Poissons Ratio (y) = 0.44829 0.45132
# Poissons Ratio (z) = 0.27555 0.28998
#
# Static dielectric constant tensor:
#      x y z
#    x 3.245650 0.000000 -0.280200 
#    y 0.000000 3.007820 0.000000 
#    z -0.280200 0.000000 3.207110 
# 
# 
# High freq. dielectric constant tensor:
#      x y z
#    x 1.654900 0.000000 -0.021350 
#    y 0.000000 1.627220 0.000000 
#    z -0.021350 0.000000 1.658510 
# 
# From -- ./inp_files/19079.got.cif
#   From: 2010.06.25/outbox.cif.g09.slc.cpg/sg11_10_cif.got.tgz:19079.got - 2010.06.27 23:14:04.
