data_PCOD8069452
_publ_section_title
;
Structure prediction by ZEFSAII (Michael W. Deem and Ramdas Pophale) SiO2 
 PCOD8069452
Probable space group: P 21/M
;
_chemical_formula_sum "Si O2"
_cell_formula_units_Z 28
_cell_length_a 10.446339
_cell_length_b 13.061983
_cell_length_c 9.524339
_cell_angle_alpha 90.000000
_cell_angle_beta 72.294578
_cell_angle_gamma 90.000000
_cell_volume 1238.036823
_symmetry_space_group_name_H-M "P 21/M"
_symmetry_group_IT_number 11
_symmetry_cell_setting 'monoclinic'
loop_
_space_group_symop_operation_xyz
x,y,z
-x,1/2+y,-z
-x,-y,-z
x,1/2-y,z
loop_
_atom_site_type_symbol
_atom_site_label
_atom_site_fract_x
_atom_site_fract_y
_atom_site_fract_z
Si Si1 0.558053 0.636205 0.403365
Si Si2 0.179014 0.441283 0.550524
Si Si3 0.999938 0.367382 0.833201
Si Si4 0.167728 0.867138 0.733296
Si Si5 0.879234 0.931724 0.942152
Si Si6 0.707511 0.866337 0.757278
Si Si7 0.562423 0.069452 0.275354
O O1 0.537262 0.750000 0.348377
O O2 0.702616 0.627089 0.426190
O O3 0.451954 0.614649 0.562533
O O4 0.541128 0.553620 0.284297
O O5 0.185695 0.560471 0.590686
O O6 0.194746 0.433874 0.376555
O O7 0.043004 0.389643 0.657562
O O8 0.953389 0.250000 0.868872
O O9 0.881232 0.445027 0.919135
O O10 0.129227 0.398055 0.890608
O O11 0.184488 0.750000 0.680473
O O12 0.283501 0.898319 0.811364
O O13 0.020432 0.882297 0.846142
O O14 0.751250 0.887569 0.902706
O O15 0.735354 0.750000 0.708364
O O16 0.548104 0.887969 0.796142
#
# Coordination Sequence:
#
# PCOD8069452 Si02
#       7
#     4   4   4   4   4   4   4
#     4   9  15  28  46  71 102 136 170 213 254 303
#     4   9  19  31  53  80 104 135 180 214 256 314
#     4  10  19  37  57  76 102 142 179 212 249 307
#     4  10  18  32  50  76 107 140 173 215 258 308
#     4  10  23  36  55  81 106 135 178 213 256 313
#     4  11  20  35  53  79 110 135 165 221 269 302
#     4   9  18  28  48  75 101 133 175 207 254 315
#
# _framework density 22.616453
#
# number of rings (size 3 to 8) (size 9 to 14) (size 15 to 20)
#    0.000    2.286    0.000    5.571    0.000    2.286 
#    0.000    2.857    0.000   13.714    0.000   12.000 
#    0.000    0.000    0.000    0.000    0.000    0.000 
#
# Total GULP energy -346958.681225 kJ/mol
# GULP energy per Si atom -12391.381472 kJ/mol
# Density = 2.256498 g / cm^3
# Si number density = 22.616453 Si / 1000 Ang^3
#
#
#
# Elastic Constant Matrix: (Units=GPa)
#
#
# Indices 1 2 3 4 5 6 
#
# 1 89.6996 21.9465 4.5789 0.0000 11.9930 0.0000
# 2 21.9465 184.1974 -1.9356 0.0000 -1.8061 0.0000
# 3 4.5789 -1.9356 22.1974 0.0000 5.4270 0.0000
# 4 0.0000 0.0000 0.0000 15.4445 0.0000 1.2609
# 5 11.9930 -1.8061 5.4270 0.0000 26.2561 0.0000
# 6 0.0000 0.0000 0.0000 1.2609 0.0000 21.9928
#
#
#
# Elastic Compliance Matrix: (Units=1/GPa)
#
#
# Indices 1 2 3 4 5 6 
#
# 1 0.012322 -0.001536 -0.001342 0.000000 -0.005457 0.000000
# 2 -0.001536 0.005627 0.000570 0.000000 0.000971 0.000000
# 3 -0.001342 0.000570 0.047624 0.000000 -0.009192 0.000000
# 4 0.000000 0.000000 0.000000 0.065053 0.000000 -0.003730
# 5 -0.005457 0.000971 -0.009192 0.000000 0.042545 0.000000
# 6 0.000000 0.000000 0.000000 -0.003730 0.000000 0.045683
#
#
# Mechanical properties :
#
#
# Convention : Reuss Voigt Hill
#
# Bulk Modulus (GPa) = 16.40443 38.36377 27.38410
# Shear Modulus (GPa) = 20.50955 30.83900 25.67427
#
# Velocity S-wave (km/s) = 3.01465 3.69665 3.37293
# Velocity P-wave (km/s) = 4.40302 5.93464 5.22525
#
# Compressibility (1/GPa) = 0.06095913
#
# Stress axis : x y z
#
# Youngs Moduli (GPa) = 81.15480 177.70049 20.99784
#
# Poissons Ratio (x) = 0.27290 0.02817
# Poissons Ratio (y) = 0.12463 -0.01197
# Poissons Ratio (z) = 0.10888 -0.10132
#
# Static dielectric constant tensor:
#      x y z
#    x 3.886120 0.000000 -0.156430 
#    y 0.000000 4.194470 0.000000 
#    z -0.156430 0.000000 4.031740 
# 
# 
# High freq. dielectric constant tensor:
#      x y z
#    x 1.866420 0.000000 -0.018280 
#    y 0.000000 1.903310 0.000000 
#    z -0.018280 0.000000 1.856170 
# 
# From -- ./inp_files/17691.got.cif
#   From: 2010.06.25/outbox.cif.g09.slc.cpg/sg11_9_cif.got.tgz:17691.got - 2010.06.27 23:14:04.
