data_PCOD8069250
_publ_section_title
;
Structure prediction by ZEFSAII (Michael W. Deem and Ramdas Pophale) SiO2 
 PCOD8069250
Probable space group: P 21/M
;
_chemical_formula_sum "Si O2"
_cell_formula_units_Z 28
_cell_length_a 31.521202
_cell_length_b 9.008332
_cell_length_c 10.390272
_cell_angle_alpha 90.000000
_cell_angle_beta 147.523062
_cell_angle_gamma 90.000000
_cell_volume 1584.222148
_symmetry_space_group_name_H-M "P 21/M"
_symmetry_group_IT_number 11
_symmetry_cell_setting 'monoclinic'
loop_
_space_group_symop_operation_xyz
x,y,z
-x,1/2+y,-z
-x,-y,-z
x,1/2-y,z
loop_
_atom_site_type_symbol
_atom_site_label
_atom_site_fract_x
_atom_site_fract_y
_atom_site_fract_z
Si Si1 0.592801 0.573189 0.479045
Si Si2 0.000203 0.076134 0.138143
Si Si3 0.849138 0.925658 0.785668
Si Si4 0.425195 0.426140 0.047089
Si Si5 0.684575 0.574369 0.464596
Si Si6 0.171536 0.076699 0.557674
Si Si7 0.664818 0.926193 0.928212
O O1 0.584812 0.750000 0.460115
O O2 0.508100 0.503970 0.237346
O O3 0.650182 0.517750 0.511736
O O4 0.628701 0.509856 0.703917
O O5 0.984516 0.250000 0.082830
O O6 0.088749 0.046708 0.421931
O O7 0.930228 0.003146 0.044572
O O8 0.000000 0.000000 0.000000
O O9 0.862042 0.750000 0.823702
O O10 0.775605 0.978532 0.685062
O O11 0.832280 0.984373 0.597887
O O12 0.436294 0.250000 0.069317
O O13 0.389907 0.477087 0.093599
O O14 0.367357 0.485795 0.787194
O O15 0.682747 0.750000 0.452383
O O16 0.187990 0.250000 0.586261
O O17 0.246393 0.007542 0.825092
O O18 0.667829 0.750000 0.926848
#
# Coordination Sequence:
#
# PCOD8069250 Si02
#       7
#     4   4   4   4   4   4   4
#     4  10  20  31  45  68  93 113 147 195 231 257
#     4   9  16  25  42  68  94 116 144 183 223 261
#     4   9  15  27  46  64  86 116 151 183 216 261
#     4  10  18  31  50  65  85 120 156 182 221 276
#     4   9  17  30  48  67  88 120 154 184 220 269
#     4   8  13  24  43  64  84 112 148 177 207 258
#     4   9  16  28  47  67  87 117 153 185 216 265
#
# _framework density 17.674289999999999
#
# number of rings (size 3 to 8) (size 9 to 14) (size 15 to 20)
#    0.000    2.857    1.429    2.143    0.000    0.000 
#    0.000    1.429    0.000    5.143    0.000    0.000 
#    0.000    0.000    0.000    0.000    0.000    0.571 
#
# Total GULP energy -346971.864646 kJ/mol
# GULP energy per Si atom -12391.852309 kJ/mol
# Density = 1.763406 g / cm^3
# Si number density = 17.674290 Si / 1000 Ang^3
#
#
#
# Elastic Constant Matrix: (Units=GPa)
#
#
# Indices 1 2 3 4 5 6 
#
# 1 145.7687 26.5832 70.7159 0.0000 22.7578 0.0000
# 2 26.5832 30.0233 20.8683 0.0000 10.8289 0.0000
# 3 70.7159 20.8683 62.1635 0.0000 27.2231 0.0000
# 4 0.0000 0.0000 0.0000 19.0173 0.0000 10.8846
# 5 22.7578 10.8289 27.2231 0.0000 41.2474 0.0000
# 6 0.0000 0.0000 0.0000 10.8846 0.0000 17.1133
#
#
#
# Elastic Compliance Matrix: (Units=1/GPa)
#
#
# Indices 1 2 3 4 5 6 
#
# 1 0.015988 -0.002314 -0.019430 0.000000 0.004610 0.000000
# 2 -0.002314 0.043964 -0.010733 0.000000 -0.003182 0.000000
# 3 -0.019430 -0.010733 0.050444 0.000000 -0.019755 0.000000
# 4 0.000000 0.000000 0.000000 0.082683 0.000000 -0.052589
# 5 0.004610 -0.003182 -0.019755 0.000000 0.035574 0.000000
# 6 0.000000 0.000000 0.000000 -0.052589 0.000000 0.091882
#
#
# Mechanical properties :
#
#
# Convention : Reuss Voigt Hill
#
# Bulk Modulus (GPa) = 22.00592 52.69890 37.35241
# Shear Modulus (GPa) = 12.48010 23.46149 17.97080
#
# Velocity S-wave (km/s) = 2.66017 3.64735 3.19215
# Velocity P-wave (km/s) = 4.68115 6.90065 5.89628
#
# Compressibility (1/GPa) = 0.04544231
#
# Stress axis : x y z
#
# Youngs Moduli (GPa) = 62.54506 22.74585 19.82391
#
# Poissons Ratio (x) = 0.05263 0.38518
# Poissons Ratio (y) = 0.14472 0.21277
# Poissons Ratio (z) = 1.21526 0.24414
#
# Static dielectric constant tensor:
#      x y z
#    x 3.581160 0.000000 0.283150 
#    y 0.000000 2.983490 0.000000 
#    z 0.283150 0.000000 3.634580 
# 
# 
# High freq. dielectric constant tensor:
#      x y z
#    x 1.676550 0.000000 0.030210 
#    y 0.000000 1.637870 0.000000 
#    z 0.030210 0.000000 1.682250 
# 
# From -- ./inp_files/26358.got.cif
#   From: 2010.06.25/outbox.cif.g09.slc.cpg/sg11_14_cif.got.tgz:26358.got - 2010.06.27 23:14:04.
