data_PCOD8069565
_publ_section_title
;
Structure prediction by ZEFSAII (Michael W. Deem and Ramdas Pophale) SiO2 
 PCOD8069565
Probable space group: P 21/M
;
_chemical_formula_sum "Si O2"
_cell_formula_units_Z 28
_cell_length_a 9.267555
_cell_length_b 15.699773
_cell_length_c 11.235045
_cell_angle_alpha 90.000000
_cell_angle_beta 121.479475
_cell_angle_gamma 90.000000
_cell_volume 1394.101670
_symmetry_space_group_name_H-M "P 21/M"
_symmetry_group_IT_number 11
_symmetry_cell_setting 'monoclinic'
loop_
_space_group_symop_operation_xyz
x,y,z
-x,1/2+y,-z
-x,-y,-z
x,1/2-y,z
loop_
_atom_site_type_symbol
_atom_site_label
_atom_site_fract_x
_atom_site_fract_y
_atom_site_fract_z
Si Si1 0.825820 0.580321 0.717938
Si Si2 0.338578 0.544473 0.798829
Si Si3 0.181814 0.849128 0.934789
Si Si4 0.013706 0.456588 0.631757
Si Si5 0.635970 0.034940 0.814417
Si Si6 0.258905 0.844534 0.538970
Si Si7 0.523721 0.653905 0.444698
O O1 0.888794 0.500595 0.670812
O O2 0.729401 0.543736 0.791531
O O3 0.702631 0.637206 0.584595
O O4 0.983526 0.639365 0.822731
O O5 0.303805 0.615518 0.883190
O O6 0.527254 0.504781 0.878490
O O7 0.316343 0.588242 0.661308
O O8 0.206752 0.465224 0.759668
O O9 0.221683 0.750000 0.969638
O O10 0.225770 0.899663 0.074612
O O11 0.937741 0.361359 0.585318
O O12 0.000000 0.500000 0.500000
O O13 0.507341 0.085479 0.672712
O O14 0.270673 0.750000 0.597132
O O15 0.375420 0.856738 0.475312
O O16 0.526289 0.750000 0.393829
#
# Coordination Sequence:
#
# PCOD8069565 Si02
#       7
#     4   4   4   4   4   4   4
#     4  11  21  39  63  87 118 158 207 243 288 362
#     4  10  21  38  61  82 116 160 209 244 290 364
#     4  11  25  43  60  86 122 161 200 251 307 357
#     4   9  18  33  54  85 115 153 193 241 291 351
#     4  12  22  40  63  91 121 159 202 248 303 360
#     4  10  18  32  55  87 121 154 194 249 301 346
#     4  11  21  34  60  95 124 152 194 254 304 342
#
# _framework density 20.084617999999999
#
# number of rings (size 3 to 8) (size 9 to 14) (size 15 to 20)
#    0.000    1.429    2.857    4.286    0.000    0.000 
#    0.000    6.429    0.000    0.000    0.000    0.000 
#    0.000    0.000    0.000    0.000    0.000    0.000 
#
# Total GULP energy -347105.159790 kJ/mol
# GULP energy per Si atom -12396.612850 kJ/mol
# Density = 2.003890 g / cm^3
# Si number density = 20.084618 Si / 1000 Ang^3
#
#
#
# Elastic Constant Matrix: (Units=GPa)
#
#
# Indices 1 2 3 4 5 6 
#
# 1 98.0969 25.9107 13.6258 0.0000 7.8106 0.0000
# 2 25.9107 71.4064 18.2267 0.0000 10.2175 0.0000
# 3 13.6258 18.2267 56.5766 0.0000 10.8801 0.0000
# 4 0.0000 0.0000 0.0000 28.9269 0.0000 1.6048
# 5 7.8106 10.2175 10.8801 0.0000 26.9193 0.0000
# 6 0.0000 0.0000 0.0000 1.6048 0.0000 20.8254
#
#
#
# Elastic Compliance Matrix: (Units=1/GPa)
#
#
# Indices 1 2 3 4 5 6 
#
# 1 0.011444 -0.003613 -0.001320 0.000000 -0.001416 0.000000
# 2 -0.003613 0.016835 -0.003823 0.000000 -0.003796 0.000000
# 3 -0.001320 -0.003823 0.020462 0.000000 -0.006436 0.000000
# 4 0.000000 0.000000 0.000000 0.034718 0.000000 -0.002675
# 5 -0.001416 -0.003796 -0.006436 0.000000 0.041601 0.000000
# 6 0.000000 0.000000 0.000000 -0.002675 0.000000 0.048224
#
#
# Mechanical properties :
#
#
# Convention : Reuss Voigt Hill
#
# Bulk Modulus (GPa) = 32.02191 37.95625 34.98908
# Shear Modulus (GPa) = 24.84997 26.55544 25.70270
#
# Velocity S-wave (km/s) = 3.52129 3.64012 3.58120
# Velocity P-wave (km/s) = 5.70182 6.05033 5.87866
#
# Compressibility (1/GPa) = 0.03122862
#
# Stress axis : x y z
#
# Youngs Moduli (GPa) = 87.37862 59.40179 48.86995
#
# Poissons Ratio (x) = 0.21463 0.06451
# Poissons Ratio (y) = 0.31572 0.18684
# Poissons Ratio (z) = 0.11534 0.22710
#
# Static dielectric constant tensor:
#      x y z
#    x 3.863340 0.000000 0.119330 
#    y 0.000000 3.624040 0.000000 
#    z 0.119330 0.000000 3.615300 
# 
# 
# High freq. dielectric constant tensor:
#      x y z
#    x 1.796250 0.000000 -0.000200 
#    y 0.000000 1.773500 0.000000 
#    z -0.000200 0.000000 1.775480 
# 
# From -- ./inp_files/26929.got.cif
#   From: 2010.06.25/outbox.cif.g09.slc.cpg/sg11_14_cif.got.tgz:26929.got - 2010.06.27 23:14:04.
