data_PCOD8069096
_publ_section_title
;
Structure prediction by ZEFSAII (Michael W. Deem and Ramdas Pophale) SiO2 
 PCOD8069096
Probable space group: P 21/M
;
_chemical_formula_sum "Si O2"
_cell_formula_units_Z 32
_cell_length_a 13.526920
_cell_length_b 13.451265
_cell_length_c 14.690803
_cell_angle_alpha 90.000000
_cell_angle_beta 138.511176
_cell_angle_gamma 90.000000
_cell_volume 1770.828031
_symmetry_space_group_name_H-M "P 21/M"
_symmetry_group_IT_number 11
_symmetry_cell_setting 'monoclinic'
loop_
_space_group_symop_operation_xyz
x,y,z
-x,1/2+y,-z
-x,-y,-z
x,1/2-y,z
loop_
_atom_site_type_symbol
_atom_site_label
_atom_site_fract_x
_atom_site_fract_y
_atom_site_fract_z
Si Si1 0.757253 0.632145 0.458546
Si Si2 0.602723 0.134087 0.108056
Si Si3 0.077137 0.866735 0.739559
Si Si4 0.536804 0.555409 0.165172
Si Si5 0.674703 0.057562 0.817152
Si Si6 0.449847 0.407378 0.524505
Si Si7 0.709227 0.643194 0.752870
Si Si8 0.967250 0.132720 0.089835
O O1 0.730165 0.750000 0.453165
O O2 0.689334 0.594524 0.316362
O O3 0.680226 0.574042 0.490016
O O4 0.933356 0.605748 0.578815
O O5 0.598111 0.250000 0.134948
O O6 0.770061 0.095400 0.200377
O O7 0.548282 0.062837 0.152350
O O8 0.493158 0.118395 0.946694
O O9 0.090093 0.750000 0.760356
O O10 0.055905 0.913023 0.825448
O O11 0.398373 0.578288 0.135738
O O12 0.595022 0.125719 0.683983
O O13 0.643214 0.941163 0.772824
O O14 0.848023 0.084071 0.939177
O O15 0.500000 0.500000 0.500000
O O16 0.388525 0.333102 0.405489
O O17 0.718954 0.750000 0.811049
O O18 0.870471 0.603337 0.833406
O O19 0.943989 0.250000 0.073830
#
# Coordination Sequence:
#
# PCOD8069096 Si02
#       8
#     4   4   4   4   4   4   4   4
#     4  10  18  31  52  76 101 128 164 206 243 286
#     4  10  20  36  53  72 100 128 159 205 252 296
#     4   9  17  30  51  75  96 125 161 201 249 290
#     4  10  21  33  51  77  98 127 166 200 248 297
#     4  10  20  32  48  74 101 127 163 203 239 286
#     4   9  18  30  45  70 101 130 160 194 237 284
#     4  10  19  32  49  70 100 135 166 195 235 287
#     4  10  18  30  49  74  99 126 161 202 246 285
#
# _framework density 18.070641999999999
#
# number of rings (size 3 to 8) (size 9 to 14) (size 15 to 20)
#    0.000    2.250    2.500    1.125    0.000    3.500 
#    0.000    0.000    0.000    0.000    0.000    0.875 
#    0.000    0.000    0.000    0.000    0.000    0.000 
#
# Total GULP energy -396492.774840 kJ/mol
# GULP energy per Si atom -12390.399214 kJ/mol
# Density = 1.802951 g / cm^3
# Si number density = 18.070642 Si / 1000 Ang^3
#
#
#
# Elastic Constant Matrix: (Units=GPa)
#
#
# Indices 1 2 3 4 5 6 
#
# 1 33.3710 13.6741 23.0207 0.0000 0.3609 0.0000
# 2 13.6741 50.2933 18.5825 0.0000 1.2852 0.0000
# 3 23.0207 18.5825 118.7621 0.0000 8.2095 0.0000
# 4 0.0000 0.0000 0.0000 20.0286 0.0000 1.4790
# 5 0.3609 1.2852 8.2095 0.0000 23.5849 0.0000
# 6 0.0000 0.0000 0.0000 1.4790 0.0000 8.8986
#
#
#
# Elastic Compliance Matrix: (Units=1/GPa)
#
#
# Indices 1 2 3 4 5 6 
#
# 1 0.037450 -0.007960 -0.006152 0.000000 0.002002 0.000000
# 2 -0.007960 0.022795 -0.001994 0.000000 -0.000426 0.000000
# 3 -0.006152 -0.001994 0.010155 0.000000 -0.003332 0.000000
# 4 0.000000 0.000000 0.000000 0.050549 0.000000 -0.008402
# 5 0.002002 -0.000426 -0.003332 0.000000 0.043553 0.000000
# 6 0.000000 0.000000 0.000000 -0.008402 0.000000 0.113773
#
#
# Mechanical properties :
#
#
# Convention : Reuss Voigt Hill
#
# Bulk Modulus (GPa) = 26.18673 34.77569 30.48121
# Shear Modulus (GPa) = 15.46943 20.31237 17.89090
#
# Velocity S-wave (km/s) = 2.92901 3.35633 3.14992
# Velocity P-wave (km/s) = 5.09525 5.85713 5.48943
#
# Compressibility (1/GPa) = 0.03818728
#
# Stress axis : x y z
#
# Youngs Moduli (GPa) = 26.70201 43.86851 98.47266
#
# Poissons Ratio (x) = 0.34921 0.60583
# Poissons Ratio (y) = 0.21256 0.19638
# Poissons Ratio (z) = 0.16428 0.08749
#
# Static dielectric constant tensor:
#      x y z
#    x 3.195080 0.000000 0.089290 
#    y 0.000000 3.111390 0.000000 
#    z 0.089290 0.000000 3.692720 
# 
# 
# High freq. dielectric constant tensor:
#      x y z
#    x 1.678100 0.000000 0.008090 
#    y 0.000000 1.675700 0.000000 
#    z 0.008090 0.000000 1.718070 
# 
# From -- ./inp_files/21854.got.cif
#   From: 2010.06.25/outbox.cif.g09.slc.cpg/sg11_11_cif.got.tgz:21854.got - 2010.06.27 23:14:04.
