data_PCOD8069068
_publ_section_title
;
Structure prediction by ZEFSAII (Michael W. Deem and Ramdas Pophale) SiO2 
 PCOD8069068
Probable space group: P 21/M
;
_chemical_formula_sum "Si O2"
_cell_formula_units_Z 32
_cell_length_a 15.528610
_cell_length_b 8.730730
_cell_length_c 33.888950
_cell_angle_alpha 90.000000
_cell_angle_beta 155.240080
_cell_angle_gamma 90.000000
_cell_volume 1924.267824
_symmetry_space_group_name_H-M "P 21/M"
_symmetry_group_IT_number 11
_symmetry_cell_setting 'monoclinic'
loop_
_space_group_symop_operation_xyz
x,y,z
-x,1/2+y,-z
-x,-y,-z
x,1/2-y,z
loop_
_atom_site_type_symbol
_atom_site_label
_atom_site_fract_x
_atom_site_fract_y
_atom_site_fract_z
Si Si1 0.716260 0.073980 0.399720
Si Si2 0.568692 0.070975 0.209060
Si Si3 0.298658 0.431996 0.895881
Si Si4 0.802082 0.429125 0.897681
Si Si5 0.120285 0.426789 0.609133
Si Si6 0.885329 0.070461 0.110248
Si Si7 0.745721 0.574413 0.791552
Si Si8 0.509216 0.068602 0.094504
O O1 0.746698 0.250000 0.398702
O O2 0.486696 0.044569 0.320157
O O3 0.878744 0.034982 0.502078
O O4 0.753844 0.966180 0.378007
O O5 0.532561 0.250000 0.198251
O O6 0.547218 0.017824 0.155116
O O7 0.403404 0.987881 0.167388
O O8 0.795139 0.025454 0.318976
O O9 0.298240 0.250000 0.895687
O O10 0.110139 0.495664 0.843911
O O11 0.302986 0.495889 0.852962
O O12 0.500000 0.500000 0.000000
O O13 0.815246 0.250000 0.908701
O O14 0.801834 0.468006 0.851492
O O15 0.000000 0.500000 0.000000
O O16 0.155992 0.250000 0.633914
O O17 0.839675 0.250000 0.094689
O O18 0.105908 0.034612 0.183055
O O19 0.710651 0.996110 0.010181
O O20 0.774670 0.750000 0.817161
O O21 0.509913 0.250000 0.089325
#
# Coordination Sequence:
#
# PCOD8069068 Si02
#       8
#     4   4   4   4   4   4   4   4
#     4   9  18  33  51  70  97 127 162 205 248 290
#     4  11  22  35  50  70  98 131 164 203 246 290
#     4  10  18  30  49  70  95 125 157 198 243 282
#     4  12  24  35  48  67  96 133 169 201 237 284
#     4  10  19  31  50  74  95 125 164 205 249 291
#     4  10  19  31  49  72  98 128 162 197 238 286
#     4  10  20  34  51  71  97 131 165 201 241 285
#     4  10  20  33  49  69  95 128 164 200 241 285
#
# _framework density 16.629702999999999
#
# number of rings (size 3 to 8) (size 9 to 14) (size 15 to 20)
#    0.000    1.750    1.250    6.000    0.000    5.500 
#    0.000    0.000    0.000    0.000    0.000    0.875 
#    0.000    0.000    0.000    0.000    0.000    0.000 
#
# Total GULP energy -396790.114725 kJ/mol
# GULP energy per Si atom -12399.691085 kJ/mol
# Density = 1.659185 g / cm^3
# Si number density = 16.629703 Si / 1000 Ang^3
#
#
#
# Elastic Constant Matrix: (Units=GPa)
#
#
# Indices 1 2 3 4 5 6 
#
# 1 105.6981 35.0242 38.4066 0.0000 11.3645 0.0000
# 2 35.0242 81.5645 22.6989 0.0000 3.5361 0.0000
# 3 38.4066 22.6989 82.9242 0.0000 14.1928 0.0000
# 4 0.0000 0.0000 0.0000 23.5545 0.0000 -1.9020
# 5 11.3645 3.5361 14.1928 0.0000 14.8832 0.0000
# 6 0.0000 0.0000 0.0000 -1.9020 0.0000 23.6085
#
#
#
# Elastic Compliance Matrix: (Units=1/GPa)
#
#
# Indices 1 2 3 4 5 6 
#
# 1 0.012820 -0.004194 -0.003925 0.000000 -0.005049 0.000000
# 2 -0.004194 0.014645 -0.002413 0.000000 0.002024 0.000000
# 3 -0.003925 -0.002413 0.016643 0.000000 -0.012300 0.000000
# 4 0.000000 0.000000 0.000000 0.042733 0.000000 0.003443
# 5 -0.005049 0.002024 -0.012300 0.000000 0.082294 0.000000
# 6 0.000000 0.000000 0.000000 0.003443 0.000000 0.042635
#
#
# Mechanical properties :
#
#
# Convention : Reuss Voigt Hill
#
# Bulk Modulus (GPa) = 43.39537 51.38290 47.38914
# Shear Modulus (GPa) = 20.78882 24.01304 22.40093
#
# Velocity S-wave (km/s) = 3.53951 3.80410 3.67419
# Velocity P-wave (km/s) = 6.54645 7.08945 6.82335
#
# Compressibility (1/GPa) = 0.02304393
#
# Stress axis : x y z
#
# Youngs Moduli (GPa) = 78.00490 68.28410 60.08546
#
# Poissons Ratio (x) = 0.28635 0.23586
# Poissons Ratio (y) = 0.32712 0.14497
# Poissons Ratio (z) = 0.30620 0.16475
#
# Static dielectric constant tensor:
#      x y z
#    x 3.444380 0.000000 0.014560 
#    y 0.000000 3.258940 0.000000 
#    z 0.014560 0.000000 3.140200 
# 
# 
# High freq. dielectric constant tensor:
#      x y z
#    x 1.630960 0.000000 0.001900 
#    y 0.000000 1.656730 0.000000 
#    z 0.001900 0.000000 1.619020 
# 
# From -- ./inp_files/73311.got.cif
#   From: 2010.06.25/outbox.cif.g09.slc.cpg/sg11_37_cif.got.tgz:73311.got - 2010.06.27 23:14:04.
