data_PCOD8069902
_publ_section_title
;
Structure prediction by ZEFSAII (Michael W. Deem and Ramdas Pophale) SiO2 
 PCOD8069902
Probable space group: P 21/M
;
_chemical_formula_sum "Si O2"
_cell_formula_units_Z 24
_cell_length_a 14.641905
_cell_length_b 14.347038
_cell_length_c 10.876551
_cell_angle_alpha 90.000000
_cell_angle_beta 149.308102
_cell_angle_gamma 90.000000
_cell_volume 1166.218278
_symmetry_space_group_name_H-M "P 21/M"
_symmetry_group_IT_number 11
_symmetry_cell_setting 'monoclinic'
loop_
_space_group_symop_operation_xyz
x,y,z
-x,1/2+y,-z
-x,-y,-z
x,1/2-y,z
loop_
_atom_site_type_symbol
_atom_site_label
_atom_site_fract_x
_atom_site_fract_y
_atom_site_fract_z
Si Si1 0.196564 0.960535 0.240743
Si Si2 0.419337 0.041703 0.698209
Si Si3 0.128478 0.358110 0.508741
Si Si4 0.274311 0.647324 0.556004
Si Si5 0.098526 0.354201 0.757192
Si Si6 0.782294 0.039895 0.008956
O O1 0.195906 0.868442 0.326764
O O2 0.320340 0.038562 0.450610
O O3 0.271210 0.935229 0.192535
O O4 0.000000 0.000000 0.000000
O O5 0.319028 0.113225 0.671569
O O6 0.414862 0.935610 0.750540
O O7 0.623320 0.075382 0.914568
O O8 0.092965 0.250000 0.443417
O O9 0.133426 0.382504 0.657296
O O10 0.970488 0.415260 0.261754
O O11 0.365229 0.750000 0.668704
O O12 0.113733 0.640682 0.467279
O O13 0.170356 0.250000 0.869464
O O14 0.202097 0.427460 0.963155
#
# Coordination Sequence:
#
# PCOD8069902 Si02
#       6
#     4   4   4   4   4   4
#     4  10  18  38  59  86 121 156 187 245 289 348
#     4  10  23  38  62  88 120 155 197 249 292 355
#     4  11  24  42  59  85 122 159 201 248 294 349
#     4   9  19  37  60  86 118 154 192 239 296 348
#     4  10  21  39  63  88 119 156 199 245 295 355
#     4  12  21  39  66  87 120 156 202 240 306 345
#
# _framework density 20.579338
#
# number of rings (size 3 to 8) (size 9 to 14) (size 15 to 20)
#    1.000    0.667    5.000    1.000    0.000    2.667 
#    0.000    0.833    0.000    0.000    0.000    0.000 
#    0.000    0.000    0.000    0.000    0.000    0.000 
#
# Total GULP energy -297462.401001 kJ/mol
# GULP energy per Si atom -12394.266708 kJ/mol
# Density = 2.053250 g / cm^3
# Si number density = 20.579338 Si / 1000 Ang^3
#
#
#
# Elastic Constant Matrix: (Units=GPa)
#
#
# Indices 1 2 3 4 5 6 
#
# 1 133.4528 31.0186 15.8039 0.0000 14.8647 0.0000
# 2 31.0186 78.7400 6.1231 0.0000 -2.3783 0.0000
# 3 15.8039 6.1231 23.2415 0.0000 12.8009 0.0000
# 4 0.0000 0.0000 0.0000 11.9451 0.0000 -2.1513
# 5 14.8647 -2.3783 12.8009 0.0000 32.3173 0.0000
# 6 0.0000 0.0000 0.0000 -2.1513 0.0000 26.4617
#
#
#
# Elastic Compliance Matrix: (Units=1/GPa)
#
#
# Indices 1 2 3 4 5 6 
#
# 1 0.009036 -0.003368 -0.003621 0.000000 -0.002969 0.000000
# 2 -0.003368 0.014445 -0.003779 0.000000 0.004109 0.000000
# 3 -0.003621 -0.003779 0.058478 0.000000 -0.021775 0.000000
# 4 0.000000 0.000000 0.000000 0.084961 0.000000 0.006907
# 5 -0.002969 0.004109 -0.021775 0.000000 0.041237 0.000000
# 6 0.000000 0.000000 0.000000 0.006907 0.000000 0.038352
#
#
# Mechanical properties :
#
#
# Convention : Reuss Voigt Hill
#
# Bulk Modulus (GPa) = 16.55000 37.92508 27.23754
# Shear Modulus (GPa) = 17.35006 26.31072 21.83039
#
# Velocity S-wave (km/s) = 2.90674 3.57949 3.26051
# Velocity P-wave (km/s) = 4.39602 5.96258 5.23820
#
# Compressibility (1/GPa) = 0.06042295
#
# Stress axis : x y z
#
# Youngs Moduli (GPa) = 110.67305 69.23020 17.10049
#
# Poissons Ratio (x) = 0.23314 0.06193
# Poissons Ratio (y) = 0.37270 0.06462
# Poissons Ratio (z) = 0.40079 0.26159
#
# Static dielectric constant tensor:
#      x y z
#    x 4.046670 0.000000 0.001080 
#    y 0.000000 3.689110 0.000000 
#    z 0.001080 0.000000 3.352730 
# 
# 
# High freq. dielectric constant tensor:
#      x y z
#    x 1.821150 0.000000 0.008830 
#    y 0.000000 1.788400 0.000000 
#    z 0.008830 0.000000 1.779250 
# 
# From -- ./inp_files/39716.got.cif
#   From: 2010.06.25/outbox.cif.g09.slc.cpg/sg11_20_cif.got.tgz:39716.got - 2010.06.27 23:14:04.
