data_PCOD8069883
_publ_section_title
;
Structure prediction by ZEFSAII (Michael W. Deem and Ramdas Pophale) SiO2 
 PCOD8069883
Probable space group: P 21/M
;
_chemical_formula_sum "Si O2"
_cell_formula_units_Z 22
_cell_length_a 7.170478
_cell_length_b 19.875660
_cell_length_c 7.669132
_cell_angle_alpha 90.000000
_cell_angle_beta 109.701790
_cell_angle_gamma 90.000000
_cell_volume 1029.005647
_symmetry_space_group_name_H-M "P 21/M"
_symmetry_group_IT_number 11
_symmetry_cell_setting 'monoclinic'
loop_
_space_group_symop_operation_xyz
x,y,z
-x,1/2+y,-z
-x,-y,-z
x,1/2-y,z
loop_
_atom_site_type_symbol
_atom_site_label
_atom_site_fract_x
_atom_site_fract_y
_atom_site_fract_z
Si Si1 0.812289 0.887501 0.935759
Si Si2 0.669527 0.750000 0.749383
Si Si3 0.789113 0.115477 0.759359
Si Si4 0.689537 0.250000 0.584413
Si Si5 0.662023 0.893550 0.253846
Si Si6 0.726358 0.518188 0.583923
Si Si7 0.296572 0.250000 0.625874
O O1 0.723363 0.814120 0.878972
O O2 0.764816 0.933672 0.758456
O O3 0.702162 0.918876 0.070631
O O4 0.049172 0.882800 0.035927
O O5 0.431316 0.750000 0.636630
O O6 0.786064 0.750000 0.600143
O O7 0.816160 0.181824 0.646363
O O8 0.571299 0.107821 0.774780
O O9 0.841502 0.052060 0.650192
O O10 0.535843 0.250000 0.697134
O O11 0.781392 0.943018 0.423010
O O12 0.764970 0.819230 0.298783
O O13 0.500000 0.500000 0.500000
#
# Coordination Sequence:
#
# PCOD8069883 Si02
#       7
#     4   2   4   2   4   4   2
#     4  12  22  36  64  91 111 157 200 238 288 347
#     4  10  18  36  64  82 119 159 187 233 305 343
#     4  10  21  38  60  87 119 147 199 246 284 341
#     4   8  17  38  61  78 114 158 180 237 296 337
#     4  10  21  39  62  82 121 157 193 238 294 346
#     4  10  21  40  59  83 122 161 186 242 298 341
#     4   8  15  36  61  78 113 157 183 230 289 342
#
# _framework density 21.379864000000001
#
# number of rings (size 3 to 8) (size 9 to 14) (size 15 to 20)
#    0.545    1.455    1.818    2.727    0.000    3.636 
#    0.000    5.455    4.000    0.000    0.000    0.000 
#    0.000    0.000    0.000    0.000    0.000    0.000 
#
# Total GULP energy -272586.875502 kJ/mol
# GULP energy per Si atom -12390.312523 kJ/mol
# Density = 2.133120 g / cm^3
# Si number density = 21.379864 Si / 1000 Ang^3
#
#
#
# Elastic Constant Matrix: (Units=GPa)
#
#
# Indices 1 2 3 4 5 6 
#
# 1 58.0422 13.4294 36.6189 0.0000 3.9023 0.0000
# 2 13.4294 168.8336 66.6949 0.0000 12.3809 0.0000
# 3 36.6189 66.6949 156.8079 0.0000 12.9837 0.0000
# 4 0.0000 0.0000 0.0000 43.0128 0.0000 26.7641
# 5 3.9023 12.3809 12.9837 0.0000 30.8295 0.0000
# 6 0.0000 0.0000 0.0000 26.7641 0.0000 8.3460
#
#
#
# Elastic Compliance Matrix: (Units=1/GPa)
#
#
# Indices 1 2 3 4 5 6 
#
# 1 0.020232 0.000342 -0.004815 0.000000 -0.000671 0.000000
# 2 0.000342 0.007206 -0.003006 0.000000 -0.001671 0.000000
# 3 -0.004815 -0.003006 0.008942 0.000000 -0.001949 0.000000
# 4 0.000000 0.000000 0.000000 -0.023356 0.000000 0.074899
# 5 -0.000671 -0.001671 -0.001949 0.000000 0.034013 0.000000
# 6 0.000000 0.000000 0.000000 0.074899 0.000000 -0.120371
#
#
# Mechanical properties :
#
#
# Convention : Reuss Voigt Hill
#
# Bulk Modulus (GPa) = 46.68197 68.57448 57.62822
# Shear Modulus (GPa) = -97.58917 34.23368 -31.67775
#
# Velocity S-wave (km/s) = -6.76346 4.00585 -3.85341
# Velocity P-wave (km/s) = 6.25385 7.31709 2.68599
#
# Compressibility (1/GPa) = 0.02142155
#
# Stress axis : x y z
#
# Youngs Moduli (GPa) = 49.42562 138.77417 111.83614
#
# Poissons Ratio (x) = -0.04743 0.53846
# Poissons Ratio (y) = -0.01689 0.33622
# Poissons Ratio (z) = 0.23797 0.41720
#
# Static dielectric constant tensor:
#      x y z
#    x 3.375600 0.000000 0.198780 
#    y 0.000000 4.389730 0.000000 
#    z 0.198780 0.000000 3.916410 
# 
# 
# High freq. dielectric constant tensor:
#      x y z
#    x 1.806440 0.000000 0.016400 
#    y 0.000000 1.859420 0.000000 
#    z 0.016400 0.000000 1.838160 
# 
# From -- ./inp_files/13296.got.cif
#   From: 2010.06.25/outbox.cif.g09.slc.cpg/sg11_7_cif.got.tgz:13296.got - 2010.06.27 23:14:04.
