data_PCOD8069654
_publ_section_title
;
Structure prediction by ZEFSAII (Michael W. Deem and Ramdas Pophale) SiO2 
 PCOD8069654
Probable space group: P 21/M
;
_chemical_formula_sum "Si O2"
_cell_formula_units_Z 32
_cell_length_a 17.344008
_cell_length_b 14.671015
_cell_length_c 12.314030
_cell_angle_alpha 90.000000
_cell_angle_beta 31.240452
_cell_angle_gamma 90.000000
_cell_volume 1625.055230
_symmetry_space_group_name_H-M "P 21/M"
_symmetry_group_IT_number 11
_symmetry_cell_setting 'monoclinic'
loop_
_space_group_symop_operation_xyz
x,y,z
-x,1/2+y,-z
-x,-y,-z
x,1/2-y,z
loop_
_atom_site_type_symbol
_atom_site_label
_atom_site_fract_x
_atom_site_fract_y
_atom_site_fract_z
Si Si1 0.536247 0.350948 0.410562
Si Si2 0.690411 0.571884 0.479806
Si Si3 0.200524 0.978224 0.857068
Si Si4 0.969863 0.644927 0.242569
Si Si5 0.114291 0.032793 0.454258
Si Si6 0.612183 0.460033 0.777502
Si Si7 0.349648 0.146869 0.042382
Si Si8 0.717093 0.853074 0.120299
O O1 0.608216 0.250000 0.312067
O O2 0.425469 0.366564 0.444656
O O3 0.656293 0.430208 0.263008
O O4 0.446501 0.357296 0.630787
O O5 0.774572 0.498519 0.300353
O O6 0.804142 0.643255 0.396089
O O7 0.606093 0.520982 0.677216
O O8 0.174049 0.074554 0.951559
O O9 0.066499 0.908194 0.035650
O O10 0.021499 0.750000 0.195838
O O11 0.980708 0.589646 0.343247
O O12 0.245074 0.094977 0.251813
O O13 0.214710 0.950829 0.388946
O O14 0.000000 0.000000 0.500000
O O15 0.500000 0.500000 0.000000
O O16 0.528017 0.366356 0.846006
O O17 0.311329 0.250000 0.109082
O O18 0.300112 0.116336 0.982498
O O19 0.782565 0.750000 0.052969
#
# Coordination Sequence:
#
# PCOD8069654 Si02
#       8
#     4   4   4   4   4   4   4   4
#     4  10  19  32  53  83 111 139 177 224 272 325
#     4  10  20  36  56  77 108 147 184 223 273 332
#     4  11  20  34  54  80 112 145 183 227 274 326
#     4  11  23  38  55  80 113 149 186 228 279 337
#     4  10  21  37  57  78 107 145 185 227 278 338
#     4   9  19  35  56  79 102 137 182 228 278 331
#     4  10  18  33  55  79 105 137 176 223 274 325
#     4   9  18  31  53  80 106 137 178 224 273 326
#
# _framework density 19.691638000000001
#
# number of rings (size 3 to 8) (size 9 to 14) (size 15 to 20)
#    0.000    2.000    0.000    5.250    0.000    1.500 
#    0.000    2.500    0.000    3.000    0.000    0.000 
#    0.000    0.000    0.000    0.000    0.000    0.000 
#
# Total GULP energy -396535.307756 kJ/mol
# GULP energy per Si atom -12391.728367 kJ/mol
# Density = 1.964682 g / cm^3
# Si number density = 19.691638 Si / 1000 Ang^3
#
#
#
# Elastic Constant Matrix: (Units=GPa)
#
#
# Indices 1 2 3 4 5 6 
#
# 1 73.0181 28.9546 20.3742 0.0000 8.2492 0.0000
# 2 28.9546 78.9271 29.8906 0.0000 3.4092 0.0000
# 3 20.3742 29.8906 72.6110 0.0000 14.9954 0.0000
# 4 0.0000 0.0000 0.0000 23.9266 0.0000 -1.3006
# 5 8.2492 3.4092 14.9954 0.0000 33.9168 0.0000
# 6 0.0000 0.0000 0.0000 -1.3006 0.0000 24.9243
#
#
#
# Elastic Compliance Matrix: (Units=1/GPa)
#
#
# Indices 1 2 3 4 5 6 
#
# 1 0.016619 -0.005241 -0.001959 0.000000 -0.002649 0.000000
# 2 -0.005241 0.016718 -0.005863 0.000000 0.002186 0.000000
# 3 -0.001959 -0.005863 0.018175 0.000000 -0.006970 0.000000
# 4 0.000000 0.000000 0.000000 0.041913 0.000000 0.002187
# 5 -0.002649 0.002186 -0.006970 0.000000 0.032990 0.000000
# 6 0.000000 0.000000 0.000000 0.002187 0.000000 0.040236
#
#
# Mechanical properties :
#
#
# Convention : Reuss Voigt Hill
#
# Bulk Modulus (GPa) = 39.39020 42.55498 40.97259
# Shear Modulus (GPa) = 24.84608 26.24265 25.54437
#
# Velocity S-wave (km/s) = 3.55598 3.65455 3.60560
# Velocity P-wave (km/s) = 6.07511 6.28214 6.17949
#
# Compressibility (1/GPa) = 0.02538702
#
# Stress axis : x y z
#
# Youngs Moduli (GPa) = 60.17144 59.81411 55.02164
#
# Poissons Ratio (x) = 0.31346 0.10778
# Poissons Ratio (y) = 0.31533 0.32261
# Poissons Ratio (z) = 0.11787 0.35071
#
# Static dielectric constant tensor:
#      x y z
#    x 3.689710 0.000000 0.095550 
#    y 0.000000 3.680060 0.000000 
#    z 0.095550 0.000000 3.647420 
# 
# 
# High freq. dielectric constant tensor:
#      x y z
#    x 1.769760 0.000000 0.013930 
#    y 0.000000 1.757170 0.000000 
#    z 0.013930 0.000000 1.765000 
# 
# From -- ./inp_files/41676.got.cif
#   From: 2010.06.25/outbox.cif.g09.slc.cpg/sg11_21_cif.got.tgz:41676.got - 2010.06.27 23:14:04.
