data_PCOD8069143
_publ_section_title
;
Structure prediction by ZEFSAII (Michael W. Deem and Ramdas Pophale) SiO2 
 PCOD8069143
Probable space group: P 21/M
;
_chemical_formula_sum "Si O2"
_cell_formula_units_Z 24
_cell_length_a 11.193702
_cell_length_b 8.632898
_cell_length_c 23.716285
_cell_angle_alpha 90.000000
_cell_angle_beta 144.476733
_cell_angle_gamma 90.000000
_cell_volume 1331.613503
_symmetry_space_group_name_H-M "P 21/M"
_symmetry_group_IT_number 11
_symmetry_cell_setting 'monoclinic'
loop_
_space_group_symop_operation_xyz
x,y,z
-x,1/2+y,-z
-x,-y,-z
x,1/2-y,z
loop_
_atom_site_type_symbol
_atom_site_label
_atom_site_fract_x
_atom_site_fract_y
_atom_site_fract_z
Si Si1 0.319124 0.069180 0.356547
Si Si2 0.839414 0.068787 0.812675
Si Si3 0.160914 0.070887 0.020349
Si Si4 0.254583 0.068140 0.459830
Si Si5 0.074764 0.431709 0.587338
Si Si6 0.486740 0.431905 0.227736
O O1 0.301820 0.250000 0.338424
O O2 0.243561 0.023526 0.389822
O O3 0.170871 0.980042 0.256360
O O4 0.554079 0.017120 0.437214
O O5 0.788976 0.250000 0.800425
O O6 0.076245 0.032920 0.924753
O O7 0.673789 0.970352 0.784254
O O8 0.153494 0.250000 0.029494
O O9 0.389425 0.019024 0.128604
O O10 0.000000 0.000000 0.000000
O O11 0.284956 0.250000 0.480154
O O12 0.045720 0.011845 0.407866
O O13 0.033076 0.250000 0.571978
O O14 0.000000 0.500000 0.500000
O O15 0.313687 0.464799 0.687473
O O16 0.543415 0.250000 0.252490
#
# Coordination Sequence:
#
# PCOD8069143 Si02
#       6
#     4   4   4   4   4   4
#     4  10  20  34  53  76 101 130 164 204 248 292
#     4  10  18  30  50  77 105 132 166 204 245 292
#     4   8  16  29  47  71  99 131 164 202 245 289
#     4  10  21  37  54  73  99 131 167 205 246 292
#     4  12  24  37  53  74 101 132 166 202 245 296
#     4  10  19  33  51  73 103 135 167 204 248 293
#
# _framework density 18.023247000000001
#
# number of rings (size 3 to 8) (size 9 to 14) (size 15 to 20)
#    0.000    2.000    0.000    4.500    0.000    3.333 
#    0.000    0.000    0.000    1.000    0.000    0.000 
#    0.000    0.000    0.000    0.000    0.000    0.000 
#
# Total GULP energy -297444.256869 kJ/mol
# GULP energy per Si atom -12393.510703 kJ/mol
# Density = 1.798223 g / cm^3
# Si number density = 18.023247 Si / 1000 Ang^3
#
#
#
# Elastic Constant Matrix: (Units=GPa)
#
#
# Indices 1 2 3 4 5 6 
#
# 1 62.7900 13.9861 39.2865 0.0000 -3.7301 0.0000
# 2 13.9861 34.5892 26.1623 0.0000 -8.7209 0.0000
# 3 39.2865 26.1623 149.8272 0.0000 -17.8479 0.0000
# 4 0.0000 0.0000 0.0000 27.7995 0.0000 -0.8148
# 5 -3.7301 -8.7209 -17.8479 0.0000 24.5928 0.0000
# 6 0.0000 0.0000 0.0000 -0.8148 0.0000 27.4058
#
#
#
# Elastic Compliance Matrix: (Units=1/GPa)
#
#
# Indices 1 2 3 4 5 6 
#
# 1 0.019781 -0.005088 -0.004549 0.000000 -0.002106 0.000000
# 2 -0.005088 0.036246 -0.003892 0.000000 0.009257 0.000000
# 3 -0.004549 -0.003892 0.009086 0.000000 0.004524 0.000000
# 4 0.000000 0.000000 0.000000 0.036003 0.000000 0.001070
# 5 -0.002106 0.009257 0.004524 0.000000 0.046908 0.000000
# 6 0.000000 0.000000 0.000000 0.001070 0.000000 0.036520
#
#
# Mechanical properties :
#
#
# Convention : Reuss Voigt Hill
#
# Bulk Modulus (GPa) = 26.27906 45.11958 35.69932
# Shear Modulus (GPa) = 22.29276 27.14440 24.71858
#
# Velocity S-wave (km/s) = 3.52076 3.88503 3.70737
# Velocity P-wave (km/s) = 5.58032 6.72407 6.17871
#
# Compressibility (1/GPa) = 0.03805311
#
# Stress axis : x y z
#
# Youngs Moduli (GPa) = 50.55437 27.58922 110.06336
#
# Poissons Ratio (x) = 0.14038 0.50068
# Poissons Ratio (y) = 0.25724 0.42839
# Poissons Ratio (z) = 0.22997 0.10738
#
# Static dielectric constant tensor:
#      x y z
#    x 3.069270 0.000000 -0.218710 
#    y 0.000000 3.357990 0.000000 
#    z -0.218710 0.000000 3.999590 
# 
# 
# High freq. dielectric constant tensor:
#      x y z
#    x 1.657320 0.000000 -0.016050 
#    y 0.000000 1.713020 0.000000 
#    z -0.016050 0.000000 1.716270 
# 
# From -- ./inp_files/42659.got.cif
#   From: 2010.06.25/outbox.cif.g09.slc.cpg/sg11_22_cif.got.tgz:42659.got - 2010.06.27 23:14:04.
