data_PCOD8069526
_publ_section_title
;
Structure prediction by ZEFSAII (Michael W. Deem and Ramdas Pophale) SiO2 
 PCOD8069526
Probable space group: P 21/M
;
_chemical_formula_sum "Si O2"
_cell_formula_units_Z 32
_cell_length_a 20.651355
_cell_length_b 8.863571
_cell_length_c 25.375081
_cell_angle_alpha 90.000000
_cell_angle_beta 22.337684
_cell_angle_gamma 90.000000
_cell_volume 1765.314687
_symmetry_space_group_name_H-M "P 21/M"
_symmetry_group_IT_number 11
_symmetry_cell_setting 'monoclinic'
loop_
_space_group_symop_operation_xyz
x,y,z
-x,1/2+y,-z
-x,-y,-z
x,1/2-y,z
loop_
_atom_site_type_symbol
_atom_site_label
_atom_site_fract_x
_atom_site_fract_y
_atom_site_fract_z
Si Si1 0.494894 0.071143 0.859388
Si Si2 0.152017 0.428605 0.417803
Si Si3 0.380842 0.573154 0.546799
Si Si4 0.173528 0.923825 0.140546
Si Si5 0.584727 0.429131 0.596322
Si Si6 0.997315 0.573356 0.828377
Si Si7 0.337430 0.073067 0.868634
Si Si8 0.881186 0.576422 0.436599
O O1 0.515194 0.250000 0.847854
O O2 0.435708 0.013334 0.846298
O O3 0.673305 0.992707 0.738090
O O4 0.349644 0.017790 0.009921
O O5 0.148131 0.250000 0.414639
O O6 0.130618 0.479644 0.494520
O O7 0.000000 0.500000 0.500000
O O8 0.500000 0.500000 0.500000
O O9 0.411281 0.750000 0.525859
O O10 0.427058 0.507389 0.454222
O O11 0.184944 0.531949 0.707501
O O12 0.218093 0.750000 0.096404
O O13 0.074999 0.945034 0.270143
O O14 0.046388 0.980452 0.190729
O O15 0.585697 0.250000 0.593174
O O16 0.423481 0.494754 0.751067
O O17 0.758579 0.477486 0.492851
O O18 0.982451 0.750000 0.824811
O O19 0.862793 0.531305 0.976198
O O20 0.363520 0.250000 0.847094
O O21 0.824273 0.750000 0.474590
#
# Coordination Sequence:
#
# PCOD8069526 Si02
#       8
#     4   4   4   4   4   4   4   4
#     4  10  19  34  56  82 110 144 180 222 272 321
#     4  11  23  39  57  81 113 148 184 223 272 328
#     4  10  21  34  51  73 105 144 181 223 270 322
#     4  10  19  32  53  82 112 141 173 222 274 319
#     4  10  18  32  54  79 103 135 180 224 264 319
#     4   9  17  32  51  75 104 137 177 220 266 319
#     4   8  15  28  51  78 102 128 167 219 266 309
#     4  10  21  35  54  82 113 141 176 226 273 318
#
# _framework density 18.127078999999998
#
# number of rings (size 3 to 8) (size 9 to 14) (size 15 to 20)
#    0.000    2.250    2.500    1.875    0.000    2.000 
#    0.000    1.250    0.000    0.000    0.000    0.000 
#    0.000    0.000    0.000    0.000    0.000    0.000 
#
# Total GULP energy -396718.419470 kJ/mol
# GULP energy per Si atom -12397.450608 kJ/mol
# Density = 1.808582 g / cm^3
# Si number density = 18.127079 Si / 1000 Ang^3
#
#
#
# Elastic Constant Matrix: (Units=GPa)
#
#
# Indices 1 2 3 4 5 6 
#
# 1 73.9282 24.7432 42.8584 0.0000 -3.9425 0.0000
# 2 24.7432 52.1495 32.6263 0.0000 -3.6677 0.0000
# 3 42.8584 32.6263 137.0950 0.0000 0.1190 0.0000
# 4 0.0000 0.0000 0.0000 27.5112 0.0000 -5.1978
# 5 -3.9425 -3.6677 0.1190 0.0000 29.9605 0.0000
# 6 0.0000 0.0000 0.0000 -5.1978 0.0000 24.4547
#
#
#
# Elastic Compliance Matrix: (Units=1/GPa)
#
#
# Indices 1 2 3 4 5 6 
#
# 1 0.018016 -0.005763 -0.004262 0.000000 0.001682 0.000000
# 2 -0.005763 0.024608 -0.004056 0.000000 0.002270 0.000000
# 3 -0.004262 -0.004056 0.009593 0.000000 -0.001096 0.000000
# 4 0.000000 0.000000 0.000000 0.037870 0.000000 0.008049
# 5 0.001682 0.002270 -0.001096 0.000000 0.033881 0.000000
# 6 0.000000 0.000000 0.000000 0.008049 0.000000 0.042603
#
#
# Mechanical properties :
#
#
# Convention : Reuss Voigt Hill
#
# Bulk Modulus (GPa) = 41.57475 51.51427 46.54451
# Shear Modulus (GPa) = 24.66078 27.24828 25.95453
#
# Velocity S-wave (km/s) = 3.69241 3.88129 3.78803
# Velocity P-wave (km/s) = 6.41588 6.96893 6.69812
#
# Compressibility (1/GPa) = 0.02405306
#
# Stress axis : x y z
#
# Youngs Moduli (GPa) = 55.50586 40.63780 104.24344
#
# Poissons Ratio (x) = 0.23421 0.44429
# Poissons Ratio (y) = 0.31990 0.42286
# Poissons Ratio (z) = 0.23657 0.16485
#
# Static dielectric constant tensor:
#      x y z
#    x 3.306180 0.000000 0.358230 
#    y 0.000000 3.218890 0.000000 
#    z 0.358230 0.000000 3.809680 
# 
# 
# High freq. dielectric constant tensor:
#      x y z
#    x 1.670420 0.000000 0.012730 
#    y 0.000000 1.691970 0.000000 
#    z 0.012730 0.000000 1.722020 
# 
# From -- ./inp_files/67282.got.cif
#   From: 2010.06.25/outbox.cif.g09.slc.cpg/sg11_34_cif.got.tgz:67282.got - 2010.06.27 23:14:04.
