data_PCOD8069693
_publ_section_title
;
Structure prediction by ZEFSAII (Michael W. Deem and Ramdas Pophale) SiO2 
 PCOD8069693
Probable space group: P 21/M
;
_chemical_formula_sum "Si O2"
_cell_formula_units_Z 24
_cell_length_a 15.919228
_cell_length_b 13.777451
_cell_length_c 9.591238
_cell_angle_alpha 90.000000
_cell_angle_beta 142.293783
_cell_angle_gamma 90.000000
_cell_volume 1286.595937
_symmetry_space_group_name_H-M "P 21/M"
_symmetry_group_IT_number 11
_symmetry_cell_setting 'monoclinic'
loop_
_space_group_symop_operation_xyz
x,y,z
-x,1/2+y,-z
-x,-y,-z
x,1/2-y,z
loop_
_atom_site_type_symbol
_atom_site_label
_atom_site_fract_x
_atom_site_fract_y
_atom_site_fract_z
Si Si1 0.540962 0.750000 0.732592
Si Si2 0.681376 0.564937 0.006200
Si Si3 0.445418 0.750000 0.307577
Si Si4 0.072997 0.560964 0.709952
Si Si5 0.433414 0.750000 0.895780
Si Si6 0.808337 0.866099 0.460799
Si Si7 0.197552 0.750000 0.781485
Si Si8 0.455883 0.407107 0.757689
O O1 0.635751 0.654188 0.848962
O O2 0.439921 0.750000 0.467322
O O3 0.447158 0.750000 0.747822
O O4 0.544674 0.505168 0.870970
O O5 0.787275 0.494919 0.058078
O O6 0.758090 0.609590 0.239327
O O7 0.522163 0.846574 0.354816
O O8 0.293818 0.750000 0.044876
O O9 0.105326 0.656535 0.665121
O O10 0.000000 0.500000 0.500000
O O11 0.963290 0.590395 0.687137
O O12 0.275464 0.750000 0.735643
O O13 0.503563 0.845665 0.051415
O O14 0.805703 0.750000 0.482186
O O15 0.708383 0.922621 0.439064
#
# Coordination Sequence:
#
# PCOD8069693 Si02
#       8
#     2   4   2   4   2   4   2   4
#     4  12  24  33  55  84 116 147 193 233 275 330
#     4  11  20  35  54  84 117 144 180 241 279 323
#     4  10  22  37  54  85 109 156 182 227 287 327
#     4  10  21  30  55  89 113 141 177 232 287 328
#     4  10  18  33  57  84 106 139 179 241 282 312
#     4  11  18  31  56  92 109 139 183 230 278 331
#     4  10  18  39  54  81 117 140 180 235 274 333
#     4  10  18  35  60  80 112 141 187 231 282 326
#
# _framework density 18.653874999999999
#
# number of rings (size 3 to 8) (size 9 to 14) (size 15 to 20)
#    0.000    1.667    8.333    0.500    0.000    0.667 
#    0.000    0.000    0.000    2.000   21.667    0.000 
#    0.000    0.000    0.000    0.000    0.000    0.000 
#
# Total GULP energy -297351.123503 kJ/mol
# GULP energy per Si atom -12389.630146 kJ/mol
# Density = 1.861142 g / cm^3
# Si number density = 18.653875 Si / 1000 Ang^3
#
#
#
# Elastic Constant Matrix: (Units=GPa)
#
#
# Indices 1 2 3 4 5 6 
#
# 1 114.1714 43.9405 51.7497 0.0000 26.8861 0.0000
# 2 43.9405 117.3716 34.6111 0.0000 21.0895 0.0000
# 3 51.7497 34.6111 51.3566 0.0000 4.4944 0.0000
# 4 0.0000 0.0000 0.0000 20.8965 0.0000 16.3249
# 5 26.8861 21.0895 4.4944 0.0000 48.4280 0.0000
# 6 0.0000 0.0000 0.0000 16.3249 0.0000 23.2736
#
#
#
# Elastic Compliance Matrix: (Units=1/GPa)
#
#
# Indices 1 2 3 4 5 6 
#
# 1 0.019374 -0.000146 -0.018640 0.000000 -0.008963 0.000000
# 2 -0.000146 0.011462 -0.007206 0.000000 -0.004241 0.000000
# 3 -0.018640 -0.007206 0.042274 0.000000 0.009563 0.000000
# 4 0.000000 0.000000 0.000000 0.105869 0.000000 -0.074260
# 5 -0.008963 -0.004241 0.009563 0.000000 0.026585 0.000000
# 6 0.000000 0.000000 0.000000 -0.074260 0.000000 0.095055
#
#
# Mechanical properties :
#
#
# Convention : Reuss Voigt Hill
#
# Bulk Modulus (GPa) = 47.33551 60.38913 53.86232
# Shear Modulus (GPa) = 13.90262 28.69284 21.29773
#
# Velocity S-wave (km/s) = 2.73297 3.92621 3.38262
# Velocity P-wave (km/s) = 5.94892 7.27992 6.64781
#
# Compressibility (1/GPa) = 0.02112579
#
# Stress axis : x y z
#
# Youngs Moduli (GPa) = 51.61462 87.24678 23.65536
#
# Poissons Ratio (x) = 0.01275 0.44093
# Poissons Ratio (y) = 0.00754 0.17046
# Poissons Ratio (z) = 0.96209 0.62870
#
# Static dielectric constant tensor:
#      x y z
#    x 3.946020 0.000000 0.732320 
#    y 0.000000 3.995240 0.000000 
#    z 0.732320 0.000000 3.248420 
# 
# 
# High freq. dielectric constant tensor:
#      x y z
#    x 1.716210 0.000000 0.041420 
#    y 0.000000 1.742570 0.000000 
#    z 0.041420 0.000000 1.672450 
# 
# From -- ./inp_files/22377.got.cif
#   From: 2010.06.25/outbox.cif.g09.slc.cpg/sg11_12_cif.got.tgz:22377.got - 2010.06.27 23:14:04.
