data_PCOD8069436
_publ_section_title
;
Structure prediction by ZEFSAII (Michael W. Deem and Ramdas Pophale) SiO2 
 PCOD8069436
Probable space group: P 21/M
;
_chemical_formula_sum "Si O2"
_cell_formula_units_Z 28
_cell_length_a 21.983799
_cell_length_b 11.811857
_cell_length_c 12.692336
_cell_angle_alpha 90.000000
_cell_angle_beta 29.999661
_cell_angle_gamma 90.000000
_cell_volume 1647.889321
_symmetry_space_group_name_H-M "P 21/M"
_symmetry_group_IT_number 11
_symmetry_cell_setting 'monoclinic'
loop_
_space_group_symop_operation_xyz
x,y,z
-x,1/2+y,-z
-x,-y,-z
x,1/2-y,z
loop_
_atom_site_type_symbol
_atom_site_label
_atom_site_fract_x
_atom_site_fract_y
_atom_site_fract_z
Si Si1 0.075022 0.621251 0.510494
Si Si2 0.414485 0.378748 0.746050
Si Si3 0.036050 0.973978 0.787423
Si Si4 0.640484 0.973989 0.395559
Si Si5 0.823473 0.526018 0.817006
Si Si6 0.833339 0.118399 0.999988
Si Si7 0.160537 0.121252 0.764441
O O1 0.114069 0.750000 0.426508
O O2 0.092654 0.601070 0.608909
O O3 0.159042 0.529976 0.323883
O O4 0.935592 0.605581 0.682715
O O5 0.459421 0.250000 0.695225
O O6 0.381695 0.394422 0.672202
O O7 0.517077 0.470022 0.624889
O O8 0.298436 0.398934 0.995781
O O9 0.141971 0.029979 0.698982
O O10 0.963427 0.077490 0.845105
O O11 0.946112 0.894416 0.989484
O O12 0.705787 0.898938 0.386857
O O13 0.728041 0.077506 0.235382
O O14 0.808532 0.422499 0.919505
O O15 0.833359 0.250000 0.999962
O O16 0.154655 0.250000 0.731268
#
# Coordination Sequence:
#
# PCOD8069436 Si02
#       7
#     4   4   4   4   4   4   4
#     4  10  18  32  48  69  98 126 153 194 233 274
#     4  10  18  32  48  69  98 126 153 194 233 274
#     4   9  19  29  47  72  94 124 163 187 227 287
#     4   9  19  29  47  72  94 124 163 187 227 287
#     4   9  19  29  47  72  94 124 163 187 227 287
#     4   9  15  27  43  68 100 126 150 192 232 266
#     4  10  18  32  48  69  98 126 153 194 233 274
#
# _framework density 16.991434000000002
#
# number of rings (size 3 to 8) (size 9 to 14) (size 15 to 20)
#    0.000    2.571    0.000    3.429    0.000    0.000 
#    0.000    6.429    0.000    0.857    0.000    0.000 
#    0.000    0.000    0.000    0.000    0.000    0.000 
#
# Total GULP energy -347173.498937 kJ/mol
# GULP energy per Si atom -12399.053533 kJ/mol
# Density = 1.695276 g / cm^3
# Si number density = 16.991434 Si / 1000 Ang^3
#
#
#
# Elastic Constant Matrix: (Units=GPa)
#
#
# Indices 1 2 3 4 5 6 
#
# 1 71.2924 16.5767 22.2418 0.0000 0.0000 0.0000
# 2 16.5767 90.5020 16.5794 0.0000 -0.0027 0.0000
# 3 22.2418 16.5794 71.2811 0.0000 0.0014 0.0000
# 4 0.0000 0.0000 0.0000 15.6442 0.0000 0.0009
# 5 0.0000 -0.0027 0.0014 0.0000 24.5235 0.0000
# 6 0.0000 0.0000 0.0000 0.0009 0.0000 15.6465
#
#
#
# Elastic Compliance Matrix: (Units=1/GPa)
#
#
# Indices 1 2 3 4 5 6 
#
# 1 0.015911 -0.002094 -0.004477 0.000000 0.000000 0.000000
# 2 -0.002094 0.011817 -0.002095 0.000000 0.000001 0.000000
# 3 -0.004477 -0.002095 0.015913 0.000000 -0.000001 0.000000
# 4 0.000000 0.000000 0.000000 0.063921 0.000000 -0.000004
# 5 0.000000 0.000001 -0.000001 0.000000 0.040777 0.000000
# 6 0.000000 0.000000 0.000000 -0.000004 0.000000 0.063912
#
#
# Mechanical properties :
#
#
# Convention : Reuss Voigt Hill
#
# Bulk Modulus (GPa) = 38.01193 38.20792 38.10992
# Shear Modulus (GPa) = 20.97725 23.00804 21.99264
#
# Velocity S-wave (km/s) = 3.51747 3.68380 3.60159
# Velocity P-wave (km/s) = 6.23831 6.37410 6.30658
#
# Compressibility (1/GPa) = 0.02630753
#
# Stress axis : x y z
#
# Youngs Moduli (GPa) = 62.85157 84.62506 62.84022
#
# Poissons Ratio (x) = 0.17720 0.28137
# Poissons Ratio (y) = 0.13161 0.13166
# Poissons Ratio (z) = 0.28142 0.17730
#
# Static dielectric constant tensor:
#      x y z
#    x 3.085510 0.000000 0.000000 
#    y 0.000000 3.059870 0.000000 
#    z 0.000000 0.000000 3.085370 
# 
# 
# High freq. dielectric constant tensor:
#      x y z
#    x 1.632550 0.000000 0.000000 
#    y 0.000000 1.661340 0.000000 
#    z 0.000000 0.000000 1.632540 
# 
# From -- ./inp_files/43205.got.cif
#   From: 2010.06.25/outbox.cif.g09.slc.cpg/sg11_22_cif.got.tgz:43205.got - 2010.06.27 23:14:04.
