data_PCOD8069411
_publ_section_title
;
Structure prediction by ZEFSAII (Michael W. Deem and Ramdas Pophale) SiO2 
 PCOD8069411
Probable space group: P 21/M
;
_chemical_formula_sum "Si O2"
_cell_formula_units_Z 32
_cell_length_a 15.777004
_cell_length_b 20.074557
_cell_length_c 9.686936
_cell_angle_alpha 90.000000
_cell_angle_beta 146.814082
_cell_angle_gamma 90.000000
_cell_volume 1679.299074
_symmetry_space_group_name_H-M "P 21/M"
_symmetry_group_IT_number 11
_symmetry_cell_setting 'monoclinic'
loop_
_space_group_symop_operation_xyz
x,y,z
-x,1/2+y,-z
-x,-y,-z
x,1/2-y,z
loop_
_atom_site_type_symbol
_atom_site_label
_atom_site_fract_x
_atom_site_fract_y
_atom_site_fract_z
Si Si1 0.732652 0.825099 0.199812
Si Si2 0.446588 0.122680 0.786526
Si Si3 0.765403 0.051789 0.298743
Si Si4 0.247220 0.952283 0.136973
Si Si5 0.930822 0.126570 0.306965
Si Si6 0.372415 0.677447 0.205058
Si Si7 0.700434 0.490478 0.495926
Si Si8 0.643059 0.948634 0.936130
O O1 0.713555 0.750000 0.121793
O O2 0.622975 0.836056 0.182090
O O3 0.907915 0.836997 0.487371
O O4 0.688102 0.870667 0.006611
O O5 0.487546 0.170278 0.713595
O O6 0.322330 0.068694 0.562552
O O7 0.602716 0.087520 0.049159
O O8 0.908851 0.091763 0.427307
O O9 0.799278 0.042331 0.506620
O O10 0.747503 0.979929 0.201440
O O11 0.367016 0.887978 0.298835
O O12 0.207469 0.975438 0.237101
O O13 0.324914 0.015378 0.165721
O O14 0.090638 0.930375 0.842719
O O15 0.792040 0.179793 0.099976
O O16 0.392920 0.750000 0.307849
O O17 0.536801 0.453767 0.277000
#
# Coordination Sequence:
#
# PCOD8069411 Si02
#       8
#     4   4   4   4   4   4   4   4
#     4  12  22  34  56  81 111 146 181 230 283 328
#     4  10  18  31  54  85 109 136 179 229 274 321
#     4   9  16  33  58  81 104 137 179 229 268 303
#     4   9  20  32  58  84 105 147 186 222 266 322
#     4   8  20  36  53  79 103 142 184 225 263 320
#     4   9  17  34  53  76 109 144 186 218 261 327
#     4  11  16  33  59  83 110 140 176 232 274 320
#     4  10  18  33  55  82 115 133 179 230 275 318
#
# _framework density 19.055568999999998
#
# number of rings (size 3 to 8) (size 9 to 14) (size 15 to 20)
#    0.750    1.500    5.000    1.875    0.000    2.000 
#    0.000    1.250    0.000    0.000    0.000    0.000 
#    0.000    0.000    0.000    0.000    0.000    0.000 
#
# Total GULP energy -396459.574852 kJ/mol
# GULP energy per Si atom -12389.361714 kJ/mol
# Density = 1.901220 g / cm^3
# Si number density = 19.055569 Si / 1000 Ang^3
#
#
#
# Elastic Constant Matrix: (Units=GPa)
#
#
# Indices 1 2 3 4 5 6 
#
# 1 82.2020 26.6417 11.2113 0.0000 -25.1443 0.0000
# 2 26.6417 121.2392 17.2520 0.0000 -7.5655 0.0000
# 3 11.2113 17.2520 15.6592 0.0000 -4.2068 0.0000
# 4 0.0000 0.0000 0.0000 11.7077 0.0000 -1.2601
# 5 -25.1443 -7.5655 -4.2068 0.0000 30.6438 0.0000
# 6 0.0000 0.0000 0.0000 -1.2601 0.0000 19.1135
#
#
#
# Elastic Compliance Matrix: (Units=1/GPa)
#
#
# Indices 1 2 3 4 5 6 
#
# 1 0.017811 -0.002113 -0.006893 0.000000 0.013147 0.000000
# 2 -0.002113 0.010060 -0.009728 0.000000 -0.000585 0.000000
# 3 -0.006893 -0.009728 0.080309 0.000000 0.002968 0.000000
# 4 0.000000 0.000000 0.000000 0.086024 0.000000 0.005671
# 5 0.013147 -0.000585 0.002968 0.000000 0.043684 0.000000
# 6 0.000000 0.000000 0.000000 0.005671 0.000000 0.052693
#
#
# Mechanical properties :
#
#
# Convention : Reuss Voigt Hill
#
# Bulk Modulus (GPa) = 14.14140 36.59003 25.36571
# Shear Modulus (GPa) = 14.21989 23.22604 18.72297
#
# Velocity S-wave (km/s) = 2.73469 3.49500 3.13796
# Velocity P-wave (km/s) = 4.17236 5.96072 5.14484
#
# Compressibility (1/GPa) = 0.07071437
#
# Stress axis : x y z
#
# Youngs Moduli (GPa) = 56.14361 99.40186 12.45183
#
# Poissons Ratio (x) = 0.21002 0.08583
# Poissons Ratio (y) = 0.11862 0.12113
# Poissons Ratio (z) = 0.38697 0.96698
#
# Static dielectric constant tensor:
#      x y z
#    x 3.457220 0.000000 0.038810 
#    y 0.000000 3.441900 0.000000 
#    z 0.038810 0.000000 3.044870 
# 
# 
# High freq. dielectric constant tensor:
#      x y z
#    x 1.732060 0.000000 0.009720 
#    y 0.000000 1.731470 0.000000 
#    z 0.009720 0.000000 1.702410 
# 
# From -- ./inp_files/41963.got.cif
#   From: 2010.06.25/outbox.cif.g09.slc.cpg/sg11_21_cif.got.tgz:41963.got - 2010.06.27 23:14:04.
