data_PCOD8069351
_publ_section_title
;
Structure prediction by ZEFSAII (Michael W. Deem and Ramdas Pophale) SiO2 
 PCOD8069351
Probable space group: P 21/M
;
_chemical_formula_sum "Si O2"
_cell_formula_units_Z 32
_cell_length_a 26.450060
_cell_length_b 8.999658
_cell_length_c 21.325203
_cell_angle_alpha 90.000000
_cell_angle_beta 159.492835
_cell_angle_gamma 90.000000
_cell_volume 1778.346429
_symmetry_space_group_name_H-M "P 21/M"
_symmetry_group_IT_number 11
_symmetry_cell_setting 'monoclinic'
loop_
_space_group_symop_operation_xyz
x,y,z
-x,1/2+y,-z
-x,-y,-z
x,1/2-y,z
loop_
_atom_site_type_symbol
_atom_site_label
_atom_site_fract_x
_atom_site_fract_y
_atom_site_fract_z
Si Si1 0.365434 0.574868 0.810572
Si Si2 0.949789 0.074975 0.505435
Si Si3 0.731129 0.582575 0.420852
Si Si4 0.827012 0.423106 0.649285
Si Si5 0.647716 0.580364 0.683255
Si Si6 0.142806 0.421272 0.188835
Si Si7 0.052709 0.583340 0.743560
Si Si8 0.145472 0.077011 0.968561
O O1 0.388934 0.750000 0.833939
O O2 0.217797 0.535831 0.676027
O O3 0.363290 0.509534 0.738119
O O4 0.500000 0.500000 0.000000
O O5 0.973812 0.250000 0.529046
O O6 0.000000 0.000000 0.500000
O O7 0.052225 0.012585 0.679534
O O8 0.669996 0.750000 0.355976
O O9 0.721688 0.499190 0.476264
O O10 0.894627 0.585648 0.588506
O O11 0.789607 0.250000 0.609366
O O12 0.792874 0.498878 0.675614
O O13 0.993234 0.450717 0.825400
O O14 0.500000 0.500000 0.500000
O O15 0.613241 0.750000 0.657317
O O16 0.740759 0.561268 0.729599
O O17 0.732425 0.515479 0.842221
O O18 0.108431 0.250000 0.163984
O O19 0.000000 0.500000 0.000000
O O20 0.106417 0.750000 0.790787
O O21 0.158598 0.510259 0.918062
O O22 0.164968 0.250000 0.976246
#
# Coordination Sequence:
#
# PCOD8069351 Si02
#       8
#     4   4   4   4   4   4   4   4
#     4  10  20  34  54  80 109 144 180 217 261 313
#     4  10  20  34  54  80 109 141 175 216 264 310
#     4   9  17  30  49  77 108 139 175 217 261 310
#     4  10  18  31  52  79 108 136 171 220 268 311
#     4  10  22  38  54  76 106 141 177 216 262 316
#     4  11  21  35  54  80 108 136 175 220 265 313
#     4   9  17  29  49  78 105 133 174 217 259 309
#     4   9  17  32  51  74 105 136 170 215 263 310
#
# _framework density 17.994244999999999
#
# number of rings (size 3 to 8) (size 9 to 14) (size 15 to 20)
#    0.000    2.250    1.250    2.250    0.000    6.500 
#    0.000    0.000    2.750    0.000    0.000    0.000 
#    0.000    0.000    0.000    0.000    0.000    0.000 
#
# Total GULP energy -396808.628079 kJ/mol
# GULP energy per Si atom -12400.269627 kJ/mol
# Density = 1.795329 g / cm^3
# Si number density = 17.994245 Si / 1000 Ang^3
#
#
#
# Elastic Constant Matrix: (Units=GPa)
#
#
# Indices 1 2 3 4 5 6 
#
# 1 92.1112 64.8765 53.9793 0.0000 -41.3059 0.0000
# 2 64.8765 130.7694 64.7641 0.0000 -23.3383 0.0000
# 3 53.9793 64.7641 116.6278 0.0000 -36.0401 0.0000
# 4 0.0000 0.0000 0.0000 33.3159 0.0000 -8.9145
# 5 -41.3059 -23.3383 -36.0401 0.0000 34.9977 0.0000
# 6 0.0000 0.0000 0.0000 -8.9145 0.0000 34.3602
#
#
#
# Elastic Compliance Matrix: (Units=1/GPa)
#
#
# Indices 1 2 3 4 5 6 
#
# 1 0.032035 -0.010686 0.000864 0.000000 0.031573 0.000000
# 2 -0.010686 0.014164 -0.005718 0.000000 -0.009055 0.000000
# 3 0.000864 -0.005718 0.015381 0.000000 0.013045 0.000000
# 4 0.000000 0.000000 0.000000 0.032255 0.000000 0.008368
# 5 0.031573 -0.009055 0.013045 0.000000 0.073233 0.000000
# 6 0.000000 0.000000 0.000000 0.008368 0.000000 0.031274
#
#
# Mechanical properties :
#
#
# Convention : Reuss Voigt Hill
#
# Bulk Modulus (GPa) = 32.78685 78.52758 55.65721
# Shear Modulus (GPa) = 20.86905 30.92734 25.89819
#
# Velocity S-wave (km/s) = 3.40922 4.15026 3.79786
# Velocity P-wave (km/s) = 5.81011 8.16709 7.08727
#
# Compressibility (1/GPa) = 0.03050003
#
# Stress axis : x y z
#
# Youngs Moduli (GPa) = 31.21576 70.60011 65.01555
#
# Poissons Ratio (x) = 0.75443 -0.05615
# Poissons Ratio (y) = 0.33357 0.37174
# Poissons Ratio (z) = -0.02696 0.40367
#
# Static dielectric constant tensor:
#      x y z
#    x 3.226730 0.000000 -0.339970 
#    y 0.000000 3.558130 0.000000 
#    z -0.339970 0.000000 3.200660 
# 
# 
# High freq. dielectric constant tensor:
#      x y z
#    x 1.685570 0.000000 -0.034220 
#    y 0.000000 1.710960 0.000000 
#    z -0.034220 0.000000 1.679450 
# 
# From -- ./inp_files/67004.got.cif
#   From: 2010.06.25/outbox.cif.g09.slc.cpg/sg11_34_cif.got.tgz:67004.got - 2010.06.27 23:14:04.
