data_PCOD8069698
_publ_section_title
;
Structure prediction by ZEFSAII (Michael W. Deem and Ramdas Pophale) SiO2 
 PCOD8069698
Probable space group: P 21/M
;
_chemical_formula_sum "Si O2"
_cell_formula_units_Z 28
_cell_length_a 12.717486
_cell_length_b 8.696435
_cell_length_c 13.729032
_cell_angle_alpha 90.000000
_cell_angle_beta 67.482212
_cell_angle_gamma 90.000000
_cell_volume 1402.626092
_symmetry_space_group_name_H-M "P 21/M"
_symmetry_group_IT_number 11
_symmetry_cell_setting 'monoclinic'
loop_
_space_group_symop_operation_xyz
x,y,z
-x,1/2+y,-z
-x,-y,-z
x,1/2-y,z
loop_
_atom_site_type_symbol
_atom_site_label
_atom_site_fract_x
_atom_site_fract_y
_atom_site_fract_z
Si Si1 0.012139 0.931827 0.780669
Si Si2 0.662962 0.932561 0.693058
Si Si3 0.470587 0.933040 0.614810
Si Si4 0.084411 0.068728 0.392844
Si Si5 0.184144 0.067708 0.009811
Si Si6 0.383513 0.432851 0.075958
Si Si7 0.234841 0.432116 0.774792
O O1 0.033962 0.750000 0.774823
O O2 0.947533 0.982777 0.705249
O O3 0.132398 0.019299 0.740129
O O4 0.935912 0.985302 0.900541
O O5 0.659812 0.750000 0.694974
O O6 0.570198 0.995910 0.650168
O O7 0.789831 0.990874 0.622440
O O8 0.634771 0.996991 0.809481
O O9 0.468462 0.750000 0.610615
O O10 0.500000 0.000000 0.500000
O O11 0.350160 0.991048 0.696927
O O12 0.078691 0.250000 0.401372
O O13 0.000000 0.000000 0.500000
O O14 0.188862 0.250000 0.007906
O O15 0.202272 0.004935 0.894073
O O16 0.284894 0.001947 0.041232
O O17 0.385177 0.250000 0.073273
O O18 0.500000 0.500000 0.000000
O O19 0.251195 0.250000 0.767141
#
# Coordination Sequence:
#
# PCOD8069698 Si02
#       7
#     4   4   4   4   4   4   4
#     4  10  20  38  62  87 117 156 197 240 291 348
#     4   9  19  38  62  84 112 150 189 232 286 346
#     4  11  24  42  62  86 116 154 198 243 291 346
#     4  10  21  38  61  88 115 149 192 240 293 346
#     4   9  18  35  59  85 116 153 193 236 288 347
#     4  10  18  33  57  84 114 149 188 230 282 342
#     4  11  23  38  58  87 121 157 195 239 290 346
#
# _framework density 19.962553
#
# number of rings (size 3 to 8) (size 9 to 14) (size 15 to 20)
#    0.000    2.000    1.429    2.143    2.000    0.571 
#    0.000    4.286    0.000    0.000    0.000    0.000 
#    0.000    0.000    0.000    0.000    0.000    0.000 
#
# Total GULP energy -347190.172251 kJ/mol
# GULP energy per Si atom -12399.649009 kJ/mol
# Density = 1.991712 g / cm^3
# Si number density = 19.962553 Si / 1000 Ang^3
#
#
#
# Elastic Constant Matrix: (Units=GPa)
#
#
# Indices 1 2 3 4 5 6 
#
# 1 174.3828 33.0811 72.0026 0.0000 -16.6626 0.0000
# 2 33.0811 36.1791 30.1154 0.0000 -0.6415 0.0000
# 3 72.0026 30.1154 152.6314 0.0000 -18.3082 0.0000
# 4 0.0000 0.0000 0.0000 31.7403 0.0000 -4.1609
# 5 -16.6626 -0.6415 -18.3082 0.0000 38.7865 0.0000
# 6 0.0000 0.0000 0.0000 -4.1609 0.0000 26.2511
#
#
#
# Elastic Compliance Matrix: (Units=1/GPa)
#
#
# Indices 1 2 3 4 5 6 
#
# 1 0.007940 -0.005169 -0.002467 0.000000 0.002161 0.000000
# 2 -0.005169 0.036702 -0.005297 0.000000 -0.004114 0.000000
# 3 -0.002467 -0.005297 0.009140 0.000000 0.003167 0.000000
# 4 0.000000 0.000000 0.000000 0.032174 0.000000 0.005100
# 5 0.002161 -0.004114 0.003167 0.000000 0.028138 0.000000
# 6 0.000000 0.000000 0.000000 0.005100 0.000000 0.038902
#
#
# Mechanical properties :
#
#
# Convention : Reuss Voigt Hill
#
# Bulk Modulus (GPa) = 35.81830 70.39905 53.10868
# Shear Modulus (GPa) = 26.57216 34.55519 30.56367
#
# Velocity S-wave (km/s) = 3.65238 4.16504 3.91711
# Velocity P-wave (km/s) = 5.98065 7.64671 6.86442
#
# Compressibility (1/GPa) = 0.02791869
#
# Stress axis : x y z
#
# Youngs Moduli (GPa) = 125.94510 27.24614 109.40505
#
# Poissons Ratio (x) = 0.14082 0.26986
# Poissons Ratio (y) = 0.65096 0.57951
# Poissons Ratio (z) = 0.31065 0.14432
#
# Static dielectric constant tensor:
#      x y z
#    x 3.929060 0.000000 0.058140 
#    y 0.000000 3.273880 0.000000 
#    z 0.058140 0.000000 3.819180 
# 
# 
# High freq. dielectric constant tensor:
#      x y z
#    x 1.798240 0.000000 -0.002800 
#    y 0.000000 1.744770 0.000000 
#    z -0.002800 0.000000 1.792230 
# 
# From -- ./inp_files/37876.got.cif
#   From: 2010.06.25/outbox.cif.g09.slc.cpg/sg11_19_cif.got.tgz:37876.got - 2010.06.27 23:14:04.
