data_PCOD8069544
_publ_section_title
;
Structure prediction by ZEFSAII (Michael W. Deem and Ramdas Pophale) SiO2 
 PCOD8069544
Probable space group: P 21/M
;
_chemical_formula_sum "Si O2"
_cell_formula_units_Z 28
_cell_length_a 8.920862
_cell_length_b 15.607297
_cell_length_c 14.544482
_cell_angle_alpha 90.000000
_cell_angle_beta 136.407467
_cell_angle_gamma 90.000000
_cell_volume 1396.313359
_symmetry_space_group_name_H-M "P 21/M"
_symmetry_group_IT_number 11
_symmetry_cell_setting 'monoclinic'
loop_
_space_group_symop_operation_xyz
x,y,z
-x,1/2+y,-z
-x,-y,-z
x,1/2-y,z
loop_
_atom_site_type_symbol
_atom_site_label
_atom_site_fract_x
_atom_site_fract_y
_atom_site_fract_z
Si Si1 0.015330 0.349442 0.325858
Si Si2 0.593909 0.924530 0.603004
Si Si3 0.110266 0.947892 0.185867
Si Si4 0.841144 0.648281 0.412805
Si Si5 0.289562 0.548088 0.942506
Si Si6 0.842736 0.150157 0.602497
Si Si7 0.635787 0.148890 0.847032
O O1 0.946133 0.250000 0.289961
O O2 0.834148 0.408433 0.197938
O O3 0.249935 0.360791 0.383656
O O4 0.040935 0.382852 0.441927
O O5 0.391454 0.868198 0.549182
O O6 0.500000 0.000000 0.500000
O O7 0.732818 0.968266 0.746373
O O8 0.144037 0.894716 0.293707
O O9 0.163940 0.890844 0.121162
O O10 0.861288 0.978942 0.071704
O O11 0.844098 0.750000 0.411701
O O12 0.591770 0.616499 0.298018
O O13 0.972834 0.612442 0.383361
O O14 0.500000 0.500000 0.000000
O O15 0.355922 0.621724 0.043296
O O16 0.875751 0.250000 0.633340
O O17 0.659311 0.250000 0.852849
#
# Coordination Sequence:
#
# PCOD8069544 Si02
#       7
#     4   4   4   4   4   4   4
#     4  10  20  38  59  82 115 158 198 239 295 361
#     4   9  18  31  51  81 114 147 185 233 291 347
#     4  10  21  37  56  82 115 152 196 243 298 357
#     4   9  19  33  56  86 113 142 188 239 285 337
#     4  11  24  41  60  85 119 157 198 251 306 357
#     4  10  18  32  54  85 118 150 191 242 290 345
#     4  11  22  40  63  87 115 156 201 243 293 362
#
# _framework density 20.052804999999999
#
# number of rings (size 3 to 8) (size 9 to 14) (size 15 to 20)
#    0.000    2.000    0.000    4.286    0.000    2.286 
#    0.000   10.000    0.000    3.429    0.000    0.000 
#    0.000    0.000    0.000    0.000    0.000    0.000 
#
# Total GULP energy -347174.840869 kJ/mol
# GULP energy per Si atom -12399.101460 kJ/mol
# Density = 2.000716 g / cm^3
# Si number density = 20.052805 Si / 1000 Ang^3
#
#
#
# Elastic Constant Matrix: (Units=GPa)
#
#
# Indices 1 2 3 4 5 6 
#
# 1 95.4937 28.2268 36.6142 0.0000 7.1835 0.0000
# 2 28.2268 58.6701 24.6550 0.0000 1.2770 0.0000
# 3 36.6142 24.6550 96.9144 0.0000 3.0875 0.0000
# 4 0.0000 0.0000 0.0000 28.5921 0.0000 3.1189
# 5 7.1835 1.2770 3.0875 0.0000 37.8670 0.0000
# 6 0.0000 0.0000 0.0000 3.1189 0.0000 30.0739
#
#
#
# Elastic Compliance Matrix: (Units=1/GPa)
#
#
# Indices 1 2 3 4 5 6 
#
# 1 0.013526 -0.004862 -0.003806 0.000000 -0.002092 0.000000
# 2 -0.004862 0.020835 -0.003479 0.000000 0.000503 0.000000
# 3 -0.003806 -0.003479 0.012648 0.000000 -0.000192 0.000000
# 4 0.000000 0.000000 0.000000 0.035375 0.000000 -0.003669
# 5 -0.002092 0.000503 -0.000192 0.000000 0.026804 0.000000
# 6 0.000000 0.000000 0.000000 -0.003669 0.000000 0.033632
#
#
# Mechanical properties :
#
#
# Convention : Reuss Voigt Hill
#
# Bulk Modulus (GPa) = 44.02937 47.78558 45.90747
# Shear Modulus (GPa) = 28.62270 30.07874 29.35072
#
# Velocity S-wave (km/s) = 3.78215 3.87716 3.82995
# Velocity P-wave (km/s) = 6.40915 6.62757 6.51928
#
# Compressibility (1/GPa) = 0.02271211
#
# Stress axis : x y z
#
# Youngs Moduli (GPa) = 73.93179 47.99614 79.06543
#
# Poissons Ratio (x) = 0.23337 0.30096
# Poissons Ratio (y) = 0.35948 0.27511
# Poissons Ratio (z) = 0.28142 0.16700
#
# Static dielectric constant tensor:
#      x y z
#    x 3.775190 0.000000 0.184570 
#    y 0.000000 3.529960 0.000000 
#    z 0.184570 0.000000 3.890080 
# 
# 
# High freq. dielectric constant tensor:
#      x y z
#    x 1.781750 0.000000 0.009000 
#    y 0.000000 1.781340 0.000000 
#    z 0.009000 0.000000 1.777950 
# 
# From -- ./inp_files/48022.got.cif
#   From: 2010.06.25/outbox.cif.g09.slc.cpg/sg11_25_cif.got.tgz:48022.got - 2010.06.27 23:14:04.
