data_PCOD8069516
_publ_section_title
;
Structure prediction by ZEFSAII (Michael W. Deem and Ramdas Pophale) SiO2 
 PCOD8069516
Probable space group: P 21/M
;
_chemical_formula_sum "Si O2"
_cell_formula_units_Z 28
_cell_length_a 17.748274
_cell_length_b 9.013544
_cell_length_c 17.360456
_cell_angle_alpha 90.000000
_cell_angle_beta 34.332169
_cell_angle_gamma 90.000000
_cell_volume 1566.332893
_symmetry_space_group_name_H-M "P 21/M"
_symmetry_group_IT_number 11
_symmetry_cell_setting 'monoclinic'
loop_
_space_group_symop_operation_xyz
x,y,z
-x,1/2+y,-z
-x,-y,-z
x,1/2-y,z
loop_
_atom_site_type_symbol
_atom_site_label
_atom_site_fract_x
_atom_site_fract_y
_atom_site_fract_z
Si Si1 0.656322 0.074330 0.168229
Si Si2 0.638183 0.073902 0.359431
Si Si3 0.900089 0.423688 0.687055
Si Si4 0.810001 0.573607 0.339963
Si Si5 0.631622 0.573542 0.633352
Si Si6 0.190327 0.076335 0.380106
Si Si7 0.895990 0.426563 0.862833
O O1 0.654930 0.250000 0.161140
O O2 0.671315 0.028091 0.244095
O O3 0.517776 0.010079 0.250678
O O4 0.779942 0.007686 0.015443
O O5 0.625479 0.250000 0.379854
O O6 0.500000 0.000000 0.500000
O O7 0.759012 0.009954 0.307401
O O8 0.875272 0.250000 0.703653
O O9 0.798465 0.498800 0.712484
O O10 0.871692 0.485544 0.796607
O O11 0.051671 0.465266 0.538292
O O12 0.798358 0.750000 0.337945
O O13 0.722314 0.518236 0.486097
O O14 0.961430 0.520407 0.225490
O O15 0.633482 0.750000 0.630884
O O16 0.691916 0.516714 0.663566
O O17 0.202735 0.250000 0.355885
O O18 0.894802 0.250000 0.862425
#
# Coordination Sequence:
#
# PCOD8069516 Si02
#       7
#     4   4   4   4   4   4   4
#     4   9  18  31  50  74  99 129 167 206 243 294
#     4  11  21  34  53  77 103 130 167 209 250 292
#     4   9  16  28  47  71  97 124 161 205 246 287
#     4  10  18  32  54  76  99 129 167 207 244 290
#     4   9  15  28  49  72  96 128 167 201 236 291
#     4   9  16  27  47  72  95 124 164 203 243 289
#     4   9  17  31  51  74 100 133 168 201 243 298
#
# _framework density 17.876149000000002
#
# number of rings (size 3 to 8) (size 9 to 14) (size 15 to 20)
#    0.000    2.571    2.857    0.429    0.000    0.571 
#    0.000    2.143    0.000    2.571    0.000    0.000 
#    0.000    0.000    0.000    0.000    0.000    0.000 
#
# Total GULP energy -347140.332455 kJ/mol
# GULP energy per Si atom -12397.869016 kJ/mol
# Density = 1.783546 g / cm^3
# Si number density = 17.876149 Si / 1000 Ang^3
#
#
#
# Elastic Constant Matrix: (Units=GPa)
#
#
# Indices 1 2 3 4 5 6 
#
# 1 202.7056 34.7821 93.4448 0.0000 7.0874 0.0000
# 2 34.7821 25.0215 24.7240 0.0000 4.8210 0.0000
# 3 93.4448 24.7240 143.3907 0.0000 2.7490 0.0000
# 4 0.0000 0.0000 0.0000 10.7230 0.0000 4.1687
# 5 7.0874 4.8210 2.7490 0.0000 31.0059 0.0000
# 6 0.0000 0.0000 0.0000 4.1687 0.0000 30.4341
#
#
#
# Elastic Compliance Matrix: (Units=1/GPa)
#
#
# Indices 1 2 3 4 5 6 
#
# 1 0.008003 -0.007120 -0.003981 0.000000 -0.000369 0.000000
# 2 -0.007120 0.055968 -0.004883 0.000000 -0.006642 0.000000
# 3 -0.003981 -0.004883 0.010396 0.000000 0.000747 0.000000
# 4 0.000000 0.000000 0.000000 0.098503 0.000000 -0.013492
# 5 -0.000369 -0.006642 0.000747 0.000000 0.033303 0.000000
# 6 0.000000 0.000000 0.000000 -0.013492 0.000000 0.034706
#
#
# Mechanical properties :
#
#
# Convention : Reuss Voigt Hill
#
# Bulk Modulus (GPa) = 23.58538 75.22442 49.40490
# Shear Modulus (GPa) = 17.42291 28.97704 23.19998
#
# Velocity S-wave (km/s) = 3.12532 4.03052 3.60643
# Velocity P-wave (km/s) = 5.12307 7.98951 6.71112
#
# Compressibility (1/GPa) = 0.04239915
#
# Stress axis : x y z
#
# Youngs Moduli (GPa) = 124.95399 17.86739 96.19507
#
# Poissons Ratio (x) = 0.12722 0.38291
# Poissons Ratio (y) = 0.88973 0.46969
# Poissons Ratio (z) = 0.49738 0.08724
#
# Static dielectric constant tensor:
#      x y z
#    x 3.653250 0.000000 0.017350 
#    y 0.000000 2.875760 0.000000 
#    z 0.017350 0.000000 3.431300 
# 
# 
# High freq. dielectric constant tensor:
#      x y z
#    x 1.711550 0.000000 0.004400 
#    y 0.000000 1.643890 0.000000 
#    z 0.004400 0.000000 1.678990 
# 
# From -- ./inp_files/26364.got.cif
#   From: 2010.06.25/outbox.cif.g09.slc.cpg/sg11_14_cif.got.tgz:26364.got - 2010.06.27 23:14:04.
