data_PCOD8069017
_publ_section_title
;
Structure prediction by ZEFSAII (Michael W. Deem and Ramdas Pophale) SiO2 
 PCOD8069017
Probable space group: P 21/M
;
_chemical_formula_sum "Si O2"
_cell_formula_units_Z 32
_cell_length_a 18.693450
_cell_length_b 10.297944
_cell_length_c 12.799300
_cell_angle_alpha 90.000000
_cell_angle_beta 135.691936
_cell_angle_gamma 90.000000
_cell_volume 1721.085985
_symmetry_space_group_name_H-M "P 21/M"
_symmetry_group_IT_number 11
_symmetry_cell_setting 'monoclinic'
loop_
_space_group_symop_operation_xyz
x,y,z
-x,1/2+y,-z
-x,-y,-z
x,1/2-y,z
loop_
_atom_site_type_symbol
_atom_site_label
_atom_site_fract_x
_atom_site_fract_y
_atom_site_fract_z
Si Si1 0.577841 0.105107 0.676177
Si Si2 0.709026 0.896545 0.079099
Si Si3 0.989171 0.100882 0.083066
Si Si4 0.791096 0.397585 0.008943
Si Si5 0.669039 0.600841 0.268629
Si Si6 0.511225 0.453948 0.230174
Si Si7 0.346975 0.608027 0.458289
Si Si8 0.793961 0.603438 0.601670
O O1 0.537744 0.250000 0.631074
O O2 0.577214 0.053528 0.554959
O O3 0.504926 0.045385 0.686516
O O4 0.695666 0.090400 0.833051
O O5 0.754278 0.750000 0.116454
O O6 0.709043 0.947388 0.198156
O O7 0.778401 0.999246 0.089745
O O8 0.592356 0.887723 0.915510
O O9 0.981981 0.250000 0.033563
O O10 0.084651 0.086402 0.261699
O O11 0.890521 0.063030 0.047354
O O12 0.000000 0.000000 0.000000
O O13 0.800053 0.250000 0.063257
O O14 0.637363 0.750000 0.226269
O O15 0.564030 0.527757 0.188936
O O16 0.759766 0.577226 0.446602
O O17 0.594146 0.359637 0.370844
O O18 0.301512 0.750000 0.375774
O O19 0.258212 0.501698 0.377431
O O20 0.761078 0.750000 0.600487
#
# Coordination Sequence:
#
# PCOD8069017 Si02
#       8
#     4   4   4   4   4   4   4   4
#     4   9  17  29  46  68  97 133 166 196 242 301
#     4  10  20  34  51  73 100 131 169 214 257 294
#     4  10  20  35  57  82 106 132 164 201 245 297
#     4   9  19  35  52  72  99 131 165 202 247 303
#     4   9  18  33  52  72  98 133 171 210 252 298
#     4  10  18  30  47  72  99 131 169 211 252 297
#     4  10  19  31  47  71 103 134 164 205 250 292
#     4   9  19  35  53  74  99 131 168 203 243 298
#
# _framework density 18.592911999999998
#
# number of rings (size 3 to 8) (size 9 to 14) (size 15 to 20)
#    0.000    2.500    0.000    2.250    0.000    3.000 
#    0.000    8.125    0.000    0.000    0.000    0.000 
#    0.000    0.000    0.000    0.000    0.000    0.000 
#
# Total GULP energy -396503.416665 kJ/mol
# GULP energy per Si atom -12390.731771 kJ/mol
# Density = 1.855059 g / cm^3
# Si number density = 18.592912 Si / 1000 Ang^3
#
#
#
# Elastic Constant Matrix: (Units=GPa)
#
#
# Indices 1 2 3 4 5 6 
#
# 1 116.4558 64.0280 29.5497 0.0000 -16.7280 0.0000
# 2 64.0280 87.7327 19.0897 0.0000 -16.2196 0.0000
# 3 29.5497 19.0897 48.2756 0.0000 -12.1311 0.0000
# 4 0.0000 0.0000 0.0000 17.0789 0.0000 -10.0477
# 5 -16.7280 -16.2196 -12.1311 0.0000 33.4800 0.0000
# 6 0.0000 0.0000 0.0000 -10.0477 0.0000 23.0920
#
#
#
# Elastic Compliance Matrix: (Units=1/GPa)
#
#
# Indices 1 2 3 4 5 6 
#
# 1 0.015605 -0.010044 -0.005329 0.000000 0.001000 0.000000
# 2 -0.010044 0.019641 -0.000537 0.000000 0.004302 0.000000
# 3 -0.005329 -0.000537 0.025804 0.000000 0.006427 0.000000
# 4 0.000000 0.000000 0.000000 0.078697 0.000000 0.034242
# 5 0.001000 0.004302 0.006427 0.000000 0.034781 0.000000
# 6 0.000000 0.000000 0.000000 0.034242 0.000000 0.058204
#
#
# Mechanical properties :
#
#
# Convention : Reuss Voigt Hill
#
# Bulk Modulus (GPa) = 34.21309 53.08877 43.65093
# Shear Modulus (GPa) = 18.22845 24.04996 21.13921
#
# Velocity S-wave (km/s) = 3.13453 3.60043 3.37553
# Velocity P-wave (km/s) = 5.61618 6.77491 6.22257
#
# Compressibility (1/GPa) = 0.02922858
#
# Stress axis : x y z
#
# Youngs Moduli (GPa) = 64.08105 50.91386 38.75414
#
# Poissons Ratio (x) = 0.51140 0.20651
# Poissons Ratio (y) = 0.64366 0.02083
# Poissons Ratio (z) = 0.34148 0.02736
#
# Static dielectric constant tensor:
#      x y z
#    x 3.342140 0.000000 -0.091400 
#    y 0.000000 3.473970 0.000000 
#    z -0.091400 0.000000 3.437110 
# 
# 
# High freq. dielectric constant tensor:
#      x y z
#    x 1.710190 0.000000 -0.007290 
#    y 0.000000 1.725140 0.000000 
#    z -0.007290 0.000000 1.717650 
# 
# From -- ./inp_files/41239.got.cif
#   From: 2010.06.25/outbox.cif.g09.slc.cpg/sg11_21_cif.got.tgz:41239.got - 2010.06.27 23:14:04.
