data_PCOD8069213
_publ_section_title
;
Structure prediction by ZEFSAII (Michael W. Deem and Ramdas Pophale) SiO2 
 PCOD8069213
Probable space group: P 21/M
;
_chemical_formula_sum "Si O2"
_cell_formula_units_Z 28
_cell_length_a 22.819245
_cell_length_b 8.802833
_cell_length_c 16.772616
_cell_angle_alpha 90.000000
_cell_angle_beta 149.841041
_cell_angle_gamma 90.000000
_cell_volume 1692.679779
_symmetry_space_group_name_H-M "P 21/M"
_symmetry_group_IT_number 11
_symmetry_cell_setting 'monoclinic'
loop_
_space_group_symop_operation_xyz
x,y,z
-x,1/2+y,-z
-x,-y,-z
x,1/2-y,z
loop_
_atom_site_type_symbol
_atom_site_label
_atom_site_fract_x
_atom_site_fract_y
_atom_site_fract_z
Si Si1 0.048269 0.071431 0.821384
Si Si2 0.323500 0.077529 0.328916
Si Si3 0.077062 0.928963 0.022035
Si Si4 0.054708 0.423436 0.440855
Si Si5 0.151251 0.074262 0.711960
Si Si6 0.283872 0.073649 0.014259
Si Si7 0.522945 0.923712 0.647529
O O1 0.047766 0.250000 0.835548
O O2 0.169385 0.010728 0.925447
O O3 0.943830 0.027677 0.636585
O O4 0.027322 0.989021 0.879884
O O5 0.284711 0.250000 0.299638
O O6 0.391302 0.062167 0.326294
O O7 0.210912 0.972753 0.192531
O O8 0.406960 0.022843 0.499064
O O9 0.064444 0.750000 0.009507
O O10 0.000000 0.000000 0.000000
O O11 0.051766 0.250000 0.408626
O O12 0.164398 0.452173 0.631444
O O13 0.942809 0.458366 0.363691
O O14 0.112056 0.250000 0.682012
O O15 0.270834 0.044377 0.903270
O O16 0.289864 0.250000 0.042622
O O17 0.404698 0.006199 0.191727
O O18 0.483600 0.750000 0.614511
#
# Coordination Sequence:
#
# PCOD8069213 Si02
#       7
#     4   4   4   4   4   4   4
#     4  10  18  31  46  62  86 119 154 189 230 273
#     4  10  19  32  47  67  92 120 154 192 233 273
#     4  12  24  37  52  69  90 118 154 195 236 277
#     4   9  15  23  36  58  84 114 152 188 224 269
#     4   8  14  23  36  55  84 120 152 185 224 266
#     4   8  13  24  42  62  87 120 154 186 222 266
#     4   9  16  28  46  67  92 123 157 190 227 273
#
# _framework density 16.541817999999999
#
# number of rings (size 3 to 8) (size 9 to 14) (size 15 to 20)
#    0.000    2.571    1.429    3.429    0.000    1.143 
#    0.000    0.714    0.000    0.000    0.000    0.000 
#    0.000    1.143    0.000    3.143    0.000    4.857 
#
# Total GULP energy -346893.160898 kJ/mol
# GULP energy per Si atom -12389.041461 kJ/mol
# Density = 1.650417 g / cm^3
# Si number density = 16.541818 Si / 1000 Ang^3
#
#
#
# Elastic Constant Matrix: (Units=GPa)
#
#
# Indices 1 2 3 4 5 6 
#
# 1 56.5522 31.1542 43.4971 0.0000 -23.2812 0.0000
# 2 31.1542 82.5068 35.4402 0.0000 -11.9603 0.0000
# 3 43.4971 35.4402 113.5063 0.0000 -46.1673 0.0000
# 4 0.0000 0.0000 0.0000 23.1134 0.0000 -4.0059
# 5 -23.2812 -11.9603 -46.1673 0.0000 27.5355 0.0000
# 6 0.0000 0.0000 0.0000 -4.0059 0.0000 19.1165
#
#
#
# Elastic Compliance Matrix: (Units=1/GPa)
#
#
# Indices 1 2 3 4 5 6 
#
# 1 0.032114 -0.008687 -0.000267 0.000000 0.022931 0.000000
# 2 -0.008687 0.016484 -0.005952 0.000000 -0.010165 0.000000
# 3 -0.000267 -0.005952 0.030271 0.000000 0.047943 0.000000
# 4 0.000000 0.000000 0.000000 0.044896 0.000000 0.009408
# 5 0.022931 -0.010165 0.047943 0.000000 0.131673 0.000000
# 6 0.000000 0.000000 0.000000 0.009408 0.000000 0.054282
#
#
# Mechanical properties :
#
#
# Convention : Reuss Voigt Hill
#
# Bulk Modulus (GPa) = 20.38488 52.52759 36.45623
# Shear Modulus (GPa) = 14.04950 23.45132 18.75041
#
# Velocity S-wave (km/s) = 2.91749 3.76932 3.37043
# Velocity P-wave (km/s) = 4.86816 7.12510 6.10189
#
# Compressibility (1/GPa) = 0.04905598
#
# Stress axis : x y z
#
# Youngs Moduli (GPa) = 31.13875 60.66612 33.03499
#
# Poissons Ratio (x) = 0.52703 0.00883
# Poissons Ratio (y) = 0.27051 0.19662
# Poissons Ratio (z) = 0.00832 0.36108
#
# Static dielectric constant tensor:
#      x y z
#    x 2.818230 0.000000 -0.469200 
#    y 0.000000 3.113110 0.000000 
#    z -0.469200 0.000000 3.611990 
# 
# 
# High freq. dielectric constant tensor:
#      x y z
#    x 1.576170 0.000000 -0.048300 
#    y 0.000000 1.635950 0.000000 
#    z -0.048300 0.000000 1.643260 
# 
# From -- ./inp_files/42598.got.cif
#   From: 2010.06.25/outbox.cif.g09.slc.cpg/sg11_22_cif.got.tgz:42598.got - 2010.06.27 23:14:04.
