data_PCOD8069335
_publ_section_title
;
Structure prediction by ZEFSAII (Michael W. Deem and Ramdas Pophale) SiO2 
 PCOD8069335
Probable space group: P 21/M
;
_chemical_formula_sum "Si O2"
_cell_formula_units_Z 32
_cell_length_a 22.816704
_cell_length_b 9.059688
_cell_length_c 15.300615
_cell_angle_alpha 90.000000
_cell_angle_beta 148.633631
_cell_angle_gamma 90.000000
_cell_volume 1646.276922
_symmetry_space_group_name_H-M "P 21/M"
_symmetry_group_IT_number 11
_symmetry_cell_setting 'monoclinic'
loop_
_space_group_symop_operation_xyz
x,y,z
-x,1/2+y,-z
-x,-y,-z
x,1/2-y,z
loop_
_atom_site_type_symbol
_atom_site_label
_atom_site_fract_x
_atom_site_fract_y
_atom_site_fract_z
Si Si1 0.001238 0.923913 0.731943
Si Si2 0.663110 0.077327 0.059555
Si Si3 0.694189 0.582916 0.564496
Si Si4 0.253310 0.577416 0.024172
Si Si5 0.621059 0.573363 0.656941
Si Si6 0.225927 0.425533 0.644066
Si Si7 0.590180 0.925461 0.259824
Si Si8 0.047854 0.083254 0.142304
O O1 0.983097 0.750000 0.716721
O O2 0.897276 0.985439 0.541933
O O3 0.996096 0.989896 0.823658
O O4 0.121612 0.965104 0.843897
O O5 0.682213 0.250000 0.098981
O O6 0.684001 0.035963 0.985355
O O7 0.751151 0.989854 0.231041
O O8 0.536837 0.028133 0.925756
O O9 0.652967 0.750000 0.522778
O O10 0.681145 0.513999 0.644435
O O11 0.618006 0.507614 0.391714
O O12 0.818973 0.572545 0.687422
O O13 0.266456 0.750000 0.063611
O O14 0.307031 0.483510 0.170032
O O15 0.500000 0.500000 0.500000
O O16 0.612357 0.750000 0.652239
O O17 0.229067 0.250000 0.653317
O O18 0.322057 0.486596 0.700255
O O19 0.603121 0.750000 0.281221
O O20 0.005079 0.250000 0.079940
O O21 0.000000 0.000000 0.000000
#
# Coordination Sequence:
#
# PCOD8069335 Si02
#       8
#     4   4   4   4   4   4   4   4
#     4   9  18  34  56  79 106 142 181 223 268 319
#     4  10  21  35  53  77 106 142 179 224 279 326
#     4   9  17  31  53  78 103 137 178 215 259 320
#     4  10  21  38  56  77 110 148 185 222 268 325
#     4  11  22  36  56  82 112 146 184 224 267 317
#     4  10  19  34  57  80 102 136 182 227 271 323
#     4   9  16  31  54  77 103 136 178 220 266 325
#     4  10  18  31  52  77 104 135 174 216 261 313
#
# _framework density 19.437798999999998
#
# number of rings (size 3 to 8) (size 9 to 14) (size 15 to 20)
#    0.000    2.250    1.250    2.250    0.000    3.000 
#    0.000    1.875    0.000    2.250    0.000    0.000 
#    0.000    0.000    0.000    0.000    0.000    0.000 
#
# Total GULP energy -396695.571976 kJ/mol
# GULP energy per Si atom -12396.736624 kJ/mol
# Density = 1.939356 g / cm^3
# Si number density = 19.437799 Si / 1000 Ang^3
#
#
#
# Elastic Constant Matrix: (Units=GPa)
#
#
# Indices 1 2 3 4 5 6 
#
# 1 88.2700 22.9416 31.3018 0.0000 0.7410 0.0000
# 2 22.9416 36.2254 34.4143 0.0000 -2.8519 0.0000
# 3 31.3018 34.4143 127.8029 0.0000 -9.7352 0.0000
# 4 0.0000 0.0000 0.0000 30.7807 0.0000 -5.2514
# 5 0.7410 -2.8519 -9.7352 0.0000 35.5018 0.0000
# 6 0.0000 0.0000 0.0000 -5.2514 0.0000 18.5998
#
#
#
# Elastic Compliance Matrix: (Units=1/GPa)
#
#
# Indices 1 2 3 4 5 6 
#
# 1 0.013796 -0.007438 -0.001474 0.000000 -0.001290 0.000000
# 2 -0.007438 0.041106 -0.009176 0.000000 0.000941 0.000000
# 3 -0.001474 -0.009176 0.010829 0.000000 0.002263 0.000000
# 4 0.000000 0.000000 0.000000 0.034132 0.000000 0.009637
# 5 -0.001290 0.000941 0.002263 0.000000 0.028891 0.000000
# 6 0.000000 0.000000 0.000000 0.009637 0.000000 0.056485
#
#
# Mechanical properties :
#
#
# Convention : Reuss Voigt Hill
#
# Bulk Modulus (GPa) = 33.83473 47.73486 40.78480
# Shear Modulus (GPa) = 21.62022 27.88583 24.75303
#
# Velocity S-wave (km/s) = 3.33870 3.79175 3.57241
# Velocity P-wave (km/s) = 5.68393 6.61671 6.16798
#
# Compressibility (1/GPa) = 0.02955543
#
# Stress axis : x y z
#
# Youngs Moduli (GPa) = 72.48692 24.32720 92.34644
#
# Poissons Ratio (x) = 0.18094 0.13614
# Poissons Ratio (y) = 0.53914 0.84733
# Poissons Ratio (z) = 0.10687 0.22322
#
# Static dielectric constant tensor:
#      x y z
#    x 3.735520 0.000000 -0.038400 
#    y 0.000000 2.968660 0.000000 
#    z -0.038400 0.000000 3.524020 
# 
# 
# High freq. dielectric constant tensor:
#      x y z
#    x 1.769240 0.000000 -0.002130 
#    y 0.000000 1.706090 0.000000 
#    z -0.002130 0.000000 1.771550 
# 
# From -- ./inp_files/55625.got.cif
#   From: 2010.06.25/outbox.cif.g09.slc.cpg/sg11_28_cif.got.tgz:55625.got - 2010.06.27 23:14:04.
