data_PCOD8069866
_publ_section_title
;
Structure prediction by ZEFSAII (Michael W. Deem and Ramdas Pophale) SiO2 
 PCOD8069866
Probable space group: P 21/M
;
_chemical_formula_sum "Si O2"
_cell_formula_units_Z 32
_cell_length_a 9.685922
_cell_length_b 19.704394
_cell_length_c 16.225611
_cell_angle_alpha 90.000000
_cell_angle_beta 33.691374
_cell_angle_gamma 90.000000
_cell_volume 1717.822487
_symmetry_space_group_name_H-M "P 21/M"
_symmetry_group_IT_number 11
_symmetry_cell_setting 'monoclinic'
loop_
_space_group_symop_operation_xyz
x,y,z
-x,1/2+y,-z
-x,-y,-z
x,1/2-y,z
loop_
_atom_site_type_symbol
_atom_site_label
_atom_site_fract_x
_atom_site_fract_y
_atom_site_fract_z
Si Si1 0.231650 0.588793 0.154953
Si Si2 0.889434 0.067862 0.171286
Si Si3 0.399815 0.083173 0.176371
Si Si4 0.725523 0.172487 0.119366
Si Si5 0.920653 0.454231 0.337203
Si Si6 0.533492 0.938602 0.157052
Si Si7 0.898129 0.673482 0.214182
Si Si8 0.560593 0.562093 0.324126
O O1 0.364839 0.603792 0.176114
O O2 0.044550 0.525889 0.253631
O O3 0.079454 0.654518 0.200235
O O4 0.444312 0.571087 0.983981
O O5 0.766084 0.128657 0.181138
O O6 0.844698 0.083110 0.290133
O O7 0.767787 0.995939 0.207431
O O8 0.180769 0.063763 0.010224
O O9 0.483210 0.147338 0.189205
O O10 0.111430 0.092726 0.294335
O O11 0.437178 0.015711 0.211474
O O12 0.680536 0.250000 0.168149
O O13 0.962520 0.165075 0.942246
O O14 0.677594 0.468788 0.512032
O O15 0.491602 0.907570 0.268660
O O16 0.805767 0.750000 0.273815
O O17 0.663478 0.623396 0.328999
#
# Coordination Sequence:
#
# PCOD8069866 Si02
#       8
#     4   4   4   4   4   4   4   4
#     4  10  19  35  58  85 114 147 192 238 282 339
#     4  12  19  37  59  86 116 148 192 241 284 331
#     4  10  18  36  57  86 116 147 187 239 292 334
#     4  10  21  37  60  85 112 150 195 238 285 346
#     4  11  22  35  59  88 118 146 191 242 286 336
#     4  11  19  34  60  86 110 145 194 241 284 324
#     4  10  21  38  59  84 117 153 188 232 294 350
#     4  12  23  35  57  92 118 152 189 239 289 341
#
# _framework density 18.628233999999999
#
# number of rings (size 3 to 8) (size 9 to 14) (size 15 to 20)
#    0.000    1.250    6.250    2.250    0.000    2.000 
#    0.000    3.125    0.000    0.000    0.000    0.000 
#    0.000    0.000    0.000    0.000    0.000    0.000 
#
# Total GULP energy -396830.248957 kJ/mol
# GULP energy per Si atom -12400.945280 kJ/mol
# Density = 1.858584 g / cm^3
# Si number density = 18.628234 Si / 1000 Ang^3
#
#
#
# Elastic Constant Matrix: (Units=GPa)
#
#
# Indices 1 2 3 4 5 6 
#
# 1 142.6415 54.5588 40.0162 0.0000 8.5124 0.0000
# 2 54.5588 105.3125 18.4308 0.0000 -5.9737 0.0000
# 3 40.0162 18.4308 73.3788 0.0000 6.0909 0.0000
# 4 0.0000 0.0000 0.0000 8.1424 0.0000 -0.3586
# 5 8.5124 -5.9737 6.0909 0.0000 20.0958 0.0000
# 6 0.0000 0.0000 0.0000 -0.3586 0.0000 25.3046
#
#
#
# Elastic Compliance Matrix: (Units=1/GPa)
#
#
# Indices 1 2 3 4 5 6 
#
# 1 0.010273 -0.004884 -0.003995 0.000000 -0.004593 0.000000
# 2 -0.004884 0.012546 -0.000994 0.000000 0.006099 0.000000
# 3 -0.003995 -0.000994 0.016351 0.000000 -0.003560 0.000000
# 4 0.000000 0.000000 0.000000 0.122890 0.000000 0.001741
# 5 -0.004593 0.006099 -0.003560 0.000000 0.054599 0.000000
# 6 0.000000 0.000000 0.000000 0.001741 0.000000 0.039543
#
#
# Mechanical properties :
#
#
# Convention : Reuss Voigt Hill
#
# Bulk Modulus (GPa) = 51.47845 60.81603 56.14724
# Shear Modulus (GPa) = 17.70401 24.59704 21.15052
#
# Velocity S-wave (km/s) = 3.08618 3.63770 3.37323
# Velocity P-wave (km/s) = 6.35562 7.09661 6.73631
#
# Compressibility (1/GPa) = 0.01942560
#
# Stress axis : x y z
#
# Youngs Moduli (GPa) = 97.34072 79.70957 61.15670
#
# Poissons Ratio (x) = 0.38927 0.24429
# Poissons Ratio (y) = 0.47537 0.06080
# Poissons Ratio (z) = 0.38883 0.07924
#
# Static dielectric constant tensor:
#      x y z
#    x 3.860960 0.000000 0.015760 
#    y 0.000000 3.142550 0.000000 
#    z 0.015760 0.000000 3.190470 
# 
# 
# High freq. dielectric constant tensor:
#      x y z
#    x 1.747620 0.000000 0.000140 
#    y 0.000000 1.686070 0.000000 
#    z 0.000140 0.000000 1.702820 
# 
# From -- ./inp_files/23143.got.cif
#   From: 2010.06.25/outbox.cif.g09.slc.cpg/sg11_12_cif.got.tgz:23143.got - 2010.06.27 23:14:04.
