data_PCOD8069253
_publ_section_title
;
Structure prediction by ZEFSAII (Michael W. Deem and Ramdas Pophale) SiO2 
 PCOD8069253
Probable space group: P 21/M
;
_chemical_formula_sum "Si O2"
_cell_formula_units_Z 24
_cell_length_a 15.629996
_cell_length_b 13.082180
_cell_length_c 12.436835
_cell_angle_alpha 90.000000
_cell_angle_beta 37.277218
_cell_angle_gamma 90.000000
_cell_volume 1540.232902
_symmetry_space_group_name_H-M "P 21/M"
_symmetry_group_IT_number 11
_symmetry_cell_setting 'monoclinic'
loop_
_space_group_symop_operation_xyz
x,y,z
-x,1/2+y,-z
-x,-y,-z
x,1/2-y,z
loop_
_atom_site_type_symbol
_atom_site_label
_atom_site_fract_x
_atom_site_fract_y
_atom_site_fract_z
Si Si1 0.300221 0.871320 0.449780
Si Si2 0.619177 0.871189 0.130830
Si Si3 0.850781 0.972157 0.780042
Si Si4 0.122097 0.869882 0.830588
Si Si5 0.877895 0.369881 0.574790
Si Si6 0.149219 0.027837 0.981605
O O1 0.297330 0.750000 0.452670
O O2 0.459787 0.913675 0.290215
O O3 0.220534 0.910898 0.635610
O O4 0.220540 0.910895 0.423316
O O5 0.621752 0.750000 0.128260
O O6 0.700859 0.912922 0.155448
O O7 0.700863 0.912912 0.942837
O O8 0.959815 0.895275 0.614000
O O9 0.828855 0.073851 0.732214
O O10 0.907209 0.003216 0.842789
O O11 0.138948 0.750000 0.833046
O O12 0.171139 0.926142 0.889932
O O13 0.959809 0.895279 0.966376
O O14 0.861038 0.250000 0.610964
#
# Coordination Sequence:
#
# PCOD8069253 Si02
#       6
#     4   4   4   4   4   4
#     4   9  17  29  49  71  90 122 156 183 227 269
#     4   9  17  31  48  69  94 120 153 191 224 271
#     4   9  19  31  47  73  90 122 155 185 234 272
#     4  10  18  31  50  69  95 120 152 196 226 269
#     4  10  18  31  50  69  95 120 152 196 226 269
#     4   9  19  31  47  73  90 122 155 185 234 272
#
# _framework density 15.582058999999999
#
# number of rings (size 3 to 8) (size 9 to 14) (size 15 to 20)
#    1.000    1.667    1.667    1.000    0.000    2.000 
#    0.000    0.000    0.000    0.000    0.000    2.333 
#    0.000    0.000    0.000    0.000    0.000    0.000 
#
# Total GULP energy -297454.207607 kJ/mol
# GULP energy per Si atom -12393.925317 kJ/mol
# Density = 1.554659 g / cm^3
# Si number density = 15.582059 Si / 1000 Ang^3
#
#
#
# Elastic Constant Matrix: (Units=GPa)
#
#
# Indices 1 2 3 4 5 6 
#
# 1 58.6466 38.9344 33.1665 0.0000 3.3112 0.0000
# 2 38.9344 79.2475 35.7968 0.0000 6.7219 0.0000
# 3 33.1665 35.7968 60.5477 0.0000 -7.4344 0.0000
# 4 0.0000 0.0000 0.0000 19.3749 0.0000 3.9544
# 5 3.3112 6.7219 -7.4344 0.0000 35.0414 0.0000
# 6 0.0000 0.0000 0.0000 3.9544 0.0000 21.2188
#
#
#
# Elastic Compliance Matrix: (Units=1/GPa)
#
#
# Indices 1 2 3 4 5 6 
#
# 1 0.029740 -0.009240 -0.011249 0.000000 -0.003424 0.000000
# 2 -0.009240 0.021232 -0.008095 0.000000 -0.004917 0.000000
# 3 -0.011249 -0.008095 0.028528 0.000000 0.008668 0.000000
# 4 0.000000 0.000000 0.000000 0.053654 0.000000 -0.009999
# 5 -0.003424 -0.004917 0.008668 0.000000 0.031644 0.000000
# 6 0.000000 0.000000 0.000000 -0.009999 0.000000 0.048991
#
#
# Mechanical properties :
#
#
# Convention : Reuss Voigt Hill
#
# Bulk Modulus (GPa) = 44.77693 46.02635 45.40164
# Shear Modulus (GPa) = 17.95971 21.16328 19.56150
#
# Velocity S-wave (km/s) = 3.39866 3.68935 3.54699
# Velocity P-wave (km/s) = 6.64829 6.91018 6.78050
#
# Compressibility (1/GPa) = 0.02233293
#
# Stress axis : x y z
#
# Youngs Moduli (GPa) = 33.62439 47.09883 35.05329
#
# Poissons Ratio (x) = 0.43519 0.39431
# Poissons Ratio (y) = 0.31068 0.28376
# Poissons Ratio (z) = 0.37823 0.38127
#
# Static dielectric constant tensor:
#      x y z
#    x 2.999510 0.000000 -0.041520 
#    y 0.000000 2.719250 0.000000 
#    z -0.041520 0.000000 3.018810 
# 
# 
# High freq. dielectric constant tensor:
#      x y z
#    x 1.595010 0.000000 -0.002150 
#    y 0.000000 1.578540 0.000000 
#    z -0.002150 0.000000 1.596010 
# 
# From -- ./inp_files/21711.got.cif
#   From: 2010.06.25/outbox.cif.g09.slc.cpg/sg11_11_cif.got.tgz:21711.got - 2010.06.27 23:14:04.
