data_PCOD8069887
_publ_section_title
;
Structure prediction by ZEFSAII (Michael W. Deem and Ramdas Pophale) SiO2 
 PCOD8069887
Probable space group: P 21/M
;
_chemical_formula_sum "Si O2"
_cell_formula_units_Z 28
_cell_length_a 9.021000
_cell_length_b 17.352891
_cell_length_c 16.486453
_cell_angle_alpha 90.000000
_cell_angle_beta 37.313177
_cell_angle_gamma 90.000000
_cell_volume 1564.404806
_symmetry_space_group_name_H-M "P 21/M"
_symmetry_group_IT_number 11
_symmetry_cell_setting 'monoclinic'
loop_
_space_group_symop_operation_xyz
x,y,z
-x,1/2+y,-z
-x,-y,-z
x,1/2-y,z
loop_
_atom_site_type_symbol
_atom_site_label
_atom_site_fract_x
_atom_site_fract_y
_atom_site_fract_z
Si Si1 0.245986 0.078787 0.270265
Si Si2 0.475216 0.063396 0.343249
Si Si3 0.181319 0.572117 0.197362
Si Si4 0.954478 0.048126 0.203226
Si Si5 0.282080 0.924299 0.527450
Si Si6 0.634634 0.841144 0.937797
Si Si7 0.683561 0.840430 0.441739
O O1 0.377207 0.085211 0.298400
O O2 0.399050 0.130127 0.139974
O O3 0.970054 0.114665 0.395073
O O4 0.229050 0.989723 0.248431
O O5 0.770363 0.048685 0.207190
O O6 0.431105 0.135271 0.422168
O O7 0.347873 0.986992 0.431564
O O8 0.137785 0.525137 0.130839
O O9 0.952071 0.624941 0.317267
O O10 0.414434 0.626799 0.087936
O O11 0.777061 0.036183 0.359759
O O12 0.108465 0.127039 0.138508
O O13 0.505356 0.865193 0.444495
O O14 0.638381 0.750000 0.941309
O O15 0.708477 0.750000 0.427950
#
# Coordination Sequence:
#
# PCOD8069887 Si02
#       7
#     4   4   4   4   4   4   4
#     4  10  21  32  60  78 106 135 178 216 264 308
#     4  11  18  34  55  83 107 135 165 224 262 314
#     4  10  18  37  54  77  99 140 184 218 245 312
#     4   9  17  32  58  76 101 134 186 209 247 311
#     4   9  17  33  53  77 106 138 169 212 249 314
#     4  10  21  37  54  75 104 140 179 222 262 301
#     4  11  20  31  54  82 107 139 174 212 266 311
#
# _framework density 17.898181000000001
#
# number of rings (size 3 to 8) (size 9 to 14) (size 15 to 20)
#    0.000    2.286    4.286    3.429    0.000    5.714 
#    0.000    2.857    0.000    0.000    0.000    0.000 
#    0.000    0.000    0.000    0.000    0.000    0.000 
#
# Total GULP energy -346993.731206 kJ/mol
# GULP energy per Si atom -12392.633257 kJ/mol
# Density = 1.785744 g / cm^3
# Si number density = 17.898181 Si / 1000 Ang^3
#
#
#
# Elastic Constant Matrix: (Units=GPa)
#
#
# Indices 1 2 3 4 5 6 
#
# 1 108.7223 8.6223 25.2757 0.0000 -11.1604 0.0000
# 2 8.6223 101.2714 23.7376 0.0000 -4.4561 0.0000
# 3 25.2757 23.7376 64.7810 0.0000 -14.8439 0.0000
# 4 0.0000 0.0000 0.0000 21.7748 0.0000 -3.4160
# 5 -11.1604 -4.4561 -14.8439 0.0000 15.3112 0.0000
# 6 0.0000 0.0000 0.0000 -3.4160 0.0000 16.2148
#
#
#
# Elastic Compliance Matrix: (Units=1/GPa)
#
#
# Indices 1 2 3 4 5 6 
#
# 1 0.010369 0.000022 -0.002983 0.000000 0.004672 0.000000
# 2 0.000022 0.010812 -0.004173 0.000000 -0.000883 0.000000
# 3 -0.002983 -0.004173 0.022309 0.000000 0.018239 0.000000
# 4 0.000000 0.000000 0.000000 0.047494 0.000000 0.010006
# 5 0.004672 -0.000883 0.018239 0.000000 0.086143 0.000000
# 6 0.000000 0.000000 0.000000 0.010006 0.000000 0.063780
#
#
# Mechanical properties :
#
#
# Convention : Reuss Voigt Hill
#
# Bulk Modulus (GPa) = 34.22051 43.33844 38.77947
# Shear Modulus (GPa) = 18.87401 25.13612 22.00506
#
# Velocity S-wave (km/s) = 3.25086 3.75159 3.51017
# Velocity P-wave (km/s) = 5.76644 6.55991 6.17593
#
# Compressibility (1/GPa) = 0.02922224
#
# Stress axis : x y z
#
# Youngs Moduli (GPa) = 96.43988 92.49174 44.82539
#
# Poissons Ratio (x) = -0.00204 0.13372
# Poissons Ratio (y) = -0.00212 0.18704
# Poissons Ratio (z) = 0.28770 0.38593
#
# Static dielectric constant tensor:
#      x y z
#    x 3.358020 0.000000 -0.387440 
#    y 0.000000 3.147620 0.000000 
#    z -0.387440 0.000000 3.322240 
# 
# 
# High freq. dielectric constant tensor:
#      x y z
#    x 1.680440 0.000000 -0.033840 
#    y 0.000000 1.675860 0.000000 
#    z -0.033840 0.000000 1.684730 
# 
# From -- ./inp_files/58107.got.cif
#   From: 2010.06.25/outbox.cif.g09.slc.cpg/sg11_30_cif.got.tgz:58107.got - 2010.06.27 23:14:04.
