data_PCOD8069308
_publ_section_title
;
Structure prediction by ZEFSAII (Michael W. Deem and Ramdas Pophale) SiO2 
 PCOD8069308
Probable space group: P 21/M
;
_chemical_formula_sum "Si O2"
_cell_formula_units_Z 32
_cell_length_a 23.591931
_cell_length_b 13.281512
_cell_length_c 19.469285
_cell_angle_alpha 90.000000
_cell_angle_beta 17.427893
_cell_angle_gamma 90.000000
_cell_volume 1827.113513
_symmetry_space_group_name_H-M "P 21/M"
_symmetry_group_IT_number 11
_symmetry_cell_setting 'monoclinic'
loop_
_space_group_symop_operation_xyz
x,y,z
-x,1/2+y,-z
-x,-y,-z
x,1/2-y,z
loop_
_atom_site_type_symbol
_atom_site_label
_atom_site_fract_x
_atom_site_fract_y
_atom_site_fract_z
Si Si1 0.742656 0.442296 0.848585
Si Si2 0.141770 0.363659 0.351748
Si Si3 0.940251 0.868033 0.153301
Si Si4 0.574944 0.942270 0.516267
Si Si5 0.921435 0.869573 0.328558
Si Si6 0.318052 0.629801 0.931946
Si Si7 0.628708 0.363655 0.377807
Si Si8 0.627306 0.868035 0.779137
O O1 0.805071 0.559340 0.770679
O O2 0.921468 0.371311 0.626256
O O3 0.659400 0.417657 0.019188
O O4 0.577181 0.420738 0.984784
O O5 0.183240 0.250000 0.278955
O O6 0.266884 0.392826 0.272766
O O7 0.900823 0.750000 0.197520
O O8 0.798998 0.920751 0.262946
O O9 0.901154 0.911467 0.274944
O O10 0.153920 0.892819 0.885750
O O11 0.483493 0.917544 0.695050
O O12 0.483280 0.871303 0.564367
O O13 0.543409 0.059320 0.532365
O O14 0.920754 0.750000 0.329239
O O15 0.753368 0.911470 0.570533
O O16 0.119849 0.906101 0.130131
O O17 0.341204 0.750000 0.908847
O O18 0.607552 0.250000 0.430291
O O19 0.597519 0.750000 0.804120
#
# Coordination Sequence:
#
# PCOD8069308 Si02
#       8
#     4   4   4   4   4   4   4   4
#     4  11  21  33  55  80 101 137 174 207 257 310
#     4  10  21  36  51  75 109 137 170 212 252 301
#     4  10  18  31  51  77 107 136 167 209 256 302
#     4  11  21  33  55  80 101 137 174 207 257 310
#     4   9  17  29  49  76 106 132 160 210 261 295
#     4  11  19  33  54  78 104 130 167 216 264 301
#     4  10  21  36  51  75 109 137 170 212 252 301
#     4  10  18  31  51  77 107 136 167 209 256 302
#
# _framework density 17.513964000000001
#
# number of rings (size 3 to 8) (size 9 to 14) (size 15 to 20)
#    0.000    1.750    2.500    3.750    0.000    1.000 
#    0.000    0.625    0.000    0.000    0.000    0.000 
#    0.000    0.000    0.000    0.000    0.000    0.000 
#
# Total GULP energy -396833.045840 kJ/mol
# GULP energy per Si atom -12401.032683 kJ/mol
# Density = 1.747410 g / cm^3
# Si number density = 17.513964 Si / 1000 Ang^3
#
#
#
# Elastic Constant Matrix: (Units=GPa)
#
#
# Indices 1 2 3 4 5 6 
#
# 1 66.2084 39.7149 49.9409 0.0000 -4.4994 0.0000
# 2 39.7149 82.4392 34.9477 0.0000 10.6709 0.0000
# 3 49.9409 34.9477 75.8062 0.0000 -17.8598 0.0000
# 4 0.0000 0.0000 0.0000 20.0934 0.0000 -0.6441
# 5 -4.4994 10.6709 -17.8598 0.0000 39.3668 0.0000
# 6 0.0000 0.0000 0.0000 -0.6441 0.0000 19.8065
#
#
#
# Elastic Compliance Matrix: (Units=1/GPa)
#
#
# Indices 1 2 3 4 5 6 
#
# 1 0.034607 -0.007878 -0.019855 0.000000 -0.002917 0.000000
# 2 -0.007878 0.019598 -0.005944 0.000000 -0.008910 0.000000
# 3 -0.019855 -0.005944 0.032311 0.000000 0.014001 0.000000
# 4 0.000000 0.000000 0.000000 0.049820 0.000000 0.001620
# 5 -0.002917 -0.008910 0.014001 0.000000 0.033836 0.000000
# 6 0.000000 0.000000 0.000000 0.001620 0.000000 0.050541
#
#
# Mechanical properties :
#
#
# Convention : Reuss Voigt Hill
#
# Bulk Modulus (GPa) = 52.18419 52.62898 52.40658
# Shear Modulus (GPa) = 16.98057 22.51002 19.74530
#
# Velocity S-wave (km/s) = 3.11713 3.58894 3.36133
# Velocity P-wave (km/s) = 6.54338 6.87670 6.71211
#
# Compressibility (1/GPa) = 0.01916289
#
# Stress axis : x y z
#
# Youngs Moduli (GPa) = 28.89555 51.02445 30.94945
#
# Poissons Ratio (x) = 0.40195 0.61449
# Poissons Ratio (y) = 0.22763 0.18398
# Poissons Ratio (z) = 0.57371 0.30331
#
# Static dielectric constant tensor:
#      x y z
#    x 3.267830 0.000000 -0.159090 
#    y 0.000000 2.998190 0.000000 
#    z -0.159090 0.000000 3.337710 
# 
# 
# High freq. dielectric constant tensor:
#      x y z
#    x 1.676690 0.000000 -0.019950 
#    y 0.000000 1.647210 0.000000 
#    z -0.019950 0.000000 1.685460 
# 
# From -- ./inp_files/61591.got.cif
#   From: 2010.06.25/outbox.cif.g09.slc.cpg/sg11_31_cif.got.tgz:61591.got - 2010.06.27 23:14:04.
