data_PCOD8069545
_publ_section_title
;
Structure prediction by ZEFSAII (Michael W. Deem and Ramdas Pophale) SiO2 
 PCOD8069545
Probable space group: P 21/M
;
_chemical_formula_sum "Si O2"
_cell_formula_units_Z 32
_cell_length_a 12.098448
_cell_length_b 9.408619
_cell_length_c 15.286121
_cell_angle_alpha 90.000000
_cell_angle_beta 99.998943
_cell_angle_gamma 90.000000
_cell_volume 1713.585226
_symmetry_space_group_name_H-M "P 21/M"
_symmetry_group_IT_number 11
_symmetry_cell_setting 'monoclinic'
loop_
_space_group_symop_operation_xyz
x,y,z
-x,1/2+y,-z
-x,-y,-z
x,1/2-y,z
loop_
_atom_site_type_symbol
_atom_site_label
_atom_site_fract_x
_atom_site_fract_y
_atom_site_fract_z
Si Si1 0.314331 0.418200 0.402313
Si Si2 0.664107 0.081295 0.424611
Si Si3 0.473830 0.083154 0.268089
Si Si4 0.173990 0.088020 0.992822
Si Si5 0.914668 0.091573 0.434513
Si Si6 0.999004 0.085849 0.122380
Si Si7 0.919825 0.590205 0.689508
Si Si8 0.429842 0.080742 0.065075
O O1 0.326157 0.250000 0.422961
O O2 0.371886 0.501534 0.490972
O O3 0.371618 0.461118 0.318028
O O4 0.185184 0.475691 0.378449
O O5 0.651993 0.250000 0.437810
O O6 0.587278 0.031866 0.332439
O O7 0.789198 0.031029 0.416618
O O8 0.473595 0.250000 0.256432
O O9 0.463177 0.022329 0.167279
O O10 0.172456 0.250000 0.960545
O O11 0.120086 0.990763 0.910254
O O12 0.299660 0.040591 0.033100
O O13 0.093646 0.064095 0.063714
O O14 0.914779 0.250000 0.474062
O O15 0.961677 0.089172 0.343236
O O16 0.000000 0.000000 0.500000
O O17 0.968729 0.250000 0.133296
O O18 0.055144 0.013794 0.215492
O O19 0.878463 0.750000 0.704117
O O20 0.449821 0.250000 0.059390
O O21 0.500000 0.000000 0.000000
#
# Coordination Sequence:
#
# PCOD8069545 Si02
#       8
#     4   4   4   4   4   4   4   4
#     4  10  18  32  55  77 102 137 175 212 254 306
#     4  10  20  33  50  75 107 138 171 214 259 300
#     4   9  19  35  55  78 102 134 174 214 258 309
#     4   9  18  33  52  76 106 132 163 215 268 307
#     4  10  19  32  48  68  98 132 165 203 244 289
#     4   9  17  31  53  78 102 133 172 212 256 308
#     4   9  17  29  49  75  98 129 174 209 238 294
#     4  10  21  38  58  78 105 140 177 218 266 317
#
# _framework density 18.674299000000001
#
# number of rings (size 3 to 8) (size 9 to 14) (size 15 to 20)
#    0.000    2.500    1.250    1.125    0.000    4.500 
#    0.000    5.000    0.000    1.500    0.000    0.000 
#    0.000    0.000    0.000    0.000    0.000    0.000 
#
# Total GULP energy -396533.850785 kJ/mol
# GULP energy per Si atom -12391.682837 kJ/mol
# Density = 1.863180 g / cm^3
# Si number density = 18.674299 Si / 1000 Ang^3
#
#
#
# Elastic Constant Matrix: (Units=GPa)
#
#
# Indices 1 2 3 4 5 6 
#
# 1 116.0839 31.9979 64.5550 0.0000 15.4869 0.0000
# 2 31.9979 38.4686 37.8694 0.0000 5.3360 0.0000
# 3 64.5550 37.8694 136.7692 0.0000 16.1828 0.0000
# 4 0.0000 0.0000 0.0000 26.2170 0.0000 1.8452
# 5 15.4869 5.3360 16.1828 0.0000 28.7750 0.0000
# 6 0.0000 0.0000 0.0000 1.8452 0.0000 22.5881
#
#
#
# Elastic Compliance Matrix: (Units=1/GPa)
#
#
# Indices 1 2 3 4 5 6 
#
# 1 0.013083 -0.006493 -0.003950 0.000000 -0.003616 0.000000
# 2 -0.006493 0.038993 -0.007810 0.000000 0.000656 0.000000
# 3 -0.003950 -0.007810 0.011693 0.000000 -0.003002 0.000000
# 4 0.000000 0.000000 0.000000 0.038364 0.000000 -0.003134
# 5 -0.003616 0.000656 -0.003002 0.000000 0.038266 0.000000
# 6 0.000000 0.000000 0.000000 -0.003134 0.000000 0.044527
#
#
# Mechanical properties :
#
#
# Convention : Reuss Voigt Hill
#
# Bulk Modulus (GPa) = 36.67637 62.24070 49.45854
# Shear Modulus (GPa) = 21.69034 25.97599 23.83317
#
# Velocity S-wave (km/s) = 3.41179 3.73366 3.57635
# Velocity P-wave (km/s) = 5.93322 7.21033 6.60273
#
# Compressibility (1/GPa) = 0.02726551
#
# Stress axis : x y z
#
# Youngs Moduli (GPa) = 76.43561 25.64580 85.51853
#
# Poissons Ratio (x) = 0.16651 0.33776
# Poissons Ratio (y) = 0.49627 0.66786
# Poissons Ratio (z) = 0.30189 0.20028
#
# Static dielectric constant tensor:
#      x y z
#    x 3.693800 0.000000 0.097220 
#    y 0.000000 3.191910 0.000000 
#    z 0.097220 0.000000 3.712160 
# 
# 
# High freq. dielectric constant tensor:
#      x y z
#    x 1.734220 0.000000 0.006930 
#    y 0.000000 1.686850 0.000000 
#    z 0.006930 0.000000 1.731050 
# 
# From -- ./inp_files/49839.got.cif
#   From: 2010.06.25/outbox.cif.g09.slc.cpg/sg11_25_cif.got.tgz:49839.got - 2010.06.27 23:14:04.
