data_PCOD8069011
_publ_section_title
;
Structure prediction by ZEFSAII (Michael W. Deem and Ramdas Pophale) SiO2 
 PCOD8069011
Probable space group: P 21/M
;
_chemical_formula_sum "Si O2"
_cell_formula_units_Z 32
_cell_length_a 23.733559
_cell_length_b 9.039820
_cell_length_c 17.609549
_cell_angle_alpha 90.000000
_cell_angle_beta 149.066026
_cell_angle_gamma 90.000000
_cell_volume 1942.120681
_symmetry_space_group_name_H-M "P 21/M"
_symmetry_group_IT_number 11
_symmetry_cell_setting 'monoclinic'
loop_
_space_group_symop_operation_xyz
x,y,z
-x,1/2+y,-z
-x,-y,-z
x,1/2-y,z
loop_
_atom_site_type_symbol
_atom_site_label
_atom_site_fract_x
_atom_site_fract_y
_atom_site_fract_z
Si Si1 0.891030 0.080815 0.394078
Si Si2 0.520198 0.421991 0.444418
Si Si3 0.174562 0.575894 0.839600
Si Si4 0.300213 0.423296 0.109188
Si Si5 0.097204 0.422783 0.280194
Si Si6 0.853086 0.079256 0.948863
Si Si7 0.054143 0.924187 0.382256
Si Si8 0.238805 0.577824 0.321053
O O1 0.922338 0.250000 0.423290
O O2 0.803787 0.042993 0.225992
O O3 0.862807 0.045039 0.449659
O O4 0.000000 0.000000 0.500000
O O5 0.500000 0.500000 0.500000
O O6 0.522434 0.250000 0.466022
O O7 0.424778 0.462412 0.274841
O O8 0.635164 0.471791 0.541536
O O9 0.167250 0.750000 0.848405
O O10 0.062670 0.502190 0.740048
O O11 0.275938 0.506175 0.002087
O O12 0.282546 0.250000 0.077289
O O13 0.219355 0.476872 0.081444
O O14 0.112923 0.250000 0.312776
O O15 0.113327 0.507375 0.378085
O O16 0.190276 0.479136 0.331539
O O17 0.979475 0.459490 0.108220
O O18 0.826692 0.250000 0.937288
O O19 0.825999 0.041680 0.830899
O O20 0.034065 0.750000 0.347098
O O21 0.227967 0.750000 0.329860
#
# Coordination Sequence:
#
# PCOD8069011 Si02
#       8
#     4   4   4   4   4   4   4   4
#     4   8  16  28  44  67  96 129 163 196 236 289
#     4  10  21  36  54  74  96 126 167 212 252 292
#     4  10  18  30  47  70 101 133 164 200 242 291
#     4  11  21  31  49  76 101 130 167 205 247 293
#     4  11  22  33  48  74 103 132 167 204 243 293
#     4  10  20  34  51  70  98 132 165 202 246 291
#     4  10  18  30  48  71  99 132 165 199 242 291
#     4  10  21  37  53  69  94 132 171 207 249 292
#
# _framework density 16.476835000000001
#
# number of rings (size 3 to 8) (size 9 to 14) (size 15 to 20)
#    0.000    2.000    2.500    1.875    0.000    3.000 
#    0.000    0.000    0.000    0.000    0.000    0.875 
#    0.000    0.000    0.000    0.000    0.000    0.000 
#
# Total GULP energy -396655.074052 kJ/mol
# GULP energy per Si atom -12395.471064 kJ/mol
# Density = 1.643933 g / cm^3
# Si number density = 16.476835 Si / 1000 Ang^3
#
#
#
# Elastic Constant Matrix: (Units=GPa)
#
#
# Indices 1 2 3 4 5 6 
#
# 1 104.5229 53.8899 87.6940 0.0000 -18.5859 0.0000
# 2 53.8899 77.4097 51.8732 0.0000 -10.6996 0.0000
# 3 87.6940 51.8732 86.2176 0.0000 -12.9921 0.0000
# 4 0.0000 0.0000 0.0000 21.3841 0.0000 -4.1567
# 5 -18.5859 -10.6996 -12.9921 0.0000 30.0341 0.0000
# 6 0.0000 0.0000 0.0000 -4.1567 0.0000 23.3989
#
#
#
# Elastic Compliance Matrix: (Units=1/GPa)
#
#
# Indices 1 2 3 4 5 6 
#
# 1 0.069967 -0.000879 -0.068633 0.000000 0.013295 0.000000
# 2 -0.000879 0.021796 -0.011907 0.000000 0.002070 0.000000
# 3 -0.068633 -0.011907 0.087217 0.000000 -0.008986 0.000000
# 4 0.000000 0.000000 0.000000 0.048436 0.000000 0.008605
# 5 0.013295 0.002070 -0.008986 0.000000 0.038373 0.000000
# 6 0.000000 0.000000 0.000000 0.008605 0.000000 0.044266
#
#
# Mechanical properties :
#
#
# Convention : Reuss Voigt Hill
#
# Bulk Modulus (GPa) = 61.95472 72.78494 67.36983
# Shear Modulus (GPa) = 10.45425 19.94296 15.19860
#
# Velocity S-wave (km/s) = 2.52162 3.48280 3.04044
# Velocity P-wave (km/s) = 6.79418 7.77452 7.30082
#
# Compressibility (1/GPa) = 0.01614082
#
# Stress axis : x y z
#
# Youngs Moduli (GPa) = 14.29235 45.88068 11.46569
#
# Poissons Ratio (x) = 0.04035 0.78693
# Poissons Ratio (y) = 0.01257 0.13652
# Poissons Ratio (z) = 0.98093 0.54630
#
# Static dielectric constant tensor:
#      x y z
#    x 3.150040 0.000000 -0.470380 
#    y 0.000000 3.169410 0.000000 
#    z -0.470380 0.000000 3.408010 
# 
# 
# High freq. dielectric constant tensor:
#      x y z
#    x 1.616910 0.000000 -0.029240 
#    y 0.000000 1.646380 0.000000 
#    z -0.029240 0.000000 1.624700 
# 
# From -- ./inp_files/43788.got.cif
#   From: 2010.06.25/outbox.cif.g09.slc.cpg/sg11_22_cif.got.tgz:43788.got - 2010.06.27 23:14:04.
