data_PCOD8069920
_publ_section_title
;
Structure prediction by ZEFSAII (Michael W. Deem and Ramdas Pophale) SiO2 
 PCOD8069920
Probable space group: P 21/M
;
_chemical_formula_sum "Si O2"
_cell_formula_units_Z 32
_cell_length_a 13.530710
_cell_length_b 9.405462
_cell_length_c 18.251867
_cell_angle_alpha 90.000000
_cell_angle_beta 70.013171
_cell_angle_gamma 90.000000
_cell_volume 2182.881473
_symmetry_space_group_name_H-M "P 21/M"
_symmetry_group_IT_number 11
_symmetry_cell_setting 'monoclinic'
loop_
_space_group_symop_operation_xyz
x,y,z
-x,1/2+y,-z
-x,-y,-z
x,1/2-y,z
loop_
_atom_site_type_symbol
_atom_site_label
_atom_site_fract_x
_atom_site_fract_y
_atom_site_fract_z
Si Si1 0.954104 0.588905 0.918556
Si Si2 0.758333 0.413661 0.227183
Si Si3 0.845353 0.913804 0.544998
Si Si4 0.150608 0.412920 0.915104
Si Si5 0.365570 0.085513 0.477842
Si Si6 0.399502 0.915665 0.611246
Si Si7 0.020328 0.584418 0.382718
Si Si8 0.978576 0.090069 0.250849
O O1 0.999425 0.750000 0.920956
O O2 0.037172 0.469187 0.919332
O O3 0.933946 0.573510 0.836297
O O4 0.848678 0.569508 0.995607
O O5 0.746642 0.250000 0.209080
O O6 0.758715 0.499703 0.150167
O O7 0.658966 0.465976 0.300198
O O8 0.864083 0.442888 0.246227
O O9 0.856818 0.750000 0.565675
O O10 0.725442 0.954007 0.556510
O O11 0.915728 0.946260 0.455877
O O12 0.879985 0.010438 0.604145
O O13 0.163246 0.250000 0.888390
O O14 0.358479 0.250000 0.502156
O O15 0.476991 0.049166 0.411756
O O16 0.349201 0.996638 0.555534
O O17 0.378847 0.750000 0.602426
O O18 0.044972 0.750000 0.369422
O O19 0.004549 0.522202 0.306392
O O20 0.980970 0.250000 0.282860
#
# Coordination Sequence:
#
# PCOD8069920 Si02
#       8
#     4   4   4   4   4   4   4   4
#     4   8  15  26  37  52  76 105 133 159 192 233
#     4   9  17  27  38  55  81 110 135 159 192 233
#     4   9  18  31  43  55  76 104 130 160 197 232
#     4   9  15  23  37  55  75 102 135 165 190 222
#     4   9  17  29  44  60  78 102 133 166 197 231
#     4   9  17  28  42  60  81 105 132 162 196 233
#     4  10  19  28  40  59  78  98 130 166 195 228
#     4   9  16  26  39  54  77 107 132 156 189 228
#
# _framework density 14.659522000000001
#
# number of rings (size 3 to 8) (size 9 to 14) (size 15 to 20)
#    0.000    3.000    0.000    2.250    0.000    4.000 
#    0.000    0.000    0.000    0.000    0.000    0.000 
#    0.000    1.000    0.000    2.000    0.000    3.000 
#
# Total GULP energy -396581.012205 kJ/mol
# GULP energy per Si atom -12393.156631 kJ/mol
# Density = 1.462616 g / cm^3
# Si number density = 14.659522 Si / 1000 Ang^3
#
#
#
# Elastic Constant Matrix: (Units=GPa)
#
#
# Indices 1 2 3 4 5 6 
#
# 1 53.0784 27.4831 31.1150 0.0000 -1.9978 0.0000
# 2 27.4831 65.0259 47.5884 0.0000 -0.7393 0.0000
# 3 31.1150 47.5884 109.7501 0.0000 -11.9200 0.0000
# 4 0.0000 0.0000 0.0000 27.8219 0.0000 1.9663
# 5 -1.9978 -0.7393 -11.9200 0.0000 17.5466 0.0000
# 6 0.0000 0.0000 0.0000 1.9663 0.0000 16.4615
#
#
#
# Elastic Compliance Matrix: (Units=1/GPa)
#
#
# Indices 1 2 3 4 5 6 
#
# 1 0.025096 -0.007912 -0.003682 0.000000 0.000023 0.000000
# 2 -0.007912 0.025651 -0.009566 0.000000 -0.006318 0.000000
# 3 -0.003682 -0.009566 0.015346 0.000000 0.009603 0.000000
# 4 0.000000 0.000000 0.000000 0.036249 0.000000 -0.004330
# 5 0.000023 -0.006318 0.009603 0.000000 0.063251 0.000000
# 6 0.000000 0.000000 0.000000 -0.004330 0.000000 0.061265
#
#
# Mechanical properties :
#
#
# Convention : Reuss Voigt Hill
#
# Bulk Modulus (GPa) = 42.06205 48.91415 45.48810
# Shear Modulus (GPa) = 18.04389 20.47718 19.26053
#
# Velocity S-wave (km/s) = 3.51217 3.74150 3.62865
# Velocity P-wave (km/s) = 6.72325 7.21834 6.97519
#
# Compressibility (1/GPa) = 0.02377440
#
# Stress axis : x y z
#
# Youngs Moduli (GPa) = 39.84713 38.98451 65.16307
#
# Poissons Ratio (x) = 0.30845 0.23991
# Poissons Ratio (y) = 0.31528 0.62333
# Poissons Ratio (z) = 0.14670 0.37291
#
# Static dielectric constant tensor:
#      x y z
#    x 2.570060 0.000000 -0.145770 
#    y 0.000000 2.923980 0.000000 
#    z -0.145770 0.000000 3.129840 
# 
# 
# High freq. dielectric constant tensor:
#      x y z
#    x 1.508790 0.000000 -0.009430 
#    y 0.000000 1.570250 0.000000 
#    z -0.009430 0.000000 1.564660 
# 
# From -- ./inp_files/52960.got.cif
#   From: 2010.06.25/outbox.cif.g09.slc.cpg/sg11_27_cif.got.tgz:52960.got - 2010.06.27 23:14:04.
