data_PCOD8069193
_publ_section_title
;
Structure prediction by ZEFSAII (Michael W. Deem and Ramdas Pophale) SiO2 
 PCOD8069193
Probable space group: P 21/M
;
_chemical_formula_sum "Si O2"
_cell_formula_units_Z 28
_cell_length_a 20.436428
_cell_length_b 9.217758
_cell_length_c 14.779611
_cell_angle_alpha 90.000000
_cell_angle_beta 32.431449
_cell_angle_gamma 90.000000
_cell_volume 1493.114526
_symmetry_space_group_name_H-M "P 21/M"
_symmetry_group_IT_number 11
_symmetry_cell_setting 'monoclinic'
loop_
_space_group_symop_operation_xyz
x,y,z
-x,1/2+y,-z
-x,-y,-z
x,1/2-y,z
loop_
_atom_site_type_symbol
_atom_site_label
_atom_site_fract_x
_atom_site_fract_y
_atom_site_fract_z
Si Si1 0.310883 0.077817 0.979644
Si Si2 0.930136 0.077480 0.243856
Si Si3 0.126821 0.418121 0.347676
Si Si4 0.556061 0.916232 0.710657
Si Si5 0.257144 0.080845 0.658737
Si Si6 0.785705 0.583396 0.558426
Si Si7 0.793776 0.579505 0.084135
O O1 0.322184 0.250000 0.968214
O O2 0.205965 0.024949 0.170902
O O3 0.277661 0.014675 0.918955
O O4 0.439668 0.015821 0.860920
O O5 0.918833 0.250000 0.254406
O O6 0.854984 0.011167 0.248638
O O7 0.881271 0.020280 0.396765
O O8 0.068299 0.021448 0.072536
O O9 0.095666 0.250000 0.372643
O O10 0.206628 0.447401 0.344178
O O11 0.000000 0.500000 0.500000
O O12 0.513830 0.750000 0.761564
O O13 0.620128 0.954231 0.539896
O O14 0.649054 0.950748 0.683893
O O15 0.222417 0.250000 0.689406
O O16 0.276650 0.037665 0.741067
O O17 0.818384 0.750000 0.496364
O O18 0.799033 0.750000 0.064027
#
# Coordination Sequence:
#
# PCOD8069193 Si02
#       7
#     4   4   4   4   4   4   4
#     4  10  21  36  53  75 104 135 171 215 257 298
#     4  10  18  30  52  81 106 129 169 218 257 300
#     4  10  21  37  57  81 107 136 168 206 255 308
#     4   9  19  35  52  72  99 134 177 215 250 300
#     4   9  18  34  53  72 102 141 172 204 255 312
#     4   9  19  36  55  74 104 142 171 203 256 312
#     4   9  18  32  50  73 104 140 170 206 260 309
#
# _framework density 18.752748
#
# number of rings (size 3 to 8) (size 9 to 14) (size 15 to 20)
#    0.000    2.571    0.000    2.571    0.000    5.714 
#    0.000    2.857    0.000    0.000    0.000    0.000 
#    0.000    0.000    0.000    0.000    0.000    0.000 
#
# Total GULP energy -347197.456795 kJ/mol
# GULP energy per Si atom -12399.909171 kJ/mol
# Density = 1.871007 g / cm^3
# Si number density = 18.752748 Si / 1000 Ang^3
#
#
#
# Elastic Constant Matrix: (Units=GPa)
#
#
# Indices 1 2 3 4 5 6 
#
# 1 129.2947 35.1600 72.9627 0.0000 13.2093 0.0000
# 2 35.1600 46.6449 41.7779 0.0000 -3.3632 0.0000
# 3 72.9627 41.7779 121.7658 0.0000 -4.7849 0.0000
# 4 0.0000 0.0000 0.0000 27.8418 0.0000 -6.0522
# 5 13.2093 -3.3632 -4.7849 0.0000 31.6464 0.0000
# 6 0.0000 0.0000 0.0000 -6.0522 0.0000 24.9471
#
#
#
# Elastic Compliance Matrix: (Units=1/GPa)
#
#
# Indices 1 2 3 4 5 6 
#
# 1 0.013587 -0.004642 -0.006832 0.000000 -0.007198 0.000000
# 2 -0.004642 0.032626 -0.008249 0.000000 0.004157 0.000000
# 3 -0.006832 -0.008249 0.015305 0.000000 0.004289 0.000000
# 4 0.000000 0.000000 0.000000 0.037917 0.000000 0.009199
# 5 -0.007198 0.004157 0.004289 0.000000 0.035694 0.000000
# 6 0.000000 0.000000 0.000000 0.009199 0.000000 0.042317
#
#
# Mechanical properties :
#
#
# Convention : Reuss Voigt Hill
#
# Bulk Modulus (GPa) = 45.30543 66.38962 55.84752
# Shear Modulus (GPa) = 22.29681 26.74070 24.51875
#
# Velocity S-wave (km/s) = 3.45191 3.78029 3.61983
# Velocity P-wave (km/s) = 6.33241 7.38468 6.87870
#
# Compressibility (1/GPa) = 0.02207241
#
# Stress axis : x y z
#
# Youngs Moduli (GPa) = 73.59938 30.65080 65.33853
#
# Poissons Ratio (x) = 0.14227 0.44637
# Poissons Ratio (y) = 0.34163 0.53899
# Poissons Ratio (z) = 0.50281 0.25284
#
# Static dielectric constant tensor:
#      x y z
#    x 3.675830 0.000000 0.186970 
#    y 0.000000 3.235170 0.000000 
#    z 0.186970 0.000000 3.408800 
# 
# 
# High freq. dielectric constant tensor:
#      x y z
#    x 1.736930 0.000000 0.008100 
#    y 0.000000 1.708510 0.000000 
#    z 0.008100 0.000000 1.725870 
# 
# From -- ./inp_files/37798.got.cif
#   From: 2010.06.25/outbox.cif.g09.slc.cpg/sg11_19_cif.got.tgz:37798.got - 2010.06.27 23:14:04.
