data_PCOD8069847
_publ_section_title
;
Structure prediction by ZEFSAII (Michael W. Deem and Ramdas Pophale) SiO2 
 PCOD8069847
Probable space group: P 21/M
;
_chemical_formula_sum "Si O2"
_cell_formula_units_Z 28
_cell_length_a 8.166629
_cell_length_b 15.357786
_cell_length_c 11.733172
_cell_angle_alpha 90.000000
_cell_angle_beta 105.885486
_cell_angle_gamma 90.000000
_cell_volume 1415.391129
_symmetry_space_group_name_H-M "P 21/M"
_symmetry_group_IT_number 11
_symmetry_cell_setting 'monoclinic'
loop_
_space_group_symop_operation_xyz
x,y,z
-x,1/2+y,-z
-x,-y,-z
x,1/2-y,z
loop_
_atom_site_type_symbol
_atom_site_label
_atom_site_fract_x
_atom_site_fract_y
_atom_site_fract_z
Si Si1 0.646102 0.598141 0.600725
Si Si2 0.405028 0.346544 0.167394
Si Si3 0.519386 0.413340 0.659042
Si Si4 0.883517 0.152387 0.748341
Si Si5 0.120071 0.073200 0.971049
Si Si6 0.675864 0.493050 0.191685
Si Si7 0.013489 0.012898 0.370971
O O1 0.599930 0.661818 0.695930
O O2 0.565860 0.506571 0.618719
O O3 0.574446 0.634589 0.465804
O O4 0.848707 0.586320 0.631361
O O5 0.446971 0.250000 0.127678
O O6 0.543508 0.414870 0.147169
O O7 0.218488 0.377060 0.090179
O O8 0.682259 0.359751 0.733974
O O9 0.398726 0.427499 0.745857
O O10 0.914296 0.250000 0.708134
O O11 0.942867 0.082694 0.667555
O O12 0.994928 0.140054 0.883362
O O13 0.264854 0.031812 0.917380
O O14 0.000000 0.000000 0.000000
O O15 0.837441 0.451791 0.287007
O O16 0.000000 0.000000 0.500000
#
# Coordination Sequence:
#
# PCOD8069847 Si02
#       7
#     4   4   4   4   4   4   4
#     4   9  18  34  57  83 115 155 192 227 286 360
#     4  11  23  38  58  88 124 154 190 250 304 342
#     4   9  17  34  58  84 112 150 195 235 285 355
#     4  10  22  37  57  86 117 152 196 254 301 334
#     4  11  22  42  64  85 112 158 210 241 289 364
#     4  10  20  37  62  87 113 154 207 240 286 356
#     4  10  18  35  60  84 114 158 198 234 283 360
#
# _framework density 19.782516000000001
#
# number of rings (size 3 to 8) (size 9 to 14) (size 15 to 20)
#    0.000    2.000    1.429    4.286    2.000    0.571 
#    0.000    9.286    0.000    0.000    0.000    0.000 
#    0.000    0.000    0.000    0.000    0.000    0.000 
#
# Total GULP energy -347095.885469 kJ/mol
# GULP energy per Si atom -12396.281624 kJ/mol
# Density = 1.973749 g / cm^3
# Si number density = 19.782516 Si / 1000 Ang^3
#
#
#
# Elastic Constant Matrix: (Units=GPa)
#
#
# Indices 1 2 3 4 5 6 
#
# 1 112.2111 29.9183 46.9165 0.0000 13.1707 0.0000
# 2 29.9183 80.6717 30.7951 0.0000 12.1298 0.0000
# 3 46.9165 30.7951 104.3514 0.0000 9.1652 0.0000
# 4 0.0000 0.0000 0.0000 15.4967 0.0000 -0.5807
# 5 13.1707 12.1298 9.1652 0.0000 38.0794 0.0000
# 6 0.0000 0.0000 0.0000 -0.5807 0.0000 7.0738
#
#
#
# Elastic Compliance Matrix: (Units=1/GPa)
#
#
# Indices 1 2 3 4 5 6 
#
# 1 0.011604 -0.002312 -0.004339 0.000000 -0.002233 0.000000
# 2 -0.002312 0.014911 -0.003079 0.000000 -0.003209 0.000000
# 3 -0.004339 -0.003079 0.012489 0.000000 -0.000524 0.000000
# 4 0.000000 0.000000 0.000000 0.064729 0.000000 0.005313
# 5 -0.002233 -0.003209 -0.000524 0.000000 0.028182 0.000000
# 6 0.000000 0.000000 0.000000 0.005313 0.000000 0.141802
#
#
# Mechanical properties :
#
#
# Convention : Reuss Voigt Hill
#
# Bulk Modulus (GPa) = 51.16558 56.94379 54.05469
# Shear Modulus (GPa) = 16.68382 24.77028 20.72705
#
# Velocity S-wave (km/s) = 2.90722 3.54238 3.24040
# Velocity P-wave (km/s) = 6.09831 6.75120 6.43304
#
# Compressibility (1/GPa) = 0.01954439
#
# Stress axis : x y z
#
# Youngs Moduli (GPa) = 86.17428 67.06375 80.07293
#
# Poissons Ratio (x) = 0.15502 0.34744
# Poissons Ratio (y) = 0.19920 0.24657
# Poissons Ratio (z) = 0.37392 0.20651
#
# Static dielectric constant tensor:
#      x y z
#    x 3.972280 0.000000 0.240520 
#    y 0.000000 3.418550 0.000000 
#    z 0.240520 0.000000 3.995770 
# 
# 
# High freq. dielectric constant tensor:
#      x y z
#    x 1.779130 0.000000 0.013360 
#    y 0.000000 1.734150 0.000000 
#    z 0.013360 0.000000 1.784870 
# 
# From -- ./inp_files/31726.got.cif
#   From: 2010.06.25/outbox.cif.g09.slc.cpg/sg11_16_cif.got.tgz:31726.got - 2010.06.27 23:14:04.
