data_PCOD8069446
_publ_section_title
;
Structure prediction by ZEFSAII (Michael W. Deem and Ramdas Pophale) SiO2 
 PCOD8069446
Probable space group: P 21/M
;
_chemical_formula_sum "Si O2"
_cell_formula_units_Z 32
_cell_length_a 27.082071
_cell_length_b 9.077262
_cell_length_c 9.717975
_cell_angle_alpha 90.000000
_cell_angle_beta 135.345497
_cell_angle_gamma 90.000000
_cell_volume 1679.046970
_symmetry_space_group_name_H-M "P 21/M"
_symmetry_group_IT_number 11
_symmetry_cell_setting 'monoclinic'
loop_
_space_group_symop_operation_xyz
x,y,z
-x,1/2+y,-z
-x,-y,-z
x,1/2-y,z
loop_
_atom_site_type_symbol
_atom_site_label
_atom_site_fract_x
_atom_site_fract_y
_atom_site_fract_z
Si Si1 0.311246 0.424660 0.721315
Si Si2 0.843082 0.924699 0.647844
Si Si3 0.560221 0.575175 0.208848
Si Si4 0.836094 0.919674 0.182423
Si Si5 0.559621 0.924843 0.528015
Si Si6 0.090963 0.080096 0.946019
Si Si7 0.686340 0.574913 0.966558
Si Si8 0.053856 0.076459 0.388519
O O1 0.306622 0.250000 0.712501
O O2 0.234326 0.491376 0.534453
O O3 0.366367 0.476840 0.714528
O O4 0.334934 0.478345 0.921392
O O5 0.836324 0.750000 0.643915
O O6 0.898211 0.973881 0.643022
O O7 0.874741 0.990393 0.850710
O O8 0.551032 0.750000 0.180355
O O9 0.558112 0.523854 0.364790
O O10 0.500000 0.500000 0.000000
O O11 0.831372 0.750000 0.218719
O O12 0.847907 0.939718 0.044736
O O13 0.904051 0.984705 0.395387
O O14 0.762490 0.994469 0.079843
O O15 0.550523 0.750000 0.519149
O O16 0.631733 0.979034 0.742512
O O17 0.500000 0.000000 0.500000
O O18 0.070748 0.250000 0.927123
O O19 0.021136 0.997986 0.764098
O O20 0.689973 0.750000 0.968530
O O21 0.040962 0.250000 0.365956
#
# Coordination Sequence:
#
# PCOD8069446 Si02
#       8
#     4   4   4   4   4   4   4   4
#     4   9  16  29  50  75 101 130 169 215 255 294
#     4   9  17  29  47  72  98 126 164 209 252 293
#     4  10  21  35  55  83 111 140 174 213 259 311
#     4   9  17  29  47  72  98 126 164 209 252 293
#     4  10  21  35  55  83 111 140 174 213 259 311
#     4  10  20  30  46  72  99 124 158 210 259 294
#     4   9  16  29  50  75 101 130 169 215 255 294
#     4  10  18  32  50  68  93 130 168 200 245 306
#
# _framework density 19.058432
#
# number of rings (size 3 to 8) (size 9 to 14) (size 15 to 20)
#    0.000    2.500    1.250    1.500    1.750    1.500 
#    0.000    0.000    0.000    3.000    0.000    0.000 
#    0.000    0.000    0.000    0.000    0.000    0.000 
#
# Total GULP energy -396622.513258 kJ/mol
# GULP energy per Si atom -12394.453539 kJ/mol
# Density = 1.901505 g / cm^3
# Si number density = 19.058432 Si / 1000 Ang^3
#
#
#
# Elastic Constant Matrix: (Units=GPa)
#
#
# Indices 1 2 3 4 5 6 
#
# 1 117.4296 22.5166 59.2300 0.0000 2.9644 0.0000
# 2 22.5166 17.2090 18.9409 0.0000 -0.1550 0.0000
# 3 59.2300 18.9409 150.1158 0.0000 -3.7219 0.0000
# 4 0.0000 0.0000 0.0000 22.1018 0.0000 2.6246
# 5 2.9644 -0.1550 -3.7219 0.0000 35.9866 0.0000
# 6 0.0000 0.0000 0.0000 2.6246 0.0000 16.0872
#
#
#
# Elastic Compliance Matrix: (Units=1/GPa)
#
#
# Indices 1 2 3 4 5 6 
#
# 1 0.012769 -0.012931 -0.003443 0.000000 -0.001464 0.000000
# 2 -0.012931 0.080588 -0.005044 0.000000 0.000890 0.000000
# 3 -0.003443 -0.005044 0.008685 0.000000 0.001160 0.000000
# 4 0.000000 0.000000 0.000000 0.046139 0.000000 -0.007528
# 5 -0.001464 0.000890 0.001160 0.000000 0.028032 0.000000
# 6 0.000000 0.000000 0.000000 -0.007528 0.000000 0.063389
#
#
# Mechanical properties :
#
#
# Convention : Reuss Voigt Hill
#
# Bulk Modulus (GPa) = 16.89007 54.01439 35.45223
# Shear Modulus (GPa) = 16.54683 27.10626 21.82654
#
# Velocity S-wave (km/s) = 2.94975 3.77539 3.38782
# Velocity P-wave (km/s) = 4.52580 6.88533 5.82626
#
# Compressibility (1/GPa) = 0.05920637
#
# Stress axis : x y z
#
# Youngs Moduli (GPa) = 78.31741 12.40883 115.13940
#
# Poissons Ratio (x) = 0.16045 0.39640
# Poissons Ratio (y) = 1.01269 0.58078
# Poissons Ratio (z) = 0.26963 0.06259
#
# Static dielectric constant tensor:
#      x y z
#    x 3.681900 0.000000 -0.055420 
#    y 0.000000 2.887050 0.000000 
#    z -0.055420 0.000000 3.859310 
# 
# 
# High freq. dielectric constant tensor:
#      x y z
#    x 1.757250 0.000000 -0.003300 
#    y 0.000000 1.671000 0.000000 
#    z -0.003300 0.000000 1.760490 
# 
# From -- ./inp_files/27509.got.cif
#   From: 2010.06.25/outbox.cif.g09.slc.cpg/sg11_14_cif.got.tgz:27509.got - 2010.06.27 23:14:04.
