data_PCOD8069479
_publ_section_title
;
Structure prediction by ZEFSAII (Michael W. Deem and Ramdas Pophale) SiO2 
 PCOD8069479
Probable space group: P 21/M
;
_chemical_formula_sum "Si O2"
_cell_formula_units_Z 28
_cell_length_a 21.006115
_cell_length_b 9.022336
_cell_length_c 15.658376
_cell_angle_alpha 90.000000
_cell_angle_beta 152.105170
_cell_angle_gamma 90.000000
_cell_volume 1388.411329
_symmetry_space_group_name_H-M "P 21/M"
_symmetry_group_IT_number 11
_symmetry_cell_setting 'monoclinic'
loop_
_space_group_symop_operation_xyz
x,y,z
-x,1/2+y,-z
-x,-y,-z
x,1/2-y,z
loop_
_atom_site_type_symbol
_atom_site_label
_atom_site_fract_x
_atom_site_fract_y
_atom_site_fract_z
Si Si1 0.504983 0.573716 0.097420
Si Si2 0.239671 0.919568 0.521255
Si Si3 0.275351 0.584874 0.950961
Si Si4 0.729179 0.079043 0.635316
Si Si5 0.551221 0.418249 0.672799
Si Si6 0.943097 0.923120 0.214357
Si Si7 0.783742 0.925649 0.859845
O O1 0.505486 0.750000 0.090243
O O2 0.640539 0.526798 0.307907
O O3 0.500000 0.500000 0.000000
O O4 0.371406 0.517946 0.990456
O O5 0.281881 0.750000 0.591351
O O6 0.204850 0.937431 0.379883
O O7 0.102352 0.963267 0.409363
O O8 0.231402 0.750000 0.873106
O O9 0.136187 0.493067 0.799018
O O10 0.357601 0.583416 0.135424
O O11 0.709794 0.250000 0.637188
O O12 0.586106 0.996932 0.463455
O O13 0.827794 0.000115 0.822016
O O14 0.524779 0.250000 0.609393
O O15 0.629748 0.513869 0.693704
O O16 0.917752 0.750000 0.189419
O O17 0.883956 0.980626 0.053478
O O18 0.782738 0.750000 0.849422
#
# Coordination Sequence:
#
# PCOD8069479 Si02
#       7
#     4   4   4   4   4   4   4
#     4  11  23  41  65  94 120 145 183 231 286 346
#     4  10  22  40  60  85 117 152 191 238 288 340
#     4   9  19  36  59  86 115 147 187 234 282 337
#     4  11  21  32  50  77 112 151 193 238 286 333
#     4  10  18  32  52  76 109 146 191 240 286 333
#     4   9  20  38  59  83 115 155 197 236 281 337
#     4  10  20  33  50  76 111 152 196 239 283 331
#
# _framework density 20.166934999999999
#
# number of rings (size 3 to 8) (size 9 to 14) (size 15 to 20)
#    0.000    2.000    1.429    2.143    0.000    4.000 
#    0.000    0.714    0.000    0.000    0.000    0.000 
#    0.000    0.000    0.000    0.000    0.000    0.000 
#
# Total GULP energy -347175.801357 kJ/mol
# GULP energy per Si atom -12399.135763 kJ/mol
# Density = 2.012103 g / cm^3
# Si number density = 20.166935 Si / 1000 Ang^3
#
#
#
# Elastic Constant Matrix: (Units=GPa)
#
#
# Indices 1 2 3 4 5 6 
#
# 1 132.5066 54.3714 44.9002 0.0000 13.4515 0.0000
# 2 54.3714 97.1540 28.7297 0.0000 5.7992 0.0000
# 3 44.9002 28.7297 43.0427 0.0000 8.1297 0.0000
# 4 0.0000 0.0000 0.0000 24.9942 0.0000 -2.1802
# 5 13.4515 5.7992 8.1297 0.0000 26.6132 0.0000
# 6 0.0000 0.0000 0.0000 -2.1802 0.0000 33.3863
#
#
#
# Elastic Compliance Matrix: (Units=1/GPa)
#
#
# Indices 1 2 3 4 5 6 
#
# 1 0.012971 -0.004047 -0.010356 0.000000 -0.002511 0.000000
# 2 -0.004047 0.014088 -0.005293 0.000000 0.000593 0.000000
# 3 -0.010356 -0.005293 0.038588 0.000000 -0.005400 0.000000
# 4 0.000000 0.000000 0.000000 0.040239 0.000000 0.002628
# 5 -0.002511 0.000593 -0.005400 0.000000 0.040365 0.000000
# 6 0.000000 0.000000 0.000000 0.002628 0.000000 0.030124
#
#
# Mechanical properties :
#
#
# Convention : Reuss Voigt Hill
#
# Bulk Modulus (GPa) = 38.08742 58.74511 48.41626
# Shear Modulus (GPa) = 22.26986 26.64554 24.45770
#
# Velocity S-wave (km/s) = 3.32667 3.63884 3.48625
# Velocity P-wave (km/s) = 5.80368 6.84453 6.34548
#
# Compressibility (1/GPa) = 0.02625539
#
# Stress axis : x y z
#
# Youngs Moduli (GPa) = 77.09283 70.98320 25.91463
#
# Poissons Ratio (x) = 0.28728 0.26836
# Poissons Ratio (y) = 0.31201 0.13718
# Poissons Ratio (z) = 0.79834 0.37574
#
# Static dielectric constant tensor:
#      x y z
#    x 3.869300 0.000000 0.023950 
#    y 0.000000 3.759670 0.000000 
#    z 0.023950 0.000000 3.462690 
# 
# 
# High freq. dielectric constant tensor:
#      x y z
#    x 1.790990 0.000000 0.004110 
#    y 0.000000 1.787820 0.000000 
#    z 0.004110 0.000000 1.767460 
# 
# From -- ./inp_files/37637.got.cif
#   From: 2010.06.25/outbox.cif.g09.slc.cpg/sg11_19_cif.got.tgz:37637.got - 2010.06.27 23:14:04.
