data_PCOD8069969
_publ_section_title
;
Structure prediction by ZEFSAII (Michael W. Deem and Ramdas Pophale) SiO2 
 PCOD8069969
Probable space group: P 21/M
;
_chemical_formula_sum "Si O2"
_cell_formula_units_Z 32
_cell_length_a 31.147171
_cell_length_b 8.997739
_cell_length_c 20.763084
_cell_angle_alpha 90.000000
_cell_angle_beta 20.037251
_cell_angle_gamma 90.000000
_cell_volume 1993.749226
_symmetry_space_group_name_H-M "P 21/M"
_symmetry_group_IT_number 11
_symmetry_cell_setting 'monoclinic'
loop_
_space_group_symop_operation_xyz
x,y,z
-x,1/2+y,-z
-x,-y,-z
x,1/2-y,z
loop_
_atom_site_type_symbol
_atom_site_label
_atom_site_fract_x
_atom_site_fract_y
_atom_site_fract_z
Si Si1 0.508194 0.575792 0.557137
Si Si2 0.929367 0.919281 0.503343
Si Si3 0.107141 0.578826 0.809509
Si Si4 0.985995 0.578863 0.733422
Si Si5 0.710557 0.917400 0.065352
Si Si6 0.255794 0.580625 0.720386
Si Si7 0.002471 0.076122 0.844785
Si Si8 0.154525 0.080531 0.246987
O O1 0.500000 0.500000 0.500000
O O2 0.509205 0.750000 0.545006
O O3 0.388812 0.533473 0.768129
O O4 0.634067 0.529416 0.415954
O O5 0.934318 0.750000 0.471945
O O6 0.819270 0.941426 0.712893
O O7 0.916001 0.024361 0.459761
O O8 0.056301 0.957333 0.362523
O O9 0.071592 0.750000 0.849730
O O10 0.232757 0.563348 0.675740
O O11 0.113413 0.500091 0.730867
O O12 0.000000 0.500000 0.000000
O O13 0.012175 0.750000 0.711581
O O14 0.011289 0.483942 0.760739
O O15 0.844935 0.550805 0.908281
O O16 0.666066 0.750000 0.144658
O O17 0.721625 0.938771 0.972018
O O18 0.294284 0.750000 0.682322
O O19 0.132768 0.536533 0.934549
O O20 0.027395 0.250000 0.809809
O O21 0.102901 0.250000 0.307986
#
# Coordination Sequence:
#
# PCOD8069969 Si02
#       8
#     4   4   4   4   4   4   4   4
#     4  12  24  34  46  63  85 115 150 186 221 254
#     4   9  15  24  40  61  84 110 141 176 213 255
#     4   9  17  30  48  67  86 110 140 176 217 261
#     4  10  19  29  42  62  89 120 149 177 215 260
#     4   9  18  32  46  60  83 115 150 185 217 253
#     4   9  19  34  49  64  84 112 146 181 217 256
#     4  10  19  30  46  67  89 114 144 179 218 260
#     4   8  15  27  42  59  80 110 144 176 214 257
#
# _framework density 16.050162
#
# number of rings (size 3 to 8) (size 9 to 14) (size 15 to 20)
#    0.000    2.500    0.000    4.875    0.000    8.000 
#    0.000    0.000    0.000    0.000    0.000    0.000 
#    0.000    1.000    0.000    3.000    0.000    4.250 
#
# Total GULP energy -396556.269830 kJ/mol
# GULP energy per Si atom -12392.383432 kJ/mol
# Density = 1.601363 g / cm^3
# Si number density = 16.050162 Si / 1000 Ang^3
#
#
#
# Elastic Constant Matrix: (Units=GPa)
#
#
# Indices 1 2 3 4 5 6 
#
# 1 114.7869 53.7080 43.9918 0.0000 16.8167 0.0000
# 2 53.7080 104.0812 35.3845 0.0000 4.4332 0.0000
# 3 43.9918 35.3845 47.8379 0.0000 13.5902 0.0000
# 4 0.0000 0.0000 0.0000 20.4945 0.0000 2.3008
# 5 16.8167 4.4332 13.5902 0.0000 23.0638 0.0000
# 6 0.0000 0.0000 0.0000 2.3008 0.0000 30.8033
#
#
#
# Elastic Compliance Matrix: (Units=1/GPa)
#
#
# Indices 1 2 3 4 5 6 
#
# 1 0.014979 -0.004406 -0.009192 0.000000 -0.004658 0.000000
# 2 -0.004406 0.014408 -0.008085 0.000000 0.005207 0.000000
# 3 -0.009192 -0.008085 0.039625 0.000000 -0.015092 0.000000
# 4 0.000000 0.000000 0.000000 0.049206 0.000000 -0.003675
# 5 -0.004658 0.005207 -0.015092 0.000000 0.054647 0.000000
# 6 0.000000 0.000000 0.000000 -0.003675 0.000000 0.032739
#
#
# Mechanical properties :
#
#
# Convention : Reuss Voigt Hill
#
# Bulk Modulus (GPa) = 38.99289 59.20830 49.10059
# Shear Modulus (GPa) = 19.41613 23.78042 21.59827
#
# Velocity S-wave (km/s) = 3.48187 3.85337 3.67232
# Velocity P-wave (km/s) = 6.36488 7.53443 6.97421
#
# Compressibility (1/GPa) = 0.02564570
#
# Stress axis : x y z
#
# Youngs Moduli (GPa) = 66.76228 69.40456 25.23662
#
# Poissons Ratio (x) = 0.30578 0.23198
# Poissons Ratio (y) = 0.29414 0.20404
# Poissons Ratio (z) = 0.61369 0.56115
#
# Static dielectric constant tensor:
#      x y z
#    x 3.351210 0.000000 0.254060 
#    y 0.000000 3.221450 0.000000 
#    z 0.254060 0.000000 2.799280 
# 
# 
# High freq. dielectric constant tensor:
#      x y z
#    x 1.618730 0.000000 0.028030 
#    y 0.000000 1.632710 0.000000 
#    z 0.028030 0.000000 1.562760 
# 
# From -- ./inp_files/67387.got.cif
#   From: 2010.06.25/outbox.cif.g09.slc.cpg/sg11_34_cif.got.tgz:67387.got - 2010.06.27 23:14:04.
