data_PCOD8069249
_publ_section_title
;
Structure prediction by ZEFSAII (Michael W. Deem and Ramdas Pophale) SiO2 
 PCOD8069249
Probable space group: P 21/M
;
_chemical_formula_sum "Si O2"
_cell_formula_units_Z 32
_cell_length_a 9.121934
_cell_length_b 22.158077
_cell_length_c 17.209853
_cell_angle_alpha 90.000000
_cell_angle_beta 149.496591
_cell_angle_gamma 90.000000
_cell_volume 1765.667375
_symmetry_space_group_name_H-M "P 21/M"
_symmetry_group_IT_number 11
_symmetry_cell_setting 'monoclinic'
loop_
_space_group_symop_operation_xyz
x,y,z
-x,1/2+y,-z
-x,-y,-z
x,1/2-y,z
loop_
_atom_site_type_symbol
_atom_site_label
_atom_site_fract_x
_atom_site_fract_y
_atom_site_fract_z
Si Si1 0.577280 0.388041 0.461354
Si Si2 0.364802 0.973671 0.114228
Si Si3 0.014388 0.973489 0.423126
Si Si4 0.034741 0.397829 0.794328
Si Si5 0.936378 0.905918 0.016841
Si Si6 0.127148 0.319463 0.157726
Si Si7 0.083950 0.466182 0.304286
Si Si8 0.676716 0.111081 0.038065
O O1 0.784817 0.414520 0.488904
O O2 0.392731 0.335386 0.337036
O O3 0.376214 0.442723 0.398694
O O4 0.778873 0.366426 0.626259
O O5 0.693837 0.953817 0.254304
O O6 0.326807 0.045913 0.099411
O O7 0.226586 0.944150 0.974782
O O8 0.224835 0.943331 0.126704
O O9 0.136388 0.023683 0.419632
O O10 0.000000 0.000000 0.500000
O O11 0.014148 0.470128 0.778278
O O12 0.012101 0.377193 0.874183
O O13 0.343005 0.375326 0.901461
O O14 0.860465 0.855479 0.918219
O O15 0.149993 0.250000 0.145678
O O16 0.828806 0.330293 0.069115
O O17 0.836927 0.413845 0.188171
#
# Coordination Sequence:
#
# PCOD8069249 Si02
#       8
#     4   4   4   4   4   4   4   4
#     4  10  22  35  53  81 113 154 184 217 281 331
#     4  10  18  31  49  85 119 143 176 214 280 345
#     4  11  20  27  47  79 122 147 173 208 264 341
#     4  11  18  32  56  91 116 136 177 231 274 330
#     4  10  21  31  58  82 112 149 180 227 280 334
#     4  10  23  44  58  71 104 152 197 234 276 338
#     4  10  19  31  49  79 122 153 168 207 275 348
#     4  10  18  34  58  81 109 145 183 223 279 329
#
# _framework density 18.123459
#
# number of rings (size 3 to 8) (size 9 to 14) (size 15 to 20)
#    0.000    1.750    3.750    3.375    5.250    0.000 
#    0.000    1.875    0.000    0.000    0.000    0.000 
#    0.000    0.000    0.000    0.000    0.000    0.000 
#
# Total GULP energy -396538.011306 kJ/mol
# GULP energy per Si atom -12391.812853 kJ/mol
# Density = 1.808221 g / cm^3
# Si number density = 18.123459 Si / 1000 Ang^3
#
#
#
# Elastic Constant Matrix: (Units=GPa)
#
#
# Indices 1 2 3 4 5 6 
#
# 1 99.1105 32.3574 43.7331 0.0000 -8.4306 0.0000
# 2 32.3574 80.3438 32.1603 0.0000 -5.4928 0.0000
# 3 43.7331 32.1603 103.0456 0.0000 3.8838 0.0000
# 4 0.0000 0.0000 0.0000 14.0947 0.0000 -2.8730
# 5 -8.4306 -5.4928 3.8838 0.0000 41.9349 0.0000
# 6 0.0000 0.0000 0.0000 -2.8730 0.0000 14.3993
#
#
#
# Elastic Compliance Matrix: (Units=1/GPa)
#
#
# Indices 1 2 3 4 5 6 
#
# 1 0.013532 -0.003341 -0.004803 0.000000 0.002728 0.000000
# 2 -0.003341 0.015269 -0.003410 0.000000 0.001644 0.000000
# 3 -0.004803 -0.003410 0.012905 0.000000 -0.002607 0.000000
# 4 0.000000 0.000000 0.000000 0.073957 0.000000 0.014756
# 5 0.002728 0.001644 -0.002607 0.000000 0.024852 0.000000
# 6 0.000000 0.000000 0.000000 0.014756 0.000000 0.072392
#
#
# Mechanical properties :
#
#
# Convention : Reuss Voigt Hill
#
# Bulk Modulus (GPa) = 53.76522 55.44461 54.60491
# Shear Modulus (GPa) = 20.64293 25.70238 23.17265
#
# Velocity S-wave (km/s) = 3.37859 3.76996 3.57963
# Velocity P-wave (km/s) = 6.70450 7.04339 6.87603
#
# Compressibility (1/GPa) = 0.01859939
#
# Stress axis : x y z
#
# Youngs Moduli (GPa) = 73.89964 65.49153 77.48720
#
# Poissons Ratio (x) = 0.21878 0.37219
# Poissons Ratio (y) = 0.24687 0.26420
# Poissons Ratio (z) = 0.35495 0.22330
#
# Static dielectric constant tensor:
#      x y z
#    x 3.545640 0.000000 0.038850 
#    y 0.000000 2.811190 0.000000 
#    z 0.038850 0.000000 3.295200 
# 
# 
# High freq. dielectric constant tensor:
#      x y z
#    x 1.715390 0.000000 0.002840 
#    y 0.000000 1.638630 0.000000 
#    z 0.002840 0.000000 1.713310 
# 
# From -- ./inp_files/25353.got.cif
#   From: 2010.06.25/outbox.cif.g09.slc.cpg/sg11_13_cif.got.tgz:25353.got - 2010.06.27 23:14:04.
