data_PCOD8069592
_publ_section_title
;
Structure prediction by ZEFSAII (Michael W. Deem and Ramdas Pophale) SiO2 
 PCOD8069592
Probable space group: P 21/M
;
_chemical_formula_sum "Si O2"
_cell_formula_units_Z 32
_cell_length_a 21.924402
_cell_length_b 10.418423
_cell_length_c 21.172252
_cell_angle_alpha 90.000000
_cell_angle_beta 159.581887
_cell_angle_gamma 90.000000
_cell_volume 1687.168075
_symmetry_space_group_name_H-M "P 21/M"
_symmetry_group_IT_number 11
_symmetry_cell_setting 'monoclinic'
loop_
_space_group_symop_operation_xyz
x,y,z
-x,1/2+y,-z
-x,-y,-z
x,1/2-y,z
loop_
_atom_site_type_symbol
_atom_site_label
_atom_site_fract_x
_atom_site_fract_y
_atom_site_fract_z
Si Si1 0.177840 0.102781 0.456031
Si Si2 0.109588 0.395961 0.244651
Si Si3 0.548112 0.903302 0.491216
Si Si4 0.702982 0.107870 0.242988
Si Si5 0.970351 0.107244 0.606539
Si Si6 0.566465 0.399868 0.857215
Si Si7 0.665850 0.965023 0.076664
Si Si8 0.272494 0.598621 0.114451
O O1 0.131234 0.250000 0.431169
O O2 0.182144 0.091843 0.385403
O O3 0.365081 0.056364 0.663452
O O4 0.037756 0.000660 0.346734
O O5 0.086825 0.250000 0.202597
O O6 0.258787 0.450681 0.342979
O O7 0.917891 0.462534 0.052009
O O8 0.542073 0.750000 0.503256
O O9 0.412669 0.932796 0.303864
O O10 0.500000 0.000000 0.500000
O O11 0.757280 0.250000 0.275951
O O12 0.849474 0.053105 0.432533
O O13 0.701339 0.027076 0.178396
O O14 0.514765 0.112380 0.094976
O O15 0.906265 0.250000 0.566249
O O16 0.170000 0.125658 0.778134
O O17 0.571135 0.250000 0.851277
O O18 0.665904 0.461842 0.893082
O O19 0.655621 0.432666 0.010023
O O20 0.248036 0.750000 0.081758
#
# Coordination Sequence:
#
# PCOD8069592 Si02
#       8
#     4   4   4   4   4   4   4   4
#     4  10  19  35  59  87 111 141 184 233 277 324
#     4   9  17  32  56  82 111 142 180 225 270 313
#     4  10  20  35  55  80 112 146 182 217 262 315
#     4  10  22  38  53  75 108 145 185 229 276 329
#     4  11  23  39  56  80 113 150 184 222 279 341
#     4  10  18  32  57  86 111 136 181 235 282 324
#     4  11  21  36  57  78 105 144 187 226 277 332
#     4   9  17  31  54  82 108 140 176 223 273 317
#
# _framework density 18.966694
#
# number of rings (size 3 to 8) (size 9 to 14) (size 15 to 20)
#    0.000    2.000    2.500    1.875    0.000    2.500 
#    0.000    1.250    0.000    3.750    0.000    0.000 
#    0.000    0.000    0.000    0.000    0.000    0.000 
#
# Total GULP energy -396549.087228 kJ/mol
# GULP energy per Si atom -12392.158976 kJ/mol
# Density = 1.892352 g / cm^3
# Si number density = 18.966694 Si / 1000 Ang^3
#
#
#
# Elastic Constant Matrix: (Units=GPa)
#
#
# Indices 1 2 3 4 5 6 
#
# 1 97.6839 34.5180 33.0356 0.0000 19.7777 0.0000
# 2 34.5180 52.3169 14.5385 0.0000 11.9711 0.0000
# 3 33.0356 14.5385 92.8840 0.0000 21.6092 0.0000
# 4 0.0000 0.0000 0.0000 9.9862 0.0000 5.6106
# 5 19.7777 11.9711 21.6092 0.0000 23.3052 0.0000
# 6 0.0000 0.0000 0.0000 5.6106 0.0000 19.2242
#
#
#
# Elastic Compliance Matrix: (Units=1/GPa)
#
#
# Indices 1 2 3 4 5 6 
#
# 1 0.015207 -0.007822 -0.002699 0.000000 -0.006384 0.000000
# 2 -0.007822 0.025760 0.000362 0.000000 -0.006930 0.000000
# 3 -0.002699 0.000362 0.014255 0.000000 -0.011113 0.000000
# 4 0.000000 0.000000 0.000000 0.119778 0.000000 -0.034957
# 5 -0.006384 -0.006930 -0.011113 0.000000 0.062191 0.000000
# 6 0.000000 0.000000 0.000000 -0.034957 0.000000 0.062220
#
#
# Mechanical properties :
#
#
# Convention : Reuss Voigt Hill
#
# Bulk Modulus (GPa) = 28.64998 45.22989 36.93994
# Shear Modulus (GPa) = 15.08920 21.22263 18.15592
#
# Velocity S-wave (km/s) = 2.82363 3.34869 3.09731
# Velocity P-wave (km/s) = 5.07629 6.23301 5.68415
#
# Compressibility (1/GPa) = 0.03490403
#
# Stress axis : x y z
#
# Youngs Moduli (GPa) = 65.76128 38.81938 70.15231
#
# Poissons Ratio (x) = 0.30365 0.18932
# Poissons Ratio (y) = 0.51440 -0.02541
# Poissons Ratio (z) = 0.17747 -0.01406
#
# Static dielectric constant tensor:
#      x y z
#    x 3.452990 0.000000 0.244370 
#    y 0.000000 3.055610 0.000000 
#    z 0.244370 0.000000 3.865760 
# 
# 
# High freq. dielectric constant tensor:
#      x y z
#    x 1.732470 0.000000 0.008660 
#    y 0.000000 1.692840 0.000000 
#    z 0.008660 0.000000 1.758990 
# 
# From -- ./inp_files/66568.got.cif
#   From: 2010.06.25/outbox.cif.g09.slc.cpg/sg11_34_cif.got.tgz:66568.got - 2010.06.27 23:14:04.
