data_PCOD8069950
_publ_section_title
;
Structure prediction by ZEFSAII (Michael W. Deem and Ramdas Pophale) SiO2 
 PCOD8069950
Probable space group: P 21/M
;
_chemical_formula_sum "Si O2"
_cell_formula_units_Z 32
_cell_length_a 19.527980
_cell_length_b 9.061427
_cell_length_c 29.045023
_cell_angle_alpha 90.000000
_cell_angle_beta 156.363735
_cell_angle_gamma 90.000000
_cell_volume 2060.597023
_symmetry_space_group_name_H-M "P 21/M"
_symmetry_group_IT_number 11
_symmetry_cell_setting 'monoclinic'
loop_
_space_group_symop_operation_xyz
x,y,z
-x,1/2+y,-z
-x,-y,-z
x,1/2-y,z
loop_
_atom_site_type_symbol
_atom_site_label
_atom_site_fract_x
_atom_site_fract_y
_atom_site_fract_z
Si Si1 0.264311 0.924012 0.173295
Si Si2 0.757684 0.074882 0.944019
Si Si3 0.908813 0.423725 0.842649
Si Si4 0.595588 0.074566 0.257917
Si Si5 0.810284 0.418678 0.479879
Si Si6 0.389524 0.424027 0.571785
Si Si7 0.883939 0.921789 0.391411
Si Si8 0.448276 0.577104 0.421600
O O1 0.277215 0.750000 0.185429
O O2 0.215790 0.975454 0.092557
O O3 0.127937 0.977352 0.127391
O O4 0.450927 0.986492 0.300607
O O5 0.739768 0.250000 0.939078
O O6 0.591369 0.995290 0.861281
O O7 0.926122 0.014026 0.073884
O O8 0.947661 0.250000 0.864026
O O9 0.745604 0.465861 0.711089
O O10 0.586367 0.250000 0.246932
O O11 0.689261 0.026090 0.363098
O O12 0.701796 0.005546 0.280150
O O13 0.766271 0.250000 0.462149
O O14 0.777067 0.505773 0.506990
O O15 0.012026 0.438998 0.592476
O O16 0.371504 0.250000 0.563902
O O17 0.419155 0.471968 0.536952
O O18 0.858761 0.750000 0.388264
O O19 0.000000 0.000000 0.500000
O O20 0.500000 0.500000 0.500000
O O21 0.460952 0.750000 0.436902
#
# Coordination Sequence:
#
# PCOD8069950 Si02
#       8
#     4   4   4   4   4   4   4   4
#     4   8  15  27  41  58  83 114 146 178 214 253
#     4  11  19  27  42  63  86 116 151 184 217 255
#     4   9  18  32  45  60  85 114 144 181 222 263
#     4  10  19  29  40  58  85 120 156 185 220 257
#     4   9  17  27  40  61  86 112 147 187 220 253
#     4   9  16  28  45  64  86 115 147 180 220 264
#     4   9  17  28  40  57  83 115 152 188 221 256
#     4   9  19  34  51  67  87 114 144 182 228 269
#
# _framework density 15.529479
#
# number of rings (size 3 to 8) (size 9 to 14) (size 15 to 20)
#    0.000    2.750    1.250    3.750    0.000    3.500 
#    0.000    2.500    0.000    0.000    0.000    0.000 
#    0.000    1.000    0.000    3.250    0.000    4.750 
#
# Total GULP energy -396531.140259 kJ/mol
# GULP energy per Si atom -12391.598133 kJ/mol
# Density = 1.549413 g / cm^3
# Si number density = 15.529479 Si / 1000 Ang^3
#
#
#
# Elastic Constant Matrix: (Units=GPa)
#
#
# Indices 1 2 3 4 5 6 
#
# 1 97.8823 49.3243 56.5102 0.0000 19.7483 0.0000
# 2 49.3243 65.6799 39.4580 0.0000 12.3456 0.0000
# 3 56.5102 39.4580 72.1014 0.0000 18.5390 0.0000
# 4 0.0000 0.0000 0.0000 23.6776 0.0000 5.3744
# 5 19.7483 12.3456 18.5390 0.0000 25.9600 0.0000
# 6 0.0000 0.0000 0.0000 5.3744 0.0000 26.8901
#
#
#
# Elastic Compliance Matrix: (Units=1/GPa)
#
#
# Indices 1 2 3 4 5 6 
#
# 1 0.022204 -0.009041 -0.011291 0.000000 -0.004529 0.000000
# 2 -0.009041 0.026482 -0.007272 0.000000 -0.000523 0.000000
# 3 -0.011291 -0.007272 0.028909 0.000000 -0.008597 0.000000
# 4 0.000000 0.000000 0.000000 0.044241 0.000000 -0.008842
# 5 -0.004529 -0.000523 -0.008597 0.000000 0.048354 0.000000
# 6 0.000000 0.000000 0.000000 -0.008842 0.000000 0.038956
#
#
# Mechanical properties :
#
#
# Convention : Reuss Voigt Hill
#
# Bulk Modulus (GPa) = 44.66718 58.47206 51.56962
# Shear Modulus (GPa) = 18.39479 21.33028 19.86253
#
# Velocity S-wave (km/s) = 3.44540 3.71014 3.58022
# Velocity P-wave (km/s) = 6.68229 7.48917 7.09720
#
# Compressibility (1/GPa) = 0.02238780
#
# Stress axis : x y z
#
# Youngs Moduli (GPa) = 45.03648 37.76176 34.59122
#
# Poissons Ratio (x) = 0.34139 0.39056
# Poissons Ratio (y) = 0.40716 0.25156
# Poissons Ratio (z) = 0.50850 0.27461
#
# Static dielectric constant tensor:
#      x y z
#    x 3.094230 0.000000 0.260350 
#    y 0.000000 2.877780 0.000000 
#    z 0.260350 0.000000 2.801900 
# 
# 
# High freq. dielectric constant tensor:
#      x y z
#    x 1.579020 0.000000 0.035450 
#    y 0.000000 1.595390 0.000000 
#    z 0.035450 0.000000 1.560790 
# 
# From -- ./inp_files/52921.got.cif
#   From: 2010.06.25/outbox.cif.g09.slc.cpg/sg11_27_cif.got.tgz:52921.got - 2010.06.27 23:14:04.
