data_PCOD8069656
_publ_section_title
;
Structure prediction by ZEFSAII (Michael W. Deem and Ramdas Pophale) SiO2 
 PCOD8069656
Probable space group: P 21/M
;
_chemical_formula_sum "Si O2"
_cell_formula_units_Z 28
_cell_length_a 28.145411
_cell_length_b 8.850509
_cell_length_c 9.588799
_cell_angle_alpha 90.000000
_cell_angle_beta 140.992880
_cell_angle_gamma 90.000000
_cell_volume 1503.413685
_symmetry_space_group_name_H-M "P 21/M"
_symmetry_group_IT_number 11
_symmetry_cell_setting 'monoclinic'
loop_
_space_group_symop_operation_xyz
x,y,z
-x,1/2+y,-z
-x,-y,-z
x,1/2-y,z
loop_
_atom_site_type_symbol
_atom_site_label
_atom_site_fract_x
_atom_site_fract_y
_atom_site_fract_z
Si Si1 0.685972 0.925645 0.655765
Si Si2 0.100102 0.926351 0.610201
Si Si3 0.420124 0.926539 0.791772
Si Si4 0.050030 0.573450 0.807145
Si Si5 0.291157 0.572044 0.712385
Si Si6 0.257976 0.071576 0.915996
Si Si7 0.816793 0.572662 0.741416
O O1 0.667171 0.750000 0.599234
O O2 0.761006 0.967042 0.741251
O O3 0.614611 0.016227 0.433270
O O4 0.699176 0.975187 0.844811
O O5 0.111401 0.750000 0.606759
O O6 0.088159 0.961340 0.745561
O O7 0.172351 0.015976 0.722071
O O8 0.028921 0.986128 0.360234
O O9 0.431574 0.750000 0.807006
O O10 0.365092 0.972207 0.792997
O O11 0.500000 0.000000 0.000000
O O12 0.035540 0.750000 0.795722
O O13 0.104214 0.510366 0.051162
O O14 0.277322 0.750000 0.681843
O O15 0.303377 0.509395 0.895495
O O16 0.217625 0.491579 0.479923
O O17 0.258587 0.250000 0.895804
O O18 0.830981 0.750000 0.759045
#
# Coordination Sequence:
#
# PCOD8069656 Si02
#       7
#     4   4   4   4   4   4   4
#     4   9  19  34  56  83 111 142 182 224 266 320
#     4  10  20  32  50  76 109 147 185 231 279 324
#     4  10  21  38  62  87 113 142 179 221 266 320
#     4  10  19  31  50  77 108 143 187 235 278 323
#     4  10  22  38  56  82 113 146 181 222 272 328
#     4  11  21  36  56  82 113 147 184 226 275 327
#     4  10  18  33  55  79 107 143 186 232 276 324
#
# _framework density 18.624279999999999
#
# number of rings (size 3 to 8) (size 9 to 14) (size 15 to 20)
#    0.000    2.000    1.429    2.571    0.000    4.571 
#    0.000    1.429    0.000    0.000    0.000    0.000 
#    0.000    0.000    0.000    0.000    0.000    0.000 
#
# Total GULP energy -347330.518686 kJ/mol
# GULP energy per Si atom -12404.661382 kJ/mol
# Density = 1.858189 g / cm^3
# Si number density = 18.624280 Si / 1000 Ang^3
#
#
#
# Elastic Constant Matrix: (Units=GPa)
#
#
# Indices 1 2 3 4 5 6 
#
# 1 65.8019 21.9882 48.9481 0.0000 -8.1367 0.0000
# 2 21.9882 48.1728 34.6353 0.0000 -0.3740 0.0000
# 3 48.9481 34.6353 126.8931 0.0000 4.0505 0.0000
# 4 0.0000 0.0000 0.0000 38.6930 0.0000 0.9201
# 5 -8.1367 -0.3740 4.0505 0.0000 29.5754 0.0000
# 6 0.0000 0.0000 0.0000 0.9201 0.0000 29.6306
#
#
#
# Elastic Compliance Matrix: (Units=1/GPa)
#
#
# Indices 1 2 3 4 5 6 
#
# 1 0.023803 -0.005014 -0.008056 0.000000 0.007589 0.000000
# 2 -0.005014 0.026933 -0.005408 0.000000 -0.000298 0.000000
# 3 -0.008056 -0.005408 0.012592 0.000000 -0.004009 0.000000
# 4 0.000000 0.000000 0.000000 0.025864 0.000000 -0.000803
# 5 0.007589 -0.000298 -0.004009 0.000000 0.036445 0.000000
# 6 0.000000 0.000000 0.000000 -0.000803 0.000000 0.033774
#
#
# Mechanical properties :
#
#
# Convention : Reuss Voigt Hill
#
# Bulk Modulus (GPa) = 37.91677 50.22343 44.07010
# Shear Modulus (GPa) = 24.37162 28.59954 26.48558
#
# Velocity S-wave (km/s) = 3.62137 3.92293 3.77516
# Velocity P-wave (km/s) = 6.15539 6.89524 6.53579
#
# Compressibility (1/GPa) = 0.02637356
#
# Stress axis : x y z
#
# Youngs Moduli (GPa) = 42.01091 37.12925 79.41549
#
# Poissons Ratio (x) = 0.18617 0.63974
# Poissons Ratio (y) = 0.21065 0.42945
# Poissons Ratio (z) = 0.33842 0.20078
#
# Static dielectric constant tensor:
#      x y z
#    x 3.329080 0.000000 -0.129270 
#    y 0.000000 3.470700 0.000000 
#    z -0.129270 0.000000 3.505260 
# 
# 
# High freq. dielectric constant tensor:
#      x y z
#    x 1.698380 0.000000 -0.002650 
#    y 0.000000 1.736710 0.000000 
#    z -0.002650 0.000000 1.726110 
# 
# From -- ./inp_files/28021.got.cif
#   From: 2010.06.25/outbox.cif.g09.slc.cpg/sg11_15_cif.got.tgz:28021.got - 2010.06.27 23:14:04.
