data_PCOD8069910
_publ_section_title
;
Structure prediction by ZEFSAII (Michael W. Deem and Ramdas Pophale) SiO2 
 PCOD8069910
Probable space group: P 21/M
;
_chemical_formula_sum "Si O2"
_cell_formula_units_Z 32
_cell_length_a 14.179593
_cell_length_b 18.092862
_cell_length_c 11.344588
_cell_angle_alpha 90.000000
_cell_angle_beta 148.796383
_cell_angle_gamma 90.000000
_cell_volume 1507.847551
_symmetry_space_group_name_H-M "P 21/M"
_symmetry_group_IT_number 11
_symmetry_cell_setting 'monoclinic'
loop_
_space_group_symop_operation_xyz
x,y,z
-x,1/2+y,-z
-x,-y,-z
x,1/2-y,z
loop_
_atom_site_type_symbol
_atom_site_label
_atom_site_fract_x
_atom_site_fract_y
_atom_site_fract_z
Si Si1 0.716260 0.410844 0.043656
Si Si2 0.689166 0.922147 0.073229
Si Si3 0.793761 0.575084 0.691314
Si Si4 0.161692 0.909213 0.208061
Si Si5 0.874180 0.556758 0.516615
Si Si6 0.446020 0.837272 0.359979
Si Si7 0.627429 0.332587 0.182035
Si Si8 0.954094 0.390327 0.653005
O O1 0.657235 0.496376 0.987611
O O2 0.620661 0.365822 0.044728
O O3 0.933436 0.401431 0.285519
O O4 0.650732 0.378516 0.850664
O O5 0.751031 0.921317 0.275231
O O6 0.832969 0.876850 0.146438
O O7 0.497516 0.880036 0.862331
O O8 0.761829 0.492719 0.707365
O O9 0.768724 0.578498 0.523255
O O10 0.648917 0.630531 0.594980
O O11 0.999396 0.599369 0.940252
O O12 0.326479 0.855152 0.348274
O O13 0.078812 0.885422 0.243883
O O14 0.906755 0.469419 0.545458
O O15 0.456829 0.750000 0.350535
O O16 0.551136 0.250000 0.092871
O O17 0.830174 0.331125 0.452959
#
# Coordination Sequence:
#
# PCOD8069910 Si02
#       8
#     4   4   4   4   4   4   4   4
#     4  11  21  41  67  95 125 166 212 265 312 386
#     4  11  22  39  68  96 123 165 216 263 314 382
#     4  10  22  41  68  98 124 165 222 269 312 376
#     4  10  23  43  68  92 123 168 223 271 310 369
#     4  10  18  40  68  96 119 162 214 263 320 368
#     4  12  26  42  63  98 136 169 206 262 334 388
#     4  12  25  39  59  94 130 166 205 257 329 388
#     4  10  22  40  64  91 122 158 213 266 312 370
#
# _framework density 21.222306
#
# number of rings (size 3 to 8) (size 9 to 14) (size 15 to 20)
#    0.000    1.250    3.750    2.625    5.250    2.500 
#    0.000    0.000    0.000    0.000    0.000    0.000 
#    0.000    0.000    0.000    0.000    0.000    0.000 
#
# Total GULP energy -396957.848200 kJ/mol
# GULP energy per Si atom -12404.932756 kJ/mol
# Density = 2.117400 g / cm^3
# Si number density = 21.222306 Si / 1000 Ang^3
#
#
#
# Elastic Constant Matrix: (Units=GPa)
#
#
# Indices 1 2 3 4 5 6 
#
# 1 119.1140 53.1018 33.9534 0.0000 7.1563 0.0000
# 2 53.1018 101.5932 43.1922 0.0000 16.0659 0.0000
# 3 33.9534 43.1922 56.2489 0.0000 4.6327 0.0000
# 4 0.0000 0.0000 0.0000 11.2809 0.0000 1.6621
# 5 7.1563 16.0659 4.6327 0.0000 30.1692 0.0000
# 6 0.0000 0.0000 0.0000 1.6621 0.0000 16.9967
#
#
#
# Elastic Compliance Matrix: (Units=1/GPa)
#
#
# Indices 1 2 3 4 5 6 
#
# 1 0.011373 -0.004536 -0.003401 0.000000 0.000240 0.000000
# 2 -0.004536 0.017639 -0.010251 0.000000 -0.006743 0.000000
# 3 -0.003401 -0.010251 0.027535 0.000000 0.002037 0.000000
# 4 0.000000 0.000000 0.000000 0.089942 0.000000 -0.008795
# 5 0.000240 -0.006743 0.002037 0.000000 0.036367 0.000000
# 6 0.000000 0.000000 0.000000 -0.008795 0.000000 0.059695
#
#
# Mechanical properties :
#
#
# Convention : Reuss Voigt Hill
#
# Bulk Modulus (GPa) = 49.58012 59.71677 54.64845
# Shear Modulus (GPa) = 17.50392 21.46993 19.48693
#
# Velocity S-wave (km/s) = 2.87503 3.18412 3.03352
# Velocity P-wave (km/s) = 5.86805 6.45894 6.17058
#
# Compressibility (1/GPa) = 0.02016937
#
# Stress axis : x y z
#
# Youngs Moduli (GPa) = 87.92929 56.69348 36.31775
#
# Poissons Ratio (x) = 0.25718 0.12353
# Poissons Ratio (y) = 0.39888 0.37228
# Poissons Ratio (z) = 0.29908 0.58115
#
# Static dielectric constant tensor:
#      x y z
#    x 4.030120 0.000000 0.172730 
#    y 0.000000 3.533950 0.000000 
#    z 0.172730 0.000000 3.774380 
# 
# 
# High freq. dielectric constant tensor:
#      x y z
#    x 1.848650 0.000000 0.006760 
#    y 0.000000 1.800260 0.000000 
#    z 0.006760 0.000000 1.832660 
# 
# From -- ./inp_files/40013.got.cif
#   From: 2010.06.25/outbox.cif.g09.slc.cpg/sg11_21_cif.got.tgz:40013.got - 2010.06.27 23:14:04.
