data_PCOD8069136
_publ_section_title
;
Structure prediction by ZEFSAII (Michael W. Deem and Ramdas Pophale) SiO2 
 PCOD8069136
Probable space group: P 21/M
;
_chemical_formula_sum "Si O2"
_cell_formula_units_Z 28
_cell_length_a 18.638837
_cell_length_b 9.055780
_cell_length_c 15.489214
_cell_angle_alpha 90.000000
_cell_angle_beta 144.878780
_cell_angle_gamma 90.000000
_cell_volume 1504.092806
_symmetry_space_group_name_H-M "P 21/M"
_symmetry_group_IT_number 11
_symmetry_cell_setting 'monoclinic'
loop_
_space_group_symop_operation_xyz
x,y,z
-x,1/2+y,-z
-x,-y,-z
x,1/2-y,z
loop_
_atom_site_type_symbol
_atom_site_label
_atom_site_fract_x
_atom_site_fract_y
_atom_site_fract_z
Si Si1 0.897417 0.072765 0.837054
Si Si2 0.613281 0.413856 0.568846
Si Si3 0.676835 0.912458 0.172241
Si Si4 0.455735 0.913452 0.087205
Si Si5 0.874283 0.575264 0.636235
Si Si6 0.076221 0.078313 0.501599
Si Si7 0.380721 0.583108 0.624521
O O1 0.908925 0.250000 0.849279
O O2 0.755414 0.023414 0.723539
O O3 0.927463 0.015034 0.770010
O O4 0.000000 0.000000 0.000000
O O5 0.500000 0.500000 0.500000
O O6 0.610709 0.250000 0.605615
O O7 0.580969 0.411964 0.436905
O O8 0.710219 0.750000 0.169475
O O9 0.552766 0.904838 0.105470
O O10 0.781903 0.970306 0.340772
O O11 0.667225 0.017233 0.078418
O O12 0.425854 0.750000 0.094486
O O13 0.501011 0.019429 0.208153
O O14 0.875881 0.750000 0.657791
O O15 0.955115 0.537013 0.629340
O O16 0.734086 0.527181 0.476041
O O17 0.054562 0.250000 0.492589
O O18 0.000000 0.000000 0.500000
O O19 0.348752 0.750000 0.624911
#
# Coordination Sequence:
#
# PCOD8069136 Si02
#       7
#     4   4   4   4   4   4   4
#     4  10  21  38  60  89 116 146 188 234 284 341
#     4   9  20  36  55  82 113 142 180 224 275 333
#     4   9  18  33  48  70 103 133 167 214 262 306
#     4  10  18  30  50  76 101 130 171 214 260 310
#     4  10  19  35  56  80 108 141 184 232 274 324
#     4  10  21  36  53  75 106 142 183 227 271 321
#     4  10  19  32  52  79 108 139 177 222 267 321
#
# _framework density 18.615872
#
# number of rings (size 3 to 8) (size 9 to 14) (size 15 to 20)
#    0.000    2.286    1.429    2.571    0.000    5.714 
#    0.000    1.429    0.000    0.000    0.000    0.000 
#    0.000    0.000    0.000    0.000    0.000    0.000 
#
# Total GULP energy -346920.399178 kJ/mol
# GULP energy per Si atom -12390.014256 kJ/mol
# Density = 1.857350 g / cm^3
# Si number density = 18.615872 Si / 1000 Ang^3
#
#
#
# Elastic Constant Matrix: (Units=GPa)
#
#
# Indices 1 2 3 4 5 6 
#
# 1 91.4440 42.8536 45.0082 0.0000 -6.9993 0.0000
# 2 42.8536 92.7392 57.2477 0.0000 -9.3621 0.0000
# 3 45.0082 57.2477 119.7465 0.0000 -20.3668 0.0000
# 4 0.0000 0.0000 0.0000 35.2099 0.0000 -3.9644
# 5 -6.9993 -9.3621 -20.3668 0.0000 19.5781 0.0000
# 6 0.0000 0.0000 0.0000 -3.9644 0.0000 30.9693
#
#
#
# Elastic Compliance Matrix: (Units=1/GPa)
#
#
# Indices 1 2 3 4 5 6 
#
# 1 0.014805 -0.004829 -0.003339 0.000000 -0.000490 0.000000
# 2 -0.004829 0.016875 -0.006286 0.000000 -0.000196 0.000000
# 3 -0.003339 -0.006286 0.014454 0.000000 0.010837 0.000000
# 4 0.000000 0.000000 0.000000 0.028816 0.000000 0.003689
# 5 -0.000490 -0.000196 0.010837 0.000000 0.062082 0.000000
# 6 0.000000 0.000000 0.000000 0.003689 0.000000 0.032762
#
#
# Mechanical properties :
#
#
# Convention : Reuss Voigt Hill
#
# Bulk Modulus (GPa) = 58.05286 66.01652 62.03469
# Shear Modulus (GPa) = 24.45651 27.73947 26.09799
#
# Velocity S-wave (km/s) = 3.62849 3.86437 3.74829
# Velocity P-wave (km/s) = 6.98620 7.44651 7.22002
#
# Compressibility (1/GPa) = 0.01722568
#
# Stress axis : x y z
#
# Youngs Moduli (GPa) = 67.54549 59.26000 69.18417
#
# Poissons Ratio (x) = 0.28619 0.23102
# Poissons Ratio (y) = 0.32620 0.43486
# Poissons Ratio (z) = 0.22555 0.37248
#
# Static dielectric constant tensor:
#      x y z
#    x 3.163250 0.000000 -0.184380 
#    y 0.000000 3.673200 0.000000 
#    z -0.184380 0.000000 3.515580 
# 
# 
# High freq. dielectric constant tensor:
#      x y z
#    x 1.693000 0.000000 -0.018030 
#    y 0.000000 1.731750 0.000000 
#    z -0.018030 0.000000 1.721510 
# 
# From -- ./inp_files/53286.got.cif
#   From: 2010.06.25/outbox.cif.g09.slc.cpg/sg11_27_cif.got.tgz:53286.got - 2010.06.27 23:14:04.
