data_PCOD8069270
_publ_section_title
;
Structure prediction by ZEFSAII (Michael W. Deem and Ramdas Pophale) SiO2 
 PCOD8069270
Probable space group: P 21/M
;
_chemical_formula_sum "Si O2"
_cell_formula_units_Z 24
_cell_length_a 11.323942
_cell_length_b 8.601553
_cell_length_c 23.810210
_cell_angle_alpha 90.000000
_cell_angle_beta 34.890598
_cell_angle_gamma 90.000000
_cell_volume 1326.607128
_symmetry_space_group_name_H-M "P 21/M"
_symmetry_group_IT_number 11
_symmetry_cell_setting 'monoclinic'
loop_
_space_group_symop_operation_xyz
x,y,z
-x,1/2+y,-z
-x,-y,-z
x,1/2-y,z
loop_
_atom_site_type_symbol
_atom_site_label
_atom_site_fract_x
_atom_site_fract_y
_atom_site_fract_z
Si Si1 0.408153 0.067235 0.592412
Si Si2 0.739153 0.430122 0.557461
Si Si3 0.655568 0.065955 0.985170
Si Si4 0.201225 0.429777 0.350096
Si Si5 0.652782 0.068268 0.818532
Si Si6 0.036850 0.066826 0.212732
O O1 0.371518 0.250000 0.600277
O O2 0.564358 0.027120 0.581367
O O3 0.500000 0.000000 0.500000
O O4 0.196848 0.982492 0.688376
O O5 0.735915 0.250000 0.575937
O O6 0.698745 0.531200 0.628774
O O7 0.959344 0.473464 0.444391
O O8 0.650921 0.250000 0.989516
O O9 0.575267 0.996604 0.075680
O O10 0.500000 0.000000 0.000000
O O11 0.881756 0.007916 0.877773
O O12 0.236850 0.250000 0.321928
O O13 0.313901 0.533365 0.259682
O O14 0.662373 0.250000 0.826803
O O15 0.831821 0.987206 0.784858
O O16 0.054300 0.250000 0.201299
#
# Coordination Sequence:
#
# PCOD8069270 Si02
#       6
#     4   4   4   4   4   4
#     4  11  22  36  54  77 106 140 176 211 253 305
#     4   9  20  36  52  73 103 137 172 211 254 302
#     4  10  18  31  50  74 103 134 170 211 258 306
#     4  10  19  33  54  78 103 133 171 214 257 302
#     4  11  20  32  52  78 106 136 172 212 258 307
#     4  11  21  34  51  75 107 139 173 213 259 307
#
# _framework density 18.091265
#
# number of rings (size 3 to 8) (size 9 to 14) (size 15 to 20)
#    0.000    1.667    0.000    8.500    0.000    3.333 
#    0.000    0.000    0.000    1.000    0.000    0.000 
#    0.000    0.000    0.000    0.000    0.000    0.000 
#
# Total GULP energy -297636.149735 kJ/mol
# GULP energy per Si atom -12401.506239 kJ/mol
# Density = 1.805009 g / cm^3
# Si number density = 18.091265 Si / 1000 Ang^3
#
#
#
# Elastic Constant Matrix: (Units=GPa)
#
#
# Indices 1 2 3 4 5 6 
#
# 1 64.6135 32.5649 46.2140 0.0000 6.0971 0.0000
# 2 32.5649 122.9712 53.8882 0.0000 7.0186 0.0000
# 3 46.2140 53.8882 148.8339 0.0000 13.0496 0.0000
# 4 0.0000 0.0000 0.0000 36.4157 0.0000 3.6937
# 5 6.0971 7.0186 13.0496 0.0000 23.0206 0.0000
# 6 0.0000 0.0000 0.0000 3.6937 0.0000 27.0000
#
#
#
# Elastic Compliance Matrix: (Units=1/GPa)
#
#
# Indices 1 2 3 4 5 6 
#
# 1 0.020960 -0.003171 -0.005217 0.000000 -0.001627 0.000000
# 2 -0.003171 0.010168 -0.002629 0.000000 -0.000770 0.000000
# 3 -0.005217 -0.002629 0.009575 0.000000 -0.003244 0.000000
# 4 0.000000 0.000000 0.000000 0.027847 0.000000 -0.003810
# 5 -0.001627 -0.000770 -0.003244 0.000000 0.045944 0.000000
# 6 0.000000 0.000000 0.000000 -0.003810 0.000000 0.037558
#
#
# Mechanical properties :
#
#
# Convention : Reuss Voigt Hill
#
# Bulk Modulus (GPa) = 53.56931 66.86144 60.21538
# Shear Modulus (GPa) = 27.72977 30.87068 29.30023
#
# Velocity S-wave (km/s) = 3.91931 4.13532 4.02877
# Velocity P-wave (km/s) = 7.08210 7.73559 7.41605
#
# Compressibility (1/GPa) = 0.01866740
#
# Stress axis : x y z
#
# Youngs Moduli (GPa) = 47.70941 98.34818 104.43436
#
# Poissons Ratio (x) = 0.31190 0.54487
# Poissons Ratio (y) = 0.15131 0.27459
# Poissons Ratio (z) = 0.24892 0.25858
#
# Static dielectric constant tensor:
#      x y z
#    x 3.088250 0.000000 0.068640 
#    y 0.000000 3.473160 0.000000 
#    z 0.068640 0.000000 3.900580 
# 
# 
# High freq. dielectric constant tensor:
#      x y z
#    x 1.664590 0.000000 0.013480 
#    y 0.000000 1.720110 0.000000 
#    z 0.013480 0.000000 1.715190 
# 
# From -- ./inp_files/68370.got.cif
#   From: 2010.06.25/outbox.cif.g09.slc.cpg/sg11_35_cif.got.tgz:68370.got - 2010.06.27 23:14:04.
