data_PCOD8069716
_publ_section_title
;
Structure prediction by ZEFSAII (Michael W. Deem and Ramdas Pophale) SiO2 
 PCOD8069716
Probable space group: P 21/M
;
_chemical_formula_sum "Si O2"
_cell_formula_units_Z 24
_cell_length_a 20.008433
_cell_length_b 7.701658
_cell_length_c 25.650827
_cell_angle_alpha 90.000000
_cell_angle_beta 19.096433
_cell_angle_gamma 90.000000
_cell_volume 1293.176021
_symmetry_space_group_name_H-M "P 21/M"
_symmetry_group_IT_number 11
_symmetry_cell_setting 'monoclinic'
loop_
_space_group_symop_operation_xyz
x,y,z
-x,1/2+y,-z
-x,-y,-z
x,1/2-y,z
loop_
_atom_site_type_symbol
_atom_site_label
_atom_site_fract_x
_atom_site_fract_y
_atom_site_fract_z
Si Si1 0.037297 0.941254 0.632189
Si Si2 0.507787 0.250000 0.154525
Si Si3 0.831431 0.250000 0.832948
Si Si4 0.377832 0.552411 0.463779
Si Si5 0.123890 0.439221 0.458262
Si Si6 0.174602 0.250000 0.667150
Si Si7 0.148505 0.750000 0.011594
Si Si8 0.820336 0.950824 0.093782
O O1 0.957442 0.750000 0.706678
O O2 0.244597 0.986971 0.510380
O O3 0.859937 0.078158 0.776717
O O4 0.091327 0.935507 0.531171
O O5 0.364970 0.422103 0.265584
O O6 0.606615 0.250000 0.024007
O O7 0.676033 0.250000 0.074990
O O8 0.993347 0.250000 0.759620
O O9 0.346576 0.750000 0.506263
O O10 0.311272 0.422978 0.559142
O O11 0.610920 0.514119 0.278409
O O12 0.040325 0.250000 0.536947
O O13 0.000000 0.500000 0.500000
O O14 0.077186 0.250000 0.796429
O O15 0.169269 0.574054 0.963745
O O16 0.836071 0.750000 0.064175
O O17 0.000000 0.000000 0.000000
#
# Coordination Sequence:
#
# PCOD8069716 Si02
#       8
#     4   2   2   4   4   2   2   4
#     4  10  18  33  59  84 108 148 192 237 283 341
#     4   9  21  37  63  83 118 155 184 245 289 336
#     4   9  17  37  55  85 117 141 194 231 284 344
#     4   9  19  34  57  83 109 146 198 234 279 343
#     4  10  20  35  56  82 116 148 190 233 285 332
#     4   9  19  33  59  83 113 153 178 243 286 334
#     4  11  21  39  61  89 118 145 196 237 295 340
#     4  11  22  37  59  84 118 154 192 241 288 337
#
# _framework density 18.558959000000002
#
# number of rings (size 3 to 8) (size 9 to 14) (size 15 to 20)
#    0.500    1.667    1.667    2.000    0.000    0.667 
#    0.000    6.667    0.000    0.000    0.000    0.000 
#    0.000    0.000    0.000    0.000    0.000    0.000 
#
# Total GULP energy -297512.874801 kJ/mol
# GULP energy per Si atom -12396.369783 kJ/mol
# Density = 1.851672 g / cm^3
# Si number density = 18.558959 Si / 1000 Ang^3
#
#
#
# Elastic Constant Matrix: (Units=GPa)
#
#
# Indices 1 2 3 4 5 6 
#
# 1 57.0903 36.7369 60.2214 0.0000 -4.1411 0.0000
# 2 36.7369 133.4684 67.5403 0.0000 15.4141 0.0000
# 3 60.2214 67.5403 123.2466 0.0000 22.1348 0.0000
# 4 0.0000 0.0000 0.0000 20.6117 0.0000 -3.1867
# 5 -4.1411 15.4141 22.1348 0.0000 26.0846 0.0000
# 6 0.0000 0.0000 0.0000 -3.1867 0.0000 22.1892
#
#
#
# Elastic Compliance Matrix: (Units=1/GPa)
#
#
# Indices 1 2 3 4 5 6 
#
# 1 0.058218 -0.003614 -0.033636 0.000000 0.039921 0.000000
# 2 -0.003614 0.010644 -0.003345 0.000000 -0.004026 0.000000
# 3 -0.033636 -0.003345 0.031839 0.000000 -0.030381 0.000000
# 4 0.000000 0.000000 0.000000 0.049618 0.000000 0.007126
# 5 0.039921 -0.004026 -0.030381 0.000000 0.072834 0.000000
# 6 0.000000 0.000000 0.000000 0.007126 0.000000 0.046090
#
#
# Mechanical properties :
#
#
# Convention : Reuss Voigt Hill
#
# Bulk Modulus (GPa) = 51.24962 71.42251 61.33606
# Shear Modulus (GPa) = 14.00810 23.73088 18.86949
#
# Velocity S-wave (km/s) = 2.75032 3.57974 3.19208
# Velocity P-wave (km/s) = 6.14493 7.46014 6.83425
#
# Compressibility (1/GPa) = 0.01951234
#
# Stress axis : x y z
#
# Youngs Moduli (GPa) = 17.17675 93.94571 31.40842
#
# Poissons Ratio (x) = 0.33948 1.05646
# Poissons Ratio (y) = 0.06207 0.10505
# Poissons Ratio (z) = 0.57776 0.31421
#
# Static dielectric constant tensor:
#      x y z
#    x 3.209500 0.000000 0.087110 
#    y 0.000000 3.557850 0.000000 
#    z 0.087110 0.000000 3.465520 
# 
# 
# High freq. dielectric constant tensor:
#      x y z
#    x 1.704650 0.000000 0.002480 
#    y 0.000000 1.729020 0.000000 
#    z 0.002480 0.000000 1.712850 
# 
# From -- ./inp_files/69524.got.cif
#   From: 2010.06.25/outbox.cif.g09.slc.cpg/sg11_35_cif.got.tgz:69524.got - 2010.06.27 23:14:04.
