data_PCOD8069248
_publ_section_title
;
Structure prediction by ZEFSAII (Michael W. Deem and Ramdas Pophale) SiO2 
 PCOD8069248
Probable space group: P 21/M
;
_chemical_formula_sum "Si O2"
_cell_formula_units_Z 28
_cell_length_a 11.465381
_cell_length_b 14.692261
_cell_length_c 9.565335
_cell_angle_alpha 90.000000
_cell_angle_beta 78.793191
_cell_angle_gamma 90.000000
_cell_volume 1580.579125
_symmetry_space_group_name_H-M "P 21/M"
_symmetry_group_IT_number 11
_symmetry_cell_setting 'monoclinic'
loop_
_space_group_symop_operation_xyz
x,y,z
-x,1/2+y,-z
-x,-y,-z
x,1/2-y,z
loop_
_atom_site_type_symbol
_atom_site_label
_atom_site_fract_x
_atom_site_fract_y
_atom_site_fract_z
Si Si1 0.235962 0.644108 0.365669
Si Si2 0.638494 0.010408 0.486620
Si Si3 0.815264 0.647389 0.516639
Si Si4 0.173873 0.647145 0.074382
Si Si5 0.099070 0.349744 0.808096
Si Si6 0.038409 0.855950 0.636566
Si Si7 0.803271 0.462961 0.196431
O O1 0.266212 0.750000 0.362554
O O2 0.346808 0.590006 0.403458
O O3 0.218135 0.609074 0.212346
O O4 0.119481 0.621183 0.483767
O O5 0.702854 0.919351 0.529647
O O6 0.500000 0.000000 0.500000
O O7 0.692132 0.042441 0.326333
O O8 0.766014 0.750000 0.547684
O O9 0.898817 0.641723 0.360381
O O10 0.901752 0.621249 0.626588
O O11 0.217561 0.750000 0.043675
O O12 0.032427 0.641357 0.102542
O O13 0.231035 0.589187 0.936436
O O14 0.151190 0.250000 0.839655
O O15 0.174793 0.432349 0.854200
O O16 0.051537 0.750000 0.676454
O O17 0.079626 0.918456 0.757144
#
# Coordination Sequence:
#
# PCOD8069248 Si02
#       7
#     4   4   4   4   4   4   4
#     4   9  18  32  54  76 102 133 165 204 254 309
#     4  10  22  36  51  73  99 134 181 217 246 283
#     4   9  17  31  52  74 100 132 164 205 255 307
#     4  10  18  31  49  77 106 130 158 200 257 315
#     4   9  17  29  46  71 104 134 163 194 245 314
#     4   9  16  29  49  78 105 127 158 202 256 312
#     4  10  20  30  51  76 104 132 167 207 255 289
#
# _framework density 17.715025000000001
#
# number of rings (size 3 to 8) (size 9 to 14) (size 15 to 20)
#    0.000    2.571    1.429    0.857    2.000    2.857 
#    0.000    0.714    0.000    0.000    0.000    0.000 
#    0.000    0.000    0.000    0.000    0.000    0.000 
#
# Total GULP energy -347094.530063 kJ/mol
# GULP energy per Si atom -12396.233217 kJ/mol
# Density = 1.767471 g / cm^3
# Si number density = 17.715025 Si / 1000 Ang^3
#
#
#
# Elastic Constant Matrix: (Units=GPa)
#
#
# Indices 1 2 3 4 5 6 
#
# 1 94.9190 42.5903 34.5200 0.0000 3.0425 0.0000
# 2 42.5903 93.7425 53.2434 0.0000 10.3753 0.0000
# 3 34.5200 53.2434 86.4464 0.0000 13.3201 0.0000
# 4 0.0000 0.0000 0.0000 24.8648 0.0000 5.0540
# 5 3.0425 10.3753 13.3201 0.0000 15.5190 0.0000
# 6 0.0000 0.0000 0.0000 5.0540 0.0000 21.4684
#
#
#
# Elastic Compliance Matrix: (Units=1/GPa)
#
#
# Indices 1 2 3 4 5 6 
#
# 1 0.013702 -0.004906 -0.002929 0.000000 0.003107 0.000000
# 2 -0.004906 0.018258 -0.008705 0.000000 -0.003773 0.000000
# 3 -0.002929 -0.008705 0.019722 0.000000 -0.010534 0.000000
# 4 0.000000 0.000000 0.000000 0.042239 0.000000 -0.009944
# 5 0.003107 -0.003773 -0.010534 0.000000 0.075392 0.000000
# 6 0.000000 0.000000 0.000000 -0.009944 0.000000 0.048921
#
#
# Mechanical properties :
#
#
# Convention : Reuss Voigt Hill
#
# Bulk Modulus (GPa) = 53.75466 59.53503 56.64485
# Shear Modulus (GPa) = 19.41644 22.02073 20.71859
#
# Velocity S-wave (km/s) = 3.31425 3.52952 3.42358
# Velocity P-wave (km/s) = 6.71235 7.09155 6.90455
#
# Compressibility (1/GPa) = 0.01860304
#
# Stress axis : x y z
#
# Youngs Moduli (GPa) = 72.98182 54.76976 50.70464
#
# Poissons Ratio (x) = 0.26868 0.14851
# Poissons Ratio (y) = 0.35803 0.44139
# Poissons Ratio (z) = 0.21375 0.47678
#
# Static dielectric constant tensor:
#      x y z
#    x 2.848380 0.000000 0.147290 
#    y 0.000000 3.610100 0.000000 
#    z 0.147290 0.000000 3.156810 
# 
# 
# High freq. dielectric constant tensor:
#      x y z
#    x 1.635160 0.000000 0.013290 
#    y 0.000000 1.702710 0.000000 
#    z 0.013290 0.000000 1.670080 
# 
# From -- ./inp_files/17666.got.cif
#   From: 2010.06.25/outbox.cif.g09.slc.cpg/sg11_9_cif.got.tgz:17666.got - 2010.06.27 23:14:04.
