data_PCOD8069007
_publ_section_title
;
Structure prediction by ZEFSAII (Michael W. Deem and Ramdas Pophale) SiO2 
 PCOD8069007
Probable space group: P 21/M
;
_chemical_formula_sum "Si O2"
_cell_formula_units_Z 28
_cell_length_a 13.445228
_cell_length_b 8.922450
_cell_length_c 17.321243
_cell_angle_alpha 90.000000
_cell_angle_beta 126.235996
_cell_angle_gamma 90.000000
_cell_volume 1676.037381
_symmetry_space_group_name_H-M "P 21/M"
_symmetry_group_IT_number 11
_symmetry_cell_setting 'monoclinic'
loop_
_space_group_symop_operation_xyz
x,y,z
-x,1/2+y,-z
-x,-y,-z
x,1/2-y,z
loop_
_atom_site_type_symbol
_atom_site_label
_atom_site_fract_x
_atom_site_fract_y
_atom_site_fract_z
Si Si1 0.067306 0.073313 0.459427
Si Si2 0.347618 0.426469 0.565858
Si Si3 0.965591 0.079211 0.712302
Si Si4 0.818693 0.923490 0.911014
Si Si5 0.034403 0.574861 0.895190
Si Si6 0.579782 0.574830 0.710945
Si Si7 0.322786 0.921773 0.396711
O O1 0.048730 0.250000 0.452647
O O2 0.211376 0.028310 0.531249
O O3 0.006792 0.010834 0.353413
O O4 0.000000 0.000000 0.500000
O O5 0.361976 0.250000 0.565944
O O6 0.449735 0.493801 0.671696
O O7 0.379749 0.498966 0.497915
O O8 0.007387 0.250000 0.719245
O O9 0.823451 0.066318 0.668156
O O10 0.043564 0.008564 0.817699
O O11 0.839825 0.750000 0.941553
O O12 0.677405 0.957240 0.823868
O O13 0.907372 0.968289 0.880330
O O14 0.850192 0.022823 0.999943
O O15 0.043558 0.750000 0.883353
O O16 0.557028 0.750000 0.690338
O O17 0.633119 0.509693 0.657035
O O18 0.367559 0.750000 0.414157
#
# Coordination Sequence:
#
# PCOD8069007 Si02
#       7
#     4   4   4   4   4   4   4
#     4  10  21  37  56  76  99 124 157 202 249 295
#     4  10  21  34  48  68  95 126 160 198 240 290
#     4  10  19  31  50  73  99 130 165 202 244 292
#     4   9  19  31  44  65  96 133 170 206 242 280
#     4  10  18  30  47  68  96 130 169 208 244 283
#     4  11  20  31  46  66  96 132 167 202 238 281
#     4  10  19  30  45  66  94 130 167 200 235 281
#
# _framework density 16.706071000000001
#
# number of rings (size 3 to 8) (size 9 to 14) (size 15 to 20)
#    0.000    2.000    1.429    3.000    0.000    4.571 
#    0.000    0.000    0.000    0.000    0.000    1.000 
#    0.000    0.000    0.000    0.000    0.000    0.000 
#
# Total GULP energy -347250.209201 kJ/mol
# GULP energy per Si atom -12401.793186 kJ/mol
# Density = 1.666805 g / cm^3
# Si number density = 16.706071 Si / 1000 Ang^3
#
#
#
# Elastic Constant Matrix: (Units=GPa)
#
#
# Indices 1 2 3 4 5 6 
#
# 1 55.9888 41.5217 43.2110 0.0000 -10.1221 0.0000
# 2 41.5217 125.6894 57.9346 0.0000 -3.6768 0.0000
# 3 43.2110 57.9346 111.3251 0.0000 -1.6383 0.0000
# 4 0.0000 0.0000 0.0000 33.8740 0.0000 -0.3359
# 5 -10.1221 -3.6768 -1.6383 0.0000 19.5415 0.0000
# 6 0.0000 0.0000 0.0000 -0.3359 0.0000 24.5158
#
#
#
# Elastic Compliance Matrix: (Units=1/GPa)
#
#
# Indices 1 2 3 4 5 6 
#
# 1 0.031922 -0.005926 -0.009091 0.000000 0.014657 0.000000
# 2 -0.005926 0.011612 -0.003760 0.000000 -0.001200 0.000000
# 3 -0.009091 -0.003760 0.014406 0.000000 -0.004208 0.000000
# 4 0.000000 0.000000 0.000000 0.029525 0.000000 0.000405
# 5 0.014657 -0.001200 -0.004208 0.000000 0.058187 0.000000
# 6 0.000000 0.000000 0.000000 0.000405 0.000000 0.040796
#
#
# Mechanical properties :
#
#
# Convention : Reuss Voigt Hill
#
# Bulk Modulus (GPa) = 49.05513 64.25979 56.65746
# Shear Modulus (GPa) = 21.66407 25.60867 23.63637
#
# Velocity S-wave (km/s) = 3.60499 3.91947 3.76551
# Velocity P-wave (km/s) = 6.83779 7.68319 7.27278
#
# Compressibility (1/GPa) = 0.02038523
#
# Stress axis : x y z
#
# Youngs Moduli (GPa) = 31.32679 86.11708 69.41462
#
# Poissons Ratio (x) = 0.51037 0.63102
# Poissons Ratio (y) = 0.18566 0.26102
# Poissons Ratio (z) = 0.28478 0.32383
#
# Static dielectric constant tensor:
#      x y z
#    x 2.907770 0.000000 0.200810 
#    y 0.000000 3.303290 0.000000 
#    z 0.200810 0.000000 3.249310 
# 
# 
# High freq. dielectric constant tensor:
#      x y z
#    x 1.600150 0.000000 0.013650 
#    y 0.000000 1.662170 0.000000 
#    z 0.013650 0.000000 1.643380 
# 
# From -- ./inp_files/37701.got.cif
#   From: 2010.06.25/outbox.cif.g09.slc.cpg/sg11_19_cif.got.tgz:37701.got - 2010.06.27 23:14:04.
