data_PCOD8069036
_publ_section_title
;
Structure prediction by ZEFSAII (Michael W. Deem and Ramdas Pophale) SiO2 
 PCOD8069036
Probable space group: P 21/M
;
_chemical_formula_sum "Si O2"
_cell_formula_units_Z 28
_cell_length_a 9.771912
_cell_length_b 8.953869
_cell_length_c 29.052133
_cell_angle_alpha 90.000000
_cell_angle_beta 141.791729
_cell_angle_gamma 90.000000
_cell_volume 1572.256290
_symmetry_space_group_name_H-M "P 21/M"
_symmetry_group_IT_number 11
_symmetry_cell_setting 'monoclinic'
loop_
_space_group_symop_operation_xyz
x,y,z
-x,1/2+y,-z
-x,-y,-z
x,1/2-y,z
loop_
_atom_site_type_symbol
_atom_site_label
_atom_site_fract_x
_atom_site_fract_y
_atom_site_fract_z
Si Si1 0.316821 0.424719 0.801977
Si Si2 0.188975 0.577490 0.078507
Si Si3 0.082924 0.573793 0.244650
Si Si4 0.590337 0.076573 0.591264
Si Si5 0.256532 0.927052 0.689831
Si Si6 0.818063 0.422703 0.554503
Si Si7 0.706729 0.072611 0.792449
O O1 0.282854 0.250000 0.780670
O O2 0.572889 0.456476 0.881894
O O3 0.241940 0.518848 0.738451
O O4 0.163542 0.475167 0.804462
O O5 0.132626 0.750000 0.062615
O O6 0.189858 0.519997 0.131569
O O7 0.000000 0.500000 0.000000
O O8 0.098895 0.750000 0.250807
O O9 0.269204 0.511961 0.328732
O O10 0.128784 0.518854 0.204765
O O11 0.529437 0.250000 0.580857
O O12 0.737006 0.050178 0.584915
O O13 0.364223 0.983389 0.529310
O O14 0.265201 0.750000 0.690381
O O15 0.472250 0.994110 0.722140
O O16 0.043251 0.985969 0.605967
O O17 0.862149 0.250000 0.555796
O O18 0.667585 0.250000 0.782375
#
# Coordination Sequence:
#
# PCOD8069036 Si02
#       7
#     4   4   4   4   4   4   4
#     4   9  17  33  55  78  99 130 171 208 249 301
#     4   9  18  32  53  77 104 133 166 202 241 295
#     4   9  16  32  56  77  99 128 169 214 255 301
#     4   9  17  29  48  74 100 128 164 214 262 299
#     4  11  20  31  49  74 102 134 173 216 252 295
#     4  10  18  30  48  71 101 134 172 214 253 299
#     4   9  19  35  55  76  99 133 169 206 254 305
#
# _framework density 17.808802
#
# number of rings (size 3 to 8) (size 9 to 14) (size 15 to 20)
#    0.000    2.571    1.429    2.571    0.000    2.857 
#    0.000    2.857    0.000    0.000    0.000    0.000 
#    0.000    0.000    0.000    0.000    0.000    0.000 
#
# Total GULP energy -347136.798280 kJ/mol
# GULP energy per Si atom -12397.742796 kJ/mol
# Density = 1.776827 g / cm^3
# Si number density = 17.808802 Si / 1000 Ang^3
#
#
#
# Elastic Constant Matrix: (Units=GPa)
#
#
# Indices 1 2 3 4 5 6 
#
# 1 133.0229 29.0982 62.3378 0.0000 8.2109 0.0000
# 2 29.0982 57.8500 34.1820 0.0000 6.7952 0.0000
# 3 62.3378 34.1820 126.0480 0.0000 8.8782 0.0000
# 4 0.0000 0.0000 0.0000 32.0183 0.0000 2.6421
# 5 8.2109 6.7952 8.8782 0.0000 20.1741 0.0000
# 6 0.0000 0.0000 0.0000 2.6421 0.0000 13.7382
#
#
#
# Elastic Compliance Matrix: (Units=1/GPa)
#
#
# Indices 1 2 3 4 5 6 
#
# 1 0.010127 -0.002412 -0.004253 0.000000 -0.001438 0.000000
# 2 -0.002412 0.021585 -0.004353 0.000000 -0.004373 0.000000
# 3 -0.004253 -0.004353 0.011344 0.000000 -0.001795 0.000000
# 4 0.000000 0.000000 0.000000 0.031736 0.000000 -0.006103
# 5 -0.001438 -0.004373 -0.001795 0.000000 0.052417 0.000000
# 6 0.000000 0.000000 0.000000 -0.006103 0.000000 0.073963
#
#
# Mechanical properties :
#
#
# Convention : Reuss Voigt Hill
#
# Bulk Modulus (GPa) = 47.57300 63.12856 55.35078
# Shear Modulus (GPa) = 21.71905 25.93966 23.82935
#
# Velocity S-wave (km/s) = 3.49602 3.82064 3.66193
# Velocity P-wave (km/s) = 6.56258 7.41538 7.00198
#
# Compressibility (1/GPa) = 0.02102033
#
# Stress axis : x y z
#
# Youngs Moduli (GPa) = 98.74700 46.32899 88.15549
#
# Poissons Ratio (x) = 0.11174 0.37492
# Poissons Ratio (y) = 0.23817 0.38370
# Poissons Ratio (z) = 0.41997 0.20165
#
# Static dielectric constant tensor:
#      x y z
#    x 3.544030 0.000000 0.097400 
#    y 0.000000 3.108220 0.000000 
#    z 0.097400 0.000000 3.282150 
# 
# 
# High freq. dielectric constant tensor:
#      x y z
#    x 1.676970 0.000000 0.014630 
#    y 0.000000 1.670910 0.000000 
#    z 0.014630 0.000000 1.682090 
# 
# From -- ./inp_files/29018.got.cif
#   From: 2010.06.25/outbox.cif.g09.slc.cpg/sg11_15_cif.got.tgz:29018.got - 2010.06.27 23:14:04.
