data_PCOD8069557
_publ_section_title
;
Structure prediction by ZEFSAII (Michael W. Deem and Ramdas Pophale) SiO2 
 PCOD8069557
Probable space group: P 21/M
;
_chemical_formula_sum "Si O2"
_cell_formula_units_Z 32
_cell_length_a 11.715708
_cell_length_b 14.033008
_cell_length_c 16.238413
_cell_angle_alpha 90.000000
_cell_angle_beta 150.830555
_cell_angle_gamma 90.000000
_cell_volume 1301.197255
_symmetry_space_group_name_H-M "P 21/M"
_symmetry_group_IT_number 11
_symmetry_cell_setting 'monoclinic'
loop_
_space_group_symop_operation_xyz
x,y,z
-x,1/2+y,-z
-x,-y,-z
x,1/2-y,z
loop_
_atom_site_type_symbol
_atom_site_label
_atom_site_fract_x
_atom_site_fract_y
_atom_site_fract_z
Si Si1 0.542508 0.644353 0.628340
Si Si2 0.909614 0.026968 0.699406
Si Si3 0.645383 0.354226 0.315109
Si Si4 0.171508 0.648110 0.207603
Si Si5 0.962737 0.416004 0.039744
Si Si6 0.472742 0.443983 0.795617
Si Si7 0.860993 0.642800 0.288403
Si Si8 0.681951 0.859922 0.476374
O O1 0.498588 0.750000 0.565879
O O2 0.340034 0.577319 0.468886
O O3 0.536650 0.643514 0.723820
O O4 0.799078 0.608999 0.760723
O O5 0.956549 0.056203 0.826352
O O6 0.115466 0.074262 0.775656
O O7 0.883029 0.916904 0.654546
O O8 0.620712 0.250000 0.255022
O O9 0.581561 0.444562 0.218347
O O10 0.911262 0.367876 0.511492
O O11 0.106161 0.750000 0.209595
O O12 0.452090 0.633308 0.388264
O O13 0.106898 0.664513 0.070851
O O14 0.752944 0.427539 0.973997
O O15 0.000000 0.500000 0.000000
O O16 0.367727 0.383088 0.803529
O O17 0.359621 0.412826 0.637147
O O18 0.835333 0.750000 0.239553
O O19 0.760597 0.750000 0.511413
#
# Coordination Sequence:
#
# PCOD8069557 Si02
#       8
#     4   4   4   4   4   4   4   4
#     4  10  18  32  55  83 113 147 191 240 289 340
#     4  11  20  38  59  84 119 154 193 241 292 349
#     4   9  17  30  50  78 109 145 191 241 287 339
#     4  10  21  36  57  84 117 154 194 239 289 347
#     4  11  21  36  55  85 120 155 192 239 293 346
#     4  11  19  35  52  77 119 155 189 243 299 347
#     4  10  20  32  54  83 112 150 196 238 290 352
#     4  10  20  32  49  78 113 148 186 233 293 349
#
# _framework density 24.592735000000001
#
# number of rings (size 3 to 8) (size 9 to 14) (size 15 to 20)
#    0.000    1.750    3.750    4.125    0.000    1.500 
#    0.000    0.000    0.000    1.500    0.000    3.500 
#    0.000    9.000    0.000    0.000    0.000    0.000 
#
# Total GULP energy -396561.646784 kJ/mol
# GULP energy per Si atom -12392.551462 kJ/mol
# Density = 2.453676 g / cm^3
# Si number density = 24.592735 Si / 1000 Ang^3
#
#
#
# Elastic Constant Matrix: (Units=GPa)
#
#
# Indices 1 2 3 4 5 6 
#
# 1 117.8299 26.9400 33.1501 0.0000 23.0999 0.0000
# 2 26.9400 147.3090 12.4842 0.0000 11.4049 0.0000
# 3 33.1501 12.4842 53.4132 0.0000 21.1496 0.0000
# 4 0.0000 0.0000 0.0000 9.2448 0.0000 6.6556
# 5 23.0999 11.4049 21.1496 0.0000 34.9361 0.0000
# 6 0.0000 0.0000 0.0000 6.6556 0.0000 32.9039
#
#
#
# Elastic Compliance Matrix: (Units=1/GPa)
#
#
# Indices 1 2 3 4 5 6 
#
# 1 0.010924 -0.001282 -0.004979 0.000000 -0.003790 0.000000
# 2 -0.001282 0.007152 -0.000378 0.000000 -0.001258 0.000000
# 3 -0.004979 -0.000378 0.027027 0.000000 -0.012946 0.000000
# 4 0.000000 0.000000 0.000000 0.126606 0.000000 -0.025609
# 5 -0.003790 -0.001258 -0.012946 0.000000 0.039377 0.000000
# 6 0.000000 0.000000 0.000000 -0.025609 0.000000 0.035572
#
#
# Mechanical properties :
#
#
# Convention : Reuss Voigt Hill
#
# Bulk Modulus (GPa) = 31.42255 51.52230 41.47242
# Shear Modulus (GPa) = 18.48128 31.81548 25.14838
#
# Velocity S-wave (km/s) = 2.74431 3.60070 3.20127
# Velocity P-wave (km/s) = 4.77981 6.18728 5.52852
#
# Compressibility (1/GPa) = 0.03182428
#
# Stress axis : x y z
#
# Youngs Moduli (GPa) = 91.54266 139.81321 37.00062
#
# Poissons Ratio (x) = 0.17929 0.18424
# Poissons Ratio (y) = 0.11739 0.01397
# Poissons Ratio (z) = 0.45582 0.05279
#
# Static dielectric constant tensor:
#      x y z
#    x 4.317600 0.000000 0.865480 
#    y 0.000000 4.881480 0.000000 
#    z 0.865480 0.000000 0.374280 
# 
# 
# High freq. dielectric constant tensor:
#      x y z
#    x 1.957790 0.000000 0.001900 
#    y 0.000000 2.002120 0.000000 
#    z 0.001900 0.000000 1.947020 
# 
# From -- ./inp_files/59527.got.cif
#   From: 2010.06.25/outbox.cif.g09.slc.cpg/sg11_30_cif.got.tgz:59527.got - 2010.06.27 23:14:04.
