data_PCOD8069359
_publ_section_title
;
Structure prediction by ZEFSAII (Michael W. Deem and Ramdas Pophale) SiO2 
 PCOD8069359
Probable space group: P 21/M
;
_chemical_formula_sum "Si O2"
_cell_formula_units_Z 28
_cell_length_a 25.524863
_cell_length_b 8.945133
_cell_length_c 19.210880
_cell_angle_alpha 90.000000
_cell_angle_beta 160.501171
_cell_angle_gamma 90.000000
_cell_volume 1464.089654
_symmetry_space_group_name_H-M "P 21/M"
_symmetry_group_IT_number 11
_symmetry_cell_setting 'monoclinic'
loop_
_space_group_symop_operation_xyz
x,y,z
-x,1/2+y,-z
-x,-y,-z
x,1/2-y,z
loop_
_atom_site_type_symbol
_atom_site_label
_atom_site_fract_x
_atom_site_fract_y
_atom_site_fract_z
Si Si1 0.019317 0.426135 0.192376
Si Si2 0.050135 0.922479 0.372986
Si Si3 0.875256 0.922456 0.294390
Si Si4 0.142103 0.578704 0.142358
Si Si5 0.625851 0.921140 0.205509
Si Si6 0.316434 0.573898 0.489738
Si Si7 0.551902 0.420746 0.876336
O O1 0.052111 0.250000 0.242207
O O2 0.979774 0.496581 0.217193
O O3 0.173539 0.501515 0.353347
O O4 0.865504 0.458195 0.950016
O O5 0.084063 0.750000 0.398479
O O6 0.921699 0.941328 0.272142
O O7 0.209676 0.997412 0.599038
O O8 0.864196 0.750000 0.302043
O O9 0.000000 0.000000 0.500000
O O10 0.708097 0.998076 0.097532
O O11 0.104130 0.750000 0.105339
O O12 0.298528 0.539901 0.383440
O O13 0.000000 0.500000 0.000000
O O14 0.642718 0.750000 0.202852
O O15 0.576757 0.932425 0.224243
O O16 0.500000 0.000000 0.000000
O O17 0.320527 0.750000 0.510709
O O18 0.480164 0.501081 0.718480
O O19 0.591998 0.250000 0.908203
#
# Coordination Sequence:
#
# PCOD8069359 Si02
#       7
#     4   4   4   4   4   4   4
#     4  10  18  31  52  81 115 148 185 228 275 328
#     4  11  23  38  57  82 112 145 186 231 278 335
#     4  11  25  43  61  82 109 146 190 233 281 338
#     4   8  16  28  46  76 112 147 182 222 270 325
#     4  11  23  37  56  82 111 141 179 228 281 334
#     4  10  18  31  53  81 114 150 185 226 276 327
#     4  11  23  38  57  83 113 146 187 232 277 332
#
# _framework density 19.124510999999998
#
# number of rings (size 3 to 8) (size 9 to 14) (size 15 to 20)
#    0.000    1.714    1.429    3.429    0.000    8.571 
#    0.000    0.000    0.000    0.857    0.000    0.000 
#    0.000    0.000    0.000    0.000    0.000    0.000 
#
# Total GULP energy -347089.939588 kJ/mol
# GULP energy per Si atom -12396.069271 kJ/mol
# Density = 1.908098 g / cm^3
# Si number density = 19.124511 Si / 1000 Ang^3
#
#
#
# Elastic Constant Matrix: (Units=GPa)
#
#
# Indices 1 2 3 4 5 6 
#
# 1 51.3093 31.3563 17.0299 0.0000 -22.3470 0.0000
# 2 31.3563 128.1251 39.7199 0.0000 -15.4580 0.0000
# 3 17.0299 39.7199 77.2380 0.0000 -25.9965 0.0000
# 4 0.0000 0.0000 0.0000 32.4846 0.0000 -4.9598
# 5 -22.3470 -15.4580 -25.9965 0.0000 40.4648 0.0000
# 6 0.0000 0.0000 0.0000 -4.9598 0.0000 28.9141
#
#
#
# Elastic Compliance Matrix: (Units=1/GPa)
#
#
# Indices 1 2 3 4 5 6 
#
# 1 0.028943 -0.005786 0.001569 0.000000 0.014782 0.000000
# 2 -0.005786 0.010454 -0.004889 0.000000 -0.002343 0.000000
# 3 0.001569 -0.004889 0.018855 0.000000 0.011113 0.000000
# 4 0.000000 0.000000 0.000000 0.031612 0.000000 0.005423
# 5 0.014782 -0.002343 0.011113 0.000000 0.039120 0.000000
# 6 0.000000 0.000000 0.000000 0.005423 0.000000 0.035515
#
#
# Mechanical properties :
#
#
# Convention : Reuss Voigt Hill
#
# Bulk Modulus (GPa) = 24.97465 48.09829 36.53647
# Shear Modulus (GPa) = 25.50269 31.61044 28.55656
#
# Velocity S-wave (km/s) = 3.65568 4.06997 3.86838
# Velocity P-wave (km/s) = 5.55932 6.87684 6.25287
#
# Compressibility (1/GPa) = 0.04004061
#
# Stress axis : x y z
#
# Youngs Moduli (GPa) = 34.55085 95.65854 53.03561
#
# Poissons Ratio (x) = 0.55351 -0.08323
# Poissons Ratio (y) = 0.19992 0.25927
# Poissons Ratio (z) = -0.05422 0.46764
#
# Static dielectric constant tensor:
#      x y z
#    x 3.651750 0.000000 -0.550060 
#    y 0.000000 3.704740 0.000000 
#    z -0.550060 0.000000 3.656380 
# 
# 
# High freq. dielectric constant tensor:
#      x y z
#    x 1.729150 0.000000 -0.037540 
#    y 0.000000 1.763360 0.000000 
#    z -0.037540 0.000000 1.736640 
# 
# From -- ./inp_files/66903.got.cif
#   From: 2010.06.25/outbox.cif.g09.slc.cpg/sg11_34_cif.got.tgz:66903.got - 2010.06.27 23:14:04.
