data_PCOD8069789
_publ_section_title
;
Structure prediction by ZEFSAII (Michael W. Deem and Ramdas Pophale) SiO2 
 PCOD8069789
Probable space group: P 21/M
;
_chemical_formula_sum "Si O2"
_cell_formula_units_Z 32
_cell_length_a 15.639291
_cell_length_b 14.231097
_cell_length_c 9.311364
_cell_angle_alpha 90.000000
_cell_angle_beta 130.190734
_cell_angle_gamma 90.000000
_cell_volume 1583.089554
_symmetry_space_group_name_H-M "P 21/M"
_symmetry_group_IT_number 11
_symmetry_cell_setting 'monoclinic'
loop_
_space_group_symop_operation_xyz
x,y,z
-x,1/2+y,-z
-x,-y,-z
x,1/2-y,z
loop_
_atom_site_type_symbol
_atom_site_label
_atom_site_fract_x
_atom_site_fract_y
_atom_site_fract_z
Si Si1 0.940034 0.640160 0.966890
Si Si2 0.602539 0.596607 0.556242
Si Si3 0.592690 0.110645 0.471653
Si Si4 0.224265 0.034756 0.023066
Si Si5 0.452121 0.644529 0.894774
Si Si6 0.817221 0.144857 0.863091
Si Si7 0.779784 0.646861 0.540989
Si Si8 0.679585 0.962274 0.181331
O O1 0.922749 0.750000 0.975065
O O2 0.878700 0.609756 0.751986
O O3 0.888719 0.586996 0.048745
O O4 0.069796 0.611852 0.094732
O O5 0.487506 0.645666 0.484082
O O6 0.577663 0.501376 0.440768
O O7 0.669698 0.662549 0.520903
O O8 0.671517 0.573461 0.774539
O O9 0.553173 0.156250 0.281764
O O10 0.719367 0.141247 0.638921
O O11 0.247487 0.052381 0.881993
O O12 0.210553 0.923266 0.034758
O O13 0.434689 0.750000 0.941517
O O14 0.357074 0.571539 0.845785
O O15 0.573343 0.606663 0.072127
O O16 0.831920 0.250000 0.940598
O O17 0.807939 0.750000 0.505581
O O18 0.761487 0.568522 0.399437
#
# Coordination Sequence:
#
# PCOD8069789 Si02
#       8
#     4   4   4   4   4   4   4   4
#     4   9  20  39  62  87 113 146 195 247 287 333
#     4   9  18  34  56  86 114 143 186 238 283 338
#     4  10  18  34  58  85 117 147 184 236 290 340
#     4  10  20  37  61  84 114 150 188 240 288 332
#     4  11  23  37  56  82 123 162 186 228 292 348
#     4  10  21  36  60  89 115 147 193 240 291 343
#     4  10  20  36  59  82 113 153 190 237 288 334
#     4  11  23  39  55  86 120 154 196 235 276 349
#
# _framework density 20.213638
#
# number of rings (size 3 to 8) (size 9 to 14) (size 15 to 20)
#    0.000    2.000    2.500    1.125    0.000    2.500 
#    0.000    0.625    0.000    0.000    0.000    0.000 
#    0.000    0.000    0.000    0.000    0.000    0.000 
#
# Total GULP energy -396736.822767 kJ/mol
# GULP energy per Si atom -12398.025711 kJ/mol
# Density = 2.016763 g / cm^3
# Si number density = 20.213638 Si / 1000 Ang^3
#
#
#
# Elastic Constant Matrix: (Units=GPa)
#
#
# Indices 1 2 3 4 5 6 
#
# 1 101.6565 35.9225 48.7964 0.0000 4.6521 0.0000
# 2 35.9225 100.9767 28.9435 0.0000 -5.9854 0.0000
# 3 48.7964 28.9435 69.0110 0.0000 -2.1583 0.0000
# 4 0.0000 0.0000 0.0000 18.2743 0.0000 2.7083
# 5 4.6521 -5.9854 -2.1583 0.0000 32.8046 0.0000
# 6 0.0000 0.0000 0.0000 2.7083 0.0000 16.4905
#
#
#
# Elastic Compliance Matrix: (Units=1/GPa)
#
#
# Indices 1 2 3 4 5 6 
#
# 1 0.015891 -0.002963 -0.010102 0.000000 -0.003459 0.000000
# 2 -0.002963 0.011910 -0.002825 0.000000 0.002407 0.000000
# 3 -0.010102 -0.002825 0.022894 0.000000 0.002423 0.000000
# 4 0.000000 0.000000 0.000000 0.056087 0.000000 -0.009211
# 5 -0.003459 0.002407 0.002423 0.000000 0.031573 0.000000
# 6 0.000000 0.000000 0.000000 -0.009211 0.000000 0.062154
#
#
# Mechanical properties :
#
#
# Convention : Reuss Voigt Hill
#
# Bulk Modulus (GPa) = 52.86592 55.44099 54.15346
# Shear Modulus (GPa) = 20.95621 24.04600 22.50110
#
# Velocity S-wave (km/s) = 3.22333 3.45279 3.34003
# Velocity P-wave (km/s) = 6.32958 6.58656 6.45934
#
# Compressibility (1/GPa) = 0.01891578
#
# Stress axis : x y z
#
# Youngs Moduli (GPa) = 62.92694 83.96550 43.67965
#
# Poissons Ratio (x) = 0.24877 0.44126
# Poissons Ratio (y) = 0.18644 0.12338
# Poissons Ratio (z) = 0.63570 0.23718
#
# Static dielectric constant tensor:
#      x y z
#    x 3.630380 0.000000 0.161720 
#    y 0.000000 3.833590 0.000000 
#    z 0.161720 0.000000 3.468470 
# 
# 
# High freq. dielectric constant tensor:
#      x y z
#    x 1.776790 0.000000 0.009720 
#    y 0.000000 1.798130 0.000000 
#    z 0.009720 0.000000 1.767490 
# 
# From -- ./inp_files/22203.got.cif
#   From: 2010.06.25/outbox.cif.g09.slc.cpg/sg11_12_cif.got.tgz:22203.got - 2010.06.27 23:14:04.
