data_PCOD8069423
_publ_section_title
;
Structure prediction by ZEFSAII (Michael W. Deem and Ramdas Pophale) SiO2 
 PCOD8069423
Probable space group: P 21/M
;
_chemical_formula_sum "Si O2"
_cell_formula_units_Z 28
_cell_length_a 16.641402
_cell_length_b 18.766083
_cell_length_c 9.682877
_cell_angle_alpha 90.000000
_cell_angle_beta 27.219436
_cell_angle_gamma 90.000000
_cell_volume 1383.132385
_symmetry_space_group_name_H-M "P 21/M"
_symmetry_group_IT_number 11
_symmetry_cell_setting 'monoclinic'
loop_
_space_group_symop_operation_xyz
x,y,z
-x,1/2+y,-z
-x,-y,-z
x,1/2-y,z
loop_
_atom_site_type_symbol
_atom_site_label
_atom_site_fract_x
_atom_site_fract_y
_atom_site_fract_z
Si Si1 0.336258 0.942763 0.901449
Si Si2 0.685117 0.601894 0.046660
Si Si3 0.627717 0.834253 0.405564
Si Si4 0.056702 0.429798 0.591350
Si Si5 0.455247 0.829677 0.177189
Si Si6 0.326515 0.546097 0.229139
Si Si7 0.231822 0.329947 0.517240
O O1 0.453863 0.882708 0.648012
O O2 0.402566 0.024729 0.784801
O O3 0.336530 0.921531 0.061126
O O4 0.145543 0.942871 0.124412
O O5 0.745034 0.645114 0.092383
O O6 0.541247 0.651077 0.191500
O O7 0.854207 0.591936 0.690277
O O8 0.581787 0.750000 0.481692
O O9 0.727424 0.859450 0.391651
O O10 0.151433 0.499328 0.509077
O O11 0.073332 0.370733 0.685142
O O12 0.376141 0.750000 0.305346
O O13 0.306360 0.887672 0.366342
O O14 0.595687 0.836902 0.839597
O O15 0.500000 0.500000 0.000000
O O16 0.165082 0.250000 0.632432
#
# Coordination Sequence:
#
# PCOD8069423 Si02
#       7
#     4   4   4   4   4   4   4
#     4  11  21  36  59  90 117 153 192 239 296 354
#     4  10  20  36  58  87 116 146 192 245 287 339
#     4  11  22  37  59  84 115 152 197 243 287 343
#     4  10  21  36  60  88 116 152 192 243 294 344
#     4  10  18  31  56  84 109 146 195 238 279 332
#     4  11  16  32  57  85 113 144 196 243 275 328
#     4   9  18  34  56  80 110 154 200 233 277 347
#
# _framework density 20.243905000000002
#
# number of rings (size 3 to 8) (size 9 to 14) (size 15 to 20)
#    0.000    1.714    5.714    2.571    0.000    1.143 
#    0.000    0.714    3.143    5.143    0.000    0.000 
#    0.000    0.000    0.000    0.000    0.000    0.000 
#
# Total GULP energy -347074.630930 kJ/mol
# GULP energy per Si atom -12395.522533 kJ/mol
# Density = 2.019783 g / cm^3
# Si number density = 20.243905 Si / 1000 Ang^3
#
#
#
# Elastic Constant Matrix: (Units=GPa)
#
#
# Indices 1 2 3 4 5 6 
#
# 1 140.5252 61.3874 36.4049 0.0000 3.0160 0.0000
# 2 61.3874 133.9158 31.7137 0.0000 -3.2721 0.0000
# 3 36.4049 31.7137 29.8521 0.0000 -7.1645 0.0000
# 4 0.0000 0.0000 0.0000 13.6187 0.0000 3.3999
# 5 3.0160 -3.2721 -7.1645 0.0000 31.5505 0.0000
# 6 0.0000 0.0000 0.0000 3.3999 0.0000 39.4903
#
#
#
# Elastic Compliance Matrix: (Units=1/GPa)
#
#
# Indices 1 2 3 4 5 6 
#
# 1 0.011485 -0.002422 -0.012435 0.000000 -0.004173 0.000000
# 2 -0.002422 0.010552 -0.008395 0.000000 -0.000581 0.000000
# 3 -0.012435 -0.008395 0.060981 0.000000 0.014166 0.000000
# 4 0.000000 0.000000 0.000000 0.075041 0.000000 -0.006461
# 5 -0.004173 -0.000581 0.014166 0.000000 0.035251 0.000000
# 6 0.000000 0.000000 0.000000 -0.006461 0.000000 0.025879
#
#
# Mechanical properties :
#
#
# Convention : Reuss Voigt Hill
#
# Bulk Modulus (GPa) = 27.38667 62.58948 44.98807
# Shear Modulus (GPa) = 17.99441 28.58438 23.28940
#
# Velocity S-wave (km/s) = 2.98464 3.76173 3.39549
# Velocity P-wave (km/s) = 5.04333 7.06062 6.13545
#
# Compressibility (1/GPa) = 0.03651411
#
# Stress axis : x y z
#
# Youngs Moduli (GPa) = 87.06923 94.77225 16.39849
#
# Poissons Ratio (x) = 0.22954 0.20391
# Poissons Ratio (y) = 0.21088 0.13767
# Poissons Ratio (z) = 1.08267 0.79564
#
# Static dielectric constant tensor:
#      x y z
#    x 3.920160 0.000000 0.139490 
#    y 0.000000 3.995130 0.000000 
#    z 0.139490 0.000000 3.100640 
# 
# 
# High freq. dielectric constant tensor:
#      x y z
#    x 1.809380 0.000000 0.012270 
#    y 0.000000 1.802450 0.000000 
#    z 0.012270 0.000000 1.729230 
# 
# From -- ./inp_files/23175.got.cif
#   From: 2010.06.25/outbox.cif.g09.slc.cpg/sg11_12_cif.got.tgz:23175.got - 2010.06.27 23:14:04.
