data_PCOD8069944
_publ_section_title
;
Structure prediction by ZEFSAII (Michael W. Deem and Ramdas Pophale) SiO2 
 PCOD8069944
Probable space group: P 21/M
;
_chemical_formula_sum "Si O2"
_cell_formula_units_Z 32
_cell_length_a 11.363965
_cell_length_b 13.629737
_cell_length_c 12.210884
_cell_angle_alpha 90.000000
_cell_angle_beta 74.012542
_cell_angle_gamma 90.000000
_cell_volume 1818.165256
_symmetry_space_group_name_H-M "P 21/M"
_symmetry_group_IT_number 11
_symmetry_cell_setting 'monoclinic'
loop_
_space_group_symop_operation_xyz
x,y,z
-x,1/2+y,-z
-x,-y,-z
x,1/2-y,z
loop_
_atom_site_type_symbol
_atom_site_label
_atom_site_fract_x
_atom_site_fract_y
_atom_site_fract_z
Si Si1 0.526190 0.364840 0.968817
Si Si2 0.910317 0.366147 0.708012
Si Si3 0.820191 0.362549 0.412470
Si Si4 0.259480 0.635039 0.804874
Si Si5 0.198512 0.864848 0.052039
Si Si6 0.496899 0.528566 0.814508
Si Si7 0.729367 0.483301 0.620232
Si Si8 0.930801 0.637213 0.525605
O O1 0.508468 0.250000 0.951756
O O2 0.666705 0.400887 0.947033
O O3 0.469481 0.423433 0.880027
O O4 0.460764 0.395538 0.100310
O O5 0.908816 0.250000 0.696928
O O6 0.907090 0.403551 0.836143
O O7 0.783523 0.403140 0.688990
O O8 0.026267 0.403093 0.606308
O O9 0.780888 0.250000 0.441573
O O10 0.815593 0.389066 0.285164
O O11 0.724462 0.432182 0.501688
O O12 0.957650 0.380663 0.419277
O O13 0.297347 0.750000 0.802305
O O14 0.379924 0.568520 0.779059
O O15 0.173100 0.607047 0.931882
O O16 0.199616 0.750000 0.066709
O O17 0.597556 0.517413 0.694194
O O18 0.814294 0.579064 0.596247
O O19 0.891896 0.750000 0.530647
#
# Coordination Sequence:
#
# PCOD8069944 Si02
#       8
#     4   4   4   4   4   4   4   4
#     4   9  17  30  45  69 100 125 157 201 241 281
#     4   9  15  26  45  71  93 116 156 202 241 270
#     4   9  18  33  51  70  95 127 163 201 237 272
#     4   9  18  32  48  69 100 127 157 199 236 282
#     4   8  13  24  45  68  90 115 149 197 239 266
#     4  10  19  28  47  75  97 127 159 191 244 291
#     4  11  19  29  49  72 100 124 154 196 238 288
#     4   9  19  32  48  70  95 125 159 197 239 281
#
# _framework density 17.600159999999999
#
# number of rings (size 3 to 8) (size 9 to 14) (size 15 to 20)
#    0.000    2.750    1.250    3.750    0.000    2.000 
#    0.000    0.000    0.000    3.750    0.000    0.000 
#    0.000    0.000    0.000    0.000    0.000    0.000 
#
# Total GULP energy -396436.498674 kJ/mol
# GULP energy per Si atom -12388.640584 kJ/mol
# Density = 1.756010 g / cm^3
# Si number density = 17.600160 Si / 1000 Ang^3
#
#
#
# Elastic Constant Matrix: (Units=GPa)
#
#
# Indices 1 2 3 4 5 6 
#
# 1 32.5536 22.2446 39.3988 0.0000 3.1307 0.0000
# 2 22.2446 65.2746 26.3466 0.0000 8.3238 0.0000
# 3 39.3988 26.3466 126.8138 0.0000 15.3662 0.0000
# 4 0.0000 0.0000 0.0000 23.3643 0.0000 0.9123
# 5 3.1307 8.3238 15.3662 0.0000 16.0232 0.0000
# 6 0.0000 0.0000 0.0000 0.9123 0.0000 17.9772
#
#
#
# Elastic Compliance Matrix: (Units=1/GPa)
#
#
# Indices 1 2 3 4 5 6 
#
# 1 0.060916 -0.015407 -0.017258 0.000000 0.012651 0.000000
# 2 -0.015407 0.021156 0.001537 0.000000 -0.009454 0.000000
# 3 -0.017258 0.001537 0.014275 0.000000 -0.011116 0.000000
# 4 0.000000 0.000000 0.000000 0.042885 0.000000 -0.002176
# 5 0.012651 -0.009454 -0.011116 0.000000 0.075509 0.000000
# 6 0.000000 0.000000 0.000000 -0.002176 0.000000 0.055736
#
#
# Mechanical properties :
#
#
# Convention : Reuss Voigt Hill
#
# Bulk Modulus (GPa) = 29.33301 44.51354 36.92328
# Shear Modulus (GPa) = 14.53081 20.58308 17.55695
#
# Velocity S-wave (km/s) = 2.87645 3.42348 3.16182
# Velocity P-wave (km/s) = 5.26636 6.40105 5.86122
#
# Compressibility (1/GPa) = 0.03409129
#
# Stress axis : x y z
#
# Youngs Moduli (GPa) = 16.41593 47.26896 70.05327
#
# Poissons Ratio (x) = 0.72827 1.20896
# Poissons Ratio (y) = 0.25292 -0.10767
# Poissons Ratio (z) = 0.28330 -0.07265
#
# Static dielectric constant tensor:
#      x y z
#    x 2.809820 0.000000 -0.095220 
#    y 0.000000 3.266740 0.000000 
#    z -0.095220 0.000000 3.863570 
# 
# 
# High freq. dielectric constant tensor:
#      x y z
#    x 1.620030 0.000000 -0.003860 
#    y 0.000000 1.679510 0.000000 
#    z -0.003860 0.000000 1.700320 
# 
# From -- ./inp_files/35479.got.cif
#   From: 2010.06.25/outbox.cif.g09.slc.cpg/sg11_18_cif.got.tgz:35479.got - 2010.06.27 23:14:04.
