data_PCOD8069941
_publ_section_title
;
Structure prediction by ZEFSAII (Michael W. Deem and Ramdas Pophale) SiO2 
 PCOD8069941
Probable space group: P 21/M
;
_chemical_formula_sum "Si O2"
_cell_formula_units_Z 32
_cell_length_a 20.330864
_cell_length_b 8.904520
_cell_length_c 12.272905
_cell_angle_alpha 90.000000
_cell_angle_beta 56.168303
_cell_angle_gamma 90.000000
_cell_volume 1845.634471
_symmetry_space_group_name_H-M "P 21/M"
_symmetry_group_IT_number 11
_symmetry_cell_setting 'monoclinic'
loop_
_space_group_symop_operation_xyz
x,y,z
-x,1/2+y,-z
-x,-y,-z
x,1/2-y,z
loop_
_atom_site_type_symbol
_atom_site_label
_atom_site_fract_x
_atom_site_fract_y
_atom_site_fract_z
Si Si1 0.705863 0.080675 0.078934
Si Si2 0.766507 0.071684 0.611050
Si Si3 0.392697 0.075275 0.189111
Si Si4 0.126284 0.572078 0.683625
Si Si5 0.837348 0.430041 0.109696
Si Si6 0.433691 0.573526 0.925629
Si Si7 0.165771 0.921002 0.223019
Si Si8 0.053298 0.072520 0.166261
O O1 0.692490 0.250000 0.128154
O O2 0.754740 0.005050 0.133660
O O3 0.618810 0.013883 0.129474
O O4 0.756611 0.068225 0.922268
O O5 0.759646 0.250000 0.616641
O O6 0.816141 0.008585 0.462947
O O7 0.811054 0.017177 0.679317
O O8 0.678441 0.006027 0.683210
O O9 0.373374 0.250000 0.199778
O O10 0.473604 0.044163 0.182578
O O11 0.403749 0.014679 0.057985
O O12 0.129739 0.750000 0.680637
O O13 0.156222 0.511495 0.772977
O O14 0.037294 0.518213 0.742549
O O15 0.841262 0.250000 0.096614
O O16 0.910176 0.493712 0.973337
O O17 0.417035 0.750000 0.961741
O O18 0.134929 0.750000 0.257660
O O19 0.095990 0.022803 0.238325
O O20 0.060620 0.250000 0.145406
#
# Coordination Sequence:
#
# PCOD8069941 Si02
#       8
#     4   4   4   4   4   4   4   4
#     4   8  13  25  47  70  89 117 154 190 223 269
#     4  10  19  34  51  64  92 133 165 191 230 284
#     4  10  19  28  44  72 100 123 153 195 237 278
#     4   9  19  33  50  70  91 124 165 200 231 279
#     4   9  17  32  52  72  92 119 162 200 231 278
#     4   9  16  29  47  69  97 128 157 185 230 285
#     4   9  17  30  48  68  91 125 162 189 229 287
#     4  10  19  31  48  72  98 119 150 201 252 280
#
# _framework density 17.338211000000001
#
# number of rings (size 3 to 8) (size 9 to 14) (size 15 to 20)
#    0.000    2.750    1.250    1.875    0.000    1.500 
#    0.000    2.500    0.000    0.750    0.000    0.000 
#    0.000    0.000    0.000    0.000    0.000    0.375 
#
# Total GULP energy -396589.196756 kJ/mol
# GULP energy per Si atom -12393.412399 kJ/mol
# Density = 1.729875 g / cm^3
# Si number density = 17.338211 Si / 1000 Ang^3
#
#
#
# Elastic Constant Matrix: (Units=GPa)
#
#
# Indices 1 2 3 4 5 6 
#
# 1 162.3831 29.8685 74.3914 0.0000 -8.9066 0.0000
# 2 29.8685 33.5961 21.6001 0.0000 -1.9315 0.0000
# 3 74.3914 21.6001 97.6248 0.0000 1.2459 0.0000
# 4 0.0000 0.0000 0.0000 16.8652 0.0000 -4.3926
# 5 -8.9066 -1.9315 1.2459 0.0000 18.5186 0.0000
# 6 0.0000 0.0000 0.0000 -4.3926 0.0000 23.5399
#
#
#
# Elastic Compliance Matrix: (Units=1/GPa)
#
#
# Indices 1 2 3 4 5 6 
#
# 1 0.010504 -0.004500 -0.007073 0.000000 0.005058 0.000000
# 2 -0.004500 0.036950 -0.004772 0.000000 0.002011 0.000000
# 3 -0.007073 -0.004772 0.016753 0.000000 -0.005026 0.000000
# 4 0.000000 0.000000 0.000000 0.062323 0.000000 0.011630
# 5 0.005058 0.002011 -0.005026 0.000000 0.056980 0.000000
# 6 0.000000 0.000000 0.000000 0.011630 0.000000 0.044651
#
#
# Mechanical properties :
#
#
# Convention : Reuss Voigt Hill
#
# Bulk Modulus (GPa) = 31.72921 60.59156 46.16039
# Shear Modulus (GPa) = 18.42600 22.96768 20.69684
#
# Velocity S-wave (km/s) = 3.26350 3.64357 3.45876
# Velocity P-wave (km/s) = 5.70443 7.26110 6.52932
#
# Compressibility (1/GPa) = 0.03151670
#
# Stress axis : x y z
#
# Youngs Moduli (GPa) = 95.20474 27.06374 59.69139
#
# Poissons Ratio (x) = 0.12179 0.42219
# Poissons Ratio (y) = 0.42843 0.28484
# Poissons Ratio (z) = 0.67337 0.12915
#
# Static dielectric constant tensor:
#      x y z
#    x 3.685940 0.000000 -0.010350 
#    y 0.000000 3.001540 0.000000 
#    z -0.010350 0.000000 3.104350 
# 
# 
# High freq. dielectric constant tensor:
#      x y z
#    x 1.689660 0.000000 -0.004570 
#    y 0.000000 1.643670 0.000000 
#    z -0.004570 0.000000 1.636530 
# 
# From -- ./inp_files/42785.got.cif
#   From: 2010.06.25/outbox.cif.g09.slc.cpg/sg11_22_cif.got.tgz:42785.got - 2010.06.27 23:14:04.
