data_PCOD8069489
_publ_section_title
;
Structure prediction by ZEFSAII (Michael W. Deem and Ramdas Pophale) SiO2 
 PCOD8069489
Probable space group: P 21/M
;
_chemical_formula_sum "Si O2"
_cell_formula_units_Z 24
_cell_length_a 24.648250
_cell_length_b 8.654381
_cell_length_c 9.238631
_cell_angle_alpha 90.000000
_cell_angle_beta 138.622948
_cell_angle_gamma 90.000000
_cell_volume 1302.682737
_symmetry_space_group_name_H-M "P 21/M"
_symmetry_group_IT_number 11
_symmetry_cell_setting 'monoclinic'
loop_
_space_group_symop_operation_xyz
x,y,z
-x,1/2+y,-z
-x,-y,-z
x,1/2-y,z
loop_
_atom_site_type_symbol
_atom_site_label
_atom_site_fract_x
_atom_site_fract_y
_atom_site_fract_z
Si Si1 0.072176 0.071517 0.553401
Si Si2 0.339902 0.568487 0.347384
Si Si3 0.422974 0.434216 0.260142
Si Si4 0.828829 0.571206 0.980899
Si Si5 0.007083 0.431161 0.857092
Si Si6 0.508702 0.566247 0.176549
O O1 0.054376 0.250000 0.492753
O O2 0.154535 0.046733 0.813107
O O3 0.071152 0.989767 0.394379
O O4 0.000000 0.000000 0.500000
O O5 0.357132 0.750000 0.381634
O O6 0.345220 0.499537 0.193880
O O7 0.405101 0.488025 0.583668
O O8 0.248661 0.531658 0.221755
O O9 0.500000 0.500000 0.500000
O O10 0.421400 0.250000 0.254366
O O11 0.431117 0.500260 0.113666
O O12 0.809404 0.750000 0.909997
O O13 0.907059 0.516066 0.043596
O O14 0.001728 0.250000 0.855744
O O15 0.000000 0.500000 0.000000
O O16 0.505200 0.750000 0.167667
O O17 0.500000 0.500000 0.000000
#
# Coordination Sequence:
#
# PCOD8069489 Si02
#       6
#     4   4   4   4   4   4
#     4   9  17  31  52  75 101 132 171 211 253 305
#     4  11  21  34  54  80 106 137 177 220 262 308
#     4  10  18  32  53  76 102 134 171 210 252 303
#     4   9  19  35  53  76 104 137 174 218 267 313
#     4  10  20  34  54  78 107 140 177 216 262 316
#     4  11  21  36  56  79 108 140 175 215 260 315
#
# _framework density 18.423518000000001
#
# number of rings (size 3 to 8) (size 9 to 14) (size 15 to 20)
#    0.000    2.000    0.000    8.500    0.000    4.000 
#    0.000    1.667    0.000    6.000    0.000    0.000 
#    0.000    0.000    0.000    0.000    0.000    0.000 
#
# Total GULP energy -297455.856402 kJ/mol
# GULP energy per Si atom -12393.994017 kJ/mol
# Density = 1.838159 g / cm^3
# Si number density = 18.423518 Si / 1000 Ang^3
#
#
#
# Elastic Constant Matrix: (Units=GPa)
#
#
# Indices 1 2 3 4 5 6 
#
# 1 97.3258 48.7496 53.3921 0.0000 -20.7053 0.0000
# 2 48.7496 140.2109 41.7759 0.0000 -7.9164 0.0000
# 3 53.3921 41.7759 84.1310 0.0000 -16.5826 0.0000
# 4 0.0000 0.0000 0.0000 31.8475 0.0000 -4.5196
# 5 -20.7053 -7.9164 -16.5826 0.0000 35.9446 0.0000
# 6 0.0000 0.0000 0.0000 -4.5196 0.0000 32.9528
#
#
#
# Elastic Compliance Matrix: (Units=1/GPa)
#
#
# Indices 1 2 3 4 5 6 
#
# 1 0.017828 -0.003333 -0.008557 0.000000 0.005587 0.000000
# 2 -0.003333 0.008994 -0.002573 0.000000 -0.001126 0.000000
# 3 -0.008557 -0.002573 0.019263 0.000000 0.003391 0.000000
# 4 0.000000 0.000000 0.000000 0.032023 0.000000 0.004392
# 5 0.005587 -0.001126 0.003391 0.000000 0.032355 0.000000
# 6 0.000000 0.000000 0.000000 0.004392 0.000000 0.030949
#
#
# Mechanical properties :
#
#
# Convention : Reuss Voigt Hill
#
# Bulk Modulus (GPa) = 58.28293 67.72256 63.00275
# Shear Modulus (GPa) = 28.39984 31.99900 30.19942
#
# Velocity S-wave (km/s) = 3.93045 4.17208 4.05307
# Velocity P-wave (km/s) = 7.23199 7.74899 7.49495
#
# Compressibility (1/GPa) = 0.01715768
#
# Stress axis : x y z
#
# Youngs Moduli (GPa) = 56.09284 111.18553 51.91352
#
# Poissons Ratio (x) = 0.37061 0.44425
# Poissons Ratio (y) = 0.18697 0.13355
# Poissons Ratio (z) = 0.48001 0.28604
#
# Static dielectric constant tensor:
#      x y z
#    x 3.297020 0.000000 -0.371350 
#    y 0.000000 4.941700 0.000000 
#    z -0.371350 0.000000 3.459620 
# 
# 
# High freq. dielectric constant tensor:
#      x y z
#    x 1.703050 0.000000 -0.011890 
#    y 0.000000 1.732540 0.000000 
#    z -0.011890 0.000000 1.698020 
# 
# From -- ./inp_files/25934.got.cif
#   From: 2010.06.25/outbox.cif.g09.slc.cpg/sg11_13_cif.got.tgz:25934.got - 2010.06.27 23:14:04.
