data_PCOD8069298
_publ_section_title
;
Structure prediction by ZEFSAII (Michael W. Deem and Ramdas Pophale) SiO2 
 PCOD8069298
Probable space group: P 21/M
;
_chemical_formula_sum "Si O2"
_cell_formula_units_Z 20
_cell_length_a 22.584031
_cell_length_b 8.648343
_cell_length_c 15.652942
_cell_angle_alpha 90.000000
_cell_angle_beta 159.794392
_cell_angle_gamma 90.000000
_cell_volume 1055.942262
_symmetry_space_group_name_H-M "P 21/M"
_symmetry_group_IT_number 11
_symmetry_cell_setting 'monoclinic'
loop_
_space_group_symop_operation_xyz
x,y,z
-x,1/2+y,-z
-x,-y,-z
x,1/2-y,z
loop_
_atom_site_type_symbol
_atom_site_label
_atom_site_fract_x
_atom_site_fract_y
_atom_site_fract_z
Si Si1 0.137807 0.566882 0.121269
Si Si2 0.085214 0.071320 0.485494
Si Si3 0.251148 0.929597 0.867952
Si Si4 0.626627 0.567986 0.433586
Si Si5 0.898584 0.431138 0.673303
O O1 0.136184 0.750000 0.116824
O O2 0.321263 0.506416 0.404003
O O3 0.000000 0.500000 0.000000
O O4 0.082072 0.501667 0.953143
O O5 0.105004 0.250000 0.487283
O O6 0.894752 0.032165 0.260467
O O7 0.222968 0.029552 0.744684
O O8 0.125049 0.966985 0.457877
O O9 0.246846 0.750000 0.836272
O O10 0.430785 0.978663 0.152213
O O11 0.652901 0.750000 0.474712
O O12 0.740835 0.504795 0.510872
O O13 0.897914 0.250000 0.689135
#
# Coordination Sequence:
#
# PCOD8069298 Si02
#       5
#     4   4   4   4   4
#     4  10  18  31  51  76 105 136 170 208 256 306
#     4  10  20  36  56  77 103 136 173 213 258 306
#     4   9  20  37  56  77 103 136 172 211 258 310
#     4  10  19  34  55  79 106 135 170 212 257 304
#     4  11  21  34  53  78 106 137 174 212 254 303
#
# _framework density 18.940429999999999
#
# number of rings (size 3 to 8) (size 9 to 14) (size 15 to 20)
#    0.000    2.000    0.000    7.200    0.000    3.200 
#    0.000    1.000    0.000    0.000    0.000    0.000 
#    0.000    0.000    0.000    0.000    0.000    0.000 
#
# Total GULP energy -248006.982470 kJ/mol
# GULP energy per Si atom -12400.349123 kJ/mol
# Density = 1.889732 g / cm^3
# Si number density = 18.940430 Si / 1000 Ang^3
#
#
#
# Elastic Constant Matrix: (Units=GPa)
#
#
# Indices 1 2 3 4 5 6 
#
# 1 16.1015 11.5294 -2.7144 0.0000 2.9907 0.0000
# 2 11.5294 85.4366 43.5937 0.0000 -3.0623 0.0000
# 3 -2.7144 43.5937 110.7296 0.0000 13.8928 0.0000
# 4 0.0000 0.0000 0.0000 34.6036 0.0000 -7.5400
# 5 2.9907 -3.0623 13.8928 0.0000 15.3977 0.0000
# 6 0.0000 0.0000 0.0000 -7.5400 0.0000 22.0127
#
#
#
# Elastic Compliance Matrix: (Units=1/GPa)
#
#
# Indices 1 2 3 4 5 6 
#
# 1 0.084755 -0.019766 0.014004 0.000000 -0.033028 0.000000
# 2 -0.019766 0.020497 -0.010766 0.000000 0.017630 0.000000
# 3 0.014004 -0.010766 0.016038 0.000000 -0.019332 0.000000
# 4 0.000000 0.000000 0.000000 0.031230 0.000000 0.010697
# 5 -0.033028 0.017630 -0.019332 0.000000 0.092309 0.000000
# 6 0.000000 0.000000 0.000000 0.010697 0.000000 0.049092
#
#
# Mechanical properties :
#
#
# Convention : Reuss Voigt Hill
#
# Bulk Modulus (GPa) = 11.33370 35.23168 23.28269
# Shear Modulus (GPa) = 14.02957 25.06006 19.54481
#
# Velocity S-wave (km/s) = 2.72457 3.64139 3.21582
# Velocity P-wave (km/s) = 3.98680 6.02672 5.10959
#
# Compressibility (1/GPa) = 0.08823243
#
# Stress axis : x y z
#
# Youngs Moduli (GPa) = 11.79872 48.78694 62.35046
#
# Poissons Ratio (x) = 0.96435 -0.87313
# Poissons Ratio (y) = 0.23322 0.67128
# Poissons Ratio (z) = -0.16522 0.52525
#
# Static dielectric constant tensor:
#      x y z
#    x 3.222790 0.000000 -0.232990 
#    y 0.000000 3.525710 0.000000 
#    z -0.232990 0.000000 4.000550 
# 
# 
# High freq. dielectric constant tensor:
#      x y z
#    x 1.705620 0.000000 -0.017270 
#    y 0.000000 1.750600 0.000000 
#    z -0.017270 0.000000 1.748410 
# 
# From -- ./inp_files/26003.got.cif
#   From: 2010.06.25/outbox.cif.g09.slc.cpg/sg11_14_cif.got.tgz:26003.got - 2010.06.27 23:14:04.
