data_PCOD8069767
_publ_section_title
;
Structure prediction by ZEFSAII (Michael W. Deem and Ramdas Pophale) SiO2 
 PCOD8069767
Probable space group: P 21/M
;
_chemical_formula_sum "Si O2"
_cell_formula_units_Z 28
_cell_length_a 20.546777
_cell_length_b 8.753090
_cell_length_c 16.169586
_cell_angle_alpha 90.000000
_cell_angle_beta 28.652346
_cell_angle_gamma 90.000000
_cell_volume 1394.398769
_symmetry_space_group_name_H-M "P 21/M"
_symmetry_group_IT_number 11
_symmetry_cell_setting 'monoclinic'
loop_
_space_group_symop_operation_xyz
x,y,z
-x,1/2+y,-z
-x,-y,-z
x,1/2-y,z
loop_
_atom_site_type_symbol
_atom_site_label
_atom_site_fract_x
_atom_site_fract_y
_atom_site_fract_z
Si Si1 0.674157 0.429374 0.893237
Si Si2 0.216123 0.429537 0.379336
Si Si3 0.551014 0.926873 0.181786
Si Si4 0.197058 0.078129 0.002871
Si Si5 0.248122 0.925658 0.519184
Si Si6 0.065331 0.075974 0.319820
Si Si7 0.996053 0.068352 0.094537
O O1 0.657401 0.250000 0.901605
O O2 0.662979 0.507014 0.814626
O O3 0.818570 0.472908 0.770687
O O4 0.557812 0.489865 0.085161
O O5 0.208134 0.250000 0.380428
O O6 0.238795 0.472962 0.448377
O O7 0.078265 0.502901 0.496985
O O8 0.591216 0.750000 0.121530
O O9 0.661506 0.999448 0.123317
O O10 0.400181 0.944469 0.386738
O O11 0.234001 0.250000 0.936876
O O12 0.082291 0.073563 0.201729
O O13 0.125672 0.002098 0.001976
O O14 0.219349 0.750000 0.526538
O O15 0.143401 0.983433 0.705346
O O16 0.073599 0.250000 0.343974
O O17 0.001887 0.250000 0.083049
O O18 0.000000 0.000000 0.000000
#
# Coordination Sequence:
#
# PCOD8069767 Si02
#       7
#     4   4   4   4   4   4   4
#     4  11  22  35  52  79 115 154 194 237 284 332
#     4  12  23  34  52  80 114 151 195 240 287 335
#     4   9  19  37  60  82 108 150 196 236 281 335
#     4   8  15  32  58  82 108 143 182 225 277 335
#     4  10  21  39  60  82 111 148 190 236 289 342
#     4  10  18  34  56  79 111 150 195 240 285 332
#     4  10  20  37  60  87 115 144 180 228 285 343
#
# _framework density 20.080338000000001
#
# number of rings (size 3 to 8) (size 9 to 14) (size 15 to 20)
#    0.000    2.000    1.429    4.286    0.000    1.714 
#    0.000    1.429    0.000    0.000    0.000    0.000 
#    0.000    0.000    0.000    0.000    0.000    0.000 
#
# Total GULP energy -347103.107636 kJ/mol
# GULP energy per Si atom -12396.539558 kJ/mol
# Density = 2.003463 g / cm^3
# Si number density = 20.080338 Si / 1000 Ang^3
#
#
#
# Elastic Constant Matrix: (Units=GPa)
#
#
# Indices 1 2 3 4 5 6 
#
# 1 90.8375 32.3197 62.5281 0.0000 21.2028 0.0000
# 2 32.3197 72.2615 27.5183 0.0000 2.1466 0.0000
# 3 62.5281 27.5183 107.7090 0.0000 4.5423 0.0000
# 4 0.0000 0.0000 0.0000 23.9586 0.0000 5.8252
# 5 21.2028 2.1466 4.5423 0.0000 29.5609 0.0000
# 6 0.0000 0.0000 0.0000 5.8252 0.0000 26.9214
#
#
#
# Elastic Compliance Matrix: (Units=1/GPa)
#
#
# Indices 1 2 3 4 5 6 
#
# 1 0.025634 -0.006181 -0.012627 0.000000 -0.015997 0.000000
# 2 -0.006181 0.016828 -0.000852 0.000000 0.003342 0.000000
# 3 -0.012627 -0.000852 0.016555 0.000000 0.006575 0.000000
# 4 0.000000 0.000000 0.000000 0.044056 0.000000 -0.009533
# 5 -0.015997 0.003342 0.006575 0.000000 0.044049 0.000000
# 6 0.000000 0.000000 0.000000 -0.009533 0.000000 0.039208
#
#
# Mechanical properties :
#
#
# Convention : Reuss Voigt Hill
#
# Bulk Modulus (GPa) = 50.77078 57.28223 54.02650
# Shear Modulus (GPa) = 21.53152 25.98429 23.75790
#
# Velocity S-wave (km/s) = 3.27810 3.60115 3.44342
# Velocity P-wave (km/s) = 6.29815 6.77344 6.54011
#
# Compressibility (1/GPa) = 0.01969637
#
# Stress axis : x y z
#
# Youngs Moduli (GPa) = 39.01095 59.42340 60.40391
#
# Poissons Ratio (x) = 0.36730 0.76274
# Poissons Ratio (y) = 0.24113 0.05147
# Poissons Ratio (z) = 0.49260 0.05063
#
# Static dielectric constant tensor:
#      x y z
#    x 3.780930 0.000000 -0.074560 
#    y 0.000000 3.393860 0.000000 
#    z -0.074560 0.000000 3.705110 
# 
# 
# High freq. dielectric constant tensor:
#      x y z
#    x 1.783090 0.000000 -0.013170 
#    y 0.000000 1.760480 0.000000 
#    z -0.013170 0.000000 1.774860 
# 
# From -- ./inp_files/54442.got.cif
#   From: 2010.06.25/outbox.cif.g09.slc.cpg/sg11_28_cif.got.tgz:54442.got - 2010.06.27 23:14:04.
