data_PCOD8069762
_publ_section_title
;
Structure prediction by ZEFSAII (Michael W. Deem and Ramdas Pophale) SiO2 
 PCOD8069762
Probable space group: P 21/M
;
_chemical_formula_sum "Si O2"
_cell_formula_units_Z 32
_cell_length_a 19.353366
_cell_length_b 8.824445
_cell_length_c 14.696326
_cell_angle_alpha 90.000000
_cell_angle_beta 40.515655
_cell_angle_gamma 90.000000
_cell_volume 1630.557061
_symmetry_space_group_name_H-M "P 21/M"
_symmetry_group_IT_number 11
_symmetry_cell_setting 'monoclinic'
loop_
_space_group_symop_operation_xyz
x,y,z
-x,1/2+y,-z
-x,-y,-z
x,1/2-y,z
loop_
_atom_site_type_symbol
_atom_site_label
_atom_site_fract_x
_atom_site_fract_y
_atom_site_fract_z
Si Si1 0.621518 0.926239 0.704426
Si Si2 0.224482 0.920411 0.926997
Si Si3 0.176747 0.072647 0.612773
Si Si4 0.319061 0.570498 0.174536
Si Si5 0.954079 0.418972 0.755685
Si Si6 0.386709 0.572892 0.909299
Si Si7 0.885386 0.430772 0.136941
Si Si8 0.104789 0.073515 0.356879
O O1 0.637710 0.750000 0.709807
O O2 0.717350 0.985778 0.544857
O O3 0.510525 0.955874 0.762561
O O4 0.610827 0.010712 0.811745
O O5 0.265608 0.750000 0.872656
O O6 0.313324 0.002573 0.902647
O O7 0.202680 0.990899 0.848973
O O8 0.107069 0.924755 0.088188
O O9 0.184096 0.250000 0.629685
O O10 0.077275 0.039422 0.646361
O O11 0.161490 0.978820 0.719599
O O12 0.320459 0.750000 0.174817
O O13 0.201826 0.506789 0.310174
O O14 0.360083 0.505791 0.036201
O O15 0.944640 0.250000 0.722103
O O16 0.895071 0.539748 0.750740
O O17 0.358277 0.750000 0.942398
O O18 0.896709 0.250000 0.120683
O O19 0.000000 0.500000 0.000000
O O20 0.109897 0.250000 0.372579
O O21 0.000000 0.000000 0.500000
#
# Coordination Sequence:
#
# PCOD8069762 Si02
#       8
#     4   4   4   4   4   4   4   4
#     4  10  21  37  58  83 113 152 195 238 285 338
#     4   9  17  33  57  82 109 143 183 227 280 339
#     4  10  21  37  56  81 115 151 184 228 285 343
#     4  11  21  36  59  84 113 151 194 241 287 336
#     4  10  18  34  56  77 110 150 184 224 284 344
#     4   9  18  35  59  83 110 150 196 236 282 341
#     4  11  21  35  59  87 113 146 186 232 285 343
#     4  12  24  36  52  80 116 152 191 233 285 343
#
# _framework density 19.625194
#
# number of rings (size 3 to 8) (size 9 to 14) (size 15 to 20)
#    0.000    1.750    2.500    3.000    0.000    2.000 
#    0.000    1.250    0.000    0.000    0.000    0.000 
#    0.000    0.000    0.000    0.000    0.000    0.000 
#
# Total GULP energy -396666.024407 kJ/mol
# GULP energy per Si atom -12395.813263 kJ/mol
# Density = 1.958053 g / cm^3
# Si number density = 19.625194 Si / 1000 Ang^3
#
#
#
# Elastic Constant Matrix: (Units=GPa)
#
#
# Indices 1 2 3 4 5 6 
#
# 1 130.4888 29.1690 45.8502 0.0000 -4.1555 0.0000
# 2 29.1690 49.3914 17.0584 0.0000 4.4448 0.0000
# 3 45.8502 17.0584 76.4658 0.0000 -8.0795 0.0000
# 4 0.0000 0.0000 0.0000 21.6224 0.0000 5.6617
# 5 -4.1555 4.4448 -8.0795 0.0000 34.9669 0.0000
# 6 0.0000 0.0000 0.0000 5.6617 0.0000 26.7569
#
#
#
# Elastic Compliance Matrix: (Units=1/GPa)
#
#
# Indices 1 2 3 4 5 6 
#
# 1 0.010524 -0.004455 -0.005253 0.000000 0.000603 0.000000
# 2 -0.004455 0.024388 -0.003231 0.000000 -0.004376 0.000000
# 3 -0.005253 -0.003231 0.017349 0.000000 0.003795 0.000000
# 4 0.000000 0.000000 0.000000 0.048961 0.000000 -0.010360
# 5 0.000603 -0.004376 0.003795 0.000000 0.030103 0.000000
# 6 0.000000 0.000000 0.000000 -0.010360 0.000000 0.039566
#
#
# Mechanical properties :
#
#
# Convention : Reuss Voigt Hill
#
# Bulk Modulus (GPa) = 37.90480 48.94459 43.42470
# Shear Modulus (GPa) = 24.32325 27.62048 25.97186
#
# Velocity S-wave (km/s) = 3.52431 3.75560 3.64179
# Velocity P-wave (km/s) = 5.99311 6.61815 6.31337
#
# Compressibility (1/GPa) = 0.02638188
#
# Stress axis : x y z
#
# Youngs Moduli (GPa) = 95.01727 41.00450 57.63900
#
# Poissons Ratio (x) = 0.18269 0.30277
# Poissons Ratio (y) = 0.42335 0.18625
# Poissons Ratio (z) = 0.49912 0.13250
#
# Static dielectric constant tensor:
#      x y z
#    x 4.000860 0.000000 0.105410 
#    y 0.000000 3.559910 0.000000 
#    z 0.105410 0.000000 3.617590 
# 
# 
# High freq. dielectric constant tensor:
#      x y z
#    x 1.777400 0.000000 -0.002690 
#    y 0.000000 1.731340 0.000000 
#    z -0.002690 0.000000 1.757160 
# 
# From -- ./inp_files/42888.got.cif
#   From: 2010.06.25/outbox.cif.g09.slc.cpg/sg11_22_cif.got.tgz:42888.got - 2010.06.27 23:14:04.
