data_PCOD8069506
_publ_section_title
;
Structure prediction by ZEFSAII (Michael W. Deem and Ramdas Pophale) SiO2 
 PCOD8069506
Probable space group: P 21/M
;
_chemical_formula_sum "Si O2"
_cell_formula_units_Z 32
_cell_length_a 13.398383
_cell_length_b 15.903077
_cell_length_c 10.951821
_cell_angle_alpha 90.000000
_cell_angle_beta 131.859530
_cell_angle_gamma 90.000000
_cell_volume 1737.999652
_symmetry_space_group_name_H-M "P 21/M"
_symmetry_group_IT_number 11
_symmetry_cell_setting 'monoclinic'
loop_
_space_group_symop_operation_xyz
x,y,z
-x,1/2+y,-z
-x,-y,-z
x,1/2-y,z
loop_
_atom_site_type_symbol
_atom_site_label
_atom_site_fract_x
_atom_site_fract_y
_atom_site_fract_z
Si Si1 0.452341 0.849809 0.237392
Si Si2 0.307436 0.847383 0.635255
Si Si3 0.937851 0.151527 0.734245
Si Si4 0.192507 0.457066 0.945462
Si Si5 0.375231 0.557902 0.933204
Si Si6 0.587752 0.655070 0.755910
Si Si7 0.615753 0.939796 0.549563
Si Si8 0.786602 0.066530 0.812475
O O1 0.474849 0.750000 0.262072
O O2 0.586596 0.901634 0.390759
O O3 0.336266 0.877157 0.237434
O O4 0.421391 0.875879 0.074078
O O5 0.302530 0.750000 0.662669
O O6 0.175046 0.875134 0.454857
O O7 0.319615 0.894406 0.771667
O O8 0.432916 0.869258 0.651127
O O9 0.968951 0.250000 0.755919
O O10 0.893005 0.128194 0.835649
O O11 0.071964 0.102581 0.807139
O O12 0.244043 0.507851 0.870615
O O13 0.323004 0.405266 0.089972
O O14 0.146314 0.518673 0.017766
O O15 0.500000 0.500000 0.000000
O O16 0.618767 0.750000 0.819777
O O17 0.621630 0.641933 0.641924
O O18 0.500000 0.000000 0.500000
O O19 0.748335 0.996709 0.676639
#
# Coordination Sequence:
#
# PCOD8069506 Si02
#       8
#     4   4   4   4   4   4   4   4
#     4  10  19  32  52  81 112 142 182 228 276 330
#     4  10  21  35  55  80 108 142 186 230 271 321
#     4  11  22  36  57  83 112 143 181 226 278 332
#     4  10  21  37  55  83 107 146 182 227 270 331
#     4  11  22  36  56  77 107 145 191 231 278 314
#     4  10  18  32  53  79 110 139 173 224 279 324
#     4   9  17  28  49  78 109 139 173 220 273 327
#     4   9  19  33  55  79 113 142 180 219 274 338
#
# _framework density 18.411971999999999
#
# number of rings (size 3 to 8) (size 9 to 14) (size 15 to 20)
#    0.000    2.000    1.250    4.125    1.750    1.500 
#    0.000    0.000    0.000    0.000    0.000    0.000 
#    0.000    0.000    0.000    0.000    0.000    0.000 
#
# Total GULP energy -396659.130010 kJ/mol
# GULP energy per Si atom -12395.597813 kJ/mol
# Density = 1.837007 g / cm^3
# Si number density = 18.411972 Si / 1000 Ang^3
#
#
#
# Elastic Constant Matrix: (Units=GPa)
#
#
# Indices 1 2 3 4 5 6 
#
# 1 64.8345 37.7640 35.5192 0.0000 -2.2500 0.0000
# 2 37.7640 87.3403 48.2253 0.0000 -5.5834 0.0000
# 3 35.5192 48.2253 90.6950 0.0000 1.4003 0.0000
# 4 0.0000 0.0000 0.0000 32.6734 0.0000 -1.0641
# 5 -2.2500 -5.5834 1.4003 0.0000 24.7028 0.0000
# 6 0.0000 0.0000 0.0000 -1.0641 0.0000 28.9999
#
#
#
# Elastic Compliance Matrix: (Units=1/GPa)
#
#
# Indices 1 2 3 4 5 6 
#
# 1 0.022164 -0.006700 -0.005130 0.000000 0.000795 0.000000
# 2 -0.006700 0.018671 -0.007366 0.000000 0.004027 0.000000
# 3 -0.005130 -0.007366 0.017000 0.000000 -0.003096 0.000000
# 4 0.000000 0.000000 0.000000 0.030643 0.000000 0.001124
# 5 0.000795 0.004027 -0.003096 0.000000 0.041639 0.000000
# 6 0.000000 0.000000 0.000000 0.001124 0.000000 0.034524
#
#
# Mechanical properties :
#
#
# Convention : Reuss Voigt Hill
#
# Bulk Modulus (GPa) = 51.43306 53.98745 52.71025
# Shear Modulus (GPa) = 23.86463 25.36596 24.61529
#
# Velocity S-wave (km/s) = 3.60411 3.71575 3.66036
# Velocity P-wave (km/s) = 6.73162 6.91337 6.82310
#
# Compressibility (1/GPa) = 0.01944275
#
# Stress axis : x y z
#
# Youngs Moduli (GPa) = 45.11721 53.55848 58.82447
#
# Poissons Ratio (x) = 0.35884 0.30177
# Poissons Ratio (y) = 0.30229 0.43332
# Poissons Ratio (z) = 0.23145 0.39453
#
# Static dielectric constant tensor:
#      x y z
#    x 3.195770 0.000000 -0.135990 
#    y 0.000000 3.595330 0.000000 
#    z -0.135990 0.000000 3.556370 
# 
# 
# High freq. dielectric constant tensor:
#      x y z
#    x 1.685340 0.000000 -0.008320 
#    y 0.000000 1.726750 0.000000 
#    z -0.008320 0.000000 1.711550 
# 
# From -- ./inp_files/39689.got.cif
#   From: 2010.06.25/outbox.cif.g09.slc.cpg/sg11_20_cif.got.tgz:39689.got - 2010.06.27 23:14:04.
