data_PCOD8069292
_publ_section_title
;
Structure prediction by ZEFSAII (Michael W. Deem and Ramdas Pophale) SiO2 
 PCOD8069292
Probable space group: P 21/M
;
_chemical_formula_sum "Si O2"
_cell_formula_units_Z 24
_cell_length_a 24.849269
_cell_length_b 8.731737
_cell_length_c 19.008680
_cell_angle_alpha 90.000000
_cell_angle_beta 161.086755
_cell_angle_gamma 90.000000
_cell_volume 1336.883755
_symmetry_space_group_name_H-M "P 21/M"
_symmetry_group_IT_number 11
_symmetry_cell_setting 'monoclinic'
loop_
_space_group_symop_operation_xyz
x,y,z
-x,1/2+y,-z
-x,-y,-z
x,1/2-y,z
loop_
_atom_site_type_symbol
_atom_site_label
_atom_site_fract_x
_atom_site_fract_y
_atom_site_fract_z
Si Si1 0.832421 0.067385 0.823550
Si Si2 0.489113 0.070394 0.644016
Si Si3 0.325611 0.927567 0.989888
Si Si4 0.338240 0.066861 0.263072
Si Si5 0.998969 0.572629 0.422914
Si Si6 0.362905 0.927674 0.878877
O O1 0.839049 0.250000 0.834546
O O2 0.680302 0.015090 0.585885
O O3 0.815767 0.999474 0.882371
O O4 0.000000 0.000000 0.000000
O O5 0.471058 0.250000 0.603968
O O6 0.648854 0.999768 0.799976
O O7 0.524492 0.041770 0.770310
O O8 0.287774 0.750000 0.935062
O O9 0.370800 0.996018 0.968584
O O10 0.154557 0.999650 0.809798
O O11 0.334292 0.250000 0.257713
O O12 0.500000 0.000000 0.500000
O O13 0.963324 0.750000 0.385244
O O14 0.000000 0.500000 0.500000
O O15 0.183363 0.541553 0.619726
O O16 0.402037 0.750000 0.932108
O O17 0.500000 0.000000 0.000000
#
# Coordination Sequence:
#
# PCOD8069292 Si02
#       6
#     4   4   4   4   4   4
#     4  11  21  35  54  77 104 136 172 210 254 307
#     4  10  19  34  54  76 102 134 170 213 259 306
#     4   9  19  34  52  74 101 131 168 209 253 302
#     4  10  18  31  51  75 100 129 166 206 246 298
#     4   9  17  30  49  71  96 125 164 206 246 295
#     4   9  18  32  49  73 100 131 167 204 246 298
#
# _framework density 17.952197000000002
#
# number of rings (size 3 to 8) (size 9 to 14) (size 15 to 20)
#    0.000    2.333    0.000    7.000    0.000    4.667 
#    0.000    1.667    0.000    6.000    0.000    0.000 
#    0.000    0.000    0.000    0.000    0.000    0.000 
#
# Total GULP energy -297360.778054 kJ/mol
# GULP energy per Si atom -12390.032419 kJ/mol
# Density = 1.791134 g / cm^3
# Si number density = 17.952197 Si / 1000 Ang^3
#
#
#
# Elastic Constant Matrix: (Units=GPa)
#
#
# Indices 1 2 3 4 5 6 
#
# 1 110.4105 46.1503 56.7489 0.0000 17.7573 0.0000
# 2 46.1503 113.3584 44.3587 0.0000 10.5168 0.0000
# 3 56.7489 44.3587 88.1581 0.0000 12.0752 0.0000
# 4 0.0000 0.0000 0.0000 30.2132 0.0000 5.4717
# 5 17.7573 10.5168 12.0752 0.0000 31.2480 0.0000
# 6 0.0000 0.0000 0.0000 5.4717 0.0000 30.2945
#
#
#
# Elastic Compliance Matrix: (Units=1/GPa)
#
#
# Indices 1 2 3 4 5 6 
#
# 1 0.014783 -0.002633 -0.007562 0.000000 -0.004592 0.000000
# 2 -0.002633 0.011534 -0.003993 0.000000 -0.000842 0.000000
# 3 -0.007562 -0.003993 0.018423 0.000000 -0.001478 0.000000
# 4 0.000000 0.000000 0.000000 0.034217 0.000000 -0.006180
# 5 -0.004592 -0.000842 -0.001478 0.000000 0.035466 0.000000
# 6 0.000000 0.000000 0.000000 -0.006180 0.000000 0.034126
#
#
# Mechanical properties :
#
#
# Convention : Reuss Voigt Hill
#
# Bulk Modulus (GPa) = 61.11359 67.38253 64.24806
# Shear Modulus (GPa) = 27.41504 29.32909 28.37207
#
# Velocity S-wave (km/s) = 3.91207 4.04633 3.97977
# Velocity P-wave (km/s) = 7.38390 7.71014 7.54879
#
# Compressibility (1/GPa) = 0.01636297
#
# Stress axis : x y z
#
# Youngs Moduli (GPa) = 67.64442 86.69691 54.28019
#
# Poissons Ratio (x) = 0.22830 0.41048
# Poissons Ratio (y) = 0.17813 0.21676
# Poissons Ratio (z) = 0.51154 0.34621
#
# Static dielectric constant tensor:
#      x y z
#    x 4.223450 0.000000 0.144040 
#    y 0.000000 3.530730 0.000000 
#    z 0.144040 0.000000 3.532100 
# 
# 
# High freq. dielectric constant tensor:
#      x y z
#    x 1.683520 0.000000 0.007830 
#    y 0.000000 1.707430 0.000000 
#    z 0.007830 0.000000 1.679450 
# 
# From -- ./inp_files/61888.got.cif
#   From: 2010.06.25/outbox.cif.g09.slc.cpg/sg11_31_cif.got.tgz:61888.got - 2010.06.27 23:14:04.
