data_PCOD8069938
_publ_section_title
;
Structure prediction by ZEFSAII (Michael W. Deem and Ramdas Pophale) SiO2 
 PCOD8069938
Probable space group: P 21/M
;
_chemical_formula_sum "Si O2"
_cell_formula_units_Z 32
_cell_length_a 20.466362
_cell_length_b 8.977842
_cell_length_c 28.067728
_cell_angle_alpha 90.000000
_cell_angle_beta 20.693474
_cell_angle_gamma 90.000000
_cell_volume 1822.415703
_symmetry_space_group_name_H-M "P 21/M"
_symmetry_group_IT_number 11
_symmetry_cell_setting 'monoclinic'
loop_
_space_group_symop_operation_xyz
x,y,z
-x,1/2+y,-z
-x,-y,-z
x,1/2-y,z
loop_
_atom_site_type_symbol
_atom_site_label
_atom_site_fract_x
_atom_site_fract_y
_atom_site_fract_z
Si Si1 0.525885 0.086276 0.846629
Si Si2 0.585769 0.925777 0.631803
Si Si3 0.650568 0.074837 0.114956
Si Si4 0.882443 0.410155 0.544634
Si Si5 0.269083 0.083051 0.794828
Si Si6 0.971185 0.916482 0.947175
Si Si7 0.953149 0.427816 0.393423
Si Si8 0.658126 0.072102 0.860775
O O1 0.434800 0.250000 0.918094
O O2 0.678008 0.106474 0.702606
O O3 0.614308 0.025598 0.835731
O O4 0.388743 0.972526 0.913498
O O5 0.610620 0.750000 0.611078
O O6 0.507727 0.970504 0.738039
O O7 0.443264 0.981054 0.689090
O O8 0.779775 0.003514 0.483183
O O9 0.678527 0.250000 0.097094
O O10 0.844131 0.998348 0.995256
O O11 0.979126 0.250000 0.473536
O O12 0.000000 0.500000 0.500000
O O13 0.891356 0.485617 0.487526
O O14 0.333315 0.250000 0.736833
O O15 0.131729 0.092519 0.932661
O O16 0.162088 0.007562 0.823416
O O17 0.015688 0.750000 0.898376
O O18 0.964520 0.250000 0.377944
O O19 0.151860 0.502421 0.248377
O O20 0.665685 0.250000 0.861190
O O21 0.500000 0.000000 0.000000
#
# Coordination Sequence:
#
# PCOD8069938 Si02
#       8
#     4   4   4   4   4   4   4   4
#     4  10  20  34  50  70  97 127 160 201 247 294
#     4  10  19  29  43  67  98 130 164 201 243 289
#     4  10  19  28  43  68  97 128 164 203 242 288
#     4  10  19  30  47  71  97 123 155 195 244 295
#     4   9  16  26  40  59  88 127 168 203 236 281
#     4   9  16  26  40  58  88 129 167 200 237 284
#     4  11  21  33  51  73  98 127 161 202 247 294
#     4  11  24  41  57  72  94 126 165 206 249 298
#
# _framework density 17.559111999999999
#
# number of rings (size 3 to 8) (size 9 to 14) (size 15 to 20)
#    0.000    2.000    2.500    2.250    0.000    6.000 
#    0.000    0.000    0.000    0.000    0.000    0.000 
#    0.000    1.000    0.000    3.750    0.000    5.750 
#
# Total GULP energy -396468.263316 kJ/mol
# GULP energy per Si atom -12389.633229 kJ/mol
# Density = 1.751915 g / cm^3
# Si number density = 17.559112 Si / 1000 Ang^3
#
#
#
# Elastic Constant Matrix: (Units=GPa)
#
#
# Indices 1 2 3 4 5 6 
#
# 1 48.7289 36.7336 37.0380 0.0000 -27.0974 0.0000
# 2 36.7336 103.9463 40.8238 0.0000 -20.4147 0.0000
# 3 37.0380 40.8238 85.4907 0.0000 -19.1001 0.0000
# 4 0.0000 0.0000 0.0000 28.0584 0.0000 -10.5198
# 5 -27.0974 -20.4147 -19.1001 0.0000 29.4056 0.0000
# 6 0.0000 0.0000 0.0000 -10.5198 0.0000 27.0565
#
#
#
# Elastic Compliance Matrix: (Units=1/GPa)
#
#
# Indices 1 2 3 4 5 6 
#
# 1 0.058220 -0.007768 -0.012554 0.000000 0.040103 0.000000
# 2 -0.007768 0.013634 -0.003076 0.000000 0.000309 0.000000
# 3 -0.012554 -0.003076 0.018182 0.000000 -0.001895 0.000000
# 4 0.000000 0.000000 0.000000 0.041722 0.000000 0.016222
# 5 0.040103 0.000309 -0.001895 0.000000 0.069946 0.000000
# 6 0.000000 0.000000 0.000000 0.016222 0.000000 0.043267
#
#
# Mechanical properties :
#
#
# Convention : Reuss Voigt Hill
#
# Bulk Modulus (GPa) = 23.12694 51.92854 37.52774
# Shear Modulus (GPa) = 16.33017 25.14214 20.73615
#
# Velocity S-wave (km/s) = 3.05292 3.78809 3.44020
# Velocity P-wave (km/s) = 5.06227 6.98360 6.09907
#
# Compressibility (1/GPa) = 0.04323961
#
# Stress axis : x y z
#
# Youngs Moduli (GPa) = 17.17611 73.34409 54.99973
#
# Poissons Ratio (x) = 0.56973 0.69049
# Poissons Ratio (y) = 0.13342 0.16919
# Poissons Ratio (z) = 0.21564 0.22563
#
# Static dielectric constant tensor:
#      x y z
#    x 3.130390 0.000000 -0.340230 
#    y 0.000000 3.486190 0.000000 
#    z -0.340230 0.000000 3.019710 
# 
# 
# High freq. dielectric constant tensor:
#      x y z
#    x 1.652840 0.000000 -0.041830 
#    y 0.000000 1.695130 0.000000 
#    z -0.041830 0.000000 1.640940 
# 
# From -- ./inp_files/42542.got.cif
#   From: 2010.06.25/outbox.cif.g09.slc.cpg/sg11_22_cif.got.tgz:42542.got - 2010.06.27 23:14:04.
