data_PCOD8069466
_publ_section_title
;
Structure prediction by ZEFSAII (Michael W. Deem and Ramdas Pophale) SiO2 
 PCOD8069466
Probable space group: P 21/M
;
_chemical_formula_sum "Si O2"
_cell_formula_units_Z 28
_cell_length_a 12.366969
_cell_length_b 9.770137
_cell_length_c 14.208365
_cell_angle_alpha 90.000000
_cell_angle_beta 117.598930
_cell_angle_gamma 90.000000
_cell_volume 1521.408263
_symmetry_space_group_name_H-M "P 21/M"
_symmetry_group_IT_number 11
_symmetry_cell_setting 'monoclinic'
loop_
_space_group_symop_operation_xyz
x,y,z
-x,1/2+y,-z
-x,-y,-z
x,1/2-y,z
loop_
_atom_site_type_symbol
_atom_site_label
_atom_site_fract_x
_atom_site_fract_y
_atom_site_fract_z
Si Si1 0.340218 0.089698 0.755184
Si Si2 0.605860 0.405927 0.910976
Si Si3 0.811057 0.997285 0.862139
Si Si4 0.634025 0.596404 0.642609
Si Si5 0.587857 0.594025 0.416944
Si Si6 0.060774 0.398123 0.907688
Si Si7 0.221435 0.585378 0.856288
O O1 0.321734 0.250000 0.775403
O O2 0.474151 0.028263 0.836519
O O3 0.322824 0.069283 0.635854
O O4 0.241355 0.991339 0.765270
O O5 0.576615 0.250000 0.914995
O O6 0.699132 0.420085 0.862268
O O7 0.665785 0.461577 0.031602
O O8 0.759091 0.914974 0.751532
O O9 0.869118 0.898553 0.964027
O O10 0.916102 0.097390 0.867117
O O11 0.583397 0.750000 0.631024
O O12 0.659677 0.561068 0.542771
O O13 0.531471 0.497964 0.642647
O O14 0.540573 0.750000 0.395243
O O15 0.089821 0.250000 0.872927
O O16 0.099797 0.523803 0.855838
O O17 0.207978 0.750000 0.840018
#
# Coordination Sequence:
#
# PCOD8069466 Si02
#       7
#     4   4   4   4   4   4   4
#     4  10  18  32  52  72 101 138 173 208 251 307
#     4   9  17  30  48  74 103 135 168 206 256 311
#     4  10  19  32  53  79 108 135 169 215 259 303
#     4  10  19  32  51  78 108 136 168 210 258 306
#     4   9  19  33  51  76 106 139 172 207 254 309
#     4  10  21  35  53  77 104 140 179 212 255 312
#     4  10  21  34  49  71 103 137 175 218 258 300
#
# _framework density 18.404001000000001
#
# number of rings (size 3 to 8) (size 9 to 14) (size 15 to 20)
#    0.000    2.286    1.429    1.714    0.000    5.143 
#    0.000    0.714    0.000    0.857    0.000    0.000 
#    0.000    0.000    0.000    0.000    0.000    0.000 
#
# Total GULP energy -346976.398796 kJ/mol
# GULP energy per Si atom -12392.014243 kJ/mol
# Density = 1.836211 g / cm^3
# Si number density = 18.404001 Si / 1000 Ang^3
#
#
#
# Elastic Constant Matrix: (Units=GPa)
#
#
# Indices 1 2 3 4 5 6 
#
# 1 88.9278 44.3881 40.2712 0.0000 -16.0734 0.0000
# 2 44.3881 98.0304 35.2337 0.0000 -15.0167 0.0000
# 3 40.2712 35.2337 84.8210 0.0000 -15.5164 0.0000
# 4 0.0000 0.0000 0.0000 16.7083 0.0000 -8.5226
# 5 -16.0734 -15.0167 -15.5164 0.0000 24.7770 0.0000
# 6 0.0000 0.0000 0.0000 -8.5226 0.0000 24.8163
#
#
#
# Elastic Compliance Matrix: (Units=1/GPa)
#
#
# Indices 1 2 3 4 5 6 
#
# 1 0.016949 -0.005136 -0.005050 0.000000 0.004720 0.000000
# 2 -0.005136 0.014049 -0.002766 0.000000 0.003451 0.000000
# 3 -0.005050 -0.002766 0.016297 0.000000 0.005253 0.000000
# 4 0.000000 0.000000 0.000000 0.072561 0.000000 0.024920
# 5 0.004720 0.003451 0.005253 0.000000 0.048803 0.000000
# 6 0.000000 0.000000 0.000000 0.024920 0.000000 0.048854
#
#
# Mechanical properties :
#
#
# Convention : Reuss Voigt Hill
#
# Bulk Modulus (GPa) = 46.74982 56.84059 51.79520
# Shear Modulus (GPa) = 19.95616 23.38608 21.67112
#
# Velocity S-wave (km/s) = 3.29650 3.56856 3.43523
# Velocity P-wave (km/s) = 6.32031 6.92326 6.62864
#
# Compressibility (1/GPa) = 0.02139046
#
# Stress axis : x y z
#
# Youngs Moduli (GPa) = 59.00103 71.17719 61.36031
#
# Poissons Ratio (x) = 0.36560 0.30987
# Poissons Ratio (y) = 0.30305 0.16973
# Poissons Ratio (z) = 0.29796 0.19688
#
# Static dielectric constant tensor:
#      x y z
#    x 3.229430 0.000000 -0.093120 
#    y 0.000000 3.253590 0.000000 
#    z -0.093120 0.000000 3.485990 
# 
# 
# High freq. dielectric constant tensor:
#      x y z
#    x 1.694220 0.000000 -0.016770 
#    y 0.000000 1.708120 0.000000 
#    z -0.016770 0.000000 1.699490 
# 
# From -- ./inp_files/49495.got.cif
#   From: 2010.06.25/outbox.cif.g09.slc.cpg/sg11_25_cif.got.tgz:49495.got - 2010.06.27 23:14:04.
