data_PCOD8069382
_publ_section_title
;
Structure prediction by ZEFSAII (Michael W. Deem and Ramdas Pophale) SiO2 
 PCOD8069382
Probable space group: P 21/M
;
_chemical_formula_sum "Si O2"
_cell_formula_units_Z 32
_cell_length_a 32.381569
_cell_length_b 9.091814
_cell_length_c 12.239219
_cell_angle_alpha 90.000000
_cell_angle_beta 27.093964
_cell_angle_gamma 90.000000
_cell_volume 1641.133509
_symmetry_space_group_name_H-M "P 21/M"
_symmetry_group_IT_number 11
_symmetry_cell_setting 'monoclinic'
loop_
_space_group_symop_operation_xyz
x,y,z
-x,1/2+y,-z
-x,-y,-z
x,1/2-y,z
loop_
_atom_site_type_symbol
_atom_site_label
_atom_site_fract_x
_atom_site_fract_y
_atom_site_fract_z
Si Si1 0.670277 0.581217 0.673308
Si Si2 0.863724 0.915125 0.309745
Si Si3 0.382830 0.581016 0.598392
Si Si4 0.882542 0.422420 0.481797
Si Si5 0.560682 0.075566 0.106316
Si Si6 0.751180 0.418244 0.279393
Si Si7 0.077104 0.078745 0.068589
Si Si8 0.311665 0.924514 0.996873
O O1 0.642060 0.750000 0.718479
O O2 0.755759 0.570189 0.552027
O O3 0.691813 0.508065 0.506336
O O4 0.588629 0.496228 0.925129
O O5 0.891314 0.750000 0.275907
O O6 0.910067 0.963719 0.088124
O O7 0.898770 0.019811 0.321865
O O8 0.417146 0.750000 0.523719
O O9 0.460286 0.477162 0.369391
O O10 0.294675 0.569194 0.730312
O O11 0.355578 0.517979 0.781312
O O12 0.871737 0.250000 0.494601
O O13 0.790835 0.489364 0.750628
O O14 0.971831 0.458536 0.345299
O O15 0.562423 0.250000 0.089495
O O16 0.627533 0.021215 0.045222
O O17 0.757640 0.250000 0.303761
O O18 0.852844 0.483163 0.025422
O O19 0.100208 0.250000 0.033160
O O20 0.307227 0.750000 0.003428
#
# Coordination Sequence:
#
# PCOD8069382 Si02
#       8
#     4   4   4   4   4   4   4   4
#     4  10  20  35  56  82 115 147 174 220 278 326
#     4   9  17  29  46  75 111 142 172 212 267 323
#     4  10  22  40  58  77 106 147 187 227 277 321
#     4  10  18  31  53  79 108 143 179 218 268 326
#     4  11  21  35  59  88 112 138 179 225 272 330
#     4  10  21  37  57  78 106 146 190 229 265 316
#     4   9  19  33  51  77 110 146 179 217 273 325
#     4   9  19  36  57  82 112 142 179 225 272 324
#
# _framework density 19.498719000000001
#
# number of rings (size 3 to 8) (size 9 to 14) (size 15 to 20)
#    0.000    2.250    1.250    2.625    0.000    4.000 
#    0.000    1.875    0.000    0.000    0.000    0.000 
#    0.000    0.000    0.000    0.000    0.000    0.000 
#
# Total GULP energy -396781.147128 kJ/mol
# GULP energy per Si atom -12399.410848 kJ/mol
# Density = 1.945434 g / cm^3
# Si number density = 19.498719 Si / 1000 Ang^3
#
#
#
# Elastic Constant Matrix: (Units=GPa)
#
#
# Indices 1 2 3 4 5 6 
#
# 1 49.9755 21.2245 8.4915 0.0000 -5.9115 0.0000
# 2 21.2245 67.3705 19.3813 0.0000 -7.4065 0.0000
# 3 8.4915 19.3813 67.4422 0.0000 -22.7325 0.0000
# 4 0.0000 0.0000 0.0000 21.9269 0.0000 -6.0067
# 5 -5.9115 -7.4065 -22.7325 0.0000 21.4763 0.0000
# 6 0.0000 0.0000 0.0000 -6.0067 0.0000 22.6458
#
#
#
# Elastic Compliance Matrix: (Units=1/GPa)
#
#
# Indices 1 2 3 4 5 6 
#
# 1 0.023455 -0.007062 0.000671 0.000000 0.004731 0.000000
# 2 -0.007062 0.018322 -0.004511 0.000000 -0.000400 0.000000
# 3 0.000671 -0.004511 0.024218 0.000000 0.024263 0.000000
# 4 0.000000 0.000000 0.000000 0.049180 0.000000 0.013045
# 5 0.004731 -0.000400 0.024263 0.000000 0.073410 0.000000
# 6 0.000000 0.000000 0.000000 0.013045 0.000000 0.047618
#
#
# Mechanical properties :
#
#
# Convention : Reuss Voigt Hill
#
# Bulk Modulus (GPa) = 22.62957 31.44254 27.03606
# Shear Modulus (GPa) = 18.33275 22.25586 20.29430
#
# Velocity S-wave (km/s) = 3.06960 3.38213 3.22965
# Velocity P-wave (km/s) = 4.91875 5.60466 5.27287
#
# Compressibility (1/GPa) = 0.04418996
#
# Stress axis : x y z
#
# Youngs Moduli (GPa) = 42.63542 54.57952 41.29218
#
# Poissons Ratio (x) = 0.38545 -0.02770
# Poissons Ratio (y) = 0.30110 0.18627
# Poissons Ratio (z) = -0.02860 0.24620
#
# Static dielectric constant tensor:
#      x y z
#    x 3.404350 0.000000 -0.118630 
#    y 0.000000 3.432910 0.000000 
#    z -0.118630 0.000000 3.733440 
# 
# 
# High freq. dielectric constant tensor:
#      x y z
#    x 1.741960 0.000000 -0.012180 
#    y 0.000000 1.746870 0.000000 
#    z -0.012180 0.000000 1.764040 
# 
# From -- ./inp_files/45201.got.cif
#   From: 2010.06.25/outbox.cif.g09.slc.cpg/sg11_23_cif.got.tgz:45201.got - 2010.06.27 23:14:04.
