data_PCOD8069203
_publ_section_title
;
Structure prediction by ZEFSAII (Michael W. Deem and Ramdas Pophale) SiO2 
 PCOD8069203
Probable space group: P 21/M
;
_chemical_formula_sum "Si O2"
_cell_formula_units_Z 32
_cell_length_a 14.354115
_cell_length_b 8.937200
_cell_length_c 24.475966
_cell_angle_alpha 90.000000
_cell_angle_beta 148.911609
_cell_angle_gamma 90.000000
_cell_volume 1621.325393
_symmetry_space_group_name_H-M "P 21/M"
_symmetry_group_IT_number 11
_symmetry_cell_setting 'monoclinic'
loop_
_space_group_symop_operation_xyz
x,y,z
-x,1/2+y,-z
-x,-y,-z
x,1/2-y,z
loop_
_atom_site_type_symbol
_atom_site_label
_atom_site_fract_x
_atom_site_fract_y
_atom_site_fract_z
Si Si1 0.164277 0.079571 0.457075
Si Si2 0.174213 0.927563 0.953341
Si Si3 0.164959 0.079202 0.338319
Si Si4 0.536657 0.072971 0.328999
Si Si5 0.764088 0.577136 0.742534
Si Si6 0.456558 0.426321 0.166764
Si Si7 0.795278 0.925316 0.141413
Si Si8 0.754847 0.074735 0.229745
O O1 0.175329 0.250000 0.482331
O O2 0.259472 0.059440 0.444801
O O3 0.956614 0.026948 0.349014
O O4 0.267439 0.981092 0.553190
O O5 0.185887 0.750000 0.955610
O O6 0.966775 0.984573 0.853590
O O7 0.270182 0.997866 0.947823
O O8 0.276784 0.987779 0.058041
O O9 0.085236 0.250000 0.294412
O O10 0.294290 0.052036 0.350716
O O11 0.005574 0.960109 0.254664
O O12 0.538210 0.250000 0.332926
O O13 0.381951 0.000688 0.290674
O O14 0.501921 0.017549 0.250291
O O15 0.764944 0.750000 0.758377
O O16 0.419757 0.250000 0.146408
O O17 0.622893 0.473290 0.212029
O O18 0.758585 0.750000 0.118823
O O19 0.692296 0.991416 0.142735
O O20 0.747013 0.250000 0.213642
#
# Coordination Sequence:
#
# PCOD8069203 Si02
#       8
#     4   4   4   4   4   4   4   4
#     4   9  18  33  53  76 103 138 177 214 258 313
#     4  10  20  36  57  78 105 141 173 207 259 318
#     4   8  15  31  53  76 107 143 172 203 255 319
#     4  10  21  36  53  76 106 138 177 223 262 300
#     4   8  16  33  55  77 105 141 172 204 259 319
#     4  10  22  38  54  75 103 137 180 224 261 301
#     4  10  18  30  53  84 110 131 166 215 260 308
#     4   9  19  37  56  74 105 144 173 207 262 318
#
# _framework density 19.736939
#
# number of rings (size 3 to 8) (size 9 to 14) (size 15 to 20)
#    0.000    2.750    0.000    3.000    0.000    5.000 
#    0.000    3.125    0.000    0.000    0.000    0.000 
#    0.000    0.000    0.000    0.000    0.000    0.000 
#
# Total GULP energy -396618.976485 kJ/mol
# GULP energy per Si atom -12394.343015 kJ/mol
# Density = 1.969202 g / cm^3
# Si number density = 19.736939 Si / 1000 Ang^3
#
#
#
# Elastic Constant Matrix: (Units=GPa)
#
#
# Indices 1 2 3 4 5 6 
#
# 1 87.2172 13.5240 14.5109 0.0000 -9.8506 0.0000
# 2 13.5240 44.2389 17.4513 0.0000 -7.3360 0.0000
# 3 14.5109 17.4513 80.2454 0.0000 -19.5640 0.0000
# 4 0.0000 0.0000 0.0000 31.3370 0.0000 -4.5264
# 5 -9.8506 -7.3360 -19.5640 0.0000 30.2276 0.0000
# 6 0.0000 0.0000 0.0000 -4.5264 0.0000 15.4200
#
#
#
# Elastic Compliance Matrix: (Units=1/GPa)
#
#
# Indices 1 2 3 4 5 6 
#
# 1 0.012388 -0.002969 -0.000933 0.000000 0.002712 0.000000
# 2 -0.002969 0.025668 -0.004467 0.000000 0.002370 0.000000
# 3 -0.000933 -0.004467 0.015749 0.000000 0.008805 0.000000
# 4 0.000000 0.000000 0.000000 0.033324 0.000000 0.009782
# 5 0.002712 0.002370 0.008805 0.000000 0.040240 0.000000
# 6 0.000000 0.000000 0.000000 0.009782 0.000000 0.067722
#
#
# Mechanical properties :
#
#
# Convention : Reuss Voigt Hill
#
# Bulk Modulus (GPa) = 26.97962 33.63043 30.30503
# Shear Modulus (GPa) = 22.30311 26.47793 24.39052
#
# Velocity S-wave (km/s) = 3.36522 3.66668 3.51918
# Velocity P-wave (km/s) = 5.36646 5.91628 5.64807
#
# Compressibility (1/GPa) = 0.03706501
#
# Stress axis : x y z
#
# Youngs Moduli (GPa) = 80.72586 38.95975 63.49775
#
# Poissons Ratio (x) = 0.11567 0.05925
# Poissons Ratio (y) = 0.23968 0.28366
# Poissons Ratio (z) = 0.07532 0.17404
#
# Static dielectric constant tensor:
#      x y z
#    x 3.901270 0.000000 -0.148550 
#    y 0.000000 3.270670 0.000000 
#    z -0.148550 0.000000 3.459080 
# 
# 
# High freq. dielectric constant tensor:
#      x y z
#    x 1.771350 0.000000 -0.011690 
#    y 0.000000 1.744250 0.000000 
#    z -0.011690 0.000000 1.757580 
# 
# From -- ./inp_files/51718.got.cif
#   From: 2010.06.25/outbox.cif.g09.slc.cpg/sg11_26_cif.got.tgz:51718.got - 2010.06.27 23:14:04.
