data_PCOD8069419
_publ_section_title
;
Structure prediction by ZEFSAII (Michael W. Deem and Ramdas Pophale) SiO2 
 PCOD8069419
Probable space group: P 21/M
;
_chemical_formula_sum "Si O2"
_cell_formula_units_Z 32
_cell_length_a 14.288997
_cell_length_b 8.638598
_cell_length_c 24.394275
_cell_angle_alpha 90.000000
_cell_angle_beta 31.189840
_cell_angle_gamma 90.000000
_cell_volume 1559.402199
_symmetry_space_group_name_H-M "P 21/M"
_symmetry_group_IT_number 11
_symmetry_cell_setting 'monoclinic'
loop_
_space_group_symop_operation_xyz
x,y,z
-x,1/2+y,-z
-x,-y,-z
x,1/2-y,z
loop_
_atom_site_type_symbol
_atom_site_label
_atom_site_fract_x
_atom_site_fract_y
_atom_site_fract_z
Si Si1 0.183981 0.431793 0.285308
Si Si2 0.504837 0.431710 0.807686
Si Si3 0.541240 0.432474 0.285027
Si Si4 0.228540 0.433020 0.039107
Si Si5 0.172500 0.570298 0.651363
Si Si6 0.822943 0.069854 0.231348
Si Si7 0.791034 0.931095 0.474646
Si Si8 0.784455 0.430320 0.841933
O O1 0.156765 0.250000 0.297043
O O2 0.308080 0.479641 0.274395
O O3 0.286118 0.490267 0.178823
O O4 0.988561 0.508506 0.391787
O O5 0.539423 0.250000 0.794235
O O6 0.433007 0.476947 0.784150
O O7 0.354563 0.486902 0.926400
O O8 0.565158 0.250000 0.263316
O O9 0.693417 0.502190 0.249987
O O10 0.344373 0.469982 0.408205
O O11 0.222126 0.250000 0.049251
O O12 0.306575 0.501112 0.057313
O O13 0.026541 0.498808 0.127838
O O14 0.116350 0.750000 0.673399
O O15 0.266643 0.542024 0.663232
O O16 0.287944 0.514920 0.540984
O O17 0.996427 0.463501 0.737945
O O18 0.834823 0.250000 0.212918
O O19 0.798144 0.750000 0.459195
O O20 0.741595 0.250000 0.859675
#
# Coordination Sequence:
#
# PCOD8069419 Si02
#       8
#     4   4   4   4   4   4   4   4
#     4  11  22  38  60  82 109 146 182 222 276 332
#     4  11  24  40  57  80 109 142 187 236 274 318
#     4  10  22  39  57  79 110 148 188 228 271 322
#     4   9  19  37  59  82 112 148 181 220 272 325
#     4   9  16  30  54  82 113 147 181 219 268 326
#     4   8  16  34  58  82 111 147 182 218 267 325
#     4  10  20  35  56  83 114 145 180 226 275 323
#     4  10  18  31  55  86 116 142 175 222 271 325
#
# _framework density 20.520682999999998
#
# number of rings (size 3 to 8) (size 9 to 14) (size 15 to 20)
#    0.000    2.250    0.000    5.625    0.000    4.000 
#    0.000    3.125    0.000    0.000    0.000    0.000 
#    0.000    0.000    0.000    0.000    0.000    0.000 
#
# Total GULP energy -396678.313424 kJ/mol
# GULP energy per Si atom -12396.197294 kJ/mol
# Density = 2.047398 g / cm^3
# Si number density = 20.520683 Si / 1000 Ang^3
#
#
#
# Elastic Constant Matrix: (Units=GPa)
#
#
# Indices 1 2 3 4 5 6 
#
# 1 104.9438 12.0135 14.8672 0.0000 8.7458 0.0000
# 2 12.0135 41.2443 22.6265 0.0000 3.1466 0.0000
# 3 14.8672 22.6265 66.3360 0.0000 12.2453 0.0000
# 4 0.0000 0.0000 0.0000 20.8616 0.0000 9.0217
# 5 8.7458 3.1466 12.2453 0.0000 30.1392 0.0000
# 6 0.0000 0.0000 0.0000 9.0217 0.0000 29.2321
#
#
#
# Elastic Compliance Matrix: (Units=1/GPa)
#
#
# Indices 1 2 3 4 5 6 
#
# 1 0.010123 -0.002166 -0.001113 0.000000 -0.002259 0.000000
# 2 -0.002166 0.030324 -0.010151 0.000000 0.001587 0.000000
# 3 -0.001113 -0.010151 0.020034 0.000000 -0.006757 0.000000
# 4 0.000000 0.000000 0.000000 0.055318 0.000000 -0.017072
# 5 -0.002259 0.001587 -0.006757 0.000000 0.036415 0.000000
# 6 0.000000 0.000000 0.000000 -0.017072 0.000000 0.039478
#
#
# Mechanical properties :
#
#
# Convention : Reuss Voigt Hill
#
# Bulk Modulus (GPa) = 29.74245 34.61540 32.17893
# Shear Modulus (GPa) = 21.76209 26.91438 24.33824
#
# Velocity S-wave (km/s) = 3.26006 3.62549 3.44762
# Velocity P-wave (km/s) = 5.35686 5.86777 5.61813
#
# Compressibility (1/GPa) = 0.03362197
#
# Stress axis : x y z
#
# Youngs Moduli (GPa) = 98.78725 32.97693 49.91553
#
# Poissons Ratio (x) = 0.07141 0.05556
# Poissons Ratio (y) = 0.21393 0.50668
# Poissons Ratio (z) = 0.10995 0.33474
#
# Static dielectric constant tensor:
#      x y z
#    x 3.981920 0.000000 0.124850 
#    y 0.000000 3.534840 0.000000 
#    z 0.124850 0.000000 3.764300 
# 
# 
# High freq. dielectric constant tensor:
#      x y z
#    x 1.805590 0.000000 0.010080 
#    y 0.000000 1.789520 0.000000 
#    z 0.010080 0.000000 1.791970 
# 
# From -- ./inp_files/69054.got.cif
#   From: 2010.06.25/outbox.cif.g09.slc.cpg/sg11_35_cif.got.tgz:69054.got - 2010.06.27 23:14:04.
