data_PCOD8069833
_publ_section_title
;
Structure prediction by ZEFSAII (Michael W. Deem and Ramdas Pophale) SiO2 
 PCOD8069833
Probable space group: P 21/M
;
_chemical_formula_sum "Si O2"
_cell_formula_units_Z 32
_cell_length_a 9.395847
_cell_length_b 13.609895
_cell_length_c 23.924631
_cell_angle_alpha 90.000000
_cell_angle_beta 30.999052
_cell_angle_gamma 90.000000
_cell_volume 1575.662996
_symmetry_space_group_name_H-M "P 21/M"
_symmetry_group_IT_number 11
_symmetry_cell_setting 'monoclinic'
loop_
_space_group_symop_operation_xyz
x,y,z
-x,1/2+y,-z
-x,-y,-z
x,1/2-y,z
loop_
_atom_site_type_symbol
_atom_site_label
_atom_site_fract_x
_atom_site_fract_y
_atom_site_fract_z
Si Si1 0.351695 0.639254 0.941101
Si Si2 0.187174 0.862682 0.122517
Si Si3 0.326077 0.954259 0.187104
Si Si4 0.264571 0.137782 0.868950
Si Si5 0.397010 0.360946 0.397078
Si Si6 0.889204 0.361099 0.486125
Si Si7 0.216859 0.476916 0.563166
Si Si8 0.373827 0.450067 0.718429
O O1 0.458129 0.750000 0.895576
O O2 0.577244 0.567000 0.838617
O O3 0.317608 0.616799 0.018271
O O4 0.059054 0.622411 0.008156
O O5 0.214605 0.750000 0.130604
O O6 0.339795 0.927626 0.117289
O O7 0.865812 0.890521 0.231260
O O8 0.546869 0.881655 0.141117
O O9 0.018861 0.939130 0.315052
O O10 0.306635 0.250000 0.833311
O O11 0.355355 0.060270 0.791205
O O12 0.513623 0.250000 0.363459
O O13 0.267691 0.392430 0.500069
O O14 0.641380 0.435533 0.296144
O O15 0.175478 0.366976 0.422303
O O16 0.816034 0.250000 0.494051
O O17 0.898630 0.424159 0.426389
O O18 0.664184 0.405345 0.603205
O O19 0.500000 0.500000 0.500000
#
# Coordination Sequence:
#
# PCOD8069833 Si02
#       8
#     4   4   4   4   4   4   4   4
#     4   9  21  40  59  81 112 149 186 228 286 350
#     4  10  21  37  58  83 110 145 188 231 279 340
#     4  12  21  35  59  85 113 148 189 238 286 337
#     4  10  20  35  59  90 116 142 184 239 292 339
#     4  10  21  37  56  79 112 152 196 241 283 334
#     4  10  19  34  55  77 105 147 195 238 280 337
#     4  11  24  37  52  82 119 153 190 236 291 344
#     4  10  18  35  57  79 108 148 189 227 278 339
#
# _framework density 20.308913
#
# number of rings (size 3 to 8) (size 9 to 14) (size 15 to 20)
#    0.000    1.750    0.000    7.500    0.000    3.000 
#    0.000    2.500    0.000    6.000    0.000    0.000 
#    0.000    0.000    0.000    0.000    0.000    0.000 
#
# Total GULP energy -396833.650210 kJ/mol
# GULP energy per Si atom -12401.051569 kJ/mol
# Density = 2.026269 g / cm^3
# Si number density = 20.308913 Si / 1000 Ang^3
#
#
#
# Elastic Constant Matrix: (Units=GPa)
#
#
# Indices 1 2 3 4 5 6 
#
# 1 97.3403 9.8888 11.7092 0.0000 -9.8368 0.0000
# 2 9.8888 105.5534 18.6265 0.0000 0.6175 0.0000
# 3 11.7092 18.6265 54.4641 0.0000 -4.9476 0.0000
# 4 0.0000 0.0000 0.0000 27.7540 0.0000 -2.1513
# 5 -9.8368 0.6175 -4.9476 0.0000 17.1643 0.0000
# 6 0.0000 0.0000 0.0000 -2.1513 0.0000 24.5035
#
#
#
# Elastic Compliance Matrix: (Units=1/GPa)
#
#
# Indices 1 2 3 4 5 6 
#
# 1 0.011147 -0.000800 -0.001581 0.000000 0.005961 0.000000
# 2 -0.000800 0.010172 -0.003473 0.000000 -0.001826 0.000000
# 3 -0.001581 -0.003473 0.020350 0.000000 0.005085 0.000000
# 4 0.000000 0.000000 0.000000 0.036278 0.000000 0.003185
# 5 0.005961 -0.001826 0.005085 0.000000 0.063208 0.000000
# 6 0.000000 0.000000 0.000000 0.003185 0.000000 0.041090
#
#
# Mechanical properties :
#
#
# Convention : Reuss Voigt Hill
#
# Bulk Modulus (GPa) = 33.37634 37.53411 35.45523
# Shear Modulus (GPa) = 24.51682 28.35989 26.43836
#
# Velocity S-wave (km/s) = 3.47824 3.74093 3.61198
# Velocity P-wave (km/s) = 5.70972 6.09763 5.90686
#
# Compressibility (1/GPa) = 0.02996134
#
# Stress axis : x y z
#
# Youngs Moduli (GPa) = 89.70874 98.30586 49.13952
#
# Poissons Ratio (x) = 0.07866 0.07771
# Poissons Ratio (y) = 0.07178 0.17065
# Poissons Ratio (z) = 0.14186 0.34139
#
# Static dielectric constant tensor:
#      x y z
#    x 3.721790 0.000000 -0.024840 
#    y 0.000000 3.931800 0.000000 
#    z -0.024840 0.000000 3.423380 
# 
# 
# High freq. dielectric constant tensor:
#      x y z
#    x 1.798200 0.000000 -0.002440 
#    y 0.000000 1.800360 0.000000 
#    z -0.002440 0.000000 1.774040 
# 
# From -- ./inp_files/68135.got.cif
#   From: 2010.06.25/outbox.cif.g09.slc.cpg/sg11_35_cif.got.tgz:68135.got - 2010.06.27 23:14:04.
