data_PCOD8069852
_publ_section_title
;
Structure prediction by ZEFSAII (Michael W. Deem and Ramdas Pophale) SiO2 
 PCOD8069852
Probable space group: P 21/M
;
_chemical_formula_sum "Si O2"
_cell_formula_units_Z 32
_cell_length_a 12.214879
_cell_length_b 17.359766
_cell_length_c 9.874297
_cell_angle_alpha 90.000000
_cell_angle_beta 51.253353
_cell_angle_gamma 90.000000
_cell_volume 1633.013963
_symmetry_space_group_name_H-M "P 21/M"
_symmetry_group_IT_number 11
_symmetry_cell_setting 'monoclinic'
loop_
_space_group_symop_operation_xyz
x,y,z
-x,1/2+y,-z
-x,-y,-z
x,1/2-y,z
loop_
_atom_site_type_symbol
_atom_site_label
_atom_site_fract_x
_atom_site_fract_y
_atom_site_fract_z
Si Si1 0.497101 0.663364 0.993511
Si Si2 0.658775 0.342201 0.138798
Si Si3 0.208827 0.341701 0.820689
Si Si4 0.519429 0.158207 0.520201
Si Si5 0.715630 0.337073 0.606359
Si Si6 0.213585 0.158129 0.122631
Si Si7 0.012691 0.590199 0.504133
Si Si8 0.036380 0.841623 0.187304
O O1 0.543723 0.750000 0.924135
O O2 0.447606 0.623547 0.892168
O O3 0.631341 0.624854 0.960968
O O4 0.361107 0.662617 0.191727
O O5 0.659541 0.250000 0.133589
O O6 0.598221 0.373639 0.326666
O O7 0.817092 0.372021 0.989773
O O8 0.212171 0.250000 0.816233
O O9 0.360494 0.373844 0.654028
O O10 0.088434 0.372703 0.812983
O O11 0.177023 0.370287 0.998705
O O12 0.514092 0.250000 0.525943
O O13 0.611073 0.128452 0.575177
O O14 0.763295 0.250000 0.531535
O O15 0.850265 0.390791 0.513993
O O16 0.204967 0.250000 0.134466
O O17 0.115880 0.122312 0.311289
O O18 0.000000 0.500000 0.500000
O O19 0.014561 0.627996 0.355162
O O20 0.034791 0.750000 0.195655
#
# Coordination Sequence:
#
# PCOD8069852 Si02
#       8
#     4   4   4   4   4   4   4   4
#     4   9  16  30  55  85 112 139 179 229 280 333
#     4   9  17  28  49  84 116 140 171 219 279 333
#     4   9  18  32  55  90 121 139 173 232 290 340
#     4   9  17  29  52  87 117 138 172 229 289 339
#     4  10  18  35  61  82 108 145 187 237 282 332
#     4  10  20  36  60  88 112 144 186 233 286 341
#     4  12  26  40  54  79 115 157 199 239 279 331
#     4  10  20  36  58  84 114 146 183 233 286 337
#
# _framework density 19.595668
#
# number of rings (size 3 to 8) (size 9 to 14) (size 15 to 20)
#    0.000    2.250    2.500    1.125    3.500    0.000 
#    0.000    1.250    0.000    0.750    0.000    0.000 
#    0.000    0.000    0.000    0.000    0.000    0.000 
#
# Total GULP energy -396665.800000 kJ/mol
# GULP energy per Si atom -12395.806250 kJ/mol
# Density = 1.955107 g / cm^3
# Si number density = 19.595668 Si / 1000 Ang^3
#
#
#
# Elastic Constant Matrix: (Units=GPa)
#
#
# Indices 1 2 3 4 5 6 
#
# 1 141.7360 19.5763 47.1689 0.0000 3.4038 0.0000
# 2 19.5763 21.5445 20.7061 0.0000 -2.1854 0.0000
# 3 47.1689 20.7061 125.6166 0.0000 3.5075 0.0000
# 4 0.0000 0.0000 0.0000 1.1463 0.0000 2.3853
# 5 3.4038 -2.1854 3.5075 0.0000 37.0180 0.0000
# 6 0.0000 0.0000 0.0000 2.3853 0.0000 2.1732
#
#
#
# Elastic Compliance Matrix: (Units=1/GPa)
#
#
# Indices 1 2 3 4 5 6 
#
# 1 0.008626 -0.005754 -0.002265 0.000000 -0.000918 0.000000
# 2 -0.005754 0.059628 -0.007802 0.000000 0.004789 0.000000
# 3 -0.002265 -0.007802 0.010131 0.000000 -0.001212 0.000000
# 4 0.000000 0.000000 0.000000 -0.679399 0.000000 0.745717
# 5 -0.000918 0.004789 -0.001212 0.000000 0.027496 0.000000
# 6 0.000000 0.000000 0.000000 0.745717 0.000000 -0.358358
#
#
# Mechanical properties :
#
#
# Convention : Reuss Voigt Hill
#
# Bulk Modulus (GPa) = 21.39349 51.53330 36.46340
# Shear Modulus (GPa) = -5.65193 21.49721 7.92264
#
# Velocity S-wave (km/s) = -1.70016 3.31575 2.01292
# Velocity P-wave (km/s) = 2.66216 6.40424 4.90415
#
# Compressibility (1/GPa) = 0.04674318
#
# Stress axis : x y z
#
# Youngs Moduli (GPa) = 115.92932 16.77057 98.70643
#
# Poissons Ratio (x) = 0.09650 0.22356
# Poissons Ratio (y) = 0.66710 0.77009
# Poissons Ratio (z) = 0.26257 0.13084
#
# Static dielectric constant tensor:
#      x y z
#    x 3.915540 0.000000 -0.082140 
#    y 0.000000 2.938260 0.000000 
#    z -0.082140 0.000000 3.466740 
# 
# 
# High freq. dielectric constant tensor:
#      x y z
#    x 1.785710 0.000000 0.001630 
#    y 0.000000 1.688280 0.000000 
#    z 0.001630 0.000000 1.775190 
# 
# From -- ./inp_files/19342.got.cif
#   From: 2010.06.25/outbox.cif.g09.slc.cpg/sg11_10_cif.got.tgz:19342.got - 2010.06.27 23:14:04.
