data_PCOD8069660
_publ_section_title
;
Structure prediction by ZEFSAII (Michael W. Deem and Ramdas Pophale) SiO2 
 PCOD8069660
Probable space group: P 21/M
;
_chemical_formula_sum "Si O2"
_cell_formula_units_Z 32
_cell_length_a 28.925577
_cell_length_b 8.809253
_cell_length_c 20.021894
_cell_angle_alpha 90.000000
_cell_angle_beta 20.143908
_cell_angle_gamma 90.000000
_cell_volume 1756.965599
_symmetry_space_group_name_H-M "P 21/M"
_symmetry_group_IT_number 11
_symmetry_cell_setting 'monoclinic'
loop_
_space_group_symop_operation_xyz
x,y,z
-x,1/2+y,-z
-x,-y,-z
x,1/2-y,z
loop_
_atom_site_type_symbol
_atom_site_label
_atom_site_fract_x
_atom_site_fract_y
_atom_site_fract_z
Si Si1 0.904650 0.075388 0.462339
Si Si2 0.183594 0.070205 0.546819
Si Si3 0.859920 0.424224 0.672665
Si Si4 0.859612 0.429832 0.170587
Si Si5 0.184762 0.570025 0.056857
Si Si6 0.348094 0.428724 0.947528
Si Si7 0.890293 0.429118 0.983316
Si Si8 0.347934 0.571172 0.437084
O O1 0.936395 0.250000 0.401687
O O2 0.830192 0.061752 0.634218
O O3 0.805991 0.003217 0.540881
O O4 0.043744 0.983811 0.278667
O O5 0.191671 0.250000 0.528672
O O6 0.043927 0.013102 0.769247
O O7 0.305210 0.011631 0.427120
O O8 0.865490 0.250000 0.688330
O O9 0.739771 0.506282 0.873411
O O10 0.000000 0.500000 0.500000
O O11 0.873848 0.250000 0.154027
O O12 0.742944 0.487348 0.377865
O O13 0.825411 0.485023 0.141074
O O14 0.000000 0.500000 0.000000
O O15 0.192999 0.750000 0.052307
O O16 0.306000 0.495590 0.932972
O O17 0.194966 0.515159 0.965386
O O18 0.328781 0.250000 0.971525
O O19 0.500929 0.476762 0.752248
O O20 0.895564 0.250000 0.974141
O O21 0.332270 0.750000 0.448166
#
# Coordination Sequence:
#
# PCOD8069660 Si02
#       8
#     4   4   4   4   4   4   4   4
#     4  10  20  34  55  83 112 139 175 226 279 329
#     4  10  19  33  55  82 111 144 182 224 273 327
#     4  11  22  36  58  85 110 140 181 230 275 326
#     4  10  18  33  55  81 109 140 182 230 276 322
#     4  10  19  33  54  80 109 144 184 226 276 326
#     4  11  23  38  54  78 113 151 187 225 274 330
#     4   8  16  30  51  80 109 136 173 226 276 320
#     4  10  22  37  55  79 112 151 186 226 277 329
#
# _framework density 18.213218999999999
#
# number of rings (size 3 to 8) (size 9 to 14) (size 15 to 20)
#    0.000    2.000    2.500    2.625    0.000    2.500 
#    0.000    1.875    0.000    0.000    0.000    0.000 
#    0.000    0.000    0.000    0.000    0.000    0.000 
#
# Total GULP energy -396778.901212 kJ/mol
# GULP energy per Si atom -12399.340663 kJ/mol
# Density = 1.817176 g / cm^3
# Si number density = 18.213219 Si / 1000 Ang^3
#
#
#
# Elastic Constant Matrix: (Units=GPa)
#
#
# Indices 1 2 3 4 5 6 
#
# 1 165.7329 54.3686 72.1219 0.0000 -8.4479 0.0000
# 2 54.3686 74.6838 45.1564 0.0000 -9.5705 0.0000
# 3 72.1219 45.1564 111.6009 0.0000 -5.8852 0.0000
# 4 0.0000 0.0000 0.0000 21.7536 0.0000 -3.2206
# 5 -8.4479 -9.5705 -5.8852 0.0000 25.9427 0.0000
# 6 0.0000 0.0000 0.0000 -3.2206 0.0000 30.9512
#
#
#
# Elastic Compliance Matrix: (Units=1/GPa)
#
#
# Indices 1 2 3 4 5 6 
#
# 1 0.009277 -0.004073 -0.004319 0.000000 0.000539 0.000000
# 2 -0.004073 0.020172 -0.005270 0.000000 0.004920 0.000000
# 3 -0.004319 -0.005270 0.013873 0.000000 -0.000203 0.000000
# 4 0.000000 0.000000 0.000000 0.046689 0.000000 0.004858
# 5 0.000539 0.004920 -0.000203 0.000000 0.040491 0.000000
# 6 0.000000 0.000000 0.000000 0.004858 0.000000 0.032814
#
#
# Mechanical properties :
#
#
# Convention : Reuss Voigt Hill
#
# Bulk Modulus (GPa) = 62.50883 77.25682 69.88283
# Shear Modulus (GPa) = 25.51374 27.75420 26.63397
#
# Velocity S-wave (km/s) = 3.74684 3.90789 3.82821
# Velocity P-wave (km/s) = 7.28790 7.92920 7.61530
#
# Compressibility (1/GPa) = 0.01599774
#
# Stress axis : x y z
#
# Youngs Moduli (GPa) = 107.79594 49.57346 72.08141
#
# Poissons Ratio (x) = 0.20192 0.31129
# Poissons Ratio (y) = 0.43907 0.37990
# Poissons Ratio (z) = 0.46553 0.26127
#
# Static dielectric constant tensor:
#      x y z
#    x -0.998170 0.000000 -2.059260 
#    y 0.000000 3.430210 0.000000 
#    z -2.059260 0.000000 2.124790 
# 
# 
# High freq. dielectric constant tensor:
#      x y z
#    x 1.725630 0.000000 0.009250 
#    y 0.000000 1.706240 0.000000 
#    z 0.009250 0.000000 1.673400 
# 
# From -- ./inp_files/64441.got.cif
#   From: 2010.06.25/outbox.cif.g09.slc.cpg/sg11_33_cif.got.tgz:64441.got - 2010.06.27 23:14:04.
