data_PCOD8069191
_publ_section_title
;
Structure prediction by ZEFSAII (Michael W. Deem and Ramdas Pophale) SiO2 
 PCOD8069191
Probable space group: P 21/M
;
_chemical_formula_sum "Si O2"
_cell_formula_units_Z 32
_cell_length_a 21.372660
_cell_length_b 8.904825
_cell_length_c 12.031463
_cell_angle_alpha 90.000000
_cell_angle_beta 50.956549
_cell_angle_gamma 90.000000
_cell_volume 1778.435377
_symmetry_space_group_name_H-M "P 21/M"
_symmetry_group_IT_number 11
_symmetry_cell_setting 'monoclinic'
loop_
_space_group_symop_operation_xyz
x,y,z
-x,1/2+y,-z
-x,-y,-z
x,1/2-y,z
loop_
_atom_site_type_symbol
_atom_site_label
_atom_site_fract_x
_atom_site_fract_y
_atom_site_fract_z
Si Si1 0.631664 0.573773 0.056352
Si Si2 0.322791 0.423615 0.587021
Si Si3 0.900231 0.078071 0.026776
Si Si4 0.217638 0.926944 0.518056
Si Si5 0.533305 0.921713 0.731574
Si Si6 0.726537 0.424472 0.138293
Si Si7 0.339405 0.073990 0.228408
Si Si8 0.924957 0.923004 0.227393
O O1 0.642862 0.750000 0.059763
O O2 0.543104 0.528394 0.196171
O O3 0.699338 0.488442 0.050591
O O4 0.643114 0.524244 0.916236
O O5 0.296711 0.250000 0.616166
O O6 0.259994 0.514022 0.582212
O O7 0.412752 0.442028 0.438730
O O8 0.322094 0.489227 0.711319
O O9 0.901627 0.250000 0.069170
O O10 0.822173 0.047276 0.039130
O O11 0.898085 0.968066 0.133549
O O12 0.979659 0.045936 0.863584
O O13 0.221953 0.750000 0.510969
O O14 0.259731 0.989992 0.360394
O O15 0.124675 0.981222 0.626118
O O16 0.504384 0.750000 0.777116
O O17 0.584102 0.973113 0.782625
O O18 0.704622 0.250000 0.171530
O O19 0.323238 0.250000 0.259433
O O20 0.903471 0.750000 0.269400
#
# Coordination Sequence:
#
# PCOD8069191 Si02
#       8
#     4   4   4   4   4   4   4   4
#     4  11  23  37  55  78 104 139 181 219 264 319
#     4  10  20  35  54  78 107 141 177 215 264 315
#     4   9  19  33  50  77 108 140 177 215 258 310
#     4  11  20  31  52  82 111 138 172 216 265 317
#     4   9  19  36  57  79 104 132 171 224 273 314
#     4  11  22  36  54  76 109 145 178 217 259 314
#     4   9  20  38  57  78 104 136 177 224 267 311
#     4  10  18  30  52  79 109 140 171 214 263 311
#
# _framework density 17.993345000000001
#
# number of rings (size 3 to 8) (size 9 to 14) (size 15 to 20)
#    0.000    2.000    1.250    3.750    0.000    5.000 
#    0.000    0.000    0.000    0.750    0.000    0.000 
#    0.000    0.000    0.000    0.000    0.000    0.000 
#
# Total GULP energy -396896.182289 kJ/mol
# GULP energy per Si atom -12403.005697 kJ/mol
# Density = 1.795239 g / cm^3
# Si number density = 17.993345 Si / 1000 Ang^3
#
#
#
# Elastic Constant Matrix: (Units=GPa)
#
#
# Indices 1 2 3 4 5 6 
#
# 1 93.4007 36.6228 47.6524 0.0000 -9.1923 0.0000
# 2 36.6228 86.0774 40.5456 0.0000 -11.0536 0.0000
# 3 47.6524 40.5456 81.0367 0.0000 -19.5762 0.0000
# 4 0.0000 0.0000 0.0000 29.4533 0.0000 -1.4675
# 5 -9.1923 -11.0536 -19.5762 0.0000 23.8978 0.0000
# 6 0.0000 0.0000 0.0000 -1.4675 0.0000 26.7057
#
#
#
# Elastic Compliance Matrix: (Units=1/GPa)
#
#
# Indices 1 2 3 4 5 6 
#
# 1 0.015986 -0.003146 -0.008343 0.000000 -0.002141 0.000000
# 2 -0.003146 0.015838 -0.005731 0.000000 0.001421 0.000000
# 3 -0.008343 -0.005731 0.023311 0.000000 0.013235 0.000000
# 4 0.000000 0.000000 0.000000 0.034045 0.000000 0.001871
# 5 -0.002141 0.001421 0.013235 0.000000 0.052520 0.000000
# 6 0.000000 0.000000 0.000000 0.001871 0.000000 0.037548
#
#
# Mechanical properties :
#
#
# Convention : Reuss Voigt Hill
#
# Bulk Modulus (GPa) = 48.32344 56.68404 52.50374
# Shear Modulus (GPa) = 22.66665 25.05764 23.86215
#
# Velocity S-wave (km/s) = 3.55311 3.73581 3.64561
# Velocity P-wave (km/s) = 6.61418 7.08375 6.85299
#
# Compressibility (1/GPa) = 0.02069389
#
# Stress axis : x y z
#
# Youngs Moduli (GPa) = 62.55334 63.13894 42.89835
#
# Poissons Ratio (x) = 0.19867 0.35792
# Poissons Ratio (y) = 0.19682 0.24584
# Poissons Ratio (z) = 0.52191 0.36184
#
# Static dielectric constant tensor:
#      x y z
#    x 3.164890 0.000000 -0.163550 
#    y 0.000000 3.360170 0.000000 
#    z -0.163550 0.000000 3.460680 
# 
# 
# High freq. dielectric constant tensor:
#      x y z
#    x 1.670650 0.000000 -0.018380 
#    y 0.000000 1.706700 0.000000 
#    z -0.018380 0.000000 1.698510 
# 
# From -- ./inp_files/42771.got.cif
#   From: 2010.06.25/outbox.cif.g09.slc.cpg/sg11_22_cif.got.tgz:42771.got - 2010.06.27 23:14:04.
