data_PCOD8069041
_publ_section_title
;
Structure prediction by ZEFSAII (Michael W. Deem and Ramdas Pophale) SiO2 
 PCOD8069041
Probable space group: P 21/M
;
_chemical_formula_sum "Si O2"
_cell_formula_units_Z 32
_cell_length_a 28.209735
_cell_length_b 9.270907
_cell_length_c 22.300039
_cell_angle_alpha 90.000000
_cell_angle_beta 18.573908
_cell_angle_gamma 90.000000
_cell_volume 1857.693320
_symmetry_space_group_name_H-M "P 21/M"
_symmetry_group_IT_number 11
_symmetry_cell_setting 'monoclinic'
loop_
_space_group_symop_operation_xyz
x,y,z
-x,1/2+y,-z
-x,-y,-z
x,1/2-y,z
loop_
_atom_site_type_symbol
_atom_site_label
_atom_site_fract_x
_atom_site_fract_y
_atom_site_fract_z
Si Si1 0.783590 0.915519 0.776440
Si Si2 0.693578 0.918290 0.221265
Si Si3 0.995727 0.917793 0.411628
Si Si4 0.848345 0.079111 0.480986
Si Si5 0.522561 0.082338 0.911577
Si Si6 0.100130 0.917839 0.832244
Si Si7 0.629812 0.415541 0.415065
Si Si8 0.012790 0.580062 0.807402
O O1 0.806637 0.750000 0.768632
O O2 0.864719 0.945349 0.616181
O O3 0.609992 0.953930 0.975946
O O4 0.849587 0.018014 0.748704
O O5 0.699680 0.750000 0.227768
O O6 0.542527 0.961337 0.366769
O O7 0.701795 0.993508 0.275615
O O8 0.838621 0.964053 0.009135
O O9 0.018829 0.750000 0.370074
O O10 0.953741 0.000535 0.401847
O O11 0.872935 0.250000 0.458135
O O12 0.676641 0.035694 0.696027
O O13 0.895790 0.019174 0.358717
O O14 0.521185 0.250000 0.929689
O O15 0.500000 0.000000 0.000000
O O16 0.055130 0.750000 0.888764
O O17 0.274375 0.940622 0.639746
O O18 0.076443 0.981917 0.793918
O O19 0.000000 0.000000 0.000000
O O20 0.636458 0.250000 0.386504
O O21 0.033583 0.750000 0.783073
#
# Coordination Sequence:
#
# PCOD8069041 Si02
#       8
#     4   4   4   4   4   4   4   4
#     4   9  18  32  50  75 103 128 165 210 253 298
#     4   9  16  29  47  68  96 127 158 195 242 291
#     4  10  19  32  51  75 102 131 166 208 253 299
#     4  10  20  34  52  74 103 137 171 207 254 307
#     4  10  19  32  52  77 103 132 169 212 255 300
#     4  10  18  30  48  71  98 125 162 205 246 290
#     4   9  17  27  45  73  97 118 156 204 245 283
#     4   9  18  32  49  70  99 134 166 199 245 302
#
# _framework density 17.225663999999998
#
# number of rings (size 3 to 8) (size 9 to 14) (size 15 to 20)
#    0.000    2.500    2.500    0.375    0.000    1.000 
#    0.000    2.500    0.000    6.000    0.000    1.750 
#    0.000    0.000    0.000    0.000    0.000    0.000 
#
# Total GULP energy -396710.925482 kJ/mol
# GULP energy per Si atom -12397.216421 kJ/mol
# Density = 1.718646 g / cm^3
# Si number density = 17.225664 Si / 1000 Ang^3
#
#
#
# Elastic Constant Matrix: (Units=GPa)
#
#
# Indices 1 2 3 4 5 6 
#
# 1 135.0615 42.3831 80.4239 0.0000 -4.6267 0.0000
# 2 42.3831 43.8024 36.2618 0.0000 -1.0337 0.0000
# 3 80.4239 36.2618 131.8289 0.0000 -2.0375 0.0000
# 4 0.0000 0.0000 0.0000 17.8484 0.0000 -1.5033
# 5 -4.6267 -1.0337 -2.0375 0.0000 26.1341 0.0000
# 6 0.0000 0.0000 0.0000 -1.5033 0.0000 24.4527
#
#
#
# Elastic Compliance Matrix: (Units=1/GPa)
#
#
# Indices 1 2 3 4 5 6 
#
# 1 0.013606 -0.008127 -0.006040 0.000000 0.001616 0.000000
# 2 -0.008127 0.034423 -0.004517 0.000000 -0.000429 0.000000
# 3 -0.006040 -0.004517 0.012509 0.000000 -0.000273 0.000000
# 4 0.000000 0.000000 0.000000 0.056319 0.000000 0.003462
# 5 0.001616 -0.000429 -0.000273 0.000000 0.038512 0.000000
# 6 0.000000 0.000000 0.000000 0.003462 0.000000 0.041108
#
#
# Mechanical properties :
#
#
# Convention : Reuss Voigt Hill
#
# Bulk Modulus (GPa) = 43.16094 69.87004 56.51549
# Shear Modulus (GPa) = 20.69793 23.79530 22.24662
#
# Velocity S-wave (km/s) = 3.47014 3.72073 3.59762
# Velocity P-wave (km/s) = 6.41610 7.68818 7.08077
#
# Compressibility (1/GPa) = 0.02316910
#
# Stress axis : x y z
#
# Youngs Moduli (GPa) = 73.49437 29.05044 79.94279
#
# Poissons Ratio (x) = 0.23609 0.48288
# Poissons Ratio (y) = 0.59728 0.36113
# Poissons Ratio (z) = 0.44393 0.13123
#
# Static dielectric constant tensor:
#      x y z
#    x 3.312880 0.000000 -0.208810 
#    y 0.000000 3.104700 0.000000 
#    z -0.208810 0.000000 3.416920 
# 
# 
# High freq. dielectric constant tensor:
#      x y z
#    x 1.658130 0.000000 -0.024230 
#    y 0.000000 1.650560 0.000000 
#    z -0.024230 0.000000 1.660200 
# 
# From -- ./inp_files/67022.got.cif
#   From: 2010.06.25/outbox.cif.g09.slc.cpg/sg11_34_cif.got.tgz:67022.got - 2010.06.27 23:14:04.
