data_PCOD8069536
_publ_section_title
;
Structure prediction by ZEFSAII (Michael W. Deem and Ramdas Pophale) SiO2 
 PCOD8069536
Probable space group: P 21/M
;
_chemical_formula_sum "Si O2"
_cell_formula_units_Z 32
_cell_length_a 11.197293
_cell_length_b 13.711026
_cell_length_c 12.693316
_cell_angle_alpha 90.000000
_cell_angle_beta 120.175585
_cell_angle_gamma 90.000000
_cell_volume 1684.680684
_symmetry_space_group_name_H-M "P 21/M"
_symmetry_group_IT_number 11
_symmetry_cell_setting 'monoclinic'
loop_
_space_group_symop_operation_xyz
x,y,z
-x,1/2+y,-z
-x,-y,-z
x,1/2-y,z
loop_
_atom_site_type_symbol
_atom_site_label
_atom_site_fract_x
_atom_site_fract_y
_atom_site_fract_z
Si Si1 0.562835 0.022981 0.285665
Si Si2 0.878117 0.496938 0.212810
Si Si3 0.612911 0.361760 0.875431
Si Si4 0.371633 0.639079 0.878706
Si Si5 0.146017 0.449430 0.578284
Si Si6 0.124335 0.358092 0.359071
Si Si7 0.669384 0.861338 0.729457
Si Si8 0.844452 0.516310 0.965706
O O1 0.507214 0.912577 0.246403
O O2 0.723996 0.021354 0.389093
O O3 0.534272 0.079590 0.162336
O O4 0.474067 0.078568 0.335112
O O5 0.781697 0.403961 0.189866
O O6 0.851212 0.576567 0.295018
O O7 0.029522 0.448196 0.281083
O O8 0.847795 0.550850 0.089497
O O9 0.629354 0.250000 0.846246
O O10 0.759193 0.415274 0.919495
O O11 0.565580 0.368385 0.976366
O O12 0.362120 0.750000 0.835822
O O13 0.155002 0.361288 0.498875
O O14 0.000000 0.500000 0.500000
O O15 0.063062 0.250000 0.306894
O O16 0.266346 0.372295 0.358146
O O17 0.637293 0.750000 0.743042
O O18 0.774812 0.900428 0.865021
O O19 0.000000 0.500000 0.000000
#
# Coordination Sequence:
#
# PCOD8069536 Si02
#       8
#     4   4   4   4   4   4   4   4
#     4  10  19  33  51  73 108 141 174 223 275 323
#     4   9  17  32  53  78 106 137 177 219 273 318
#     4   9  19  31  48  75 106 142 180 213 260 324
#     4   9  16  28  49  76 104 136 174 216 262 317
#     4   9  20  36  54  76  97 134 180 228 270 312
#     4  10  19  33  53  76 103 137 186 229 263 315
#     4  10  21  34  52  82 111 143 179 217 268 327
#     4  10  18  32  54  81 111 143 174 217 269 324
#
# _framework density 18.994698
#
# number of rings (size 3 to 8) (size 9 to 14) (size 15 to 20)
#    0.000    2.500    1.250    1.125    0.000    3.000 
#    0.000    1.250    0.000    0.000    0.000    3.500 
#    0.000    0.000    0.000    0.000    0.000    0.000 
#
# Total GULP energy -396524.322622 kJ/mol
# GULP energy per Si atom -12391.385082 kJ/mol
# Density = 1.895147 g / cm^3
# Si number density = 18.994698 Si / 1000 Ang^3
#
#
#
# Elastic Constant Matrix: (Units=GPa)
#
#
# Indices 1 2 3 4 5 6 
#
# 1 106.1800 27.4116 34.4245 0.0000 0.9934 0.0000
# 2 27.4116 79.2271 27.4609 0.0000 -6.3180 0.0000
# 3 34.4245 27.4609 79.0754 0.0000 -8.1595 0.0000
# 4 0.0000 0.0000 0.0000 22.1142 0.0000 -4.4682
# 5 0.9934 -6.3180 -8.1595 0.0000 31.8799 0.0000
# 6 0.0000 0.0000 0.0000 -4.4682 0.0000 21.4739
#
#
#
# Elastic Compliance Matrix: (Units=1/GPa)
#
#
# Indices 1 2 3 4 5 6 
#
# 1 0.011514 -0.002653 -0.004296 0.000000 -0.001984 0.000000
# 2 -0.002653 0.015041 -0.003854 0.000000 0.002077 0.000000
# 3 -0.004296 -0.003854 0.016218 0.000000 0.003521 0.000000
# 4 0.000000 0.000000 0.000000 0.047205 0.000000 0.009822
# 5 -0.001984 0.002077 0.003521 0.000000 0.032742 0.000000
# 6 0.000000 0.000000 0.000000 0.009822 0.000000 0.048612
#
#
# Mechanical properties :
#
#
# Convention : Reuss Voigt Hill
#
# Bulk Modulus (GPa) = 47.24248 49.23073 48.23660
# Shear Modulus (GPa) = 25.00063 26.77261 25.88662
#
# Velocity S-wave (km/s) = 3.63187 3.75837 3.69566
# Velocity P-wave (km/s) = 6.52018 6.69390 6.60761
#
# Compressibility (1/GPa) = 0.02116739
#
# Stress axis : x y z
#
# Youngs Moduli (GPa) = 86.84908 66.48314 61.65922
#
# Poissons Ratio (x) = 0.17638 0.26489
# Poissons Ratio (y) = 0.23041 0.23765
# Poissons Ratio (z) = 0.37310 0.25624
#
# Static dielectric constant tensor:
#      x y z
#    x 3.618340 0.000000 -0.199590 
#    y 0.000000 3.276950 0.000000 
#    z -0.199590 0.000000 3.645070 
# 
# 
# High freq. dielectric constant tensor:
#      x y z
#    x 1.750710 0.000000 -0.008690 
#    y 0.000000 1.709490 0.000000 
#    z -0.008690 0.000000 1.726730 
# 
# From -- ./inp_files/35530.got.cif
#   From: 2010.06.25/outbox.cif.g09.slc.cpg/sg11_18_cif.got.tgz:35530.got - 2010.06.27 23:14:04.
