data_PCOD8069842
_publ_section_title
;
Structure prediction by ZEFSAII (Michael W. Deem and Ramdas Pophale) SiO2 
 PCOD8069842
Probable space group: P 21/M
;
_chemical_formula_sum "Si O2"
_cell_formula_units_Z 32
_cell_length_a 14.409089
_cell_length_b 9.115399
_cell_length_c 24.688950
_cell_angle_alpha 90.000000
_cell_angle_beta 150.298489
_cell_angle_gamma 90.000000
_cell_volume 1606.727909
_symmetry_space_group_name_H-M "P 21/M"
_symmetry_group_IT_number 11
_symmetry_cell_setting 'monoclinic'
loop_
_space_group_symop_operation_xyz
x,y,z
-x,1/2+y,-z
-x,-y,-z
x,1/2-y,z
loop_
_atom_site_type_symbol
_atom_site_label
_atom_site_fract_x
_atom_site_fract_y
_atom_site_fract_z
Si Si1 0.888938 0.923652 0.396028
Si Si2 0.907515 0.576047 0.004407
Si Si3 0.203510 0.586939 0.245661
Si Si4 0.919733 0.913411 0.190145
Si Si5 0.470069 0.576041 0.542538
Si Si6 0.932724 0.076212 0.623764
Si Si7 0.525704 0.079890 0.841368
Si Si8 0.414633 0.581940 0.007597
O O1 0.917152 0.750000 0.414036
O O2 0.667584 0.962875 0.286973
O O3 0.980130 0.987594 0.387080
O O4 0.000000 0.000000 0.500000
O O5 0.894417 0.750000 0.989192
O O6 0.040427 0.535151 0.122278
O O7 0.696697 0.517180 0.906215
O O8 0.000000 0.500000 0.000000
O O9 0.274624 0.750000 0.265185
O O10 0.374417 0.473241 0.334390
O O11 0.123107 0.592529 0.265937
O O12 0.829524 0.750000 0.144294
O O13 0.937082 0.973810 0.260070
O O14 0.795728 0.023403 0.091892
O O15 0.500000 0.500000 0.500000
O O16 0.478209 0.750000 0.538467
O O17 0.277676 0.520894 0.472329
O O18 0.932435 0.250000 0.621690
O O19 0.577922 0.250000 0.858091
O O20 0.482785 0.052941 0.883374
O O21 0.414006 0.750000 0.991955
O O22 0.500000 0.500000 0.000000
#
# Coordination Sequence:
#
# PCOD8069842 Si02
#       8
#     4   4   4   4   4   4   4   4
#     4  10  22  42  64  86 115 155 203 252 299 352
#     4  11  24  42  65  92 125 162 203 253 305 367
#     4  10  21  38  59  85 118 158 200 248 305 357
#     4  10  18  35  59  82 116 154 193 243 300 358
#     4  11  21  35  58  88 123 163 205 250 303 368
#     4   9  19  37  60  84 117 160 198 237 298 362
#     4  10  22  41  64  89 120 158 203 252 305 365
#     4  11  22  35  56  88 122 157 198 243 298 364
#
# _framework density 19.916253000000001
#
# number of rings (size 3 to 8) (size 9 to 14) (size 15 to 20)
#    0.000    1.750    2.500    1.875    0.000    5.500 
#    0.000    5.625    0.000    0.000    0.000    0.000 
#    0.000    0.000    0.000    0.000    0.000    0.000 
#
# Total GULP energy -396701.476559 kJ/mol
# GULP energy per Si atom -12396.921142 kJ/mol
# Density = 1.987092 g / cm^3
# Si number density = 19.916253 Si / 1000 Ang^3
#
#
#
# Elastic Constant Matrix: (Units=GPa)
#
#
# Indices 1 2 3 4 5 6 
#
# 1 103.2970 46.2137 47.5400 0.0000 -1.3543 0.0000
# 2 46.2137 84.5425 55.3161 0.0000 2.9613 0.0000
# 3 47.5400 55.3161 133.3129 0.0000 0.7259 0.0000
# 4 0.0000 0.0000 0.0000 37.4929 0.0000 0.3848
# 5 -1.3543 2.9613 0.7259 0.0000 32.0003 0.0000
# 6 0.0000 0.0000 0.0000 0.3848 0.0000 29.9472
#
#
#
# Elastic Compliance Matrix: (Units=1/GPa)
#
#
# Indices 1 2 3 4 5 6 
#
# 1 0.013384 -0.005806 -0.002370 0.000000 0.001157 0.000000
# 2 -0.005806 0.018814 -0.005726 0.000000 -0.001857 0.000000
# 3 -0.002370 -0.005726 0.010721 0.000000 0.000186 0.000000
# 4 0.000000 0.000000 0.000000 0.026675 0.000000 -0.000343
# 5 0.001157 -0.001857 0.000186 0.000000 0.031466 0.000000
# 6 0.000000 0.000000 0.000000 -0.000343 0.000000 0.033397
#
#
# Mechanical properties :
#
#
# Convention : Reuss Voigt Hill
#
# Bulk Modulus (GPa) = 66.15899 68.81022 67.48461
# Shear Modulus (GPa) = 29.88652 31.36025 30.62338
#
# Velocity S-wave (km/s) = 3.87797 3.97244 3.92549
# Velocity P-wave (km/s) = 7.30358 7.46091 7.38266
#
# Compressibility (1/GPa) = 0.01511510
#
# Stress axis : x y z
#
# Youngs Moduli (GPa) = 74.71415 53.15304 93.27368
#
# Poissons Ratio (x) = 0.30861 0.22107
# Poissons Ratio (y) = 0.43380 0.53407
# Poissons Ratio (z) = 0.17708 0.30434
#
# Static dielectric constant tensor:
#      x y z
#    x 3.754470 0.000000 0.054190 
#    y 0.000000 3.460490 0.000000 
#    z 0.054190 0.000000 3.815100 
# 
# 
# High freq. dielectric constant tensor:
#      x y z
#    x 1.777640 0.000000 0.003910 
#    y 0.000000 1.760250 0.000000 
#    z 0.003910 0.000000 1.786330 
# 
# From -- ./inp_files/51744.got.cif
#   From: 2010.06.25/outbox.cif.g09.slc.cpg/sg11_26_cif.got.tgz:51744.got - 2010.06.27 23:14:04.
