data_PCOD8069978
_publ_section_title
;
Structure prediction by ZEFSAII (Michael W. Deem and Ramdas Pophale) SiO2 
 PCOD8069978
Probable space group: P 21/M
;
_chemical_formula_sum "Si O2"
_cell_formula_units_Z 28
_cell_length_a 21.853659
_cell_length_b 8.926435
_cell_length_c 12.780297
_cell_angle_alpha 90.000000
_cell_angle_beta 42.236734
_cell_angle_gamma 90.000000
_cell_volume 1675.863698
_symmetry_space_group_name_H-M "P 21/M"
_symmetry_group_IT_number 11
_symmetry_cell_setting 'monoclinic'
loop_
_space_group_symop_operation_xyz
x,y,z
-x,1/2+y,-z
-x,-y,-z
x,1/2-y,z
loop_
_atom_site_type_symbol
_atom_site_label
_atom_site_fract_x
_atom_site_fract_y
_atom_site_fract_z
Si Si1 0.704756 0.076797 0.481749
Si Si2 0.373946 0.081060 0.731260
Si Si3 0.962332 0.419496 0.446548
Si Si4 0.972041 0.919522 0.854221
Si Si5 0.462171 0.080889 0.391898
Si Si6 0.791939 0.422807 0.146086
Si Si7 0.855101 0.572188 0.417990
O O1 0.699181 0.250000 0.520074
O O2 0.756665 0.053107 0.307380
O O3 0.602968 0.011367 0.603389
O O4 0.757177 0.986360 0.505296
O O5 0.358248 0.250000 0.790400
O O6 0.420535 0.079765 0.559723
O O7 0.438769 0.996411 0.731831
O O8 0.277001 0.998426 0.848959
O O9 0.933241 0.250000 0.511670
O O10 0.874842 0.509303 0.510538
O O11 0.000000 0.500000 0.500000
O O12 0.040241 0.419328 0.257100
O O13 0.979795 0.750000 0.887410
O O14 0.066677 0.007023 0.759759
O O15 0.889674 0.000898 0.015022
O O16 0.472407 0.250000 0.337361
O O17 0.800349 0.250000 0.105172
O O18 0.857164 0.750000 0.414899
#
# Coordination Sequence:
#
# PCOD8069978 Si02
#       7
#     4   4   4   4   4   4   4
#     4  10  19  30  42  60  87 118 151 184 218 256
#     4   9  16  26  40  57  80 110 144 183 221 254
#     4   9  18  32  50  68  86 110 138 175 219 260
#     4   9  19  32  45  63  87 113 144 180 215 258
#     4   9  16  26  40  58  79 108 147 184 218 255
#     4  10  19  29  43  61  85 118 152 184 217 255
#     4  10  19  31  46  64  86 114 146 180 215 257
#
# _framework density 16.707801
#
# number of rings (size 3 to 8) (size 9 to 14) (size 15 to 20)
#    0.857    1.714    0.000    3.429    0.000    5.714 
#    0.000    0.000    0.000    0.000    0.000    0.000 
#    0.000    1.143    0.000    4.286    0.000    6.571 
#
# Total GULP energy -347044.645476 kJ/mol
# GULP energy per Si atom -12394.451624 kJ/mol
# Density = 1.666977 g / cm^3
# Si number density = 16.707801 Si / 1000 Ang^3
#
#
#
# Elastic Constant Matrix: (Units=GPa)
#
#
# Indices 1 2 3 4 5 6 
#
# 1 116.8995 59.4444 3.4677 0.0000 -9.1948 0.0000
# 2 59.4444 155.3956 5.9164 0.0000 0.4349 0.0000
# 3 3.4677 5.9164 2.0857 0.0000 1.2966 0.0000
# 4 0.0000 0.0000 0.0000 19.6419 0.0000 -4.7216
# 5 -9.1948 0.4349 1.2966 0.0000 12.6509 0.0000
# 6 0.0000 0.0000 0.0000 -4.7216 0.0000 36.4152
#
#
#
# Elastic Compliance Matrix: (Units=1/GPa)
#
#
# Indices 1 2 3 4 5 6 
#
# 1 0.011826 -0.003993 -0.014701 0.000000 0.010239 0.000000
# 2 -0.003993 0.008609 -0.016869 0.000000 -0.001469 0.000000
# 3 -0.014701 -0.016869 0.596008 0.000000 -0.071189 0.000000
# 4 0.000000 0.000000 0.000000 0.052550 0.000000 0.006814
# 5 0.010239 -0.001469 -0.071189 0.000000 0.093834 0.000000
# 6 0.000000 0.000000 0.000000 0.006814 0.000000 0.028344
#
#
# Mechanical properties :
#
#
# Convention : Reuss Voigt Hill
#
# Bulk Modulus (GPa) = 1.83379 45.78199 23.80789
# Shear Modulus (GPa) = 4.78895 27.44509 16.11702
#
# Velocity S-wave (km/s) = 1.69485 4.05736 3.10924
# Velocity P-wave (km/s) = 2.22035 7.02927 5.21251
#
# Compressibility (1/GPa) = 0.54531723
#
# Stress axis : x y z
#
# Youngs Moduli (GPa) = 84.55753 116.15784 1.67783
#
# Poissons Ratio (x) = 0.46381 0.02467
# Poissons Ratio (y) = 0.33763 0.02830
# Poissons Ratio (z) = 1.24312 1.95945
#
# Static dielectric constant tensor:
#      x y z
#    x 3.144600 0.000000 -0.180120 
#    y 0.000000 3.349760 0.000000 
#    z -0.180120 0.000000 2.565680 
# 
# 
# High freq. dielectric constant tensor:
#      x y z
#    x 1.645030 0.000000 -0.020190 
#    y 0.000000 1.668100 0.000000 
#    z -0.020190 0.000000 1.569660 
# 
# From -- ./inp_files/42355.got.cif
#   From: 2010.06.25/outbox.cif.g09.slc.cpg/sg11_22_cif.got.tgz:42355.got - 2010.06.27 23:14:04.
