data_PCOD8069337
_publ_section_title
;
Structure prediction by ZEFSAII (Michael W. Deem and Ramdas Pophale) SiO2 
 PCOD8069337
Probable space group: P 21/M
;
_chemical_formula_sum "Si O2"
_cell_formula_units_Z 24
_cell_length_a 12.227508
_cell_length_b 9.135751
_cell_length_c 23.010391
_cell_angle_alpha 90.000000
_cell_angle_beta 27.980829
_cell_angle_gamma 90.000000
_cell_volume 1205.985520
_symmetry_space_group_name_H-M "P 21/M"
_symmetry_group_IT_number 11
_symmetry_cell_setting 'monoclinic'
loop_
_space_group_symop_operation_xyz
x,y,z
-x,1/2+y,-z
-x,-y,-z
x,1/2-y,z
loop_
_atom_site_type_symbol
_atom_site_label
_atom_site_fract_x
_atom_site_fract_y
_atom_site_fract_z
Si Si1 0.919359 0.423272 0.702641
Si Si2 0.728012 0.575386 0.366854
Si Si3 0.627411 0.415890 0.199364
Si Si4 0.576216 0.921965 0.103478
Si Si5 0.142186 0.082436 0.481310
Si Si6 0.924652 0.079594 0.166192
O O1 0.910908 0.250000 0.706985
O O2 0.654767 0.485481 0.820351
O O3 0.046398 0.476484 0.701593
O O4 0.074591 0.481322 0.576040
O O5 0.500000 0.500000 0.500000
O O6 0.693528 0.750000 0.383845
O O7 0.775989 0.520417 0.279315
O O8 0.637510 0.250000 0.171454
O O9 0.602384 0.518031 0.155960
O O10 0.414973 0.438983 0.343677
O O11 0.851764 0.454120 0.133563
O O12 0.553749 0.750000 0.122125
O O13 0.801141 0.961239 0.958777
O O14 0.065153 0.250000 0.513520
O O15 0.000000 0.000000 0.500000
O O16 0.877925 0.250000 0.202963
#
# Coordination Sequence:
#
# PCOD8069337 Si02
#       6
#     4   4   4   4   4   4
#     4   9  19  36  57  82 115 150 183 230 286 330
#     4  11  23  41  63  84 111 148 189 234 284 337
#     4  10  20  34  54  82 118 154 186 234 288 329
#     4  10  20  36  59  84 113 152 192 230 278 341
#     4  10  18  31  52  77 108 143 179 222 275 328
#     4  10  22  39  58  83 116 152 190 232 281 333
#
# _framework density 19.900736999999999
#
# number of rings (size 3 to 8) (size 9 to 14) (size 15 to 20)
#    0.000    2.000    1.667    2.000    0.000    4.667 
#    0.000    5.000    0.000    0.000    0.000    0.000 
#    0.000    0.000    0.000    0.000    0.000    0.000 
#
# Total GULP energy -297554.860923 kJ/mol
# GULP energy per Si atom -12398.119205 kJ/mol
# Density = 1.985544 g / cm^3
# Si number density = 19.900737 Si / 1000 Ang^3
#
#
#
# Elastic Constant Matrix: (Units=GPa)
#
#
# Indices 1 2 3 4 5 6 
#
# 1 97.1913 28.9199 38.3724 0.0000 -11.6839 0.0000
# 2 28.9199 51.0908 36.2597 0.0000 -2.5478 0.0000
# 3 38.3724 36.2597 105.6075 0.0000 -12.8598 0.0000
# 4 0.0000 0.0000 0.0000 25.9335 0.0000 3.3165
# 5 -11.6839 -2.5478 -12.8598 0.0000 33.1061 0.0000
# 6 0.0000 0.0000 0.0000 3.3165 0.0000 29.8700
#
#
#
# Elastic Compliance Matrix: (Units=1/GPa)
#
#
# Indices 1 2 3 4 5 6 
#
# 1 0.013349 -0.005599 -0.002526 0.000000 0.003299 0.000000
# 2 -0.005599 0.028301 -0.008038 0.000000 -0.002920 0.000000
# 3 -0.002526 -0.008038 0.013607 0.000000 0.003775 0.000000
# 4 0.000000 0.000000 0.000000 0.039116 0.000000 -0.004343
# 5 0.003299 -0.002920 0.003775 0.000000 0.032612 0.000000
# 6 0.000000 0.000000 0.000000 -0.004343 0.000000 0.033961
#
#
# Mechanical properties :
#
#
# Convention : Reuss Voigt Hill
#
# Bulk Modulus (GPa) = 43.61085 51.22149 47.41617
# Shear Modulus (GPa) = 24.88611 27.80444 26.34527
#
# Velocity S-wave (km/s) = 3.54009 3.74191 3.64240
# Velocity P-wave (km/s) = 6.21864 6.66810 6.44729
#
# Compressibility (1/GPa) = 0.02293007
#
# Stress axis : x y z
#
# Youngs Moduli (GPa) = 74.91244 35.33388 73.49361
#
# Poissons Ratio (x) = 0.19782 0.18567
# Poissons Ratio (y) = 0.41941 0.59078
# Poissons Ratio (z) = 0.18926 0.28403
#
# Static dielectric constant tensor:
#      x y z
#    x 3.566540 0.000000 0.072030 
#    y 0.000000 3.418330 0.000000 
#    z 0.072030 0.000000 3.524230 
# 
# 
# High freq. dielectric constant tensor:
#      x y z
#    x 1.778570 0.000000 -0.011480 
#    y 0.000000 1.750420 0.000000 
#    z -0.011480 0.000000 1.789250 
# 
# From -- ./inp_files/33702.got.cif
#   From: 2010.06.25/outbox.cif.g09.slc.cpg/sg11_17_cif.got.tgz:33702.got - 2010.06.27 23:14:04.
