data_PCOD8069195
_publ_section_title
;
Structure prediction by ZEFSAII (Michael W. Deem and Ramdas Pophale) SiO2 
 PCOD8069195
Probable space group: P 21/M
;
_chemical_formula_sum "Si O2"
_cell_formula_units_Z 28
_cell_length_a 28.962723
_cell_length_b 8.712653
_cell_length_c 9.039186
_cell_angle_alpha 90.000000
_cell_angle_beta 38.801927
_cell_angle_gamma 90.000000
_cell_volume 1429.322827
_symmetry_space_group_name_H-M "P 21/M"
_symmetry_group_IT_number 11
_symmetry_cell_setting 'monoclinic'
loop_
_space_group_symop_operation_xyz
x,y,z
-x,1/2+y,-z
-x,-y,-z
x,1/2-y,z
loop_
_atom_site_type_symbol
_atom_site_label
_atom_site_fract_x
_atom_site_fract_y
_atom_site_fract_z
Si Si1 0.648184 0.430250 0.970459
Si Si2 0.068878 0.069139 0.411501
Si Si3 0.210101 0.071150 0.872452
Si Si4 0.069211 0.430786 0.744570
Si Si5 0.352887 0.429764 0.705616
Si Si6 0.500311 0.567869 0.335455
Si Si7 0.794649 0.428377 0.431962
O O1 0.634928 0.250000 0.016737
O O2 0.716174 0.472770 0.696556
O O3 0.663704 0.495647 0.094427
O O4 0.576062 0.507075 0.073047
O O5 0.060116 0.250000 0.434192
O O6 0.071399 0.004634 0.572052
O O7 0.143798 0.019377 0.144042
O O8 0.000000 0.000000 0.500000
O O9 0.204327 0.250000 0.844404
O O10 0.285786 0.033367 0.765650
O O11 0.205924 0.968184 0.738319
O O12 0.060668 0.250000 0.766275
O O13 0.143954 0.473864 0.639302
O O14 0.000000 0.500000 0.000000
O O15 0.364517 0.250000 0.701234
O O16 0.426054 0.501881 0.445183
O O17 0.500000 0.500000 0.500000
O O18 0.498592 0.750000 0.338572
O O19 0.812768 0.250000 0.407598
#
# Coordination Sequence:
#
# PCOD8069195 Si02
#       7
#     4   4   4   4   4   4   4
#     4  10  20  35  55  81 112 146 186 232 279 332
#     4  10  22  39  59  85 113 145 183 225 271 323
#     4  10  22  39  58  80 110 148 188 229 277 331
#     4  11  23  40  62  87 117 149 186 228 275 330
#     4  10  19  34  57  83 110 144 187 233 282 335
#     4  10  18  30  52  81 111 144 183 229 281 335
#     4  11  24  39  57  83 114 148 188 232 279 328
#
# _framework density 19.589697999999999
#
# number of rings (size 3 to 8) (size 9 to 14) (size 15 to 20)
#    0.000    1.714    0.000    6.429    0.000    8.571 
#    0.000    0.714    0.000    0.000    0.000    0.000 
#    0.000    0.000    0.000    0.000    0.000    0.000 
#
# Total GULP energy -347252.206107 kJ/mol
# GULP energy per Si atom -12401.864504 kJ/mol
# Density = 1.954511 g / cm^3
# Si number density = 19.589698 Si / 1000 Ang^3
#
#
#
# Elastic Constant Matrix: (Units=GPa)
#
#
# Indices 1 2 3 4 5 6 
#
# 1 127.5377 42.2682 77.6340 0.0000 -15.4071 0.0000
# 2 42.2682 84.5052 54.5509 0.0000 -11.6413 0.0000
# 3 77.6340 54.5509 151.1006 0.0000 -12.5002 0.0000
# 4 0.0000 0.0000 0.0000 33.0104 0.0000 -4.3494
# 5 -15.4071 -11.6413 -12.5002 0.0000 38.0862 0.0000
# 6 0.0000 0.0000 0.0000 -4.3494 0.0000 33.9872
#
#
#
# Elastic Compliance Matrix: (Units=1/GPa)
#
#
# Indices 1 2 3 4 5 6 
#
# 1 0.012048 -0.002376 -0.005128 0.000000 0.002464 0.000000
# 2 -0.002376 0.016232 -0.004429 0.000000 0.002547 0.000000
# 3 -0.005128 -0.004429 0.010863 0.000000 0.000137 0.000000
# 4 0.000000 0.000000 0.000000 0.030813 0.000000 0.003943
# 5 0.002464 0.002547 0.000137 0.000000 0.028077 0.000000
# 6 0.000000 0.000000 0.000000 0.003943 0.000000 0.029927
#
#
# Mechanical properties :
#
#
# Convention : Reuss Voigt Hill
#
# Bulk Modulus (GPa) = 65.45948 79.11663 72.28806
# Shear Modulus (GPa) = 31.86390 33.59612 32.73001
#
# Velocity S-wave (km/s) = 4.03744 4.14574 4.09195
# Velocity P-wave (km/s) = 7.43118 7.96183 7.70107
#
# Compressibility (1/GPa) = 0.01527662
#
# Stress axis : x y z
#
# Youngs Moduli (GPa) = 83.00375 61.60798 92.05465
#
# Poissons Ratio (x) = 0.14639 0.47208
# Poissons Ratio (y) = 0.19723 0.40767
# Poissons Ratio (z) = 0.42567 0.27283
#
# Static dielectric constant tensor:
#      x y z
#    x 3.827740 0.000000 -0.269360 
#    y 0.000000 3.585110 0.000000 
#    z -0.269360 0.000000 4.148790 
# 
# 
# High freq. dielectric constant tensor:
#      x y z
#    x 1.763590 0.000000 -0.021220 
#    y 0.000000 1.771110 0.000000 
#    z -0.021220 0.000000 1.772340 
# 
# From -- ./inp_files/29044.got.cif
#   From: 2010.06.25/outbox.cif.g09.slc.cpg/sg11_15_cif.got.tgz:29044.got - 2010.06.27 23:14:04.
