data_PCOD8069534
_publ_section_title
;
Structure prediction by ZEFSAII (Michael W. Deem and Ramdas Pophale) SiO2 
 PCOD8069534
Probable space group: P 21/M
;
_chemical_formula_sum "Si O2"
_cell_formula_units_Z 28
_cell_length_a 14.304798
_cell_length_b 18.935657
_cell_length_c 8.820526
_cell_angle_alpha 90.000000
_cell_angle_beta 138.722966
_cell_angle_gamma 90.000000
_cell_volume 1576.171226
_symmetry_space_group_name_H-M "P 21/M"
_symmetry_group_IT_number 11
_symmetry_cell_setting 'monoclinic'
loop_
_space_group_symop_operation_xyz
x,y,z
-x,1/2+y,-z
-x,-y,-z
x,1/2-y,z
loop_
_atom_site_type_symbol
_atom_site_label
_atom_site_fract_x
_atom_site_fract_y
_atom_site_fract_z
Si Si1 0.294465 0.563964 0.964991
Si Si2 0.632887 0.551109 0.156167
Si Si3 0.193490 0.052672 0.326174
Si Si4 0.531039 0.577579 0.483718
Si Si5 0.118484 0.583516 0.042684
Si Si6 0.349718 0.828240 0.460423
Si Si7 0.411290 0.667746 0.878763
O O1 0.285060 0.482939 0.889361
O O2 0.293886 0.625130 0.835318
O O3 0.444261 0.585250 0.223146
O O4 0.166489 0.568142 0.928622
O O5 0.737543 0.542484 0.425358
O O6 0.500000 0.500000 0.000000
O O7 0.568729 0.630555 0.064403
O O8 0.304190 0.092705 0.351029
O O9 0.159749 0.977743 0.210154
O O10 0.049603 0.097835 0.164289
O O11 0.500000 0.500000 0.500000
O O12 0.481581 0.627901 0.557259
O O13 0.199302 0.651765 0.202810
O O14 0.382687 0.750000 0.447834
O O15 0.341349 0.835930 0.629126
O O16 0.429224 0.750000 0.952960
#
# Coordination Sequence:
#
# PCOD8069534 Si02
#       7
#     4   4   4   4   4   4   4
#     4  10  19  31  56  80 108 139 178 220 272 320
#     4  10  18  32  54  81 108 140 173 226 271 313
#     4  11  20  35  55  83 114 139 181 222 278 316
#     4  11  18  33  58  85 106 138 182 234 269 313
#     4  10  22  35  53  84 111 146 180 223 272 330
#     4  10  21  37  57  79 108 147 187 224 276 332
#     4  10  20  33  55  80 103 136 183 228 268 320
#
# _framework density 17.764568000000001
#
# number of rings (size 3 to 8) (size 9 to 14) (size 15 to 20)
#    0.000    1.714    5.714    2.571    0.000    2.857 
#    0.000    1.429    0.000    0.000    0.000    0.000 
#    0.000    0.000    0.000    0.000    0.000    0.000 
#
# Total GULP energy -346909.767161 kJ/mol
# GULP energy per Si atom -12389.634541 kJ/mol
# Density = 1.772414 g / cm^3
# Si number density = 17.764568 Si / 1000 Ang^3
#
#
#
# Elastic Constant Matrix: (Units=GPa)
#
#
# Indices 1 2 3 4 5 6 
#
# 1 115.0620 40.0881 46.8162 0.0000 15.4586 0.0000
# 2 40.0881 95.3943 17.9491 0.0000 -2.5014 0.0000
# 3 46.8162 17.9491 77.2008 0.0000 10.7689 0.0000
# 4 0.0000 0.0000 0.0000 23.1336 0.0000 -5.4785
# 5 15.4586 -2.5014 10.7689 0.0000 35.2673 0.0000
# 6 0.0000 0.0000 0.0000 -5.4785 0.0000 18.4311
#
#
#
# Elastic Compliance Matrix: (Units=1/GPa)
#
#
# Indices 1 2 3 4 5 6 
#
# 1 0.013511 -0.004559 -0.006541 0.000000 -0.004248 0.000000
# 2 -0.004559 0.012590 -0.000591 0.000000 0.003072 0.000000
# 3 -0.006541 -0.000591 0.017405 0.000000 -0.002489 0.000000
# 4 0.000000 0.000000 0.000000 0.046500 0.000000 0.013822
# 5 -0.004248 0.003072 -0.002489 0.000000 0.031195 0.000000
# 6 0.000000 0.000000 0.000000 0.013822 0.000000 0.058365
#
#
# Mechanical properties :
#
#
# Convention : Reuss Voigt Hill
#
# Bulk Modulus (GPa) = 49.69111 55.26264 52.47688
# Shear Modulus (GPa) = 23.84851 27.55332 25.70092
#
# Velocity S-wave (km/s) = 3.66796 3.94258 3.80775
# Velocity P-wave (km/s) = 6.78021 7.20424 6.99544
#
# Compressibility (1/GPa) = 0.02012432
#
# Stress axis : x y z
#
# Youngs Moduli (GPa) = 74.01145 79.42622 57.45604
#
# Poissons Ratio (x) = 0.36207 0.37583
# Poissons Ratio (y) = 0.33739 0.03397
# Poissons Ratio (z) = 0.48412 0.04696
#
# Static dielectric constant tensor:
#      x y z
#    x 3.544920 0.000000 -0.057290 
#    y 0.000000 3.475690 0.000000 
#    z -0.057290 0.000000 2.964090 
# 
# 
# High freq. dielectric constant tensor:
#      x y z
#    x 1.691400 0.000000 -0.021130 
#    y 0.000000 1.666620 0.000000 
#    z -0.021130 0.000000 1.682420 
# 
# From -- ./inp_files/22690.got.cif
#   From: 2010.06.25/outbox.cif.g09.slc.cpg/sg11_12_cif.got.tgz:22690.got - 2010.06.27 23:14:04.
