data_PCOD8069129
_publ_section_title
;
Structure prediction by ZEFSAII (Michael W. Deem and Ramdas Pophale) SiO2 
 PCOD8069129
Probable space group: P 21/M
;
_chemical_formula_sum "Si O2"
_cell_formula_units_Z 32
_cell_length_a 13.217082
_cell_length_b 9.402182
_cell_length_c 27.889122
_cell_angle_alpha 90.000000
_cell_angle_beta 28.550094
_cell_angle_gamma 90.000000
_cell_volume 1656.382314
_symmetry_space_group_name_H-M "P 21/M"
_symmetry_group_IT_number 11
_symmetry_cell_setting 'monoclinic'
loop_
_space_group_symop_operation_xyz
x,y,z
-x,1/2+y,-z
-x,-y,-z
x,1/2-y,z
loop_
_atom_site_type_symbol
_atom_site_label
_atom_site_fract_x
_atom_site_fract_y
_atom_site_fract_z
Si Si1 0.819131 0.417277 0.276507
Si Si2 0.398854 0.595959 0.081637
Si Si3 0.593505 0.082125 0.722443
Si Si4 0.822660 0.918326 0.047038
Si Si5 0.160640 0.093880 0.063018
Si Si6 0.976471 0.917735 0.406917
Si Si7 0.437659 0.083118 0.363320
Si Si8 0.041196 0.080947 0.694175
O O1 0.824978 0.250000 0.286514
O O2 0.625173 0.455675 0.322232
O O3 0.035835 0.476595 0.160015
O O4 0.798674 0.501763 0.335593
O O5 0.340846 0.750000 0.083600
O O6 0.195307 0.532516 0.192594
O O7 0.500000 0.500000 0.000000
O O8 0.587377 0.610713 0.040659
O O9 0.607831 0.250000 0.705724
O O10 0.408540 0.044426 0.836715
O O11 0.809845 0.023656 0.656850
O O12 0.541170 0.003336 0.694568
O O13 0.858974 0.750000 0.033386
O O14 0.866687 0.984092 0.975972
O O15 0.000000 0.000000 0.000000
O O16 0.053255 0.250000 0.105394
O O17 0.998965 0.750000 0.392808
O O18 0.933496 0.975951 0.370833
O O19 0.781126 0.964025 0.521064
O O20 0.439753 0.250000 0.350380
O O21 0.078753 0.250000 0.681864
#
# Coordination Sequence:
#
# PCOD8069129 Si02
#       8
#     4   4   4   4   4   4   4   4
#     4  10  20  34  52  76 107 144 180 217 266 320
#     4  10  18  30  50  74  99 132 171 210 253 304
#     4  10  20  36  59  83 108 139 180 228 274 321
#     4  10  20  34  53  78 107 142 177 212 258 314
#     4   9  17  31  50  70 100 138 172 205 253 316
#     4   9  19  37  58  81 108 140 180 226 275 324
#     4  10  21  37  58  80 106 142 182 225 275 328
#     4  10  20  34  54  79 107 141 181 221 264 319
#
# _framework density 19.319212
#
# number of rings (size 3 to 8) (size 9 to 14) (size 15 to 20)
#    0.000    2.250    1.250    1.875    0.000    5.500 
#    0.000    2.500    0.000    3.000    0.000    0.000 
#    0.000    0.000    0.000    0.000    0.000    0.000 
#
# Total GULP energy -396485.206931 kJ/mol
# GULP energy per Si atom -12390.162717 kJ/mol
# Density = 1.927524 g / cm^3
# Si number density = 19.319212 Si / 1000 Ang^3
#
#
#
# Elastic Constant Matrix: (Units=GPa)
#
#
# Indices 1 2 3 4 5 6 
#
# 1 125.3956 34.5640 21.7972 0.0000 6.4280 0.0000
# 2 34.5640 35.9039 17.5199 0.0000 5.3606 0.0000
# 3 21.7972 17.5199 71.3540 0.0000 -1.6664 0.0000
# 4 0.0000 0.0000 0.0000 21.9742 0.0000 1.4988
# 5 6.4280 5.3606 -1.6664 0.0000 34.7853 0.0000
# 6 0.0000 0.0000 0.0000 1.4988 0.0000 27.8988
#
#
#
# Elastic Compliance Matrix: (Units=1/GPa)
#
#
# Indices 1 2 3 4 5 6 
#
# 1 0.010910 -0.009990 -0.000892 0.000000 -0.000519 0.000000
# 2 -0.009990 0.041781 -0.007322 0.000000 -0.004943 0.000000
# 3 -0.000892 -0.007322 0.016133 0.000000 0.002066 0.000000
# 4 0.000000 0.000000 0.000000 0.045675 0.000000 -0.002454
# 5 -0.000519 -0.004943 0.002066 0.000000 0.029705 0.000000
# 6 0.000000 0.000000 0.000000 -0.002454 0.000000 0.035976
#
#
# Mechanical properties :
#
#
# Convention : Reuss Voigt Hill
#
# Bulk Modulus (GPa) = 30.84986 42.26841 36.55913
# Shear Modulus (GPa) = 21.98833 27.51648 24.75241
#
# Velocity S-wave (km/s) = 3.37732 3.77809 3.58331
# Velocity P-wave (km/s) = 5.58673 6.39988 6.00708
#
# Compressibility (1/GPa) = 0.03241506
#
# Stress axis : x y z
#
# Youngs Moduli (GPa) = 91.65793 23.93456 61.98382
#
# Poissons Ratio (x) = 0.23911 0.05529
# Poissons Ratio (y) = 0.91568 0.45386
# Poissons Ratio (z) = 0.08176 0.17526
#
# Static dielectric constant tensor:
#      x y z
#    x 17.214540 0.000000 -9.419180 
#    y 0.000000 3.206680 0.000000 
#    z -9.419180 0.000000 10.405910 
# 
# 
# High freq. dielectric constant tensor:
#      x y z
#    x 1.764790 0.000000 0.000690 
#    y 0.000000 1.713310 0.000000 
#    z 0.000690 0.000000 1.761720 
# 
# From -- ./inp_files/71407.got.cif
#   From: 2010.06.25/outbox.cif.g09.slc.cpg/sg11_36_cif.got.tgz:71407.got - 2010.06.27 23:14:04.
