data_PCOD8069952
_publ_section_title
;
Structure prediction by ZEFSAII (Michael W. Deem and Ramdas Pophale) SiO2 
 PCOD8069952
Probable space group: P 21/M
;
_chemical_formula_sum "Si O2"
_cell_formula_units_Z 32
_cell_length_a 18.364816
_cell_length_b 9.004406
_cell_length_c 13.548697
_cell_angle_alpha 90.000000
_cell_angle_beta 111.646354
_cell_angle_gamma 90.000000
_cell_volume 2082.468604
_symmetry_space_group_name_H-M "P 21/M"
_symmetry_group_IT_number 11
_symmetry_cell_setting 'monoclinic'
loop_
_space_group_symop_operation_xyz
x,y,z
-x,1/2+y,-z
-x,-y,-z
x,1/2-y,z
loop_
_atom_site_type_symbol
_atom_site_label
_atom_site_fract_x
_atom_site_fract_y
_atom_site_fract_z
Si Si1 0.380950 0.077760 0.391572
Si Si2 0.233713 0.924609 0.002977
Si Si3 0.476329 0.419425 0.627542
Si Si4 0.923720 0.582846 0.079255
Si Si5 0.923720 0.917154 0.844466
Si Si6 0.523671 0.580575 0.151213
Si Si7 0.380950 0.422240 0.989377
Si Si8 0.766287 0.075391 0.769264
O O1 0.363869 0.250000 0.362926
O O2 0.405638 0.046150 0.517127
O O3 0.450366 0.026394 0.354225
O O4 0.303425 0.984732 0.332677
O O5 0.226017 0.750000 0.985552
O O6 0.249977 0.967255 0.124988
O O7 0.153745 0.997625 0.923937
O O8 0.303425 0.984732 0.970748
O O9 0.505468 0.250000 0.627540
O O10 0.444775 0.446340 0.722387
O O11 0.921901 0.750000 0.120036
O O12 0.000000 0.500000 0.160810
O O13 0.927769 0.583397 0.963885
O O14 0.921900 0.750000 0.801865
O O15 0.846255 0.002375 0.770192
O O16 0.494532 0.750000 0.122072
O O17 0.594362 0.546151 0.111489
O O18 0.450367 0.473605 0.096141
O O19 0.363868 0.250000 0.000942
O O20 0.773982 0.250000 0.759534
#
# Coordination Sequence:
#
# PCOD8069952 Si02
#       8
#     4   4   4   4   4   4   4   4
#     4  10  19  29  43  63  83 105 138 176 209 244
#     4  10  19  29  41  58  83 114 143 171 205 244
#     4   9  18  32  46  59  80 110 139 169 209 253
#     4   9  16  26  40  58  81 109 140 171 203 241
#     4   9  16  26  40  58  81 109 140 171 203 241
#     4   9  18  32  46  59  80 110 139 169 209 253
#     4  10  19  29  43  63  83 105 138 176 209 244
#     4  10  19  29  41  58  83 114 143 171 205 244
#
# _framework density 15.366379
#
# number of rings (size 3 to 8) (size 9 to 14) (size 15 to 20)
#    0.000    2.500    0.000    3.000    0.000    9.000 
#    0.000    0.000    0.000    0.000    0.000    0.000 
#    0.000    1.000    0.000    2.750    0.000    4.000 
#
# Total GULP energy -396831.899149 kJ/mol
# GULP energy per Si atom -12400.996848 kJ/mol
# Density = 1.533140 g / cm^3
# Si number density = 15.366379 Si / 1000 Ang^3
#
#
#
# Elastic Constant Matrix: (Units=GPa)
#
#
# Indices 1 2 3 4 5 6 
#
# 1 111.3174 56.2370 46.0027 0.0000 15.5203 0.0000
# 2 56.2370 95.9171 34.1864 0.0000 10.7583 0.0000
# 3 46.0027 34.1864 71.0173 0.0000 4.1414 0.0000
# 4 0.0000 0.0000 0.0000 19.1933 0.0000 6.4659
# 5 15.5203 10.7583 4.1414 0.0000 22.3031 0.0000
# 6 0.0000 0.0000 0.0000 6.4659 0.0000 32.4463
#
#
#
# Elastic Compliance Matrix: (Units=1/GPa)
#
#
# Indices 1 2 3 4 5 6 
#
# 1 0.015877 -0.006058 -0.006970 0.000000 -0.006832 0.000000
# 2 -0.006058 0.015473 -0.003371 0.000000 -0.002622 0.000000
# 3 -0.006970 -0.003371 0.020058 0.000000 0.002752 0.000000
# 4 0.000000 0.000000 0.000000 0.055851 0.000000 -0.011130
# 5 -0.006832 -0.002622 0.002752 0.000000 0.050345 0.000000
# 6 0.000000 0.000000 0.000000 -0.011130 0.000000 0.033038
#
#
# Mechanical properties :
#
#
# Convention : Reuss Voigt Hill
#
# Bulk Modulus (GPa) = 53.73529 61.23378 57.48453
# Shear Modulus (GPa) = 21.77286 24.24361 23.00823
#
# Velocity S-wave (km/s) = 3.76828 3.97634 3.87371
# Velocity P-wave (km/s) = 7.34701 7.81137 7.58274
#
# Compressibility (1/GPa) = 0.01860975
#
# Stress axis : x y z
#
# Youngs Moduli (GPa) = 62.98543 64.62715 49.85484
#
# Poissons Ratio (x) = 0.39153 0.34747
# Poissons Ratio (y) = 0.38158 0.16808
# Poissons Ratio (z) = 0.43899 0.21788
#
# Static dielectric constant tensor:
#      x y z
#    x 2.911130 0.000000 0.094280 
#    y 0.000000 3.134900 0.000000 
#    z 0.094280 0.000000 2.717880 
# 
# 
# High freq. dielectric constant tensor:
#      x y z
#    x 1.580080 0.000000 0.015990 
#    y 0.000000 1.608400 0.000000 
#    z 0.015990 0.000000 1.547290 
# 
# From -- ./inp_files/52971.got.cif
#   From: 2010.06.25/outbox.cif.g09.slc.cpg/sg11_27_cif.got.tgz:52971.got - 2010.06.27 23:14:04.
