data_PCOD8069556
_publ_section_title
;
Structure prediction by ZEFSAII (Michael W. Deem and Ramdas Pophale) SiO2 
 PCOD8069556
Probable space group: P 21/M
;
_chemical_formula_sum "Si O2"
_cell_formula_units_Z 32
_cell_length_a 24.354048
_cell_length_b 13.875019
_cell_length_c 10.021865
_cell_angle_alpha 90.000000
_cell_angle_beta 151.540898
_cell_angle_gamma 90.000000
_cell_volume 1613.781587
_symmetry_space_group_name_H-M "P 21/M"
_symmetry_group_IT_number 11
_symmetry_cell_setting 'monoclinic'
loop_
_space_group_symop_operation_xyz
x,y,z
-x,1/2+y,-z
-x,-y,-z
x,1/2-y,z
loop_
_atom_site_type_symbol
_atom_site_label
_atom_site_fract_x
_atom_site_fract_y
_atom_site_fract_z
Si Si1 0.604857 0.470040 0.133896
Si Si2 0.480092 0.137739 0.648187
Si Si3 0.059776 0.135185 0.218368
Si Si4 0.606780 0.855455 0.956738
Si Si5 0.385137 0.859711 0.323455
Si Si6 0.162601 0.515236 0.238865
Si Si7 0.243159 0.024975 0.122629
Si Si8 0.821665 0.642428 0.253247
O O1 0.646938 0.563540 0.143341
O O2 0.715237 0.438689 0.455709
O O3 0.500000 0.500000 0.000000
O O4 0.562754 0.383010 0.950569
O O5 0.451791 0.250000 0.577972
O O6 0.551879 0.100564 0.674104
O O7 0.360070 0.082257 0.405463
O O8 0.068726 0.250000 0.213568
O O9 0.111351 0.104990 0.472664
O O10 0.129576 0.080489 0.251165
O O11 0.928026 0.100956 0.932823
O O12 0.626299 0.750000 0.065501
O O13 0.684220 0.860487 0.988526
O O14 0.473800 0.868895 0.635407
O O15 0.344249 0.750000 0.214731
O O16 0.273676 0.921926 0.122109
O O17 0.168838 0.486837 0.097037
O O18 0.159320 0.077969 0.837389
O O19 0.863555 0.750000 0.308370
#
# Coordination Sequence:
#
# PCOD8069556 Si02
#       8
#     4   4   4   4   4   4   4   4
#     4  12  22  37  55  89 128 163 199 245 311 377
#     4  11  22  34  54  89 129 168 204 247 306 371
#     4  10  24  47  67  86 119 165 216 266 307 367
#     4  10  18  32  55  82 114 158 208 244 289 363
#     4  10  20  34  55  87 126 171 205 241 311 375
#     4  11  25  41  66  94 121 163 213 254 317 369
#     4  12  21  37  62  92 129 155 201 268 309 364
#     4  10  20  36  64  90 110 154 208 254 305 356
#
# _framework density 19.8292
#
# number of rings (size 3 to 8) (size 9 to 14) (size 15 to 20)
#    0.000    1.250    5.000    1.500    0.000    3.000 
#    0.000    0.000    0.000    0.000    0.000    0.000 
#    0.000    0.000    0.000    0.000    0.000    0.000 
#
# Total GULP energy -396826.990118 kJ/mol
# GULP energy per Si atom -12400.843441 kJ/mol
# Density = 1.978407 g / cm^3
# Si number density = 19.829200 Si / 1000 Ang^3
#
#
#
# Elastic Constant Matrix: (Units=GPa)
#
#
# Indices 1 2 3 4 5 6 
#
# 1 98.7278 25.3418 29.4238 0.0000 -3.4470 0.0000
# 2 25.3418 66.4061 21.3330 0.0000 -0.8766 0.0000
# 3 29.4238 21.3330 73.7860 0.0000 1.2323 0.0000
# 4 0.0000 0.0000 0.0000 23.6726 0.0000 0.1383
# 5 -3.4470 -0.8766 1.2323 0.0000 26.2306 0.0000
# 6 0.0000 0.0000 0.0000 0.1383 0.0000 3.7183
#
#
#
# Elastic Compliance Matrix: (Units=1/GPa)
#
#
# Indices 1 2 3 4 5 6 
#
# 1 0.012225 -0.003382 -0.003925 0.000000 0.001678 0.000000
# 2 -0.003382 0.017552 -0.003731 0.000000 0.000317 0.000000
# 3 -0.003925 -0.003731 0.016220 0.000000 -0.001403 0.000000
# 4 0.000000 0.000000 0.000000 0.042252 0.000000 -0.001572
# 5 0.001678 0.000317 -0.001403 0.000000 0.038420 0.000000
# 6 0.000000 0.000000 0.000000 -0.001572 0.000000 0.268996
#
#
# Mechanical properties :
#
#
# Convention : Reuss Voigt Hill
#
# Bulk Modulus (GPa) = 41.80540 43.45744 42.63142
# Shear Modulus (GPa) = 11.74487 21.57907 16.66197
#
# Velocity S-wave (km/s) = 2.43637 3.30244 2.90189
# Velocity P-wave (km/s) = 5.38916 6.04193 5.72486
#
# Compressibility (1/GPa) = 0.02392036
#
# Stress axis : x y z
#
# Youngs Moduli (GPa) = 81.79641 56.97203 61.65147
#
# Poissons Ratio (x) = 0.19270 0.24200
# Poissons Ratio (y) = 0.27666 0.23004
# Poissons Ratio (z) = 0.32108 0.21258
#
# Static dielectric constant tensor:
#      x y z
#    x 3.420680 0.000000 -0.157600 
#    y 0.000000 3.547000 0.000000 
#    z -0.157600 0.000000 3.587330 
# 
# 
# High freq. dielectric constant tensor:
#      x y z
#    x 1.764350 0.000000 -0.011650 
#    y 0.000000 1.772960 0.000000 
#    z -0.011650 0.000000 1.766170 
# 
# From -- ./inp_files/18031.got.cif
#   From: 2010.06.25/outbox.cif.g09.slc.cpg/sg11_10_cif.got.tgz:18031.got - 2010.06.27 23:14:04.
