data_PCOD8069766
_publ_section_title
;
Structure prediction by ZEFSAII (Michael W. Deem and Ramdas Pophale) SiO2 
 PCOD8069766
Probable space group: P 21/M
;
_chemical_formula_sum "Si O2"
_cell_formula_units_Z 32
_cell_length_a 12.698752
_cell_length_b 18.858748
_cell_length_c 8.696699
_cell_angle_alpha 90.000000
_cell_angle_beta 128.626036
_cell_angle_gamma 90.000000
_cell_volume 1627.088149
_symmetry_space_group_name_H-M "P 21/M"
_symmetry_group_IT_number 11
_symmetry_cell_setting 'monoclinic'
loop_
_space_group_symop_operation_xyz
x,y,z
-x,1/2+y,-z
-x,-y,-z
x,1/2-y,z
loop_
_atom_site_type_symbol
_atom_site_label
_atom_site_fract_x
_atom_site_fract_y
_atom_site_fract_z
Si Si1 0.656876 0.960314 0.534751
Si Si2 0.133259 0.565320 0.721502
Si Si3 0.485696 0.900185 0.629461
Si Si4 0.640067 0.330008 0.005195
Si Si5 0.168856 0.076618 0.586049
Si Si6 0.379622 0.165843 0.952790
Si Si7 0.866075 0.035522 0.934400
Si Si8 0.267774 0.670417 0.249213
O O1 0.567129 0.902988 0.542730
O O2 0.753644 0.918823 0.505769
O O3 0.564234 0.020541 0.367300
O O4 0.737702 0.999148 0.743356
O O5 0.245845 0.625049 0.804439
O O6 0.164210 0.506546 0.622241
O O7 0.986212 0.602110 0.569682
O O8 0.143401 0.525262 0.892680
O O9 0.576259 0.865224 0.843258
O O10 0.358327 0.849057 0.479528
O O11 0.668231 0.250000 0.082098
O O12 0.492790 0.353584 0.929302
O O13 0.644050 0.339343 0.825651
O O14 0.242312 0.126658 0.776891
O O15 0.353523 0.250000 0.941042
O O16 0.862315 0.118956 0.883595
O O17 0.000000 0.000000 0.000000
O O18 0.212805 0.750000 0.217017
#
# Coordination Sequence:
#
# PCOD8069766 Si02
#       8
#     4   4   4   4   4   4   4   4
#     4  10  20  34  57  88 109 145 187 242 289 335
#     4  10  21  36  58  85 112 154 185 241 288 338
#     4  10  20  34  56  83 115 144 184 233 292 342
#     4   9  19  36  58  83 110 144 187 229 284 343
#     4  11  22  36  56  84 115 146 196 232 285 345
#     4  11  23  38  57  82 116 155 189 237 288 344
#     4  10  18  34  56  79 111 146 188 237 284 338
#     4   9  18  33  55  80 107 142 186 233 279 339
#
# _framework density 19.667034999999998
#
# number of rings (size 3 to 8) (size 9 to 14) (size 15 to 20)
#    0.000    2.000    1.250    2.625    0.000    4.500 
#    0.000    0.625    0.000    3.750    0.000    0.000 
#    0.000    0.000    0.000    0.000    0.000    0.000 
#
# Total GULP energy -396793.909346 kJ/mol
# GULP energy per Si atom -12399.809667 kJ/mol
# Density = 1.962227 g / cm^3
# Si number density = 19.667035 Si / 1000 Ang^3
#
#
#
# Elastic Constant Matrix: (Units=GPa)
#
#
# Indices 1 2 3 4 5 6 
#
# 1 67.7968 30.3619 19.2831 0.0000 9.2374 0.0000
# 2 30.3619 84.6898 36.0453 0.0000 10.4177 0.0000
# 3 19.2831 36.0453 103.9057 0.0000 9.5143 0.0000
# 4 0.0000 0.0000 0.0000 27.9825 0.0000 3.7349
# 5 9.2374 10.4177 9.5143 0.0000 28.0564 0.0000
# 6 0.0000 0.0000 0.0000 3.7349 0.0000 27.3191
#
#
#
# Elastic Compliance Matrix: (Units=1/GPa)
#
#
# Indices 1 2 3 4 5 6 
#
# 1 0.018032 -0.005568 -0.001094 0.000000 -0.003498 0.000000
# 2 -0.005568 0.015940 -0.004254 0.000000 -0.002643 0.000000
# 3 -0.001094 -0.004254 0.011482 0.000000 -0.001954 0.000000
# 4 0.000000 0.000000 0.000000 0.036401 0.000000 -0.004976
# 5 -0.003498 -0.002643 -0.001954 0.000000 0.038438 0.000000
# 6 0.000000 0.000000 0.000000 -0.004976 0.000000 0.037285
#
#
# Mechanical properties :
#
#
# Convention : Reuss Voigt Hill
#
# Bulk Modulus (GPa) = 42.33806 47.53032 44.93419
# Shear Modulus (GPa) = 26.69742 28.05172 27.37457
#
# Velocity S-wave (km/s) = 3.68838 3.78078 3.73487
# Velocity P-wave (km/s) = 6.30183 6.57868 6.44174
#
# Compressibility (1/GPa) = 0.02361941
#
# Stress axis : x y z
#
# Youngs Moduli (GPa) = 55.45833 62.73588 87.09357
#
# Poissons Ratio (x) = 0.34934 0.09531
# Poissons Ratio (y) = 0.30881 0.37051
# Poissons Ratio (z) = 0.06069 0.26689
#
# Static dielectric constant tensor:
#      x y z
#    x 3.568140 0.000000 -0.262670 
#    y 0.000000 3.530720 0.000000 
#    z -0.262670 0.000000 5.798430 
# 
# 
# High freq. dielectric constant tensor:
#      x y z
#    x 1.756900 0.000000 -0.000810 
#    y 0.000000 1.755930 0.000000 
#    z -0.000810 0.000000 1.772930 
# 
# From -- ./inp_files/19429.got.cif
#   From: 2010.06.25/outbox.cif.g09.slc.cpg/sg11_10_cif.got.tgz:19429.got - 2010.06.27 23:14:04.
