data_PCOD8069790
_publ_section_title
;
Structure prediction by ZEFSAII (Michael W. Deem and Ramdas Pophale) SiO2 
 PCOD8069790
Probable space group: P 21/M
;
_chemical_formula_sum "Si O2"
_cell_formula_units_Z 28
_cell_length_a 9.226393
_cell_length_b 28.179561
_cell_length_c 5.001511
_cell_angle_alpha 90.000000
_cell_angle_beta 79.224561
_cell_angle_gamma 90.000000
_cell_volume 1277.442558
_symmetry_space_group_name_H-M "P 21/M"
_symmetry_group_IT_number 11
_symmetry_cell_setting 'monoclinic'
loop_
_space_group_symop_operation_xyz
x,y,z
-x,1/2+y,-z
-x,-y,-z
x,1/2-y,z
loop_
_atom_site_type_symbol
_atom_site_label
_atom_site_fract_x
_atom_site_fract_y
_atom_site_fract_z
Si Si1 0.874171 0.021812 0.838149
Si Si2 0.156659 0.057396 0.542778
Si Si3 0.972999 0.646896 0.643854
Si Si4 0.441744 0.104660 0.530424
Si Si5 0.224407 0.921838 0.639512
Si Si6 0.340468 0.154723 0.058242
Si Si7 0.919811 0.750000 0.554685
Si Si8 0.277264 0.250000 0.885178
O O1 0.812566 0.057213 0.634914
O O2 0.054924 0.028673 0.794842
O O3 0.850577 0.967668 0.747823
O O4 0.796213 0.036370 0.138344
O O5 0.330319 0.059653 0.548214
O O6 0.087007 0.110196 0.558940
O O7 0.121332 0.624801 0.727030
O O8 0.008185 0.699404 0.499278
O O9 0.838392 0.650041 0.904544
O O10 0.606382 0.091930 0.400977
O O11 0.429463 0.118350 0.844125
O O12 0.390232 0.146807 0.347357
O O13 0.381923 0.205832 0.923614
O O14 0.780491 0.750000 0.400588
O O15 0.865591 0.750000 0.877039
#
# Coordination Sequence:
#
# PCOD8069790 Si02
#       8
#     4   4   4   4   4   4   2   2
#     4  10  22  38  58  83 111 153 196 237 286 339
#     4   9  20  37  60  84 112 148 197 242 284 337
#     4   9  20  38  60  83 112 147 187 235 281 339
#     4  11  22  36  56  83 116 153 188 231 289 342
#     4  11  23  38  56  82 119 152 187 233 286 342
#     4  10  20  36  58  82 108 147 190 232 283 334
#     4  10  20  34  58  88 110 140 185 230 283 334
#     4  10  18  34  58  86 110 136 191 246 277 328
#
# _framework density 21.918792
#
# number of rings (size 3 to 8) (size 9 to 14) (size 15 to 20)
#    0.000    2.000    0.000    4.286    0.000   12.000 
#    0.000    1.429    0.000    0.000    0.000    0.000 
#    0.000    0.000    0.000    0.000    0.000    0.000 
#
# Total GULP energy -346869.559382 kJ/mol
# GULP energy per Si atom -12388.198549 kJ/mol
# Density = 2.186890 g / cm^3
# Si number density = 21.918792 Si / 1000 Ang^3
#
#
#
# Elastic Constant Matrix: (Units=GPa)
#
#
# Indices 1 2 3 4 5 6 
#
# 1 120.0785 25.0780 23.9797 0.0000 -26.6647 0.0000
# 2 25.0780 102.7973 -3.1485 0.0000 -12.1980 0.0000
# 3 23.9797 -3.1485 53.8186 0.0000 -8.2974 0.0000
# 4 0.0000 0.0000 0.0000 25.1639 0.0000 3.8761
# 5 -26.6647 -12.1980 -8.2974 0.0000 30.3039 0.0000
# 6 0.0000 0.0000 0.0000 3.8761 0.0000 22.2176
#
#
#
# Elastic Compliance Matrix: (Units=1/GPa)
#
#
# Indices 1 2 3 4 5 6 
#
# 1 0.011308 -0.001916 -0.003900 0.000000 0.008111 0.000000
# 2 -0.001916 0.010626 0.001957 0.000000 0.003128 0.000000
# 3 -0.003900 0.001957 0.020908 0.000000 0.003081 0.000000
# 4 0.000000 0.000000 0.000000 0.040837 0.000000 -0.007124
# 5 0.008111 0.003128 0.003081 0.000000 0.042239 0.000000
# 6 0.000000 0.000000 0.000000 -0.007124 0.000000 0.046252
#
#
# Mechanical properties :
#
#
# Convention : Reuss Voigt Hill
#
# Bulk Modulus (GPa) = 28.46898 40.94589 34.70743
# Shear Modulus (GPa) = 26.09671 30.92278 28.50975
#
# Velocity S-wave (km/s) = 3.45426 3.76012 3.61043
# Velocity P-wave (km/s) = 5.37827 6.12965 5.76621
#
# Compressibility (1/GPa) = 0.03512595
#
# Stress axis : x y z
#
# Youngs Moduli (GPa) = 88.43363 94.10624 47.82823
#
# Poissons Ratio (x) = 0.18027 0.18653
# Poissons Ratio (y) = 0.16941 -0.09362
# Poissons Ratio (z) = 0.34489 -0.18420
#
# Static dielectric constant tensor:
#      x y z
#    x 3.846220 0.000000 0.005930 
#    y 0.000000 4.532350 0.000000 
#    z 0.005930 0.000000 3.825380 
# 
# 
# High freq. dielectric constant tensor:
#      x y z
#    x 1.830420 0.000000 0.011500 
#    y 0.000000 1.874100 0.000000 
#    z 0.011500 0.000000 1.861150 
# 
# From -- ./inp_files/3232.got.cif
#   From: 2010.06.25/outbox.cif.g09.slc.cpg/sg11_2_cif.got.tgz:3232.got - 2010.06.27 23:14:04.
