data_PCOD8069064
_publ_section_title
;
Structure prediction by ZEFSAII (Michael W. Deem and Ramdas Pophale) SiO2 
 PCOD8069064
Probable space group: P 21/M
;
_chemical_formula_sum "Si O2"
_cell_formula_units_Z 32
_cell_length_a 20.498689
_cell_length_b 9.001625
_cell_length_c 31.785449
_cell_angle_alpha 90.000000
_cell_angle_beta 18.593235
_cell_angle_gamma 90.000000
_cell_volume 1870.071611
_symmetry_space_group_name_H-M "P 21/M"
_symmetry_group_IT_number 11
_symmetry_cell_setting 'monoclinic'
loop_
_space_group_symop_operation_xyz
x,y,z
-x,1/2+y,-z
-x,-y,-z
x,1/2-y,z
loop_
_atom_site_type_symbol
_atom_site_label
_atom_site_fract_x
_atom_site_fract_y
_atom_site_fract_z
Si Si1 0.989462 0.417313 0.353980
Si Si2 0.336071 0.079651 0.999283
Si Si3 0.302144 0.081030 0.928789
Si Si4 0.257432 0.081947 0.270521
Si Si5 0.293033 0.925049 0.109435
Si Si6 0.633122 0.423735 0.625163
Si Si7 0.823125 0.919818 0.083435
Si Si8 0.706267 0.920615 0.661571
O O1 0.011633 0.250000 0.322031
O O2 0.080218 0.426376 0.345065
O O3 0.096886 0.532351 0.257263
O O4 0.750834 0.459438 0.509008
O O5 0.329607 0.250000 0.018461
O O6 0.209406 0.058208 0.032692
O O7 0.570761 0.035190 0.848268
O O8 0.241655 0.977902 0.093643
O O9 0.392539 0.250000 0.870801
O O10 0.140178 0.060860 0.989554
O O11 0.474793 0.958647 0.816707
O O12 0.349884 0.250000 0.215576
O O13 0.166905 0.042012 0.372715
O O14 0.326347 0.750000 0.090033
O O15 0.500000 0.000000 0.000000
O O16 0.625630 0.250000 0.637756
O O17 0.400436 0.486068 0.766707
O O18 0.762885 0.488298 0.585302
O O19 0.834010 0.750000 0.090573
O O20 0.000000 0.000000 0.000000
O O21 0.726692 0.750000 0.636426
#
# Coordination Sequence:
#
# PCOD8069064 Si02
#       8
#     4   4   4   4   4   4   4   4
#     4  10  20  34  49  64  89 127 167 204 243 283
#     4  10  18  30  49  69  92 126 164 204 246 282
#     4   8  16  30  47  69  97 126 158 193 235 289
#     4   9  17  28  43  64  90 122 162 203 237 274
#     4  12  23  34  48  69  95 126 167 211 247 281
#     4   9  19  34  48  65  94 129 160 194 238 290
#     4   9  17  31  51  76 102 127 155 189 232 288
#     4   9  16  26  42  65  92 122 158 197 233 272
#
# _framework density 17.111643999999998
#
# number of rings (size 3 to 8) (size 9 to 14) (size 15 to 20)
#    0.000    2.500    1.250    2.625    0.000    4.000 
#    0.000    0.000    0.000    0.000    0.000    0.875 
#    0.000    0.000    0.000    0.000    0.000    0.000 
#
# Total GULP energy -396421.903724 kJ/mol
# GULP energy per Si atom -12388.184491 kJ/mol
# Density = 1.707270 g / cm^3
# Si number density = 17.111644 Si / 1000 Ang^3
#
#
#
# Elastic Constant Matrix: (Units=GPa)
#
#
# Indices 1 2 3 4 5 6 
#
# 1 76.9217 25.2530 37.1959 0.0000 14.0927 0.0000
# 2 25.2530 64.0648 29.4720 0.0000 13.3628 0.0000
# 3 37.1959 29.4720 77.2145 0.0000 21.2949 0.0000
# 4 0.0000 0.0000 0.0000 20.8563 0.0000 5.4596
# 5 14.0927 13.3628 21.2949 0.0000 23.6119 0.0000
# 6 0.0000 0.0000 0.0000 5.4596 0.0000 26.4311
#
#
#
# Elastic Compliance Matrix: (Units=1/GPa)
#
#
# Indices 1 2 3 4 5 6 
#
# 1 0.017777 -0.003441 -0.006470 0.000000 -0.002827 0.000000
# 2 -0.003441 0.020170 -0.004605 0.000000 -0.005208 0.000000
# 3 -0.006470 -0.004605 0.021353 0.000000 -0.012789 0.000000
# 4 0.000000 0.000000 0.000000 0.050688 0.000000 -0.010470
# 5 -0.002827 -0.005208 -0.012789 0.000000 0.058521 0.000000
# 6 0.000000 0.000000 0.000000 -0.010470 0.000000 0.039997
#
#
# Mechanical properties :
#
#
# Convention : Reuss Voigt Hill
#
# Bulk Modulus (GPa) = 33.03876 44.67143 38.85509
# Shear Modulus (GPa) = 20.19169 22.59853 21.39511
#
# Velocity S-wave (km/s) = 3.43884 3.63802 3.53983
# Velocity P-wave (km/s) = 5.92597 6.61887 6.28198
#
# Compressibility (1/GPa) = 0.03026748
#
# Stress axis : x y z
#
# Youngs Moduli (GPa) = 56.25379 49.57784 46.83265
#
# Poissons Ratio (x) = 0.17059 0.30302
# Poissons Ratio (y) = 0.19356 0.21566
# Poissons Ratio (z) = 0.36398 0.22830
#
# Static dielectric constant tensor:
#      x y z
#    x 3.298710 0.000000 0.290410 
#    y 0.000000 3.225190 0.000000 
#    z 0.290410 0.000000 3.084180 
# 
# 
# High freq. dielectric constant tensor:
#      x y z
#    x 1.644120 0.000000 0.030960 
#    y 0.000000 1.663080 0.000000 
#    z 0.030960 0.000000 1.626520 
# 
# From -- ./inp_files/40652.got.cif
#   From: 2010.06.25/outbox.cif.g09.slc.cpg/sg11_21_cif.got.tgz:40652.got - 2010.06.27 23:14:04.
