data_PCOD8069586
_publ_section_title
;
Structure prediction by ZEFSAII (Michael W. Deem and Ramdas Pophale) SiO2 
 PCOD8069586
Probable space group: P 21/M
;
_chemical_formula_sum "Si O2"
_cell_formula_units_Z 20
_cell_length_a 12.971989
_cell_length_b 16.649718
_cell_length_c 5.157774
_cell_angle_alpha 90.000000
_cell_angle_beta 119.272088
_cell_angle_gamma 90.000000
_cell_volume 971.729542
_symmetry_space_group_name_H-M "P 21/M"
_symmetry_group_IT_number 11
_symmetry_cell_setting 'monoclinic'
loop_
_space_group_symop_operation_xyz
x,y,z
-x,1/2+y,-z
-x,-y,-z
x,1/2-y,z
loop_
_atom_site_type_symbol
_atom_site_label
_atom_site_fract_x
_atom_site_fract_y
_atom_site_fract_z
Si Si1 0.616642 0.657328 0.583614
Si Si2 0.506449 0.093281 0.067644
Si Si3 0.774861 0.092153 0.435143
Si Si4 0.156995 0.064586 0.249778
Si Si5 0.906929 0.088873 0.088766
O O1 0.611357 0.750000 0.653717
O O2 0.549305 0.606600 0.718727
O O3 0.753038 0.630547 0.745991
O O4 0.558831 0.644356 0.232017
O O5 0.641806 0.122884 0.240880
O O6 0.500000 0.000000 0.000000
O O7 0.852108 0.120840 0.286666
O O8 0.776302 0.994375 0.463022
O O9 0.835102 0.131158 0.764631
O O10 0.046177 0.109962 0.247571
O O11 0.107365 0.008784 0.952352
#
# Coordination Sequence:
#
# PCOD8069586 Si02
#       5
#     4   4   4   4   4
#     4  12  26  40  58  90 129 165 197 257 333 371
#     4  12  22  40  64  88 119 161 218 252 296 371
#     4  10  18  32  56  89 109 145 197 258 282 331
#     4   9  20  32  58  83 125 144 194 250 300 355
#     4   9  18  31  55  92 114 139 192 255 297 336
#
# _framework density 20.581859999999999
#
# number of rings (size 3 to 8) (size 9 to 14) (size 15 to 20)
#    1.200    0.400    2.000    4.200    0.000    0.000 
#    0.000    0.000    0.000    7.200    0.000    0.000 
#    0.000    0.000    0.000    0.000    0.000    0.000 
#
# Total GULP energy -247943.388250 kJ/mol
# GULP energy per Si atom -12397.169412 kJ/mol
# Density = 2.053502 g / cm^3
# Si number density = 20.581860 Si / 1000 Ang^3
#
#
#
# Elastic Constant Matrix: (Units=GPa)
#
#
# Indices 1 2 3 4 5 6 
#
# 1 178.9073 20.4051 44.4697 0.0000 3.6447 0.0000
# 2 20.4051 49.2684 8.2589 0.0000 4.9059 0.0000
# 3 44.4697 8.2589 78.3941 0.0000 -12.5569 0.0000
# 4 0.0000 0.0000 0.0000 16.5148 0.0000 -2.2190
# 5 3.6447 4.9059 -12.5569 0.0000 43.9529 0.0000
# 6 0.0000 0.0000 0.0000 -2.2190 0.0000 14.6236
#
#
#
# Elastic Compliance Matrix: (Units=1/GPa)
#
#
# Indices 1 2 3 4 5 6 
#
# 1 0.006816 -0.002027 -0.003885 0.000000 -0.001449 0.000000
# 2 -0.002027 0.021668 -0.001565 0.000000 -0.002697 0.000000
# 3 -0.003885 -0.001565 0.015933 0.000000 0.005049 0.000000
# 4 0.000000 0.000000 0.000000 0.061812 0.000000 0.009379
# 5 -0.001449 -0.002697 0.005049 0.000000 0.024615 0.000000
# 6 0.000000 0.000000 0.000000 0.009379 0.000000 0.069806
#
#
# Mechanical properties :
#
#
# Convention : Reuss Voigt Hill
#
# Bulk Modulus (GPa) = 33.94102 50.31525 42.12814
# Shear Modulus (GPa) = 22.18035 30.58065 26.38050
#
# Velocity S-wave (km/s) = 3.28634 3.85880 3.58402
# Velocity P-wave (km/s) = 5.56117 6.65982 6.13514
#
# Compressibility (1/GPa) = 0.02946287
#
# Stress axis : x y z
#
# Youngs Moduli (GPa) = 146.71663 46.15197 62.76162
#
# Poissons Ratio (x) = 0.09357 0.24382
# Poissons Ratio (y) = 0.29745 0.09820
# Poissons Ratio (z) = 0.56997 0.07221
#
# Static dielectric constant tensor:
#      x y z
#    x 3.773400 0.000000 0.079220 
#    y 0.000000 3.117410 0.000000 
#    z 0.079220 0.000000 3.691250 
# 
# 
# High freq. dielectric constant tensor:
#      x y z
#    x 1.824290 0.000000 0.004040 
#    y 0.000000 1.742260 0.000000 
#    z 0.004040 0.000000 1.808140 
# 
# From -- ./inp_files/4457.got.cif
#   From: 2010.06.25/outbox.cif.g09.slc.cpg/sg11_3_cif.got.tgz:4457.got - 2010.06.27 23:14:04.
