data_PCOD8069102
_publ_section_title
;
Structure prediction by ZEFSAII (Michael W. Deem and Ramdas Pophale) SiO2 
 PCOD8069102
Probable space group: P 21/M
;
_chemical_formula_sum "Si O2"
_cell_formula_units_Z 32
_cell_length_a 29.346644
_cell_length_b 9.022888
_cell_length_c 12.731784
_cell_angle_alpha 90.000000
_cell_angle_beta 150.855104
_cell_angle_gamma 90.000000
_cell_volume 1641.874596
_symmetry_space_group_name_H-M "P 21/M"
_symmetry_group_IT_number 11
_symmetry_cell_setting 'monoclinic'
loop_
_space_group_symop_operation_xyz
x,y,z
-x,1/2+y,-z
-x,-y,-z
x,1/2-y,z
loop_
_atom_site_type_symbol
_atom_site_label
_atom_site_fract_x
_atom_site_fract_y
_atom_site_fract_z
Si Si1 0.224644 0.078777 0.761045
Si Si2 0.851143 0.927297 0.988724
Si Si3 0.711580 0.573956 0.523236
Si Si4 0.489452 0.425711 0.805637
Si Si5 0.270593 0.085988 0.072656
Si Si6 0.014776 0.077514 0.416726
Si Si7 0.473935 0.087694 0.548523
Si Si8 0.306858 0.574714 0.724423
O O1 0.246520 0.250000 0.776992
O O2 0.117888 0.053208 0.578854
O O3 0.254387 0.980081 0.722608
O O4 0.283286 0.016629 0.981427
O O5 0.860216 0.750000 0.006929
O O6 0.788823 0.977717 0.763605
O O7 0.804062 0.991005 0.001279
O O8 0.951829 0.005092 0.196535
O O9 0.710528 0.750000 0.509372
O O10 0.607098 0.512116 0.340291
O O11 0.741416 0.501133 0.473063
O O12 0.478808 0.250000 0.772757
O O13 0.504632 0.491233 0.718422
O O14 0.582525 0.471010 0.056341
O O15 0.230674 0.250000 0.966966
O O16 0.362498 0.097308 0.327451
O O17 0.990714 0.250000 0.381514
O O18 0.000000 0.000000 0.500000
O O19 0.519631 0.250000 0.631054
O O20 0.500000 0.000000 0.500000
O O21 0.295364 0.750000 0.694799
#
# Coordination Sequence:
#
# PCOD8069102 Si02
#       8
#     4   4   4   4   4   4   4   4
#     4  10  21  38  58  81 113 152 191 227 277 349
#     4  10  19  36  61  87 112 144 188 234 282 336
#     4  10  20  38  63  83 109 155 199 233 281 346
#     4   9  18  34  56  81 111 150 193 234 278 335
#     4   9  16  31  55  79 107 145 184 224 272 335
#     4  11  22  37  61  90 119 150 186 232 284 343
#     4  10  18  30  49  75 110 148 186 225 273 333
#     4  11  23  37  55  83 118 150 190 246 290 325
#
# _framework density 19.489917999999999
#
# number of rings (size 3 to 8) (size 9 to 14) (size 15 to 20)
#    0.000    2.000    2.500    1.875    0.000    1.500 
#    0.000    3.125    0.000    0.000    0.000    0.000 
#    0.000    0.000    0.000    0.000    0.000    0.000 
#
# Total GULP energy -396533.596316 kJ/mol
# GULP energy per Si atom -12391.674885 kJ/mol
# Density = 1.944556 g / cm^3
# Si number density = 19.489918 Si / 1000 Ang^3
#
#
#
# Elastic Constant Matrix: (Units=GPa)
#
#
# Indices 1 2 3 4 5 6 
#
# 1 78.0608 26.4962 37.1869 0.0000 -26.5163 0.0000
# 2 26.4962 53.8974 35.6296 0.0000 -8.1860 0.0000
# 3 37.1869 35.6296 111.3460 0.0000 -21.7543 0.0000
# 4 0.0000 0.0000 0.0000 27.0998 0.0000 -2.1019
# 5 -26.5163 -8.1860 -21.7543 0.0000 35.0879 0.0000
# 6 0.0000 0.0000 0.0000 -2.1019 0.0000 27.4877
#
#
#
# Elastic Compliance Matrix: (Units=1/GPa)
#
#
# Indices 1 2 3 4 5 6 
#
# 1 0.020360 -0.006635 -0.002245 0.000000 0.012446 0.000000
# 2 -0.006635 0.025720 -0.006624 0.000000 -0.003120 0.000000
# 3 -0.002245 -0.006624 0.012763 0.000000 0.004671 0.000000
# 4 0.000000 0.000000 0.000000 0.037121 0.000000 0.002839
# 5 0.012446 -0.003120 0.004671 0.000000 0.040074 0.000000
# 6 0.000000 0.000000 0.000000 0.002839 0.000000 0.036597
#
#
# Mechanical properties :
#
#
# Convention : Reuss Voigt Hill
#
# Bulk Modulus (GPa) = 35.92462 49.10329 42.51395
# Shear Modulus (GPa) = 23.48289 27.53452 25.50871
#
# Velocity S-wave (km/s) = 3.47490 3.76274 3.62168
# Velocity P-wave (km/s) = 5.87982 6.64278 6.27291
#
# Compressibility (1/GPa) = 0.02783606
#
# Stress axis : x y z
#
# Youngs Moduli (GPa) = 49.11616 38.87967 78.35132
#
# Poissons Ratio (x) = 0.25795 0.17590
# Poissons Ratio (y) = 0.32586 0.51901
# Poissons Ratio (z) = 0.11027 0.25754
#
# Static dielectric constant tensor:
#      x y z
#    x 3.477020 0.000000 -0.001580 
#    y 0.000000 3.395370 0.000000 
#    z -0.001580 0.000000 4.154670 
# 
# 
# High freq. dielectric constant tensor:
#      x y z
#    x 1.755370 0.000000 -0.009420 
#    y 0.000000 1.727350 0.000000 
#    z -0.009420 0.000000 1.770450 
# 
# From -- ./inp_files/45309.got.cif
#   From: 2010.06.25/outbox.cif.g09.slc.cpg/sg11_23_cif.got.tgz:45309.got - 2010.06.27 23:14:04.
