data_PCOD8069391
_publ_section_title
;
Structure prediction by ZEFSAII (Michael W. Deem and Ramdas Pophale) SiO2 
 PCOD8069391
Probable space group: P 21/M
;
_chemical_formula_sum "Si O2"
_cell_formula_units_Z 28
_cell_length_a 12.668243
_cell_length_b 12.904004
_cell_length_c 9.847147
_cell_angle_alpha 90.000000
_cell_angle_beta 130.651776
_cell_angle_gamma 90.000000
_cell_volume 1221.269753
_symmetry_space_group_name_H-M "P 21/M"
_symmetry_group_IT_number 11
_symmetry_cell_setting 'monoclinic'
loop_
_space_group_symop_operation_xyz
x,y,z
-x,1/2+y,-z
-x,-y,-z
x,1/2-y,z
loop_
_atom_site_type_symbol
_atom_site_label
_atom_site_fract_x
_atom_site_fract_y
_atom_site_fract_z
Si Si1 0.751660 0.052079 0.094626
Si Si2 0.213283 0.626828 0.297604
Si Si3 0.859163 0.868138 0.322640
Si Si4 0.760114 0.626737 0.529550
Si Si5 0.983777 0.370645 0.095024
Si Si6 0.446178 0.871218 0.284258
Si Si7 0.815766 0.368479 0.428843
O O1 0.873303 0.116708 0.124115
O O2 0.726627 0.091629 0.227184
O O3 0.795353 0.931121 0.141979
O O4 0.609112 0.064263 0.891688
O O5 0.192432 0.750000 0.292095
O O6 0.357561 0.600437 0.343392
O O7 0.219240 0.575839 0.454207
O O8 0.080905 0.581741 0.098996
O O9 0.815509 0.750000 0.262328
O O10 0.798071 0.916702 0.411441
O O11 0.023064 0.883935 0.469174
O O12 0.780447 0.750000 0.535622
O O13 0.604896 0.596583 0.444414
O O14 0.866147 0.581988 0.734051
O O15 0.005030 0.250000 0.088161
O O16 0.432337 0.750000 0.237021
O O17 0.775886 0.250000 0.416201
#
# Coordination Sequence:
#
# PCOD8069391 Si02
#       7
#     4   4   4   4   4   4   4
#     4  11  19  31  56  82 104 141 181 225 267 316
#     4   8  16  30  51  78 109 141 175 217 263 316
#     4  10  21  34  52  80 107 137 180 228 279 317
#     4   9  17  31  53  76 107 143 180 223 259 309
#     4   9  16  30  53  82 108 140 185 219 256 316
#     4   9  18  33  54  81 108 142 184 216 256 320
#     4  10  18  31  53  82 113 135 168 225 276 318
#
# _framework density 22.926959
#
# number of rings (size 3 to 8) (size 9 to 14) (size 15 to 20)
#    0.000    2.571    1.429    2.571    0.000    0.571 
#    0.000    2.857    3.143    0.857    0.000    0.000 
#    0.000    0.000    0.000    0.000    0.000    0.000 
#
# Total GULP energy -347168.209177 kJ/mol
# GULP energy per Si atom -12398.864613 kJ/mol
# Density = 2.287478 g / cm^3
# Si number density = 22.926959 Si / 1000 Ang^3
#
#
#
# Elastic Constant Matrix: (Units=GPa)
#
#
# Indices 1 2 3 4 5 6 
#
# 1 109.1928 7.5276 83.9596 0.0000 3.0439 0.0000
# 2 7.5276 24.6699 26.3475 0.0000 -9.9752 0.0000
# 3 83.9596 26.3475 146.6291 0.0000 -12.6367 0.0000
# 4 0.0000 0.0000 0.0000 28.3577 0.0000 0.5232
# 5 3.0439 -9.9752 -12.6367 0.0000 44.0392 0.0000
# 6 0.0000 0.0000 0.0000 0.5232 0.0000 1.9654
#
#
#
# Elastic Compliance Matrix: (Units=1/GPa)
#
#
# Indices 1 2 3 4 5 6 
#
# 1 0.017576 0.005414 -0.011315 0.000000 -0.003235 0.000000
# 2 0.005414 0.055566 -0.012337 0.000000 0.008672 0.000000
# 3 -0.011315 -0.012337 0.015732 0.000000 0.002502 0.000000
# 4 0.000000 0.000000 0.000000 0.035438 0.000000 -0.009434
# 5 -0.003235 0.008672 0.002502 0.000000 0.025613 0.000000
# 6 0.000000 0.000000 0.000000 -0.009434 0.000000 0.511313
#
#
# Mechanical properties :
#
#
# Convention : Reuss Voigt Hill
#
# Bulk Modulus (GPa) = 19.08562 57.35125 38.21843
# Shear Modulus (GPa) = 6.99125 25.71627 16.35376
#
# Velocity S-wave (km/s) = 1.74814 3.35275 2.67366
# Velocity P-wave (km/s) = 3.52381 6.32906 5.12222
#
# Compressibility (1/GPa) = 0.05239547
#
# Stress axis : x y z
#
# Youngs Moduli (GPa) = 56.89701 17.99671 63.56669
#
# Poissons Ratio (x) = -0.09743 0.71928
# Poissons Ratio (y) = -0.30802 0.78422
# Poissons Ratio (z) = 0.64381 0.22203
#
# Static dielectric constant tensor:
#      x y z
#    x 3.920850 0.000000 -0.124450 
#    y 0.000000 4.168530 0.000000 
#    z -0.124450 0.000000 4.283600 
# 
# 
# High freq. dielectric constant tensor:
#      x y z
#    x 1.882370 0.000000 -0.013470 
#    y 0.000000 1.925070 0.000000 
#    z -0.013470 0.000000 1.902240 
# 
# From -- ./inp_files/18154.got.cif
#   From: 2010.06.25/outbox.cif.g09.slc.cpg/sg11_10_cif.got.tgz:18154.got - 2010.06.27 23:14:04.
