data_PCOD8069815
_publ_section_title
;
Structure prediction by ZEFSAII (Michael W. Deem and Ramdas Pophale) SiO2 
 PCOD8069815
Probable space group: P 21/M
;
_chemical_formula_sum "Si O2"
_cell_formula_units_Z 24
_cell_length_a 19.554910
_cell_length_b 10.947665
_cell_length_c 14.947186
_cell_angle_alpha 90.000000
_cell_angle_beta 159.989064
_cell_angle_gamma 90.000000
_cell_volume 1095.005057
_symmetry_space_group_name_H-M "P 21/M"
_symmetry_group_IT_number 11
_symmetry_cell_setting 'monoclinic'
loop_
_space_group_symop_operation_xyz
x,y,z
-x,1/2+y,-z
-x,-y,-z
x,1/2-y,z
loop_
_atom_site_type_symbol
_atom_site_label
_atom_site_fract_x
_atom_site_fract_y
_atom_site_fract_z
Si Si1 0.719375 0.113824 0.946000
Si Si2 0.209883 0.750000 0.682316
Si Si3 0.230062 0.989601 0.802445
Si Si4 0.035470 0.487567 0.895058
Si Si5 0.738525 0.750000 0.129281
Si Si6 0.880040 0.250000 0.628658
Si Si7 0.554613 0.250000 0.380859
Si Si8 0.684456 0.993562 0.594333
O O1 0.751218 0.250000 0.020892
O O2 0.498300 0.099992 0.633528
O O3 0.741303 0.024231 0.056372
O O4 0.885104 0.092018 0.073214
O O5 0.316985 0.873366 0.853960
O O6 0.233086 0.750000 0.604820
O O7 0.977815 0.750000 0.422290
O O8 0.331091 0.123632 0.905490
O O9 0.000000 0.000000 0.500000
O O10 0.018518 0.367678 0.812999
O O11 0.823125 0.525716 0.677000
O O12 0.192486 0.460895 0.166402
O O13 0.663902 0.750000 0.933809
O O14 0.705167 0.250000 0.484241
O O15 0.595880 0.131037 0.492139
#
# Coordination Sequence:
#
# PCOD8069815 Si02
#       8
#     4   2   4   4   2   2   2   4
#     4  12  24  39  63  96 126 164 212 258 318 382
#     4  10  20  38  60  85 123 163 211 269 319 372
#     4  10  20  36  61  87 120 164 212 258 317 375
#     4  10  23  42  63  93 126 169 207 260 315 379
#     4  10  18  34  62  83 115 164 203 251 314 377
#     4  10  22  40  65  87 118 166 215 259 316 390
#     4  10  20  38  63  89 120 165 207 257 323 371
#     4  10  23  41  64  92 130 164 211 260 314 380
#
# _framework density 21.917708000000001
#
# number of rings (size 3 to 8) (size 9 to 14) (size 15 to 20)
#    0.000    1.667    2.500    2.500    2.333    0.667 
#    0.000    0.833    7.333    0.000    0.000    0.000 
#    0.000    0.000    0.000    0.000    0.000    0.000 
#
# Total GULP energy -297501.199714 kJ/mol
# GULP energy per Si atom -12395.883321 kJ/mol
# Density = 2.186782 g / cm^3
# Si number density = 21.917708 Si / 1000 Ang^3
#
#
#
# Elastic Constant Matrix: (Units=GPa)
#
#
# Indices 1 2 3 4 5 6 
#
# 1 50.3568 39.0618 19.5992 0.0000 -14.2696 0.0000
# 2 39.0618 161.4174 28.6001 0.0000 -1.9227 0.0000
# 3 19.5992 28.6001 55.9228 0.0000 -6.8286 0.0000
# 4 0.0000 0.0000 0.0000 22.8512 0.0000 -11.2238
# 5 -14.2696 -1.9227 -6.8286 0.0000 24.4454 0.0000
# 6 0.0000 0.0000 0.0000 -11.2238 0.0000 26.5326
#
#
#
# Elastic Compliance Matrix: (Units=1/GPa)
#
#
# Indices 1 2 3 4 5 6 
#
# 1 0.031798 -0.006466 -0.005832 0.000000 0.016424 0.000000
# 2 -0.006466 0.008132 -0.002356 0.000000 -0.003793 0.000000
# 3 -0.005832 -0.002356 0.021423 0.000000 0.002395 0.000000
# 4 0.000000 0.000000 0.000000 0.055239 0.000000 0.023367
# 5 0.016424 -0.003793 0.002395 0.000000 0.050865 0.000000
# 6 0.000000 0.000000 0.000000 0.023367 0.000000 0.047574
#
#
# Mechanical properties :
#
#
# Convention : Reuss Voigt Hill
#
# Bulk Modulus (GPa) = 31.20577 49.13546 40.17062
# Shear Modulus (GPa) = 19.60632 26.79490 23.20061
#
# Velocity S-wave (km/s) = 2.99413 3.50025 3.25704
# Velocity P-wave (km/s) = 5.12072 6.22917 5.70194
#
# Compressibility (1/GPa) = 0.03204535
#
# Stress axis : x y z
#
# Youngs Moduli (GPa) = 31.44885 122.97005 46.67882
#
# Poissons Ratio (x) = 0.79511 0.27222
# Poissons Ratio (y) = 0.20334 0.10997
# Poissons Ratio (z) = 0.18341 0.28971
#
# Static dielectric constant tensor:
#      x y z
#    x 3.644080 0.000000 -0.082760 
#    y 0.000000 4.571830 0.000000 
#    z -0.082760 0.000000 4.005940 
# 
# 
# High freq. dielectric constant tensor:
#      x y z
#    x 1.836330 0.000000 -0.014300 
#    y 0.000000 1.873380 0.000000 
#    z -0.014300 0.000000 1.862610 
# 
# From -- ./inp_files/24386.got.cif
#   From: 2010.06.25/outbox.cif.g09.slc.cpg/sg11_13_cif.got.tgz:24386.got - 2010.06.27 23:14:04.
