data_PCOD8069389
_publ_section_title
;
Structure prediction by ZEFSAII (Michael W. Deem and Ramdas Pophale) SiO2 
 PCOD8069389
Probable space group: P 21/M
;
_chemical_formula_sum "Si O2"
_cell_formula_units_Z 32
_cell_length_a 19.667182
_cell_length_b 9.035965
_cell_length_c 11.954667
_cell_angle_alpha 90.000000
_cell_angle_beta 122.106720
_cell_angle_gamma 90.000000
_cell_volume 1799.567427
_symmetry_space_group_name_H-M "P 21/M"
_symmetry_group_IT_number 11
_symmetry_cell_setting 'monoclinic'
loop_
_space_group_symop_operation_xyz
x,y,z
-x,1/2+y,-z
-x,-y,-z
x,1/2-y,z
loop_
_atom_site_type_symbol
_atom_site_label
_atom_site_fract_x
_atom_site_fract_y
_atom_site_fract_z
Si Si1 0.530929 0.081249 0.792789
Si Si2 0.773157 0.577358 0.030096
Si Si3 0.368596 0.923542 0.681060
Si Si4 0.940658 0.579586 0.089364
Si Si5 0.327417 0.921347 0.245931
Si Si6 0.728846 0.574048 0.588600
Si Si7 0.659955 0.077785 0.088084
Si Si8 0.904924 0.576490 0.807742
O O1 0.500491 0.250000 0.778022
O O2 0.583807 0.061728 0.727656
O O3 0.456150 0.972408 0.716656
O O4 0.582744 0.035093 0.946564
O O5 0.752713 0.750000 0.999123
O O6 0.869204 0.551098 0.115461
O O7 0.736986 0.514754 0.113735
O O8 0.737252 0.493274 0.892628
O O9 0.358581 0.750000 0.650761
O O10 0.358344 0.965724 0.801450
O O11 0.300385 0.012176 0.555416
O O12 0.964452 0.750000 0.104548
O O13 0.020752 0.492778 0.196495
O O14 0.910065 0.525043 0.941070
O O15 0.304934 0.750000 0.242692
O O16 0.326731 0.004773 0.363382
O O17 0.720347 0.750000 0.585500
O O18 0.820578 0.520934 0.684250
O O19 0.680394 0.250000 0.090398
O O20 0.911201 0.750000 0.800773
#
# Coordination Sequence:
#
# PCOD8069389 Si02
#       8
#     4   4   4   4   4   4   4   4
#     4   9  19  36  56  78 103 132 170 219 267 310
#     4  10  18  31  53  81 110 137 170 213 261 310
#     4  11  23  37  54  77 103 137 179 219 262 311
#     4   9  17  30  49  78 109 134 167 208 253 305
#     4  10  20  34  53  78 107 139 174 212 261 312
#     4  11  22  37  54  74 107 143 177 215 255 313
#     4   9  20  37  55  78 106 134 174 222 262 307
#     4   9  18  32  49  74 106 138 170 207 252 304
#
# _framework density 17.782050999999999
#
# number of rings (size 3 to 8) (size 9 to 14) (size 15 to 20)
#    0.000    2.250    1.250    2.625    0.000    6.000 
#    0.000    0.000    0.000    0.750    0.000    0.000 
#    0.000    0.000    0.000    0.000    0.000    0.000 
#
# Total GULP energy -396857.741486 kJ/mol
# GULP energy per Si atom -12401.804421 kJ/mol
# Density = 1.774158 g / cm^3
# Si number density = 17.782051 Si / 1000 Ang^3
#
#
#
# Elastic Constant Matrix: (Units=GPa)
#
#
# Indices 1 2 3 4 5 6 
#
# 1 93.1045 42.5662 41.4511 0.0000 22.0683 0.0000
# 2 42.5662 73.6237 34.4521 0.0000 10.1268 0.0000
# 3 41.4511 34.4521 82.3313 0.0000 13.5481 0.0000
# 4 0.0000 0.0000 0.0000 28.1670 0.0000 2.5812
# 5 22.0683 10.1268 13.5481 0.0000 19.2834 0.0000
# 6 0.0000 0.0000 0.0000 2.5812 0.0000 33.2736
#
#
#
# Elastic Compliance Matrix: (Units=1/GPa)
#
#
# Indices 1 2 3 4 5 6 
#
# 1 0.019672 -0.007197 -0.004308 0.000000 -0.015707 0.000000
# 2 -0.007197 0.019862 -0.004892 0.000000 0.001243 0.000000
# 3 -0.004308 -0.004892 0.017106 0.000000 -0.004519 0.000000
# 4 0.000000 0.000000 0.000000 0.035757 0.000000 -0.002774
# 5 -0.015707 0.001243 -0.004519 0.000000 0.072355 0.000000
# 6 0.000000 0.000000 0.000000 -0.002774 0.000000 0.030269
#
#
# Mechanical properties :
#
#
# Convention : Reuss Voigt Hill
#
# Bulk Modulus (GPa) = 41.93784 53.99982 47.96883
# Shear Modulus (GPa) = 21.20767 24.85082 23.02924
#
# Velocity S-wave (km/s) = 3.45722 3.74240 3.60263
# Velocity P-wave (km/s) = 6.29063 7.00768 6.65881
#
# Compressibility (1/GPa) = 0.02384481
#
# Stress axis : x y z
#
# Youngs Moduli (GPa) = 50.83399 50.34702 58.45976
#
# Poissons Ratio (x) = 0.36236 0.25183
# Poissons Ratio (y) = 0.36586 0.28601
# Poissons Ratio (z) = 0.21898 0.24632
#
# Static dielectric constant tensor:
#      x y z
#    x 3.414850 0.000000 0.026280 
#    y 0.000000 3.321300 0.000000 
#    z 0.026280 0.000000 3.131610 
# 
# 
# High freq. dielectric constant tensor:
#      x y z
#    x 1.691170 0.000000 0.007570 
#    y 0.000000 1.695360 0.000000 
#    z 0.007570 0.000000 1.659390 
# 
# From -- ./inp_files/42872.got.cif
#   From: 2010.06.25/outbox.cif.g09.slc.cpg/sg11_22_cif.got.tgz:42872.got - 2010.06.27 23:14:04.
