data_PCOD8069090
_publ_section_title
;
Structure prediction by ZEFSAII (Michael W. Deem and Ramdas Pophale) SiO2 
 PCOD8069090
Probable space group: P 21/M
;
_chemical_formula_sum "Si O2"
_cell_formula_units_Z 28
_cell_length_a 17.898057
_cell_length_b 8.946674
_cell_length_c 22.032266
_cell_angle_alpha 90.000000
_cell_angle_beta 29.370911
_cell_angle_gamma 90.000000
_cell_volume 1730.340123
_symmetry_space_group_name_H-M "P 21/M"
_symmetry_group_IT_number 11
_symmetry_cell_setting 'monoclinic'
loop_
_space_group_symop_operation_xyz
x,y,z
-x,1/2+y,-z
-x,-y,-z
x,1/2-y,z
loop_
_atom_site_type_symbol
_atom_site_label
_atom_site_fract_x
_atom_site_fract_y
_atom_site_fract_z
Si Si1 0.217291 0.584302 0.827980
Si Si2 0.348850 0.076024 0.627153
Si Si3 0.912878 0.928089 0.618601
Si Si4 0.900059 0.916143 0.983179
Si Si5 0.959748 0.081261 0.702318
Si Si6 0.047203 0.426218 0.772318
Si Si7 0.348048 0.580099 0.131370
O O1 0.289179 0.750000 0.779509
O O2 0.320243 0.474494 0.715886
O O3 0.052253 0.592060 0.914841
O O4 0.216538 0.518627 0.896520
O O5 0.372597 0.250000 0.609639
O O6 0.214401 0.027420 0.676728
O O7 0.500000 0.000000 0.500000
O O8 0.906052 0.750000 0.616127
O O9 0.009735 0.975080 0.610524
O O10 0.739152 0.994144 0.750618
O O11 0.000000 0.000000 0.500000
O O12 0.833165 0.750000 0.021256
O O13 0.923410 0.990085 0.901107
O O14 0.019805 0.250000 0.647822
O O15 0.774183 0.082549 0.837553
O O16 0.028045 0.018686 0.716756
O O17 0.018592 0.250000 0.798816
O O18 0.388011 0.750000 0.123380
O O19 0.500000 0.500000 0.000000
#
# Coordination Sequence:
#
# PCOD8069090 Si02
#       7
#     4   4   4   4   4   4   4
#     4   9  16  27  42  61  85 113 148 187 229 276
#     4  10  19  30  46  66  90 121 159 199 241 287
#     4  10  18  30  49  74 102 133 169 206 246 294
#     4   9  16  25  41  65  89 112 143 187 233 275
#     4   8  17  31  48  70  97 126 160 198 239 290
#     4   9  17  31  48  67  92 125 159 195 239 289
#     4   9  17  30  49  74 102 130 161 199 242 289
#
# _framework density 16.181791
#
# number of rings (size 3 to 8) (size 9 to 14) (size 15 to 20)
#    0.857    2.000    0.000    2.571    0.000    4.571 
#    0.000    0.000    0.000    1.714    0.000   12.000 
#    0.000    0.000    0.000    0.000    0.000    0.000 
#
# Total GULP energy -346885.067753 kJ/mol
# GULP energy per Si atom -12388.752420 kJ/mol
# Density = 1.614496 g / cm^3
# Si number density = 16.181791 Si / 1000 Ang^3
#
#
#
# Elastic Constant Matrix: (Units=GPa)
#
#
# Indices 1 2 3 4 5 6 
#
# 1 71.9340 41.1583 45.8110 0.0000 25.3246 0.0000
# 2 41.1583 98.9373 52.6495 0.0000 13.3844 0.0000
# 3 45.8110 52.6495 109.2726 0.0000 18.6089 0.0000
# 4 0.0000 0.0000 0.0000 33.7832 0.0000 5.5149
# 5 25.3246 13.3844 18.6089 0.0000 23.0046 0.0000
# 6 0.0000 0.0000 0.0000 5.5149 0.0000 20.3399
#
#
#
# Elastic Compliance Matrix: (Units=1/GPa)
#
#
# Indices 1 2 3 4 5 6 
#
# 1 0.029349 -0.006139 -0.005164 0.000000 -0.024560 0.000000
# 2 -0.006139 0.015061 -0.005035 0.000000 0.002068 0.000000
# 3 -0.005164 -0.005035 0.014237 0.000000 -0.002902 0.000000
# 4 0.000000 0.000000 0.000000 0.030971 0.000000 -0.008398
# 5 -0.024560 0.002068 -0.002902 0.000000 0.071651 0.000000
# 6 0.000000 0.000000 0.000000 -0.008398 0.000000 0.051441
#
#
# Mechanical properties :
#
#
# Convention : Reuss Voigt Hill
#
# Bulk Modulus (GPa) = 38.50481 62.15348 50.32915
# Shear Modulus (GPa) = 19.68170 24.79387 22.23779
#
# Velocity S-wave (km/s) = 3.49131 3.91859 3.71111
# Velocity P-wave (km/s) = 6.33239 7.67898 7.03796
#
# Compressibility (1/GPa) = 0.02597078
#
# Stress axis : x y z
#
# Youngs Moduli (GPa) = 34.07247 66.39724 70.24169
#
# Poissons Ratio (x) = 0.40760 0.36272
# Poissons Ratio (y) = 0.20917 0.35368
# Poissons Ratio (z) = 0.17595 0.33432
#
# Static dielectric constant tensor:
#      x y z
#    x 2.870350 0.000000 0.275660 
#    y 0.000000 3.199340 0.000000 
#    z 0.275660 0.000000 3.172050 
# 
# 
# High freq. dielectric constant tensor:
#      x y z
#    x 1.582540 0.000000 0.023450 
#    y 0.000000 1.637880 0.000000 
#    z 0.023450 0.000000 1.606600 
# 
# From -- ./inp_files/65985.got.cif
#   From: 2010.06.25/outbox.cif.g09.slc.cpg/sg11_33_cif.got.tgz:65985.got - 2010.06.27 23:14:04.
