data_PCOD8069065
_publ_section_title
;
Structure prediction by ZEFSAII (Michael W. Deem and Ramdas Pophale) SiO2 
 PCOD8069065
Probable space group: P 21/M
;
_chemical_formula_sum "Si O2"
_cell_formula_units_Z 28
_cell_length_a 14.978851
_cell_length_b 9.217886
_cell_length_c 16.816743
_cell_angle_alpha 90.000000
_cell_angle_beta 133.726445
_cell_angle_gamma 90.000000
_cell_volume 1677.948550
_symmetry_space_group_name_H-M "P 21/M"
_symmetry_group_IT_number 11
_symmetry_cell_setting 'monoclinic'
loop_
_space_group_symop_operation_xyz
x,y,z
-x,1/2+y,-z
-x,-y,-z
x,1/2-y,z
loop_
_atom_site_type_symbol
_atom_site_label
_atom_site_fract_x
_atom_site_fract_y
_atom_site_fract_z
Si Si1 0.238775 0.078454 0.635302
Si Si2 0.608442 0.078851 0.020888
Si Si3 0.459683 0.581464 0.360726
Si Si4 0.120646 0.081635 0.395818
Si Si5 0.516893 0.079471 0.799064
Si Si6 0.154499 0.918886 0.735793
Si Si7 0.315347 0.919133 0.423929
O O1 0.233345 0.250000 0.644042
O O2 0.175349 0.031842 0.514013
O O3 0.378360 0.015822 0.722094
O O4 0.162645 0.006397 0.659322
O O5 0.587207 0.250000 0.015839
O O6 0.739843 0.031429 0.137369
O O7 0.602823 0.027358 0.925023
O O8 0.500000 0.000000 0.000000
O O9 0.499898 0.750000 0.388846
O O10 0.421950 0.534438 0.247762
O O11 0.577936 0.488434 0.457087
O O12 0.344832 0.551963 0.348813
O O13 0.147837 0.250000 0.397640
O O14 0.975641 0.046513 0.302870
O O15 0.184823 0.991851 0.364479
O O16 0.502446 0.250000 0.793387
O O17 0.165712 0.750000 0.721454
O O18 0.309236 0.750000 0.439454
#
# Coordination Sequence:
#
# PCOD8069065 Si02
#       7
#     4   4   4   4   4   4   4
#     4  10  18  30  49  69  93 129 160 184 228 284
#     4  10  19  32  49  69  92 121 159 196 230 271
#     4   9  17  32  50  70  97 126 154 189 236 286
#     4  10  20  34  48  65  97 134 158 185 233 287
#     4   9  16  29  50  70  92 124 156 185 229 284
#     4  10  21  33  47  69  96 126 160 197 233 271
#     4  10  19  29  48  75  97 120 155 197 236 275
#
# _framework density 16.687042999999999
#
# number of rings (size 3 to 8) (size 9 to 14) (size 15 to 20)
#    0.000    2.286    2.857    0.857    0.000    1.714 
#    0.000    0.714    0.000    0.857    0.000    0.000 
#    0.000    0.000    0.000    0.000    0.000    0.429 
#
# Total GULP energy -347151.139073 kJ/mol
# GULP energy per Si atom -12398.254967 kJ/mol
# Density = 1.664906 g / cm^3
# Si number density = 16.687043 Si / 1000 Ang^3
#
#
#
# Elastic Constant Matrix: (Units=GPa)
#
#
# Indices 1 2 3 4 5 6 
#
# 1 139.6101 47.3323 65.0675 0.0000 -6.2518 0.0000
# 2 47.3323 42.6532 28.7548 0.0000 0.1263 0.0000
# 3 65.0675 28.7548 98.6765 0.0000 1.2975 0.0000
# 4 0.0000 0.0000 0.0000 14.1816 0.0000 1.6340
# 5 -6.2518 0.1263 1.2975 0.0000 28.2459 0.0000
# 6 0.0000 0.0000 0.0000 1.6340 0.0000 29.8106
#
#
#
# Elastic Compliance Matrix: (Units=1/GPa)
#
#
# Indices 1 2 3 4 5 6 
#
# 1 0.013980 -0.011547 -0.005898 0.000000 0.003417 0.000000
# 2 -0.011547 0.038716 -0.003634 0.000000 -0.002562 0.000000
# 3 -0.005898 -0.003634 0.015109 0.000000 -0.001983 0.000000
# 4 0.000000 0.000000 0.000000 0.070962 0.000000 -0.003890
# 5 0.003417 -0.002562 -0.001983 0.000000 0.036262 0.000000
# 6 0.000000 0.000000 0.000000 -0.003890 0.000000 0.033758
#
#
# Mechanical properties :
#
#
# Convention : Reuss Voigt Hill
#
# Bulk Modulus (GPa) = 38.99347 62.58321 50.78834
# Shear Modulus (GPa) = 19.26826 23.76665 21.51746
#
# Velocity S-wave (km/s) = 3.40175 3.77803 3.59482
# Velocity P-wave (km/s) = 6.23277 7.52442 6.90884
#
# Compressibility (1/GPa) = 0.02564532
#
# Stress axis : x y z
#
# Youngs Moduli (GPa) = 71.53306 25.82905 66.18754
#
# Poissons Ratio (x) = 0.29825 0.39039
# Poissons Ratio (y) = 0.82598 0.24055
# Poissons Ratio (z) = 0.42192 0.09387
#
# Static dielectric constant tensor:
#      x y z
#    x 3.301880 0.000000 -0.157600 
#    y 0.000000 3.026300 0.000000 
#    z -0.157600 0.000000 3.292160 
# 
# 
# High freq. dielectric constant tensor:
#      x y z
#    x 1.645230 0.000000 -0.007640 
#    y 0.000000 1.629460 0.000000 
#    z -0.007640 0.000000 1.626620 
# 
# From -- ./inp_files/37452.got.cif
#   From: 2010.06.25/outbox.cif.g09.slc.cpg/sg11_19_cif.got.tgz:37452.got - 2010.06.27 23:14:04.
