data_PCOD8069204
_publ_section_title
;
Structure prediction by ZEFSAII (Michael W. Deem and Ramdas Pophale) SiO2 
 PCOD8069204
Probable space group: P 21/M
;
_chemical_formula_sum "Si O2"
_cell_formula_units_Z 32
_cell_length_a 11.885901
_cell_length_b 17.229236
_cell_length_c 8.781020
_cell_angle_alpha 90.000000
_cell_angle_beta 91.684236
_cell_angle_gamma 90.000000
_cell_volume 1797.444263
_symmetry_space_group_name_H-M "P 21/M"
_symmetry_group_IT_number 11
_symmetry_cell_setting 'monoclinic'
loop_
_space_group_symop_operation_xyz
x,y,z
-x,1/2+y,-z
-x,-y,-z
x,1/2-y,z
loop_
_atom_site_type_symbol
_atom_site_label
_atom_site_fract_x
_atom_site_fract_y
_atom_site_fract_z
Si Si1 0.736632 0.161446 0.380866
Si Si2 0.492531 0.163792 0.505948
Si Si3 0.493507 0.976000 0.322080
Si Si4 0.865818 0.577142 0.414559
Si Si5 0.721201 0.483987 0.189712
Si Si6 0.743136 0.510690 0.836492
Si Si7 0.883753 0.424378 0.615295
Si Si8 0.262637 0.160495 0.339232
O O1 0.760055 0.250000 0.328013
O O2 0.606780 0.149525 0.417887
O O3 0.767150 0.100561 0.246923
O O4 0.812239 0.143867 0.532775
O O5 0.478896 0.250000 0.564662
O O6 0.488992 0.116526 0.664208
O O7 0.392595 0.142254 0.384824
O O8 0.500000 0.000000 0.500000
O O9 0.589146 0.013444 0.222066
O O10 0.375109 0.993806 0.245113
O O11 0.784913 0.555854 0.271279
O O12 0.876829 0.500578 0.513966
O O13 0.812321 0.645943 0.512868
O O14 0.987887 0.604194 0.358832
O O15 0.740514 0.495424 0.013716
O O16 0.833398 0.448601 0.776599
O O17 0.774157 0.600705 0.796754
O O18 0.245798 0.250000 0.285570
#
# Coordination Sequence:
#
# PCOD8069204 Si02
#       8
#     4   4   4   4   4   4   4   4
#     4  10  19  34  55  78 104 138 182 229 270 313
#     4  10  18  30  54  80 101 130 173 227 271 301
#     4  12  17  34  55  76 106 142 187 223 254 317
#     4   9  18  34  55  76  99 135 184 224 257 309
#     4  11  21  33  52  82 113 147 177 216 273 335
#     4  11  21  33  52  82 113 147 177 216 273 335
#     4   9  18  34  55  76  99 135 184 224 257 309
#     4  10  19  34  55  78 104 138 182 229 270 313
#
# _framework density 17.803055000000001
#
# number of rings (size 3 to 8) (size 9 to 14) (size 15 to 20)
#    0.000    1.750    5.000    1.125    0.000    1.000 
#    0.000    2.500    0.000    0.000    0.000    0.000 
#    0.000    0.000    0.000    0.000    0.000    0.000 
#
# Total GULP energy -396631.601889 kJ/mol
# GULP energy per Si atom -12394.737559 kJ/mol
# Density = 1.776253 g / cm^3
# Si number density = 17.803055 Si / 1000 Ang^3
#
#
#
# Elastic Constant Matrix: (Units=GPa)
#
#
# Indices 1 2 3 4 5 6 
#
# 1 87.2304 7.7570 18.1624 0.0000 -21.5714 0.0000
# 2 7.7570 101.7300 37.7280 0.0000 -2.9091 0.0000
# 3 18.1624 37.7280 107.9325 0.0000 -16.0143 0.0000
# 4 0.0000 0.0000 0.0000 18.8736 0.0000 -0.5650
# 5 -21.5714 -2.9091 -16.0143 0.0000 15.4257 0.0000
# 6 0.0000 0.0000 0.0000 -0.5650 0.0000 13.3441
#
#
#
# Elastic Compliance Matrix: (Units=1/GPa)
#
#
# Indices 1 2 3 4 5 6 
#
# 1 0.017684 -0.001065 0.001224 0.000000 0.025799 0.000000
# 2 -0.001065 0.011429 -0.004394 0.000000 -0.003895 0.000000
# 3 0.001224 -0.004394 0.012679 0.000000 0.014046 0.000000
# 4 0.000000 0.000000 0.000000 0.053051 0.000000 0.002246
# 5 0.025799 -0.003895 0.014046 0.000000 0.114753 0.000000
# 6 0.000000 0.000000 0.000000 0.002246 0.000000 0.075035
#
#
# Mechanical properties :
#
#
# Convention : Reuss Voigt Hill
#
# Bulk Modulus (GPa) = 30.00893 47.13196 38.57044
# Shear Modulus (GPa) = 16.43620 25.07837 20.75729
#
# Velocity S-wave (km/s) = 3.04176 3.75728 3.41829
# Velocity P-wave (km/s) = 5.40639 6.73457 6.10669
#
# Compressibility (1/GPa) = 0.03332342
#
# Stress axis : x y z
#
# Youngs Moduli (GPa) = 56.54974 87.49466 78.87047
#
# Poissons Ratio (x) = 0.09316 -0.09657
# Poissons Ratio (y) = 0.06021 0.34655
# Poissons Ratio (z) = -0.06924 0.38444
#
# Static dielectric constant tensor:
#      x y z
#    x 3.595280 0.000000 -0.011510 
#    y 0.000000 3.665580 0.000000 
#    z -0.011510 0.000000 3.186490 
# 
# 
# High freq. dielectric constant tensor:
#      x y z
#    x 1.695590 0.000000 -0.006380 
#    y 0.000000 1.689920 0.000000 
#    z -0.006380 0.000000 1.651870 
# 
# From -- ./inp_files/18606.got.cif
#   From: 2010.06.25/outbox.cif.g09.slc.cpg/sg11_10_cif.got.tgz:18606.got - 2010.06.27 23:14:04.
