data_PCOD8069849
_publ_section_title
;
Structure prediction by ZEFSAII (Michael W. Deem and Ramdas Pophale) SiO2 
 PCOD8069849
Probable space group: P 21/M
;
_chemical_formula_sum "Si O2"
_cell_formula_units_Z 32
_cell_length_a 6.546750
_cell_length_b 13.838082
_cell_length_c 18.447946
_cell_angle_alpha 90.000000
_cell_angle_beta 90.071229
_cell_angle_gamma 90.000000
_cell_volume 1671.280476
_symmetry_space_group_name_H-M "P 21/M"
_symmetry_group_IT_number 11
_symmetry_cell_setting 'monoclinic'
loop_
_space_group_symop_operation_xyz
x,y,z
-x,1/2+y,-z
-x,-y,-z
x,1/2-y,z
loop_
_atom_site_type_symbol
_atom_site_label
_atom_site_fract_x
_atom_site_fract_y
_atom_site_fract_z
Si Si1 0.803175 0.528225 0.454109
Si Si2 0.215558 0.864361 0.190503
Si Si3 0.819750 0.645423 0.677229
Si Si4 0.488165 0.361389 0.443964
Si Si5 0.084263 0.028952 0.699498
Si Si6 0.726685 0.642307 0.844453
Si Si7 0.602904 0.989047 0.174728
Si Si8 0.010125 0.010489 0.914815
O O1 0.686383 0.427110 0.446220
O O2 0.671911 0.609276 0.494163
O O3 0.000000 0.500000 0.500000
O O4 0.843851 0.579299 0.375141
O O5 0.210622 0.750000 0.197373
O O6 0.086165 0.909569 0.257156
O O7 0.449092 0.900597 0.191071
O O8 0.120375 0.897997 0.113758
O O9 0.903311 0.750000 0.651665
O O10 0.614822 0.619724 0.634031
O O11 0.993432 0.567939 0.664217
O O12 0.766370 0.648013 0.760594
O O13 0.551596 0.250000 0.455220
O O14 0.269671 0.998179 0.751509
O O15 0.705151 0.750000 0.878370
O O16 0.515944 0.584048 0.852747
O O17 0.918641 0.587761 0.880622
O O18 0.757201 0.968824 0.108678
O O19 0.000000 0.000000 0.000000
#
# Coordination Sequence:
#
# PCOD8069849 Si02
#       8
#     4   4   4   4   4   4   4   4
#     4  11  23  37  62  84 119 161 199 248 302 356
#     4  10  23  41  61  87 118 157 205 249 288 347
#     4  10  18  35  60  86 116 146 188 242 296 353
#     4  10  23  40  58  87 121 156 199 247 303 362
#     4  11  21  38  62  88 118 153 201 249 299 349
#     4  10  20  35  57  89 118 148 190 238 288 351
#     4  10  20  38  61  84 116 155 192 240 290 347
#     4  10  22  40  61  87 122 156 191 240 290 347
#
# _framework density 19.146996000000001
#
# number of rings (size 3 to 8) (size 9 to 14) (size 15 to 20)
#    0.000    1.750    5.000    0.750    0.000    7.000 
#    0.000    2.500    0.000    0.000    0.000    0.000 
#    0.000    0.000    0.000    0.000    0.000    0.000 
#
# Total GULP energy -396636.696187 kJ/mol
# GULP energy per Si atom -12394.896756 kJ/mol
# Density = 1.910342 g / cm^3
# Si number density = 19.146996 Si / 1000 Ang^3
#
#
#
# Elastic Constant Matrix: (Units=GPa)
#
#
# Indices 1 2 3 4 5 6 
#
# 1 110.5358 57.2300 46.2176 0.0000 5.0120 0.0000
# 2 57.2300 135.7024 31.9343 0.0000 9.8853 0.0000
# 3 46.2176 31.9343 135.1677 0.0000 -3.0240 0.0000
# 4 0.0000 0.0000 0.0000 2.1187 0.0000 3.7124
# 5 5.0120 9.8853 -3.0240 0.0000 22.3079 0.0000
# 6 0.0000 0.0000 0.0000 3.7124 0.0000 17.7196
#
#
#
# Elastic Compliance Matrix: (Units=1/GPa)
#
#
# Indices 1 2 3 4 5 6 
#
# 1 0.012859 -0.004536 -0.003355 0.000000 -0.001334 0.000000
# 2 -0.004536 0.009723 -0.000822 0.000000 -0.003401 0.000000
# 3 -0.003355 -0.000822 0.008791 0.000000 0.002310 0.000000
# 4 0.000000 0.000000 0.000000 0.745724 0.000000 -0.156234
# 5 -0.001334 -0.003401 0.002310 0.000000 0.046947 0.000000
# 6 0.000000 0.000000 0.000000 -0.156234 0.000000 0.089167
#
#
# Mechanical properties :
#
#
# Convention : Reuss Voigt Hill
#
# Bulk Modulus (GPa) = 71.70189 72.46332 72.08260
# Shear Modulus (GPa) = 5.34595 24.83086 15.08841
#
# Velocity S-wave (km/s) = 1.67276 3.60509 2.81023
# Velocity P-wave (km/s) = 6.42341 7.43350 6.94684
#
# Compressibility (1/GPa) = 0.01394663
#
# Stress axis : x y z
#
# Youngs Moduli (GPa) = 77.76818 102.84466 113.74927
#
# Poissons Ratio (x) = 0.46653 0.38161
# Poissons Ratio (y) = 0.35278 0.09353
# Poissons Ratio (z) = 0.26090 0.08456
#
# Static dielectric constant tensor:
#      x y z
#    x 5.975930 0.000000 0.526060 
#    y 0.000000 3.763700 0.000000 
#    z 0.526060 0.000000 3.640770 
# 
# 
# High freq. dielectric constant tensor:
#      x y z
#    x 1.753600 0.000000 0.002230 
#    y 0.000000 1.735120 0.000000 
#    z 0.002230 0.000000 1.746070 
# 
# From -- ./inp_files/57085.got.cif
#   From: 2010.06.25/outbox.cif.g09.slc.cpg/sg11_29_cif.got.tgz:57085.got - 2010.06.27 23:14:04.
