data_PCOD8069153
_publ_section_title
;
Structure prediction by ZEFSAII (Michael W. Deem and Ramdas Pophale) SiO2 
 PCOD8069153
Probable space group: P 21/M
;
_chemical_formula_sum "Si O2"
_cell_formula_units_Z 28
_cell_length_a 14.540338
_cell_length_b 8.440196
_cell_length_c 13.507579
_cell_angle_alpha 90.000000
_cell_angle_beta 122.429659
_cell_angle_gamma 90.000000
_cell_volume 1399.177951
_symmetry_space_group_name_H-M "P 21/M"
_symmetry_group_IT_number 11
_symmetry_cell_setting 'monoclinic'
loop_
_space_group_symop_operation_xyz
x,y,z
-x,1/2+y,-z
-x,-y,-z
x,1/2-y,z
loop_
_atom_site_type_symbol
_atom_site_label
_atom_site_fract_x
_atom_site_fract_y
_atom_site_fract_z
Si Si1 0.059062 0.561880 0.317909
Si Si2 0.394430 0.565150 0.572914
Si Si3 0.397452 0.065566 0.999628
Si Si4 0.198360 0.435541 0.570299
Si Si5 0.257873 0.937134 0.309917
Si Si6 0.396439 0.566391 0.213953
Si Si7 0.176880 0.436506 0.782095
O O1 0.067447 0.750000 0.339379
O O2 0.098986 0.478369 0.441036
O O3 0.135389 0.507442 0.269186
O O4 0.934203 0.508069 0.226057
O O5 0.425615 0.750000 0.587858
O O6 0.305188 0.536661 0.606335
O O7 0.344401 0.499401 0.440940
O O8 0.499478 0.460191 0.656622
O O9 0.396522 0.250000 0.978463
O O10 0.406541 0.035817 0.121388
O O11 0.284624 0.986991 0.894457
O O12 0.500000 0.000000 0.000000
O O13 0.225794 0.250000 0.579270
O O14 0.165897 0.487088 0.661928
O O15 0.264705 0.750000 0.319342
O O16 0.291541 0.991721 0.218619
O O17 0.387214 0.750000 0.179401
O O18 0.187504 0.250000 0.798279
#
# Coordination Sequence:
#
# PCOD8069153 Si02
#       7
#     4   4   4   4   4   4   4
#     4   9  17  34  55  77 104 138 174 212 256 313
#     4  10  19  33  53  79 106 141 181 217 259 316
#     4  11  23  40  58  79 104 138 179 220 261 310
#     4  10  18  30  50  81 112 138 167 212 268 319
#     4   8  17  32  53  78 106 137 173 213 262 315
#     4  11  21  35  53  77 107 140 174 219 269 314
#     4   9  19  34  54  75 102 138 177 215 259 309
#
# _framework density 20.011751
#
# number of rings (size 3 to 8) (size 9 to 14) (size 15 to 20)
#    0.000    2.286    0.000    4.286    0.000    1.143 
#    0.000   11.429    0.000    0.000    0.000    0.000 
#    0.000    0.000    0.000    0.000    0.000    0.000 
#
# Total GULP energy -347080.757192 kJ/mol
# GULP energy per Si atom -12395.741328 kJ/mol
# Density = 1.996620 g / cm^3
# Si number density = 20.011751 Si / 1000 Ang^3
#
#
#
# Elastic Constant Matrix: (Units=GPa)
#
#
# Indices 1 2 3 4 5 6 
#
# 1 172.3111 12.8979 81.7019 0.0000 0.0006 0.0000
# 2 12.8979 33.4065 13.6444 0.0000 -0.5755 0.0000
# 3 81.7019 13.6444 79.6488 0.0000 -1.8848 0.0000
# 4 0.0000 0.0000 0.0000 23.0217 0.0000 -0.7928
# 5 0.0006 -0.5755 -1.8848 0.0000 33.3899 0.0000
# 6 0.0000 0.0000 0.0000 -0.7928 0.0000 23.2208
#
#
#
# Elastic Compliance Matrix: (Units=1/GPa)
#
#
# Indices 1 2 3 4 5 6 
#
# 1 0.011318 0.000395 -0.011693 0.000000 -0.000653 0.000000
# 2 0.000395 0.032202 -0.005916 0.000000 0.000221 0.000000
# 3 -0.011693 -0.005916 0.025595 0.000000 0.001343 0.000000
# 4 0.000000 0.000000 0.000000 0.043488 0.000000 0.001485
# 5 -0.000653 0.000221 0.001343 0.000000 0.030029 0.000000
# 6 0.000000 0.000000 0.000000 0.001485 0.000000 0.043116
#
#
# Mechanical properties :
#
#
# Convention : Reuss Voigt Hill
#
# Bulk Modulus (GPa) = 28.82988 55.76164 42.29576
# Shear Modulus (GPa) = 21.57600 27.73460 24.65530
#
# Velocity S-wave (km/s) = 3.28711 3.72683 3.51385
# Velocity P-wave (km/s) = 5.37071 6.81498 6.13549
#
# Compressibility (1/GPa) = 0.03468624
#
# Stress axis : x y z
#
# Youngs Moduli (GPa) = 88.35318 31.05390 39.07040
#
# Poissons Ratio (x) = -0.01226 0.45685
# Poissons Ratio (y) = -0.03488 0.23115
# Poissons Ratio (z) = 1.03312 0.18372
#
# Static dielectric constant tensor:
#      x y z
#    x 4.172330 0.000000 0.029560 
#    y 0.000000 3.368560 0.000000 
#    z 0.029560 0.000000 3.598320 
# 
# 
# High freq. dielectric constant tensor:
#      x y z
#    x 1.800120 0.000000 -0.002040 
#    y 0.000000 1.756090 0.000000 
#    z -0.002040 0.000000 1.757840 
# 
# From -- ./inp_files/38406.got.cif
#   From: 2010.06.25/outbox.cif.g09.slc.cpg/sg11_20_cif.got.tgz:38406.got - 2010.06.27 23:14:04.
