data_PCOD8069478
_publ_section_title
;
Structure prediction by ZEFSAII (Michael W. Deem and Ramdas Pophale) SiO2 
 PCOD8069478
Probable space group: P 21/M
;
_chemical_formula_sum "Si O2"
_cell_formula_units_Z 28
_cell_length_a 30.273753
_cell_length_b 8.977242
_cell_length_c 10.057751
_cell_angle_alpha 90.000000
_cell_angle_beta 33.695685
_cell_angle_gamma 90.000000
_cell_volume 1516.464534
_symmetry_space_group_name_H-M "P 21/M"
_symmetry_group_IT_number 11
_symmetry_cell_setting 'monoclinic'
loop_
_space_group_symop_operation_xyz
x,y,z
-x,1/2+y,-z
-x,-y,-z
x,1/2-y,z
loop_
_atom_site_type_symbol
_atom_site_label
_atom_site_fract_x
_atom_site_fract_y
_atom_site_fract_z
Si Si1 0.818617 0.075145 0.418486
Si Si2 0.914850 0.923311 0.948728
Si Si3 0.661117 0.573108 0.759075
Si Si4 0.177194 0.422754 0.085159
Si Si5 0.332782 0.076788 0.558962
Si Si6 0.493445 0.575442 0.874426
Si Si7 0.906164 0.423943 0.467227
O O1 0.803099 0.250000 0.445579
O O2 0.877264 0.035578 0.392295
O O3 0.856921 0.016268 0.187426
O O4 0.735021 0.992653 0.656006
O O5 0.907937 0.750000 0.006233
O O6 0.889037 0.949677 0.861774
O O7 0.004252 0.985184 0.740942
O O8 0.658124 0.750000 0.780595
O O9 0.669395 0.514772 0.586279
O O10 0.578432 0.504499 0.025512
O O11 0.186173 0.250000 0.096616
O O12 0.152716 0.503185 0.280425
O O13 0.262007 0.492883 0.824808
O O14 0.313660 0.250000 0.592342
O O15 0.419295 0.049751 0.411589
O O16 0.475524 0.750000 0.934610
O O17 0.500000 0.500000 0.000000
O O18 0.904982 0.250000 0.498220
#
# Coordination Sequence:
#
# PCOD8069478 Si02
#       7
#     4   4   4   4   4   4   4
#     4  11  22  35  53  78 108 139 178 221 266 318
#     4  10  20  37  58  77 104 138 177 223 269 314
#     4  10  18  32  52  75 106 138 174 219 268 315
#     4  10  19  34  56  79 104 140 179 215 259 316
#     4   8  15  29  49  75 105 134 167 212 260 306
#     4   9  16  27  46  75 109 139 171 214 265 314
#     4  10  23  38  51  76 110 142 175 220 269 314
#
# _framework density 18.463999999999999
#
# number of rings (size 3 to 8) (size 9 to 14) (size 15 to 20)
#    0.000    2.286    1.429    3.000    0.000    2.286 
#    0.000    1.429    0.000    0.857    0.000    0.000 
#    0.000    0.000    0.000    0.000    0.000    0.000 
#
# Total GULP energy -347116.390772 kJ/mol
# GULP energy per Si atom -12397.013956 kJ/mol
# Density = 1.842197 g / cm^3
# Si number density = 18.464000 Si / 1000 Ang^3
#
#
#
# Elastic Constant Matrix: (Units=GPa)
#
#
# Indices 1 2 3 4 5 6 
#
# 1 39.4308 28.9282 32.9967 0.0000 -15.0623 0.0000
# 2 28.9282 64.1030 27.9310 0.0000 -9.0763 0.0000
# 3 32.9967 27.9310 75.3947 0.0000 -28.5104 0.0000
# 4 0.0000 0.0000 0.0000 31.2154 0.0000 -3.6398
# 5 -15.0623 -9.0763 -28.5104 0.0000 36.6195 0.0000
# 6 0.0000 0.0000 0.0000 -3.6398 0.0000 25.2034
#
#
#
# Elastic Compliance Matrix: (Units=1/GPa)
#
#
# Indices 1 2 3 4 5 6 
#
# 1 0.051442 -0.016153 -0.014233 0.000000 0.006075 0.000000
# 2 -0.016153 0.023704 -0.002839 0.000000 -0.002979 0.000000
# 3 -0.014233 -0.002839 0.025602 0.000000 0.013375 0.000000
# 4 0.000000 0.000000 0.000000 0.032584 0.000000 0.004706
# 5 0.006075 -0.002979 0.013375 0.000000 0.039481 0.000000
# 6 0.000000 0.000000 0.000000 0.004706 0.000000 0.040357
#
#
# Mechanical properties :
#
#
# Convention : Reuss Voigt Hill
#
# Bulk Modulus (GPa) = 29.15479 39.84891 34.50185
# Shear Modulus (GPa) = 17.17906 24.54584 20.86245
#
# Velocity S-wave (km/s) = 3.05357 3.65003 3.36504
# Velocity P-wave (km/s) = 5.31571 6.27634 5.81589
#
# Compressibility (1/GPa) = 0.03429968
#
# Stress axis : x y z
#
# Youngs Moduli (GPa) = 19.43936 42.18611 39.05988
#
# Poissons Ratio (x) = 0.68143 0.55592
# Poissons Ratio (y) = 0.31401 0.11088
# Poissons Ratio (z) = 0.27667 0.11975
#
# Static dielectric constant tensor:
#      x y z
#    x 3.335520 0.000000 -0.453280 
#    y 0.000000 3.300420 0.000000 
#    z -0.453280 0.000000 3.644180 
# 
# 
# High freq. dielectric constant tensor:
#      x y z
#    x 1.700410 0.000000 -0.034610 
#    y 0.000000 1.706060 0.000000 
#    z -0.034610 0.000000 1.714320 
# 
# From -- ./inp_files/28283.got.cif
#   From: 2010.06.25/outbox.cif.g09.slc.cpg/sg11_15_cif.got.tgz:28283.got - 2010.06.27 23:14:04.
