data_PCOD8069113
_publ_section_title
;
Structure prediction by ZEFSAII (Michael W. Deem and Ramdas Pophale) SiO2 
 PCOD8069113
Probable space group: P 21/M
;
_chemical_formula_sum "Si O2"
_cell_formula_units_Z 32
_cell_length_a 23.859013
_cell_length_b 9.128150
_cell_length_c 12.476172
_cell_angle_alpha 90.000000
_cell_angle_beta 46.148204
_cell_angle_gamma 90.000000
_cell_volume 1959.443319
_symmetry_space_group_name_H-M "P 21/M"
_symmetry_group_IT_number 11
_symmetry_cell_setting 'monoclinic'
loop_
_space_group_symop_operation_xyz
x,y,z
-x,1/2+y,-z
-x,-y,-z
x,1/2-y,z
loop_
_atom_site_type_symbol
_atom_site_label
_atom_site_fract_x
_atom_site_fract_y
_atom_site_fract_z
Si Si1 0.164741 0.579944 0.393098
Si Si2 0.004782 0.078982 0.380550
Si Si3 0.321860 0.923976 0.279839
Si Si4 0.421712 0.421168 0.568482
Si Si5 0.411197 0.923633 0.951959
Si Si6 0.151001 0.920587 0.170687
Si Si7 0.417657 0.079599 0.324834
Si Si8 0.317873 0.578797 0.869094
O O1 0.183381 0.750000 0.354530
O O2 0.234299 0.515752 0.373576
O O3 0.167066 0.515886 0.269005
O O4 0.080374 0.553767 0.561202
O O5 0.021126 0.250000 0.374573
O O6 0.076105 0.006207 0.219998
O O7 0.000000 0.000000 0.500000
O O8 0.325119 0.750000 0.288025
O O9 0.350119 0.994889 0.352372
O O10 0.376138 0.979830 0.110310
O O11 0.500000 0.500000 0.500000
O O12 0.430611 0.250000 0.581332
O O13 0.405852 0.450630 0.465303
O O14 0.348589 0.487039 0.728215
O O15 0.410131 0.750000 0.949721
O O16 0.498641 0.983385 0.823117
O O17 0.358949 0.980584 0.922524
O O18 0.129519 0.750000 0.203952
O O19 0.225654 0.949318 0.998040
O O20 0.411466 0.250000 0.305424
O O21 0.336586 0.750000 0.826932
#
# Coordination Sequence:
#
# PCOD8069113 Si02
#       8
#     4   4   4   4   4   4   4   4
#     4   8  14  26  44  66  93 127 159 186 227 282
#     4   9  16  26  42  65  96 129 160 193 232 282
#     4  10  18  30  50  71  92 125 168 197 224 282
#     4  11  22  36  53  70  93 125 163 205 246 287
#     4   9  16  30  50  68  93 128 158 190 236 282
#     4   9  16  28  47  69  96 128 158 190 237 290
#     4  10  21  35  47  65  96 128 158 198 248 283
#     4  10  18  32  53  73  96 129 162 196 242 290
#
# _framework density 16.331168999999999
#
# number of rings (size 3 to 8) (size 9 to 14) (size 15 to 20)
#    0.000    2.500    2.500    1.875    0.000    1.500 
#    0.000    3.750    0.000    0.000    0.000    0.875 
#    0.000    0.000    0.000    0.000    0.000    0.000 
#
# Total GULP energy -396640.862885 kJ/mol
# GULP energy per Si atom -12395.026965 kJ/mol
# Density = 1.629400 g / cm^3
# Si number density = 16.331169 Si / 1000 Ang^3
#
#
#
# Elastic Constant Matrix: (Units=GPa)
#
#
# Indices 1 2 3 4 5 6 
#
# 1 104.4070 47.4075 65.4888 0.0000 -17.3509 0.0000
# 2 47.4075 59.8286 48.5445 0.0000 -6.9972 0.0000
# 3 65.4888 48.5445 96.2386 0.0000 -15.3801 0.0000
# 4 0.0000 0.0000 0.0000 26.8509 0.0000 -2.8179
# 5 -17.3509 -6.9972 -15.3801 0.0000 27.1250 0.0000
# 6 0.0000 0.0000 0.0000 -2.8179 0.0000 24.4148
#
#
#
# Elastic Compliance Matrix: (Units=1/GPa)
#
#
# Indices 1 2 3 4 5 6 
#
# 1 0.019269 -0.007958 -0.008199 0.000000 0.005624 0.000000
# 2 -0.007958 0.031600 -0.011035 0.000000 -0.003196 0.000000
# 3 -0.008199 -0.011035 0.022261 0.000000 0.004531 0.000000
# 4 0.000000 0.000000 0.000000 0.037699 0.000000 0.004351
# 5 0.005624 -0.003196 0.004531 0.000000 0.042208 0.000000
# 6 0.000000 0.000000 0.000000 0.004351 0.000000 0.041461
#
#
# Mechanical properties :
#
#
# Convention : Reuss Voigt Hill
#
# Bulk Modulus (GPa) = 53.34753 64.81730 59.08242
# Shear Modulus (GPa) = 19.59773 22.28037 20.93905
#
# Velocity S-wave (km/s) = 3.46789 3.69763 3.58460
# Velocity P-wave (km/s) = 6.98370 7.61613 7.30676
#
# Compressibility (1/GPa) = 0.01874501
#
# Stress axis : x y z
#
# Youngs Moduli (GPa) = 51.89732 31.64527 44.92208
#
# Poissons Ratio (x) = 0.25183 0.36833
# Poissons Ratio (y) = 0.41299 0.49573
# Poissons Ratio (z) = 0.42552 0.34922
#
# Static dielectric constant tensor:
#      x y z
#    x 3.197830 0.000000 -0.346790 
#    y 0.000000 2.947930 0.000000 
#    z -0.346790 0.000000 3.186330 
# 
# 
# High freq. dielectric constant tensor:
#      x y z
#    x 1.616330 0.000000 -0.026480 
#    y 0.000000 1.609260 0.000000 
#    z -0.026480 0.000000 1.614600 
# 
# From -- ./inp_files/42748.got.cif
#   From: 2010.06.25/outbox.cif.g09.slc.cpg/sg11_22_cif.got.tgz:42748.got - 2010.06.27 23:14:04.
