data_PCOD8069473
_publ_section_title
;
Structure prediction by ZEFSAII (Michael W. Deem and Ramdas Pophale) SiO2 
 PCOD8069473
Probable space group: P 21/M
;
_chemical_formula_sum "Si O2"
_cell_formula_units_Z 32
_cell_length_a 12.243441
_cell_length_b 9.241573
_cell_length_c 21.512469
_cell_angle_alpha 90.000000
_cell_angle_beta 133.651879
_cell_angle_gamma 90.000000
_cell_volume 1761.191096
_symmetry_space_group_name_H-M "P 21/M"
_symmetry_group_IT_number 11
_symmetry_cell_setting 'monoclinic'
loop_
_space_group_symop_operation_xyz
x,y,z
-x,1/2+y,-z
-x,-y,-z
x,1/2-y,z
loop_
_atom_site_type_symbol
_atom_site_label
_atom_site_fract_x
_atom_site_fract_y
_atom_site_fract_z
Si Si1 0.217243 0.909677 0.012400
Si Si2 0.645387 0.408243 0.067148
Si Si3 0.232401 0.084575 0.776094
Si Si4 0.622137 0.416151 0.717288
Si Si5 0.622692 0.576457 0.590486
Si Si6 0.496539 0.920870 0.200510
Si Si7 0.032918 0.587194 0.141346
Si Si8 0.922421 0.083677 0.700937
O O1 0.181005 0.750000 0.025648
O O2 0.264285 0.895488 0.960145
O O3 0.354720 0.985011 0.105180
O O4 0.062559 0.000477 0.948191
O O5 0.599364 0.250000 0.073585
O O6 0.747337 0.484741 0.157304
O O7 0.500000 0.500000 0.000000
O O8 0.277020 0.250000 0.809299
O O9 0.338666 0.028935 0.761061
O O10 0.049965 0.072657 0.696190
O O11 0.588052 0.250000 0.683668
O O12 0.593276 0.524500 0.649313
O O13 0.513966 0.466769 0.731490
O O14 0.792537 0.428695 0.809507
O O15 0.500000 0.500000 0.500000
O O16 0.612377 0.750000 0.582448
O O17 0.785508 0.522595 0.629741
O O18 0.483100 0.750000 0.188899
O O19 0.974567 0.750000 0.112942
O O20 0.014106 0.537059 0.206005
O O21 0.862958 0.250000 0.682497
#
# Coordination Sequence:
#
# PCOD8069473 Si02
#       8
#     4   4   4   4   4   4   4   4
#     4  10  19  29  44  67  97 136 185 229 265 304
#     4  11  20  29  43  66  98 136 183 235 275 306
#     4  10  18  32  52  74 103 141 180 218 263 312
#     4   9  19  37  56  75 104 140 176 212 259 315
#     4  11  22  38  63  89 111 130 159 203 256 313
#     4   9  18  33  51  71 101 145 187 219 257 309
#     4   9  17  29  46  69  99 136 175 222 269 304
#     4   9  18  32  53  81 111 137 169 212 263 313
#
# _framework density 18.169522000000001
#
# number of rings (size 3 to 8) (size 9 to 14) (size 15 to 20)
#    0.000    2.250    2.500    2.250    0.000    3.500 
#    0.000    1.250    0.000    0.750    0.000    0.000 
#    0.000    0.000    0.000    0.000    0.000    0.000 
#
# Total GULP energy -396472.775410 kJ/mol
# GULP energy per Si atom -12389.774232 kJ/mol
# Density = 1.812817 g / cm^3
# Si number density = 18.169522 Si / 1000 Ang^3
#
#
#
# Elastic Constant Matrix: (Units=GPa)
#
#
# Indices 1 2 3 4 5 6 
#
# 1 106.8068 29.7449 45.2541 0.0000 2.9162 0.0000
# 2 29.7449 88.7895 45.7218 0.0000 8.4052 0.0000
# 3 45.2541 45.7218 81.3756 0.0000 9.0465 0.0000
# 4 0.0000 0.0000 0.0000 27.3306 0.0000 3.7720
# 5 2.9162 8.4052 9.0465 0.0000 15.4689 0.0000
# 6 0.0000 0.0000 0.0000 3.7720 0.0000 19.5620
#
#
#
# Elastic Compliance Matrix: (Units=1/GPa)
#
#
# Indices 1 2 3 4 5 6 
#
# 1 0.012352 -0.000952 -0.006559 0.000000 0.002025 0.000000
# 2 -0.000952 0.016115 -0.008098 0.000000 -0.003841 0.000000
# 3 -0.006559 -0.008098 0.021241 0.000000 -0.006785 0.000000
# 4 0.000000 0.000000 0.000000 0.037589 0.000000 -0.007248
# 5 0.002025 -0.003841 -0.006785 0.000000 0.070319 0.000000
# 6 0.000000 0.000000 0.000000 -0.007248 0.000000 0.052517
#
#
# Mechanical properties :
#
#
# Convention : Reuss Voigt Hill
#
# Bulk Modulus (GPa) = 54.08589 57.60148 55.84369
# Shear Modulus (GPa) = 20.20083 22.88904 21.54494
#
# Velocity S-wave (km/s) = 3.33798 3.55314 3.44724
# Velocity P-wave (km/s) = 6.68492 6.97167 6.82980
#
# Compressibility (1/GPa) = 0.01848911
#
# Stress axis : x y z
#
# Youngs Moduli (GPa) = 80.96100 62.05325 47.07951
#
# Poissons Ratio (x) = 0.05907 0.30880
# Poissons Ratio (y) = 0.07707 0.38126
# Poissons Ratio (z) = 0.53103 0.50252
#
# Static dielectric constant tensor:
#      x y z
#    x 3.561350 0.000000 0.096630 
#    y 0.000000 3.382770 0.000000 
#    z 0.096630 0.000000 3.064750 
# 
# 
# High freq. dielectric constant tensor:
#      x y z
#    x 1.708960 0.000000 0.010070 
#    y 0.000000 1.689140 0.000000 
#    z 0.010070 0.000000 1.666640 
# 
# From -- ./inp_files/42786.got.cif
#   From: 2010.06.25/outbox.cif.g09.slc.cpg/sg11_22_cif.got.tgz:42786.got - 2010.06.27 23:14:04.
