data_PCOD8069463
_publ_section_title
;
Structure prediction by ZEFSAII (Michael W. Deem and Ramdas Pophale) SiO2 
 PCOD8069463
Probable space group: P 21/M
;
_chemical_formula_sum "Si O2"
_cell_formula_units_Z 28
_cell_length_a 5.057727
_cell_length_b 19.497021
_cell_length_c 14.011123
_cell_angle_alpha 90.000000
_cell_angle_beta 111.907867
_cell_angle_gamma 90.000000
_cell_volume 1281.869902
_symmetry_space_group_name_H-M "P 21/M"
_symmetry_group_IT_number 11
_symmetry_cell_setting 'monoclinic'
loop_
_space_group_symop_operation_xyz
x,y,z
-x,1/2+y,-z
-x,-y,-z
x,1/2-y,z
loop_
_atom_site_type_symbol
_atom_site_label
_atom_site_fract_x
_atom_site_fract_y
_atom_site_fract_z
Si Si1 0.872320 0.826784 0.353682
Si Si2 0.245170 0.028069 0.203855
Si Si3 0.957653 0.632487 0.568814
Si Si4 0.553594 0.445650 0.429762
Si Si5 0.609212 0.250000 0.055024
Si Si6 0.039431 0.750000 0.088809
Si Si7 0.723696 0.381333 0.197031
Si Si8 0.755510 0.123719 0.760818
O O1 0.858645 0.750000 0.308272
O O2 0.579029 0.866091 0.297343
O O3 0.935628 0.815737 0.476157
O O4 0.107251 0.871424 0.327418
O O5 0.446432 0.018875 0.320873
O O6 0.430678 0.074261 0.155734
O O7 0.955871 0.067663 0.185391
O O8 0.181517 0.947761 0.172661
O O9 0.110322 0.568522 0.535687
O O10 0.180245 0.649323 0.685497
O O11 0.644754 0.620392 0.570774
O O12 0.500000 0.500000 0.500000
O O13 0.685250 0.316787 0.125249
O O14 0.788959 0.250000 0.984684
O O15 0.286209 0.250000 0.982249
O O16 0.106744 0.682123 0.156603
#
# Coordination Sequence:
#
# PCOD8069463 Si02
#       8
#     4   4   4   4   2   2   4   4
#     4  12  22  37  60  95 133 175 216 254 312 373
#     4  10  21  39  65  93 132 167 210 264 320 367
#     4  10  21  33  56  88 129 163 205 251 294 369
#     4  10  18  32  51  84 125 171 209 237 295 363
#     4  12  26  48  74  88 128 160 214 274 328 398
#     4  12  26  48  68  96 116 174 212 264 340 384
#     4  10  23  43  65 100 127 169 213 261 323 380
#     4  12  24  44  65  95 134 168 214 270 307 385
#
# _framework density 21.843088999999999
#
# number of rings (size 3 to 8) (size 9 to 14) (size 15 to 20)
#    0.000    1.143    1.429    5.571    1.000    2.286 
#    0.000    4.286    0.000    0.000    0.000    0.000 
#    0.000    0.000    0.000    0.000    0.000    0.000 
#
# Total GULP energy -346884.817114 kJ/mol
# GULP energy per Si atom -12388.743468 kJ/mol
# Density = 2.179337 g / cm^3
# Si number density = 21.843089 Si / 1000 Ang^3
#
#
#
# Elastic Constant Matrix: (Units=GPa)
#
#
# Indices 1 2 3 4 5 6 
#
# 1 116.3509 27.4365 10.1339 0.0000 -0.5742 0.0000
# 2 27.4365 136.0224 36.6092 0.0000 -4.2090 0.0000
# 3 10.1339 36.6092 70.5060 0.0000 -5.5489 0.0000
# 4 0.0000 0.0000 0.0000 7.2283 0.0000 -1.6471
# 5 -0.5742 -4.2090 -5.5489 0.0000 26.2697 0.0000
# 6 0.0000 0.0000 0.0000 -1.6471 0.0000 32.3995
#
#
#
# Elastic Compliance Matrix: (Units=1/GPa)
#
#
# Indices 1 2 3 4 5 6 
#
# 1 0.009035 -0.001714 -0.000422 0.000000 -0.000166 0.000000
# 2 -0.001714 0.008876 -0.004325 0.000000 0.000471 0.000000
# 3 -0.000422 -0.004325 0.016712 0.000000 0.002828 0.000000
# 4 0.000000 0.000000 0.000000 0.139967 0.000000 0.007116
# 5 -0.000166 0.000471 0.002828 0.000000 0.038736 0.000000
# 6 0.000000 0.000000 0.000000 0.007116 0.000000 0.031226
#
#
# Mechanical properties :
#
#
# Convention : Reuss Voigt Hill
#
# Bulk Modulus (GPa) = 46.08079 52.35983 49.22031
# Shear Modulus (GPa) = 18.88870 29.75947 24.32409
#
# Velocity S-wave (km/s) = 2.94384 3.69510 3.34066
# Velocity P-wave (km/s) = 5.71813 6.49831 6.12066
#
# Compressibility (1/GPa) = 0.02170102
#
# Stress axis : x y z
#
# Youngs Moduli (GPa) = 110.68338 112.66117 59.83633
#
# Poissons Ratio (x) = 0.19310 0.02523
# Poissons Ratio (y) = 0.18971 0.25882
# Poissons Ratio (z) = 0.04667 0.48730
#
# Static dielectric constant tensor:
#      x y z
#    x 2.533420 0.000000 0.119320 
#    y 0.000000 2.673990 0.000000 
#    z 0.119320 0.000000 3.956710 
# 
# 
# High freq. dielectric constant tensor:
#      x y z
#    x 1.880210 0.000000 -0.001740 
#    y 0.000000 1.853350 0.000000 
#    z -0.001740 0.000000 1.844810 
# 
# From -- ./inp_files/46106.got.cif
#   From: 2010.06.25/outbox.cif.g09.slc.cpg/sg11_24_cif.got.tgz:46106.got - 2010.06.27 23:14:04.
