data_PCOD8069421
_publ_section_title
;
Structure prediction by ZEFSAII (Michael W. Deem and Ramdas Pophale) SiO2 
 PCOD8069421
Probable space group: P 21/M
;
_chemical_formula_sum "Si O2"
_cell_formula_units_Z 28
_cell_length_a 9.162479
_cell_length_b 14.732154
_cell_length_c 13.248405
_cell_angle_alpha 90.000000
_cell_angle_beta 54.299428
_cell_angle_gamma 90.000000
_cell_volume 1452.246785
_symmetry_space_group_name_H-M "P 21/M"
_symmetry_group_IT_number 11
_symmetry_cell_setting 'monoclinic'
loop_
_space_group_symop_operation_xyz
x,y,z
-x,1/2+y,-z
-x,-y,-z
x,1/2-y,z
loop_
_atom_site_type_symbol
_atom_site_label
_atom_site_fract_x
_atom_site_fract_y
_atom_site_fract_z
Si Si1 0.494263 0.856471 0.077602
Si Si2 0.777735 0.513431 0.864259
Si Si3 0.502999 0.083883 0.702235
Si Si4 0.253160 0.149192 0.525445
Si Si5 0.636522 0.351081 0.441456
Si Si6 0.837868 0.514137 0.273194
Si Si7 0.172994 0.455071 0.381674
O O1 0.478999 0.750000 0.048451
O O2 0.512826 0.855526 0.191021
O O3 0.325286 0.916958 0.107185
O O4 0.667823 0.907156 0.962842
O O5 0.841001 0.555641 0.731855
O O6 0.960851 0.495149 0.854383
O O7 0.583520 0.144734 0.580528
O O8 0.305835 0.044174 0.753219
O O9 0.641254 0.004068 0.666781
O O10 0.221106 0.250000 0.577404
O O11 0.461970 0.121682 0.447418
O O12 0.139789 0.086509 0.645961
O O13 0.189299 0.140511 0.434827
O O14 0.704384 0.250000 0.389575
O O15 0.789912 0.419503 0.346332
O O16 0.000000 0.500000 0.500000
#
# Coordination Sequence:
#
# PCOD8069421 Si02
#       7
#     4   4   4   4   4   4   4
#     4  10  23  43  59  81 112 152 202 245 281 339
#     4  10  23  38  62  83 112 156 191 239 294 340
#     4  10  19  35  60  80 115 154 191 238 283 333
#     4  10  19  31  52  85 120 151 184 226 284 346
#     4  10  18  31  55  88 118 153 186 230 294 345
#     4  11  19  37  58  86 121 146 187 244 296 348
#     4  11  18  35  56  85 118 151 187 227 287 347
#
# _framework density 19.280470000000001
#
# number of rings (size 3 to 8) (size 9 to 14) (size 15 to 20)
#    0.000    1.714    4.286    1.286    0.000    2.857 
#    0.000    2.143    0.000    0.000    0.000    0.000 
#    0.000    0.000    0.000    0.000    0.000    0.000 
#
# Total GULP energy -346973.698225 kJ/mol
# GULP energy per Si atom -12391.917794 kJ/mol
# Density = 1.923659 g / cm^3
# Si number density = 19.280470 Si / 1000 Ang^3
#
#
#
# Elastic Constant Matrix: (Units=GPa)
#
#
# Indices 1 2 3 4 5 6 
#
# 1 75.8338 16.7262 25.6154 0.0000 -17.8575 0.0000
# 2 16.7262 75.3110 35.1246 0.0000 -7.6122 0.0000
# 3 25.6154 35.1246 70.3258 0.0000 -18.7711 0.0000
# 4 0.0000 0.0000 0.0000 11.2700 0.0000 8.4108
# 5 -17.8575 -7.6122 -18.7711 0.0000 31.3829 0.0000
# 6 0.0000 0.0000 0.0000 8.4108 0.0000 18.4097
#
#
#
# Elastic Compliance Matrix: (Units=1/GPa)
#
#
# Indices 1 2 3 4 5 6 
#
# 1 0.016255 -0.001316 -0.003427 0.000000 0.006880 0.000000
# 2 -0.001316 0.017453 -0.008696 0.000000 -0.001717 0.000000
# 3 -0.003427 -0.008696 0.022285 0.000000 0.009270 0.000000
# 4 0.000000 0.000000 0.000000 0.134637 0.000000 -0.061511
# 5 0.006880 -0.001717 0.009270 0.000000 0.040908 0.000000
# 6 0.000000 0.000000 0.000000 -0.061511 0.000000 0.082422
#
#
# Mechanical properties :
#
#
# Convention : Reuss Voigt Hill
#
# Bulk Modulus (GPa) = 34.34633 41.82253 38.08443
# Shear Modulus (GPa) = 14.26366 21.81282 18.03824
#
# Velocity S-wave (km/s) = 2.72287 3.36719 3.06203
# Velocity P-wave (km/s) = 5.26670 6.07092 5.68305
#
# Compressibility (1/GPa) = 0.02911519
#
# Stress axis : x y z
#
# Youngs Moduli (GPa) = 61.52040 57.29776 44.87305
#
# Poissons Ratio (x) = 0.07543 0.15376
# Poissons Ratio (y) = 0.08099 0.39020
# Poissons Ratio (z) = 0.21081 0.49824
#
# Static dielectric constant tensor:
#      x y z
#    x 2.754370 0.000000 -0.163190 
#    y 0.000000 3.387050 0.000000 
#    z -0.163190 0.000000 3.419620 
# 
# 
# High freq. dielectric constant tensor:
#      x y z
#    x 1.758700 0.000000 -0.008420 
#    y 0.000000 1.742210 0.000000 
#    z -0.008420 0.000000 1.731790 
# 
# From -- ./inp_files/22279.got.cif
#   From: 2010.06.25/outbox.cif.g09.slc.cpg/sg11_12_cif.got.tgz:22279.got - 2010.06.27 23:14:04.
