data_PCOD8069614
_publ_section_title
;
Structure prediction by ZEFSAII (Michael W. Deem and Ramdas Pophale) SiO2 
 PCOD8069614
Probable space group: P 21/M
;
_chemical_formula_sum "Si O2"
_cell_formula_units_Z 32
_cell_length_a 20.022267
_cell_length_b 13.645356
_cell_length_c 10.389805
_cell_angle_alpha 90.000000
_cell_angle_beta 142.977438
_cell_angle_gamma 90.000000
_cell_volume 1709.209881
_symmetry_space_group_name_H-M "P 21/M"
_symmetry_group_IT_number 11
_symmetry_cell_setting 'monoclinic'
loop_
_space_group_symop_operation_xyz
x,y,z
-x,1/2+y,-z
-x,-y,-z
x,1/2-y,z
loop_
_atom_site_type_symbol
_atom_site_label
_atom_site_fract_x
_atom_site_fract_y
_atom_site_fract_z
Si Si1 0.053834 0.134575 0.698902
Si Si2 0.150367 0.494702 0.631123
Si Si3 0.172301 0.138637 0.141307
Si Si4 0.625051 0.989411 0.553553
Si Si5 0.338039 0.855588 0.943638
Si Si6 0.561589 0.569471 0.192221
Si Si7 0.571275 0.357388 0.651325
Si Si8 0.195883 0.361507 0.470245
O O1 0.050671 0.250000 0.655559
O O2 0.937043 0.082943 0.491350
O O3 0.143766 0.077251 0.746234
O O4 0.075356 0.124897 0.886233
O O5 0.268925 0.549004 0.795059
O O6 0.132877 0.430571 0.475468
O O7 0.217237 0.250000 0.207045
O O8 0.264888 0.065597 0.234669
O O9 0.145505 0.113663 0.250234
O O10 0.609073 0.000261 0.377142
O O11 0.528236 0.926765 0.465724
O O12 0.630572 0.099167 0.616398
O O13 0.289652 0.750000 0.819726
O O14 0.466884 0.857327 0.097453
O O15 0.336466 0.854456 0.095647
O O16 0.669900 0.627613 0.308878
O O17 0.500000 0.500000 0.000000
O O18 0.525463 0.250000 0.547648
O O19 0.166888 0.250000 0.460884
#
# Coordination Sequence:
#
# PCOD8069614 Si02
#       8
#     4   4   4   4   4   4   4   4
#     4  10  22  38  55  79 106 136 177 224 270 314
#     4  11  21  35  57  79 107 137 174 225 265 311
#     4   9  18  34  55  75 100 135 174 214 260 312
#     4   9  17  29  50  70  98 134 171 210 254 308
#     4  10  19  32  53  76 104 141 173 205 258 319
#     4  10  18  33  52  75 108 139 170 206 256 311
#     4   9  17  29  46  71 100 131 170 210 251 307
#     4  10  20  35  57  81 106 139 178 217 259 311
#
# _framework density 18.722100999999999
#
# number of rings (size 3 to 8) (size 9 to 14) (size 15 to 20)
#    0.000    2.250    1.250    2.250    0.000    3.500 
#    0.000    1.250    0.000    0.750    0.000    0.000 
#    0.000    0.000    0.000    0.000    0.000    0.000 
#
# Total GULP energy -396430.448075 kJ/mol
# GULP energy per Si atom -12388.451502 kJ/mol
# Density = 1.867949 g / cm^3
# Si number density = 18.722101 Si / 1000 Ang^3
#
#
#
# Elastic Constant Matrix: (Units=GPa)
#
#
# Indices 1 2 3 4 5 6 
#
# 1 46.9326 18.7333 18.8270 0.0000 -10.4665 0.0000
# 2 18.7333 95.8187 42.5486 0.0000 -16.6470 0.0000
# 3 18.8270 42.5486 60.6098 0.0000 -12.6072 0.0000
# 4 0.0000 0.0000 0.0000 28.8185 0.0000 -1.1854
# 5 -10.4665 -16.6470 -12.6072 0.0000 25.5837 0.0000
# 6 0.0000 0.0000 0.0000 -1.1854 0.0000 27.4183
#
#
#
# Elastic Compliance Matrix: (Units=1/GPa)
#
#
# Indices 1 2 3 4 5 6 
#
# 1 0.025612 -0.001332 -0.005595 0.000000 0.006854 0.000000
# 2 -0.001332 0.015867 -0.009683 0.000000 0.005008 0.000000
# 3 -0.005595 -0.009683 0.025903 0.000000 0.004175 0.000000
# 4 0.000000 0.000000 0.000000 0.034762 0.000000 0.001503
# 5 0.006854 0.005008 0.004175 0.000000 0.047207 0.000000
# 6 0.000000 0.000000 0.000000 0.001503 0.000000 0.036537
#
#
# Mechanical properties :
#
#
# Convention : Reuss Voigt Hill
#
# Bulk Modulus (GPa) = 29.27295 40.39765 34.83530
# Shear Modulus (GPa) = 21.69251 24.58091 23.13671
#
# Velocity S-wave (km/s) = 3.40760 3.62738 3.51920
# Velocity P-wave (km/s) = 5.58138 6.25845 5.92958
#
# Compressibility (1/GPa) = 0.03416123
#
# Stress axis : x y z
#
# Youngs Moduli (GPa) = 39.04452 63.02542 38.60570
#
# Poissons Ratio (x) = 0.08396 0.21599
# Poissons Ratio (y) = 0.05201 0.37382
# Poissons Ratio (z) = 0.21845 0.61028
#
# Static dielectric constant tensor:
#      x y z
#    x 3.474360 0.000000 -0.229660 
#    y 0.000000 3.495160 0.000000 
#    z -0.229660 0.000000 3.367410 
# 
# 
# High freq. dielectric constant tensor:
#      x y z
#    x 1.709620 0.000000 -0.013610 
#    y 0.000000 1.732590 0.000000 
#    z -0.013610 0.000000 1.716970 
# 
# From -- ./inp_files/26867.got.cif
#   From: 2010.06.25/outbox.cif.g09.slc.cpg/sg11_14_cif.got.tgz:26867.got - 2010.06.27 23:14:04.
