data_PCOD8069008
_publ_section_title
;
Structure prediction by ZEFSAII (Michael W. Deem and Ramdas Pophale) SiO2 
 PCOD8069008
Probable space group: P 21/M
;
_chemical_formula_sum "Si O2"
_cell_formula_units_Z 32
_cell_length_a 27.116101
_cell_length_b 8.924941
_cell_length_c 19.189468
_cell_angle_alpha 90.000000
_cell_angle_beta 24.448102
_cell_angle_gamma 90.000000
_cell_volume 1922.021578
_symmetry_space_group_name_H-M "P 21/M"
_symmetry_group_IT_number 11
_symmetry_cell_setting 'monoclinic'
loop_
_space_group_symop_operation_xyz
x,y,z
-x,1/2+y,-z
-x,-y,-z
x,1/2-y,z
loop_
_atom_site_type_symbol
_atom_site_label
_atom_site_fract_x
_atom_site_fract_y
_atom_site_fract_z
Si Si1 0.619702 0.573048 0.373728
Si Si2 0.601967 0.574279 0.823798
Si Si3 0.763922 0.923650 0.829740
Si Si4 0.504763 0.574180 0.656940
Si Si5 0.737010 0.072076 0.103874
Si Si6 0.149525 0.424369 0.432971
Si Si7 0.091710 0.427048 0.220910
Si Si8 0.514238 0.073581 0.166064
O O1 0.500000 0.500000 0.500000
O O2 0.620535 0.750000 0.358184
O O3 0.616361 0.538361 0.461660
O O4 0.730101 0.494663 0.191847
O O5 0.590782 0.750000 0.850883
O O6 0.731199 0.518634 0.681856
O O7 0.583665 0.530423 0.766094
O O8 0.500000 0.500000 0.000000
O O9 0.732520 0.750000 0.877773
O O10 0.841251 0.954152 0.661374
O O11 0.838598 0.982167 0.799759
O O12 0.641211 0.010552 0.980516
O O13 0.488010 0.750000 0.683870
O O14 0.379188 0.512180 0.788567
O O15 0.527552 0.507271 0.704946
O O16 0.745228 0.250000 0.097647
O O17 0.853429 0.006998 0.917186
O O18 0.124843 0.250000 0.480240
O O19 0.044487 0.523876 0.598905
O O20 0.099533 0.250000 0.201651
O O21 0.529416 0.250000 0.151262
#
# Coordination Sequence:
#
# PCOD8069008 Si02
#       8
#     4   4   4   4   4   4   4   4
#     4   9  16  27  43  66  97 130 160 194 234 286
#     4  10  20  33  52  72  94 125 164 204 244 285
#     4  10  20  33  48  69  98 127 160 202 244 285
#     4   8  15  27  44  68  97 125 156 190 233 283
#     4  10  18  30  47  68  96 131 160 192 241 292
#     4  10  21  36  49  66  96 131 164 203 246 284
#     4  11  22  33  48  72  96 127 168 203 239 289
#     4  10  18  30  50  74  96 127 164 196 236 290
#
# _framework density 16.649135999999999
#
# number of rings (size 3 to 8) (size 9 to 14) (size 15 to 20)
#    0.000    2.250    2.500    2.250    0.000    1.500 
#    0.000    0.625    0.000    0.000    0.000    0.875 
#    0.000    0.000    0.000    0.000    0.000    0.000 
#
# Total GULP energy -396660.324333 kJ/mol
# GULP energy per Si atom -12395.635135 kJ/mol
# Density = 1.661124 g / cm^3
# Si number density = 16.649136 Si / 1000 Ang^3
#
#
#
# Elastic Constant Matrix: (Units=GPa)
#
#
# Indices 1 2 3 4 5 6 
#
# 1 69.7608 27.6078 54.5667 0.0000 12.0804 0.0000
# 2 27.6078 52.9948 38.7369 0.0000 7.6333 0.0000
# 3 54.5667 38.7369 107.4326 0.0000 16.8114 0.0000
# 4 0.0000 0.0000 0.0000 29.7459 0.0000 3.0256
# 5 12.0804 7.6333 16.8114 0.0000 30.9221 0.0000
# 6 0.0000 0.0000 0.0000 3.0256 0.0000 15.4196
#
#
#
# Elastic Compliance Matrix: (Units=1/GPa)
#
#
# Indices 1 2 3 4 5 6 
#
# 1 0.024959 -0.004959 -0.010443 0.000000 -0.002849 0.000000
# 2 -0.004959 0.026666 -0.006962 0.000000 -0.000861 0.000000
# 3 -0.010443 -0.006962 0.017723 0.000000 -0.003837 0.000000
# 4 0.000000 0.000000 0.000000 0.034303 0.000000 -0.006731
# 5 -0.002849 -0.000861 -0.003837 0.000000 0.035751 0.000000
# 6 0.000000 0.000000 0.000000 -0.006731 0.000000 0.066173
#
#
# Mechanical properties :
#
#
# Convention : Reuss Voigt Hill
#
# Bulk Modulus (GPa) = 40.61616 52.44567 46.53092
# Shear Modulus (GPa) = 19.34170 22.50264 20.92217
#
# Velocity S-wave (km/s) = 3.41210 3.68037 3.54877
# Velocity P-wave (km/s) = 6.32231 7.04479 6.69331
#
# Compressibility (1/GPa) = 0.02462074
#
# Stress axis : x y z
#
# Youngs Moduli (GPa) = 40.06531 37.50160 56.42343
#
# Poissons Ratio (x) = 0.18595 0.58926
# Poissons Ratio (y) = 0.19866 0.39280
# Poissons Ratio (z) = 0.41842 0.26107
#
# Static dielectric constant tensor:
#      x y z
#    x 3.609440 0.000000 0.421750 
#    y 0.000000 3.142560 0.000000 
#    z 0.421750 0.000000 3.185440 
# 
# 
# High freq. dielectric constant tensor:
#      x y z
#    x 1.627490 0.000000 0.027740 
#    y 0.000000 1.636570 0.000000 
#    z 0.027740 0.000000 1.627680 
# 
# From -- ./inp_files/42815.got.cif
#   From: 2010.06.25/outbox.cif.g09.slc.cpg/sg11_22_cif.got.tgz:42815.got - 2010.06.27 23:14:04.
