data_PCOD8069305
_publ_section_title
;
Structure prediction by ZEFSAII (Michael W. Deem and Ramdas Pophale) SiO2 
 PCOD8069305
Probable space group: P 21/M
;
_chemical_formula_sum "Si O2"
_cell_formula_units_Z 28
_cell_length_a 11.804357
_cell_length_b 9.098527
_cell_length_c 13.495470
_cell_angle_alpha 90.000000
_cell_angle_beta 76.440597
_cell_angle_gamma 90.000000
_cell_volume 1409.044169
_symmetry_space_group_name_H-M "P 21/M"
_symmetry_group_IT_number 11
_symmetry_cell_setting 'monoclinic'
loop_
_space_group_symop_operation_xyz
x,y,z
-x,1/2+y,-z
-x,-y,-z
x,1/2-y,z
loop_
_atom_site_type_symbol
_atom_site_label
_atom_site_fract_x
_atom_site_fract_y
_atom_site_fract_z
Si Si1 0.944996 0.079750 0.228917
Si Si2 0.695266 0.078975 0.216231
Si Si3 0.525455 0.924503 0.390805
Si Si4 0.182003 0.924118 0.170706
Si Si5 0.901234 0.077541 0.459505
Si Si6 0.287476 0.922380 0.351952
Si Si7 0.614466 0.422816 0.016834
O O1 0.979884 0.250000 0.222740
O O2 0.834333 0.049909 0.180463
O O3 0.905217 0.025143 0.345718
O O4 0.056461 0.990135 0.168442
O O5 0.672424 0.250000 0.244354
O O6 0.642986 0.985019 0.317337
O O7 0.636920 0.029989 0.125357
O O8 0.533507 0.750000 0.404802
O O9 0.421447 0.969752 0.336585
O O10 0.500000 0.000000 0.500000
O O11 0.167867 0.750000 0.177083
O O12 0.227840 0.991494 0.266090
O O13 0.273902 0.973723 0.068970
O O14 0.920540 0.250000 0.464324
O O15 0.778921 0.029532 0.534029
O O16 0.000000 0.000000 0.500000
O O17 0.279843 0.750000 0.338632
O O18 0.595607 0.250000 0.010428
O O19 0.500000 0.500000 0.000000
#
# Coordination Sequence:
#
# PCOD8069305 Si02
#       7
#     4   4   4   4   4   4   4
#     4  10  21  36  55  81 116 154 192 236 289 345
#     4  10  22  41  60  82 118 157 192 237 294 348
#     4  11  22  38  60  86 116 153 195 237 288 347
#     4  10  20  36  58  84 112 146 192 239 286 342
#     4  10  18  31  51  76 107 146 185 225 276 333
#     4   9  18  33  54  78 111 149 184 231 286 339
#     4  10  22  40  63  88 115 150 193 244 295 346
#
# _framework density 19.871627
#
# number of rings (size 3 to 8) (size 9 to 14) (size 15 to 20)
#    0.000    2.000    1.429    2.143    0.000    5.714 
#    0.000    4.286    0.000    0.000    0.000    0.000 
#    0.000    0.000    0.000    0.000    0.000    0.000 
#
# Total GULP energy -347196.684115 kJ/mol
# GULP energy per Si atom -12399.881576 kJ/mol
# Density = 1.982640 g / cm^3
# Si number density = 19.871627 Si / 1000 Ang^3
#
#
#
# Elastic Constant Matrix: (Units=GPa)
#
#
# Indices 1 2 3 4 5 6 
#
# 1 134.5586 45.1063 56.7211 0.0000 -6.2481 0.0000
# 2 45.1063 50.4280 45.2219 0.0000 -5.1016 0.0000
# 3 56.7211 45.2219 120.9571 0.0000 -9.8514 0.0000
# 4 0.0000 0.0000 0.0000 24.8059 0.0000 -2.7117
# 5 -6.2481 -5.1016 -9.8514 0.0000 37.5259 0.0000
# 6 0.0000 0.0000 0.0000 -2.7117 0.0000 35.6336
#
#
#
# Elastic Compliance Matrix: (Units=1/GPa)
#
#
# Indices 1 2 3 4 5 6 
#
# 1 0.011000 -0.007835 -0.002214 0.000000 0.000185 0.000000
# 2 -0.007835 0.035462 -0.009501 0.000000 0.001022 0.000000
# 3 -0.002214 -0.009501 0.013000 0.000000 0.001753 0.000000
# 4 0.000000 0.000000 0.000000 0.040651 0.000000 0.003094
# 5 0.000185 0.001022 0.001753 0.000000 0.027278 0.000000
# 6 0.000000 0.000000 0.000000 0.003094 0.000000 0.028299
#
#
# Mechanical properties :
#
#
# Convention : Reuss Voigt Hill
#
# Bulk Modulus (GPa) = 49.10910 66.67136 57.89023
# Shear Modulus (GPa) = 24.80445 30.18604 27.49524
#
# Velocity S-wave (km/s) = 3.53687 3.90173 3.72377
# Velocity P-wave (km/s) = 6.43786 7.34315 6.90536
#
# Compressibility (1/GPa) = 0.02036283
#
# Stress axis : x y z
#
# Youngs Moduli (GPa) = 90.90902 28.19948 76.92150
#
# Poissons Ratio (x) = 0.22095 0.17030
# Poissons Ratio (y) = 0.71228 0.73079
# Poissons Ratio (z) = 0.20127 0.26791
#
# Static dielectric constant tensor:
#      x y z
#    x 3.704380 0.000000 0.081510 
#    y 0.000000 3.334260 0.000000 
#    z 0.081510 0.000000 3.477990 
# 
# 
# High freq. dielectric constant tensor:
#      x y z
#    x 1.788210 0.000000 -0.001530 
#    y 0.000000 1.749350 0.000000 
#    z -0.001530 0.000000 1.778610 
# 
# From -- ./inp_files/48918.got.cif
#   From: 2010.06.25/outbox.cif.g09.slc.cpg/sg11_25_cif.got.tgz:48918.got - 2010.06.27 23:14:04.
