data_PCOD8069016
_publ_section_title
;
Structure prediction by ZEFSAII (Michael W. Deem and Ramdas Pophale) SiO2 
 PCOD8069016
Probable space group: P 21/M
;
_chemical_formula_sum "Si O2"
_cell_formula_units_Z 20
_cell_length_a 10.512899
_cell_length_b 23.731719
_cell_length_c 5.199183
_cell_angle_alpha 90.000000
_cell_angle_beta 84.575540
_cell_angle_gamma 90.000000
_cell_volume 1291.330842
_symmetry_space_group_name_H-M "P 21/M"
_symmetry_group_IT_number 11
_symmetry_cell_setting 'monoclinic'
loop_
_space_group_symop_operation_xyz
x,y,z
-x,1/2+y,-z
-x,-y,-z
x,1/2-y,z
loop_
_atom_site_type_symbol
_atom_site_label
_atom_site_fract_x
_atom_site_fract_y
_atom_site_fract_z
Si Si1 0.353829 0.515770 0.046272
Si Si2 0.025665 0.587238 0.445116
Si Si3 0.163094 0.685178 0.601345
Si Si4 0.764136 0.130586 0.904979
Si Si5 0.798749 0.988714 0.424243
O O1 0.345997 0.583912 0.040113
O O2 0.298676 0.491066 0.321050
O O3 0.500000 0.500000 0.000000
O O4 0.278507 0.487803 0.824907
O O5 0.034541 0.646579 0.600894
O O6 0.100892 0.596381 0.158748
O O7 0.103093 0.540863 0.596600
O O8 0.880231 0.569238 0.425642
O O9 0.122574 0.750000 0.596814
O O10 0.258719 0.668471 0.347697
O O11 0.234840 0.672085 0.853095
#
# Coordination Sequence:
#
# PCOD8069016 Si02
#       5
#     4   4   4   4   4
#     4  11  20  32  47  71 100 132 159 193 235 284
#     4   8  19  29  49  71 101 119 158 184 252 290
#     4  10  18  30  47  72  98 122 154 200 246 283
#     4   9  18  31  45  71  99 118 159 197 236 291
#     4  10  19  30  49  69 102 130 147 196 239 293
#
# _framework density 15.487897
#
# number of rings (size 3 to 8) (size 9 to 14) (size 15 to 20)
#    1.200    1.200    2.000    1.200    2.800    2.400 
#    0.000    0.000    0.000    0.000    0.000    8.400 
#    0.000    0.000    0.000    0.000    0.000    0.000 
#
# Total GULP energy -247791.366069 kJ/mol
# GULP energy per Si atom -12389.568303 kJ/mol
# Density = 1.545265 g / cm^3
# Si number density = 15.487897 Si / 1000 Ang^3
#
#
#
# Elastic Constant Matrix: (Units=GPa)
#
#
# Indices 1 2 3 4 5 6 
#
# 1 56.7568 31.0180 9.3374 0.0000 -1.6411 0.0000
# 2 31.0180 106.9890 23.9237 0.0000 -1.9273 0.0000
# 3 9.3374 23.9237 85.9468 0.0000 7.8676 0.0000
# 4 0.0000 0.0000 0.0000 17.4844 0.0000 4.5422
# 5 -1.6411 -1.9273 7.8676 0.0000 19.4372 0.0000
# 6 0.0000 0.0000 0.0000 4.5422 0.0000 17.5362
#
#
#
# Elastic Compliance Matrix: (Units=1/GPa)
#
#
# Indices 1 2 3 4 5 6 
#
# 1 0.021010 -0.005889 -0.000781 0.000000 0.001506 0.000000
# 2 -0.005889 0.011709 -0.002783 0.000000 0.001790 0.000000
# 3 -0.000781 -0.002783 0.013008 0.000000 -0.005607 0.000000
# 4 0.000000 0.000000 0.000000 0.061320 0.000000 -0.015883
# 5 0.001506 0.001790 -0.005607 0.000000 0.054022 0.000000
# 6 0.000000 0.000000 0.000000 -0.015883 0.000000 0.061139
#
#
# Mechanical properties :
#
#
# Convention : Reuss Voigt Hill
#
# Bulk Modulus (GPa) = 37.28680 42.02786 39.65733
# Shear Modulus (GPa) = 19.99566 23.25246 21.62406
#
# Velocity S-wave (km/s) = 3.59702 3.87890 3.74062
# Velocity P-wave (km/s) = 6.43261 6.87430 6.65712
#
# Compressibility (1/GPa) = 0.02681914
#
# Stress axis : x y z
#
# Youngs Moduli (GPa) = 47.59727 85.40607 76.87593
#
# Poissons Ratio (x) = 0.50298 0.06005
# Poissons Ratio (y) = 0.28031 0.21397
# Poissons Ratio (z) = 0.03718 0.23771
#
# Static dielectric constant tensor:
#      x y z
#    x 2.641940 0.000000 0.027870 
#    y 0.000000 2.864060 0.000000 
#    z 0.027870 0.000000 3.039400 
# 
# 
# High freq. dielectric constant tensor:
#      x y z
#    x 1.547150 0.000000 0.008320 
#    y 0.000000 1.579730 0.000000 
#    z 0.008320 0.000000 1.611540 
# 
# From -- ./inp_files/2848.got.cif
#   From: 2010.06.25/outbox.cif.g09.slc.cpg/sg11_2_cif.got.tgz:2848.got - 2010.06.27 23:14:04.
