data_PCOD8069185
_publ_section_title
;
Structure prediction by ZEFSAII (Michael W. Deem and Ramdas Pophale) SiO2 
 PCOD8069185
Probable space group: P 21/M
;
_chemical_formula_sum "Si O2"
_cell_formula_units_Z 32
_cell_length_a 25.051408
_cell_length_b 9.049412
_cell_length_c 20.209976
_cell_angle_alpha 90.000000
_cell_angle_beta 22.827316
_cell_angle_gamma 90.000000
_cell_volume 1777.459452
_symmetry_space_group_name_H-M "P 21/M"
_symmetry_group_IT_number 11
_symmetry_cell_setting 'monoclinic'
loop_
_space_group_symop_operation_xyz
x,y,z
-x,1/2+y,-z
-x,-y,-z
x,1/2-y,z
loop_
_atom_site_type_symbol
_atom_site_label
_atom_site_fract_x
_atom_site_fract_y
_atom_site_fract_z
Si Si1 0.078725 0.576005 0.565915
Si Si2 0.680771 0.078816 0.471926
Si Si3 0.137062 0.422481 0.630409
Si Si4 0.862212 0.081096 0.642222
Si Si5 0.140720 0.578315 0.855827
Si Si6 0.168340 0.578553 0.972641
Si Si7 0.789290 0.424041 0.864331
Si Si8 0.364857 0.077863 0.849555
O O1 0.054131 0.750000 0.604837
O O2 0.157354 0.507595 0.538211
O O3 0.178716 0.545432 0.387273
O O4 0.931686 0.497452 0.725152
O O5 0.709792 0.250000 0.455376
O O6 0.743043 0.034353 0.329743
O O7 0.520030 0.043821 0.651384
O O8 0.746575 0.978737 0.453169
O O9 0.158309 0.250000 0.593581
O O10 0.988872 0.458298 0.830410
O O11 0.902412 0.250000 0.601744
O O12 0.756690 0.043513 0.823026
O O13 0.000000 0.000000 0.500000
O O14 0.106384 0.750000 0.893966
O O15 0.195002 0.532887 0.866245
O O16 0.000000 0.500000 0.000000
O O17 0.201757 0.750000 0.947929
O O18 0.266522 0.478548 0.904195
O O19 0.799244 0.250000 0.868019
O O20 0.665020 0.493929 0.047561
O O21 0.338112 0.250000 0.891136
#
# Coordination Sequence:
#
# PCOD8069185 Si02
#       8
#     4   4   4   4   4   4   4   4
#     4  10  18  30  51  79 109 141 177 222 268 316
#     4  10  23  40  57  79 109 143 182 225 270 322
#     4  11  21  34  55  83 111 141 180 224 270 321
#     4   8  16  28  45  73 106 138 175 217 266 314
#     4  10  20  37  59  81 107 138 176 223 271 320
#     4  10  21  36  56  82 110 139 176 223 270 320
#     4  10  18  31  51  76 108 144 179 221 267 316
#     4  11  23  37  54  80 111 146 184 221 267 323
#
# _framework density 18.003223999999999
#
# number of rings (size 3 to 8) (size 9 to 14) (size 15 to 20)
#    0.000    2.000    2.500    1.500    0.000    3.500 
#    0.000    0.000    0.000    0.750    0.000    0.000 
#    0.000    0.000    0.000    0.000    0.000    0.000 
#
# Total GULP energy -396663.596104 kJ/mol
# GULP energy per Si atom -12395.737378 kJ/mol
# Density = 1.796225 g / cm^3
# Si number density = 18.003224 Si / 1000 Ang^3
#
#
#
# Elastic Constant Matrix: (Units=GPa)
#
#
# Indices 1 2 3 4 5 6 
#
# 1 101.5336 47.4211 47.4717 0.0000 29.3228 0.0000
# 2 47.4211 80.3176 42.7189 0.0000 9.1641 0.0000
# 3 47.4717 42.7189 88.7749 0.0000 17.9116 0.0000
# 4 0.0000 0.0000 0.0000 21.9157 0.0000 1.1909
# 5 29.3228 9.1641 17.9116 0.0000 35.5291 0.0000
# 6 0.0000 0.0000 0.0000 1.1909 0.0000 29.9714
#
#
#
# Elastic Compliance Matrix: (Units=1/GPa)
#
#
# Indices 1 2 3 4 5 6 
#
# 1 0.018485 -0.007499 -0.003994 0.000000 -0.011308 0.000000
# 2 -0.007499 0.019778 -0.006375 0.000000 0.004302 0.000000
# 3 -0.003994 -0.006375 0.017223 0.000000 -0.003742 0.000000
# 4 0.000000 0.000000 0.000000 0.045728 0.000000 -0.001817
# 5 -0.011308 0.004302 -0.003742 0.000000 0.038255 0.000000
# 6 0.000000 0.000000 0.000000 -0.001817 0.000000 0.033437
#
#
# Mechanical properties :
#
#
# Convention : Reuss Voigt Hill
#
# Bulk Modulus (GPa) = 50.63643 60.64993 55.64318
# Shear Modulus (GPa) = 23.23133 26.35088 24.79111
#
# Velocity S-wave (km/s) = 3.59611 3.82995 3.71487
# Velocity P-wave (km/s) = 6.74018 7.30202 7.02672
#
# Compressibility (1/GPa) = 0.01974863
#
# Stress axis : x y z
#
# Youngs Moduli (GPa) = 54.09927 50.56098 58.06116
#
# Poissons Ratio (x) = 0.37915 0.23192
# Poissons Ratio (y) = 0.40568 0.37015
# Poissons Ratio (z) = 0.21610 0.32234
#
# Static dielectric constant tensor:
#      x y z
#    x 3.644630 0.000000 0.574790 
#    y 0.000000 3.374970 0.000000 
#    z 0.574790 0.000000 3.656790 
# 
# 
# High freq. dielectric constant tensor:
#      x y z
#    x 1.700900 0.000000 0.033140 
#    y 0.000000 1.706810 0.000000 
#    z 0.033140 0.000000 1.677150 
# 
# From -- ./inp_files/67093.got.cif
#   From: 2010.06.25/outbox.cif.g09.slc.cpg/sg11_34_cif.got.tgz:67093.got - 2010.06.27 23:14:04.
