data_PCOD8070876
_publ_section_title
;
Structure prediction by ZEFSAII (Michael W. Deem and Ramdas Pophale) SiO2 
 PCOD8070876
Probable space group: P 21/M
;
_chemical_formula_sum "Si O2"
_cell_formula_units_Z 32
_cell_length_a 15.252611
_cell_length_b 9.331910
_cell_length_c 19.028754
_cell_angle_alpha 90.000000
_cell_angle_beta 38.353731
_cell_angle_gamma 90.000000
_cell_volume 1680.649568
_symmetry_space_group_name_H-M "P 21/M"
_symmetry_group_IT_number 11
_symmetry_cell_setting 'monoclinic'
loop_
_space_group_symop_operation_xyz
x,y,z
-x,1/2+y,-z
-x,-y,-z
x,1/2-y,z
loop_
_atom_site_type_symbol
_atom_site_label
_atom_site_fract_x
_atom_site_fract_y
_atom_site_fract_z
Si Si1 0.231771 0.420691 0.833261
Si Si2 0.495172 0.419797 0.928149
Si Si3 0.052677 0.918851 0.563868
Si Si4 0.514386 0.588641 0.421556
Si Si5 0.797460 0.086846 0.396681
Si Si6 0.749858 0.584642 0.020706
Si Si7 0.204909 0.916038 0.326902
Si Si8 0.930799 0.083288 0.174512
O O1 0.206569 0.250000 0.849799
O O2 0.369346 0.471866 0.704205
O O3 0.258106 0.480240 0.895312
O O4 0.097695 0.495319 0.879338
O O5 0.482286 0.250000 0.950900
O O6 0.361862 0.479887 0.965638
O O7 0.634761 0.455786 0.794434
O O8 0.500000 0.500000 0.000000
O O9 0.028476 0.750000 0.582986
O O10 0.113971 0.985996 0.597060
O O11 0.167085 0.955217 0.431289
O O12 0.901017 0.991609 0.653167
O O13 0.500000 0.500000 0.500000
O O14 0.552449 0.750000 0.419249
O O15 0.364222 0.578466 0.477313
O O16 0.848750 0.250000 0.356977
O O17 0.828133 0.019712 0.300313
O O18 0.709219 0.750000 0.052120
O O19 0.910865 0.559622 0.895199
O O20 0.175452 0.750000 0.330447
O O21 0.904500 0.250000 0.173202
#
# Coordination Sequence:
#
# PCOD8070876 Si02
#       8
#     4   4   4   4   4   4   4   4
#     4  10  20  34  54  79 105 136 174 218 263 308
#     4  10  22  39  58  79 107 141 179 224 270 318
#     4   9  18  33  56  80 104 138 176 213 257 318
#     4  10  19  32  50  73 103 134 168 207 252 303
#     4   9  18  30  50  77 101 133 175 211 247 303
#     4   9  20  36  56  79 103 138 180 217 258 310
#     4   9  19  35  54  79 108 135 169 219 273 312
#     4  10  19  34  54  76 106 141 177 215 255 304
#
# _framework density 19.040258000000001
#
# number of rings (size 3 to 8) (size 9 to 14) (size 15 to 20)
#    0.000    2.500    1.250    0.375    3.500    0.500 
#    0.000    2.500    0.000    0.000    0.000    0.000 
#    0.000    0.000    0.000    0.000    0.000    0.000 
#
# Total GULP energy -396560.791021 kJ/mol
# GULP energy per Si atom -12392.524719 kJ/mol
# Density = 1.899692 g / cm^3
# Si number density = 19.040258 Si / 1000 Ang^3
#
#
#
# Elastic Constant Matrix: (Units=GPa)
#
#
# Indices 1 2 3 4 5 6 
#
# 1 151.3288 33.3476 38.2017 0.0000 0.9398 0.0000
# 2 33.3476 30.8108 18.9863 0.0000 -1.0056 0.0000
# 3 38.2017 18.9863 87.1253 0.0000 -6.6613 0.0000
# 4 0.0000 0.0000 0.0000 22.0471 0.0000 0.6607
# 5 0.9398 -1.0056 -6.6613 0.0000 26.6791 0.0000
# 6 0.0000 0.0000 0.0000 0.6607 0.0000 26.2640
#
#
#
# Elastic Compliance Matrix: (Units=1/GPa)
#
#
# Indices 1 2 3 4 5 6 
#
# 1 0.009037 -0.008458 -0.002210 0.000000 -0.001189 0.000000
# 2 -0.008458 0.045417 -0.006152 0.000000 0.000474 0.000000
# 3 -0.002210 -0.006152 0.014044 0.000000 0.003352 0.000000
# 4 0.000000 0.000000 0.000000 0.045392 0.000000 -0.001142
# 5 -0.001189 0.000474 0.003352 0.000000 0.038379 0.000000
# 6 0.000000 0.000000 0.000000 -0.001142 0.000000 0.038104
#
#
# Mechanical properties :
#
#
# Convention : Reuss Voigt Hill
#
# Bulk Modulus (GPa) = 28.68880 50.03734 39.36307
# Shear Modulus (GPa) = 21.21933 26.91334 24.06633
#
# Velocity S-wave (km/s) = 3.34195 3.76373 3.55909
# Velocity P-wave (km/s) = 5.47647 6.72490 6.13254
#
# Compressibility (1/GPa) = 0.03485680
#
# Stress axis : x y z
#
# Youngs Moduli (GPa) = 110.65146 22.01796 71.20513
#
# Poissons Ratio (x) = 0.18623 0.15739
# Poissons Ratio (y) = 0.93592 0.43809
# Poissons Ratio (z) = 0.24457 0.13546
#
# Static dielectric constant tensor:
#      x y z
#    x 3.773860 0.000000 -0.027570 
#    y 0.000000 3.166350 0.000000 
#    z -0.027570 0.000000 3.781840 
# 
# 
# High freq. dielectric constant tensor:
#      x y z
#    x 1.746120 0.000000 -0.000670 
#    y 0.000000 1.699140 0.000000 
#    z -0.000670 0.000000 1.754210 
# 
# From -- ./inp_files/65198.got.cif
#   From: 2010.06.25/outbox.cif.g09.slc.cpg/sg11_33_cif.got.tgz:65198.got - 2010.06.27 23:14:04.
