data_PCOD8070725
_publ_section_title
;
Structure prediction by ZEFSAII (Michael W. Deem and Ramdas Pophale) SiO2 
 PCOD8070725
Probable space group: P 21/M
;
_chemical_formula_sum "Si O2"
_cell_formula_units_Z 24
_cell_length_a 11.698543
_cell_length_b 10.209498
_cell_length_c 21.463363
_cell_angle_alpha 90.000000
_cell_angle_beta 151.201180
_cell_angle_gamma 90.000000
_cell_volume 1234.931022
_symmetry_space_group_name_H-M "P 21/M"
_symmetry_group_IT_number 11
_symmetry_cell_setting 'monoclinic'
loop_
_space_group_symop_operation_xyz
x,y,z
-x,1/2+y,-z
-x,-y,-z
x,1/2-y,z
loop_
_atom_site_type_symbol
_atom_site_label
_atom_site_fract_x
_atom_site_fract_y
_atom_site_fract_z
Si Si1 0.109065 0.101511 0.137779
Si Si2 0.509921 0.891770 0.919583
Si Si3 0.043009 0.604015 0.209619
Si Si4 0.877165 0.899845 0.256494
Si Si5 0.628190 0.493768 0.851386
Si Si6 0.881944 0.603704 0.398480
O O1 0.145812 0.250000 0.178452
O O2 0.305711 0.066746 0.180630
O O3 0.155476 0.005036 0.218574
O O4 0.848563 0.089890 0.983260
O O5 0.392317 0.750000 0.877206
O O6 0.344120 0.006974 0.864989
O O7 0.555486 0.897901 0.867102
O O8 0.759412 0.902689 0.072994
O O9 0.133474 0.750000 0.232852
O O10 0.087460 0.577941 0.305203
O O11 0.784743 0.750000 0.209559
O O12 0.971944 0.929877 0.371311
O O13 0.403862 0.399650 0.733010
O O14 0.963654 0.750000 0.456341
O O15 0.000000 0.500000 0.500000
#
# Coordination Sequence:
#
# PCOD8070725 Si02
#       6
#     4   4   4   4   4   4
#     4  10  19  31  52  79 106 136 169 204 243 298
#     4   9  16  26  44  70  97 128 164 202 243 291
#     4   9  18  30  44  67 101 135 163 195 245 303
#     4   9  18  32  47  66  96 131 163 201 251 302
#     4   9  19  33  50  74 107 137 165 203 254 301
#     4  10  21  36  55  76  99 131 171 213 255 297
#
# _framework density 19.434284000000002
#
# number of rings (size 3 to 8) (size 9 to 14) (size 15 to 20)
#    0.000    2.667    0.000    1.500    0.000   12.667 
#    0.000    0.000    0.000    1.000    0.000    0.000 
#    0.000    0.000    0.000    0.000    0.000    0.000 
#
# Total GULP energy -297427.788503 kJ/mol
# GULP energy per Si atom -12392.824521 kJ/mol
# Density = 1.939005 g / cm^3
# Si number density = 19.434284 Si / 1000 Ang^3
#
#
#
# Elastic Constant Matrix: (Units=GPa)
#
#
# Indices 1 2 3 4 5 6 
#
# 1 130.9206 58.7146 18.7593 0.0000 -12.1061 0.0000
# 2 58.7146 125.2385 10.4193 0.0000 -12.7645 0.0000
# 3 18.7593 10.4193 29.4290 0.0000 -10.1742 0.0000
# 4 0.0000 0.0000 0.0000 19.0206 0.0000 -1.3433
# 5 -12.1061 -12.7645 -10.1742 0.0000 18.2533 0.0000
# 6 0.0000 0.0000 0.0000 -1.3433 0.0000 26.4713
#
#
#
# Elastic Compliance Matrix: (Units=1/GPa)
#
#
# Indices 1 2 3 4 5 6 
#
# 1 0.010368 -0.004347 -0.004637 0.000000 0.001252 0.000000
# 2 -0.004347 0.010455 0.000744 0.000000 0.004842 0.000000
# 3 -0.004637 0.000744 0.044332 0.000000 0.022155 0.000000
# 4 0.000000 0.000000 0.000000 0.052764 0.000000 0.002677
# 5 0.001252 0.004842 0.022155 0.000000 0.071350 0.000000
# 6 0.000000 0.000000 0.000000 0.002677 0.000000 0.037913
#
#
# Mechanical properties :
#
#
# Convention : Reuss Voigt Hill
#
# Bulk Modulus (GPa) = 20.54520 51.26384 35.90452
# Shear Modulus (GPa) = 19.23914 25.92870 22.58392
#
# Velocity S-wave (km/s) = 3.14977 3.65660 3.41261
# Velocity P-wave (km/s) = 4.88085 6.65304 5.83462
#
# Compressibility (1/GPa) = 0.04867317
#
# Stress axis : x y z
#
# Youngs Moduli (GPa) = 96.44960 95.65186 22.55705
#
# Poissons Ratio (x) = 0.41584 0.10460
# Poissons Ratio (y) = 0.41931 -0.01678
# Poissons Ratio (z) = 0.44725 -0.07115
#
# Static dielectric constant tensor:
#      x y z
#    x 3.794870 0.000000 -0.218110 
#    y 0.000000 3.578910 0.000000 
#    z -0.218110 0.000000 3.060800 
# 
# 
# High freq. dielectric constant tensor:
#      x y z
#    x 1.770620 0.000000 -0.018350 
#    y 0.000000 1.762600 0.000000 
#    z -0.018350 0.000000 1.694340 
# 
# From -- ./inp_files/34186.got.cif
#   From: 2010.06.25/outbox.cif.g09.slc.cpg/sg11_18_cif.got.tgz:34186.got - 2010.06.27 23:14:04.
