data_PCOD8070203
_publ_section_title
;
Structure prediction by ZEFSAII (Michael W. Deem and Ramdas Pophale) SiO2 
 PCOD8070203
Probable space group: P 21/M
;
_chemical_formula_sum "Si O2"
_cell_formula_units_Z 28
_cell_length_a 10.832746
_cell_length_b 9.224199
_cell_length_c 14.533797
_cell_angle_alpha 90.000000
_cell_angle_beta 101.798514
_cell_angle_gamma 90.000000
_cell_volume 1421.584000
_symmetry_space_group_name_H-M "P 21/M"
_symmetry_group_IT_number 11
_symmetry_cell_setting 'monoclinic'
loop_
_space_group_symop_operation_xyz
x,y,z
-x,1/2+y,-z
-x,-y,-z
x,1/2-y,z
loop_
_atom_site_type_symbol
_atom_site_label
_atom_site_fract_x
_atom_site_fract_y
_atom_site_fract_z
Si Si1 0.911943 0.913883 0.054176
Si Si2 0.503222 0.916284 0.095504
Si Si3 0.470106 0.577364 0.401077
Si Si4 0.720621 0.914638 0.874177
Si Si5 0.201410 0.580870 0.280128
Si Si6 0.671978 0.583893 0.286381
Si Si7 0.072950 0.079807 0.739352
O O1 0.963624 0.750000 0.068315
O O2 0.908881 0.984818 0.154919
O O3 0.773564 0.916818 0.986438
O O4 0.000000 0.000000 0.000000
O O5 0.469813 0.750000 0.069913
O O6 0.632126 0.931028 0.172788
O O7 0.402110 0.985446 0.149223
O O8 0.500000 0.000000 0.000000
O O9 0.500000 0.500000 0.500000
O O10 0.478351 0.750000 0.413128
O O11 0.326754 0.531680 0.353045
O O12 0.571596 0.513489 0.342231
O O13 0.689453 0.750000 0.839908
O O14 0.815814 0.986746 0.815272
O O15 0.209119 0.750000 0.255054
O O16 0.070836 0.549671 0.317699
O O17 0.674472 0.750000 0.317040
O O18 0.815612 0.516443 0.310887
O O19 0.100345 0.250000 0.749153
#
# Coordination Sequence:
#
# PCOD8070203 Si02
#       7
#     4   4   4   4   4   4   4
#     4  10  19  30  47  74 110 151 194 232 270 324
#     4  11  21  35  54  78 114 154 196 237 280 334
#     4  10  21  39  62  86 109 141 186 236 293 350
#     4  11  21  32  50  79 113 149 194 238 280 327
#     4  10  19  35  58  82 107 142 187 229 279 344
#     4   9  18  35  57  81 112 147 186 232 282 341
#     4   9  17  31  54  79 108 148 189 228 274 329
#
# _framework density 19.696338999999998
#
# number of rings (size 3 to 8) (size 9 to 14) (size 15 to 20)
#    0.000    2.000    2.857    1.714    0.000    3.429 
#    0.000    0.714    0.000    2.571    0.000    0.000 
#    0.000    0.000    0.000    0.000    0.000    0.000 
#
# Total GULP energy -346891.903169 kJ/mol
# GULP energy per Si atom -12388.996542 kJ/mol
# Density = 1.965151 g / cm^3
# Si number density = 19.696339 Si / 1000 Ang^3
#
#
#
# Elastic Constant Matrix: (Units=GPa)
#
#
# Indices 1 2 3 4 5 6 
#
# 1 175.9959 29.6427 55.3911 0.0000 2.9212 0.0000
# 2 29.6427 59.9260 18.0215 0.0000 -0.3933 0.0000
# 3 55.3911 18.0215 92.5096 0.0000 -0.3374 0.0000
# 4 0.0000 0.0000 0.0000 27.2652 0.0000 -2.5138
# 5 2.9212 -0.3933 -0.3374 0.0000 23.6210 0.0000
# 6 0.0000 0.0000 0.0000 -2.5138 0.0000 16.0625
#
#
#
# Elastic Compliance Matrix: (Units=1/GPa)
#
#
# Indices 1 2 3 4 5 6 
#
# 1 0.007348 -0.002461 -0.003924 0.000000 -0.001006 0.000000
# 2 -0.002461 0.018552 -0.002138 0.000000 0.000583 0.000000
# 3 -0.003924 -0.002138 0.013578 0.000000 0.000644 0.000000
# 4 0.000000 0.000000 0.000000 0.037214 0.000000 0.005824
# 5 -0.001006 0.000583 0.000644 0.000000 0.042479 0.000000
# 6 0.000000 0.000000 0.000000 0.005824 0.000000 0.063168
#
#
# Mechanical properties :
#
#
# Convention : Reuss Voigt Hill
#
# Bulk Modulus (GPa) = 44.58118 59.39357 51.98738
# Shear Modulus (GPa) = 24.17069 28.41483 26.29276
#
# Velocity S-wave (km/s) = 3.50689 3.80234 3.65760
# Velocity P-wave (km/s) = 6.25149 7.03542 6.65501
#
# Compressibility (1/GPa) = 0.02243099
#
# Stress axis : x y z
#
# Youngs Moduli (GPa) = 136.08770 53.90373 73.64814
#
# Poissons Ratio (x) = 0.13268 0.28899
# Poissons Ratio (y) = 0.33496 0.15747
# Poissons Ratio (z) = 0.53401 0.11525
#
# Static dielectric constant tensor:
#      x y z
#    x 4.166610 0.000000 0.047230 
#    y 0.000000 3.337590 0.000000 
#    z 0.047230 0.000000 3.346360 
# 
# 
# High freq. dielectric constant tensor:
#      x y z
#    x 1.789250 0.000000 0.005140 
#    y 0.000000 1.731070 0.000000 
#    z 0.005140 0.000000 1.736940 
# 
# From -- ./inp_files/49025.got.cif
#   From: 2010.06.25/outbox.cif.g09.slc.cpg/sg11_25_cif.got.tgz:49025.got - 2010.06.27 23:14:04.
