data_PCOD8070709
_publ_section_title
;
Structure prediction by ZEFSAII (Michael W. Deem and Ramdas Pophale) SiO2 
 PCOD8070709
Probable space group: P 21/M
;
_chemical_formula_sum "Si O2"
_cell_formula_units_Z 32
_cell_length_a 29.991254
_cell_length_b 9.158074
_cell_length_c 12.826897
_cell_angle_alpha 90.000000
_cell_angle_beta 152.684959
_cell_angle_gamma 90.000000
_cell_volume 1616.672957
_symmetry_space_group_name_H-M "P 21/M"
_symmetry_group_IT_number 11
_symmetry_cell_setting 'monoclinic'
loop_
_space_group_symop_operation_xyz
x,y,z
-x,1/2+y,-z
-x,-y,-z
x,1/2-y,z
loop_
_atom_site_type_symbol
_atom_site_label
_atom_site_fract_x
_atom_site_fract_y
_atom_site_fract_z
Si Si1 0.181667 0.919071 0.402974
Si Si2 0.400776 0.077997 0.327015
Si Si3 0.070215 0.920970 0.381854
Si Si4 0.344237 0.088669 0.841641
Si Si5 0.765936 0.587640 0.172779
Si Si6 0.874076 0.421865 0.944934
Si Si7 0.485544 0.082366 0.862727
Si Si8 0.691144 0.583026 0.645632
O O1 0.211468 0.750000 0.467510
O O2 0.107693 0.956057 0.343004
O O3 0.133895 0.962468 0.193836
O O4 0.279306 0.012704 0.617678
O O5 0.417025 0.250000 0.344847
O O6 0.372668 0.037857 0.386759
O O7 0.500000 0.000000 0.500000
O O8 0.309937 0.022948 0.068414
O O9 0.056678 0.750000 0.371590
O O10 0.142761 0.980245 0.622324
O O11 0.968560 0.000912 0.187324
O O12 0.372341 0.250000 0.858259
O O13 0.287289 0.100549 0.829011
O O14 0.440062 0.993358 0.063317
O O15 0.801608 0.750000 0.212766
O O16 0.883371 0.250000 0.980805
O O17 0.782861 0.478317 0.822042
O O18 0.514733 0.250000 0.935183
O O19 0.376436 0.063768 0.595708
O O20 0.500000 0.000000 0.000000
O O21 0.727288 0.750000 0.731880
#
# Coordination Sequence:
#
# PCOD8070709 Si02
#       8
#     4   4   4   4   4   4   4   4
#     4   9  19  34  53  80 112 148 187 224 267 321
#     4  10  21  39  63  87 112 142 178 225 277 328
#     4  10  20  35  57  83 112 146 184 227 273 323
#     4  10  19  31  51  79 109 140 175 219 270 323
#     4   9  19  36  57  82 110 139 176 223 272 322
#     4  11  22  36  55  79 110 147 186 229 274 323
#     4  11  22  35  52  75 107 145 182 220 264 319
#     4  10  23  40  56  79 110 145 185 227 273 325
#
# _framework density 19.793738999999999
#
# number of rings (size 3 to 8) (size 9 to 14) (size 15 to 20)
#    0.000    2.000    0.000    3.375    0.000    6.000 
#    0.000    0.625    0.000    0.000    0.000    0.000 
#    0.000    0.000    0.000    0.000    0.000    0.000 
#
# Total GULP energy -396828.708991 kJ/mol
# GULP energy per Si atom -12400.897156 kJ/mol
# Density = 1.974869 g / cm^3
# Si number density = 19.793739 Si / 1000 Ang^3
#
#
#
# Elastic Constant Matrix: (Units=GPa)
#
#
# Indices 1 2 3 4 5 6 
#
# 1 70.5009 43.0379 49.4650 0.0000 7.4836 0.0000
# 2 43.0379 113.0520 67.6436 0.0000 14.5972 0.0000
# 3 49.4650 67.6436 129.3838 0.0000 6.5476 0.0000
# 4 0.0000 0.0000 0.0000 35.4614 0.0000 7.9327
# 5 7.4836 14.5972 6.5476 0.0000 32.4814 0.0000
# 6 0.0000 0.0000 0.0000 7.9327 0.0000 29.8494
#
#
#
# Elastic Compliance Matrix: (Units=1/GPa)
#
#
# Indices 1 2 3 4 5 6 
#
# 1 0.021015 -0.004398 -0.005647 0.000000 -0.001727 0.000000
# 2 -0.004398 0.014470 -0.005664 0.000000 -0.004348 0.000000
# 3 -0.005647 -0.005664 0.012785 0.000000 0.001269 0.000000
# 4 0.000000 0.000000 0.000000 0.029982 0.000000 -0.007968
# 5 -0.001727 -0.004348 0.001269 0.000000 0.032883 0.000000
# 6 0.000000 0.000000 0.000000 -0.007968 0.000000 0.035619
#
#
# Mechanical properties :
#
#
# Convention : Reuss Voigt Hill
#
# Bulk Modulus (GPa) = 59.34281 70.35887 64.85084
# Shear Modulus (GPa) = 27.20516 29.74447 28.47481
#
# Velocity S-wave (km/s) = 3.71136 3.88070 3.79697
# Velocity P-wave (km/s) = 6.95782 7.46344 7.21506
#
# Compressibility (1/GPa) = 0.01685124
#
# Stress axis : x y z
#
# Youngs Moduli (GPa) = 47.58574 69.10866 78.21781
#
# Poissons Ratio (x) = 0.30394 0.44173
# Poissons Ratio (y) = 0.20929 0.44300
# Poissons Ratio (z) = 0.26874 0.39141
#
# Static dielectric constant tensor:
#      x y z
#    x 3.550580 0.000000 0.097520 
#    y 0.000000 3.886890 0.000000 
#    z 0.097520 0.000000 3.826270 
# 
# 
# High freq. dielectric constant tensor:
#      x y z
#    x 1.757760 0.000000 0.004550 
#    y 0.000000 1.775630 0.000000 
#    z 0.004550 0.000000 1.775420 
# 
# From -- ./inp_files/45354.got.cif
#   From: 2010.06.25/outbox.cif.g09.slc.cpg/sg11_23_cif.got.tgz:45354.got - 2010.06.27 23:14:04.
