data_PCOD8070539
_publ_section_title
;
Structure prediction by ZEFSAII (Michael W. Deem and Ramdas Pophale) SiO2 
 PCOD8070539
Probable space group: P 21/M
;
_chemical_formula_sum "Si O2"
_cell_formula_units_Z 28
_cell_length_a 15.076146
_cell_length_b 8.906010
_cell_length_c 16.743800
_cell_angle_alpha 90.000000
_cell_angle_beta 46.012789
_cell_angle_gamma 90.000000
_cell_volume 1617.540722
_symmetry_space_group_name_H-M "P 21/M"
_symmetry_group_IT_number 11
_symmetry_cell_setting 'monoclinic'
loop_
_space_group_symop_operation_xyz
x,y,z
-x,1/2+y,-z
-x,-y,-z
x,1/2-y,z
loop_
_atom_site_type_symbol
_atom_site_label
_atom_site_fract_x
_atom_site_fract_y
_atom_site_fract_z
Si Si1 0.112789 0.924869 0.974092
Si Si2 0.035143 0.922351 0.364404
Si Si3 0.251060 0.926015 0.629645
Si Si4 0.350627 0.927495 0.736944
Si Si5 0.621389 0.572118 0.600137
Si Si6 0.995390 0.421758 0.793832
Si Si7 0.810272 0.424492 0.584872
O O1 0.106723 0.750000 0.957125
O O2 0.241912 0.993312 0.861255
O O3 0.103860 0.955033 0.074669
O O4 0.000000 0.000000 0.000000
O O5 0.995437 0.750000 0.405064
O O6 0.071637 0.949462 0.249394
O O7 0.152055 0.962803 0.347274
O O8 0.919676 0.026745 0.457201
O O9 0.261870 0.750000 0.605155
O O10 0.328737 0.973944 0.658900
O O11 0.301332 0.017799 0.523832
O O12 0.109470 0.967162 0.733913
O O13 0.352410 0.750000 0.743994
O O14 0.482327 0.992739 0.682776
O O15 0.622392 0.750000 0.600340
O O16 0.685108 0.512036 0.641232
O O17 0.043176 0.250000 0.769657
O O18 0.785697 0.250000 0.587125
#
# Coordination Sequence:
#
# PCOD8070539 Si02
#       7
#     4   4   4   4   4   4   4
#     4  10  19  34  53  74  99 130 169 206 246 290
#     4   9  18  32  49  73 102 129 161 202 253 303
#     4  11  20  32  50  74 103 132 164 205 250 294
#     4   9  20  35  50  70 101 137 170 205 244 293
#     4  11  21  34  50  70 101 138 171 203 245 299
#     4  10  19  31  52  77 101 130 162 201 248 302
#     4  10  19  31  49  73 100 130 163 205 253 298
#
# _framework density 17.310229
#
# number of rings (size 3 to 8) (size 9 to 14) (size 15 to 20)
#    0.000    2.000    2.857    1.714    0.000    0.571 
#    0.000    3.571    0.000    0.857    0.000    0.000 
#    0.000    0.000    0.000    0.000    0.000    0.571 
#
# Total GULP energy -347178.966682 kJ/mol
# GULP energy per Si atom -12399.248810 kJ/mol
# Density = 1.727083 g / cm^3
# Si number density = 17.310229 Si / 1000 Ang^3
#
#
#
# Elastic Constant Matrix: (Units=GPa)
#
#
# Indices 1 2 3 4 5 6 
#
# 1 139.5522 36.3046 45.9227 0.0000 -1.6039 0.0000
# 2 36.3046 51.2260 20.9425 0.0000 -1.3108 0.0000
# 3 45.9227 20.9425 67.5855 0.0000 -2.5658 0.0000
# 4 0.0000 0.0000 0.0000 14.2294 0.0000 -1.8311
# 5 -1.6039 -1.3108 -2.5658 0.0000 28.4712 0.0000
# 6 0.0000 0.0000 0.0000 -1.8311 0.0000 26.0694
#
#
#
# Elastic Compliance Matrix: (Units=1/GPa)
#
#
# Indices 1 2 3 4 5 6 
#
# 1 0.010262 -0.005065 -0.005408 0.000000 -0.000143 0.000000
# 2 -0.005065 0.024858 -0.004243 0.000000 0.000477 0.000000
# 3 -0.005408 -0.004243 0.019835 0.000000 0.001287 0.000000
# 4 0.000000 0.000000 0.000000 0.070918 0.000000 0.004981
# 5 -0.000143 0.000477 0.001287 0.000000 0.035253 0.000000
# 6 0.000000 0.000000 0.000000 0.004981 0.000000 0.038709
#
#
# Mechanical properties :
#
#
# Convention : Reuss Voigt Hill
#
# Bulk Modulus (GPa) = 39.18313 51.63370 45.40841
# Shear Modulus (GPa) = 21.02839 24.10028 22.56433
#
# Velocity S-wave (km/s) = 3.48917 3.73534 3.61435
# Velocity P-wave (km/s) = 6.23838 6.96397 6.61114
#
# Compressibility (1/GPa) = 0.02552119
#
# Stress axis : x y z
#
# Youngs Moduli (GPa) = 97.45094 40.22876 50.41707
#
# Poissons Ratio (x) = 0.20376 0.27268
# Poissons Ratio (y) = 0.49360 0.21391
# Poissons Ratio (z) = 0.52705 0.17069
#
# Static dielectric constant tensor:
#      x y z
#    x 3.563310 0.000000 0.036730 
#    y 0.000000 3.176310 0.000000 
#    z 0.036730 0.000000 3.311780 
# 
# 
# High freq. dielectric constant tensor:
#      x y z
#    x 1.675010 0.000000 0.009290 
#    y 0.000000 1.662180 0.000000 
#    z 0.009290 0.000000 1.645040 
# 
# From -- ./inp_files/37700.got.cif
#   From: 2010.06.25/outbox.cif.g09.slc.cpg/sg11_19_cif.got.tgz:37700.got - 2010.06.27 23:14:04.
