data_PCOD8070296
_publ_section_title
;
Structure prediction by ZEFSAII (Michael W. Deem and Ramdas Pophale) SiO2 
 PCOD8070296
Probable space group: P 21/M
;
_chemical_formula_sum "Si O2"
_cell_formula_units_Z 32
_cell_length_a 26.684632
_cell_length_b 9.019788
_cell_length_c 20.818399
_cell_angle_alpha 90.000000
_cell_angle_beta 19.935556
_cell_angle_gamma 90.000000
_cell_volume 1708.488766
_symmetry_space_group_name_H-M "P 21/M"
_symmetry_group_IT_number 11
_symmetry_cell_setting 'monoclinic'
loop_
_space_group_symop_operation_xyz
x,y,z
-x,1/2+y,-z
-x,-y,-z
x,1/2-y,z
loop_
_atom_site_type_symbol
_atom_site_label
_atom_site_fract_x
_atom_site_fract_y
_atom_site_fract_z
Si Si1 0.293328 0.424732 0.909527
Si Si2 0.283226 0.924075 0.281367
Si Si3 0.487374 0.922136 0.242350
Si Si4 0.354146 0.924578 0.701835
Si Si5 0.464453 0.923002 0.943512
Si Si6 0.049540 0.923372 0.005313
Si Si7 0.153801 0.580100 0.649287
Si Si8 0.015870 0.918985 0.677944
O O1 0.277348 0.250000 0.912804
O O2 0.427482 0.457266 0.794979
O O3 0.318900 0.512066 0.813800
O O4 0.144790 0.492494 0.121119
O O5 0.296599 0.750000 0.281556
O O6 0.117455 0.982264 0.497246
O O7 0.392779 0.006731 0.196814
O O8 0.322629 0.956291 0.159648
O O9 0.492717 0.750000 0.217829
O O10 0.321079 0.975065 0.454388
O O11 0.565247 0.008746 0.090417
O O12 0.380349 0.750000 0.675512
O O13 0.219397 0.961115 0.816199
O O14 0.500000 0.000000 0.500000
O O15 0.492621 0.750000 0.902357
O O16 0.026584 0.750000 0.024569
O O17 0.000000 0.000000 0.000000
O O18 0.948583 0.977300 0.184869
O O19 0.136974 0.750000 0.692738
O O20 0.109254 0.560946 0.629668
O O21 0.982699 0.750000 0.702010
#
# Coordination Sequence:
#
# PCOD8070296 Si02
#       8
#     4   4   4   4   4   4   4   4
#     4  10  21  38  60  83 109 146 189 231 276 334
#     4   9  17  32  53  78 109 146 186 228 279 333
#     4  10  21  36  55  80 113 148 184 228 279 335
#     4  11  25  43  62  85 116 152 188 230 280 338
#     4  10  19  30  50  80 112 144 184 233 279 327
#     4  11  25  42  61  88 119 149 185 233 282 335
#     4  10  19  35  59  82 109 146 186 232 279 328
#     4   9  16  32  58  81 103 142 187 225 272 328
#
# _framework density 18.730003
#
# number of rings (size 3 to 8) (size 9 to 14) (size 15 to 20)
#    0.000    2.000    2.500    1.125    1.750    3.000 
#    0.000    1.250    0.000    0.000    0.000    0.000 
#    0.000    0.000    0.000    0.000    0.000    0.000 
#
# Total GULP energy -396741.235667 kJ/mol
# GULP energy per Si atom -12398.163615 kJ/mol
# Density = 1.868737 g / cm^3
# Si number density = 18.730003 Si / 1000 Ang^3
#
#
#
# Elastic Constant Matrix: (Units=GPa)
#
#
# Indices 1 2 3 4 5 6 
#
# 1 65.3270 45.7646 46.1391 0.0000 -2.5595 0.0000
# 2 45.7646 70.2045 50.7091 0.0000 4.5708 0.0000
# 3 46.1391 50.7091 163.2662 0.0000 1.4807 0.0000
# 4 0.0000 0.0000 0.0000 27.2962 0.0000 6.3193
# 5 -2.5595 4.5708 1.4807 0.0000 31.8224 0.0000
# 6 0.0000 0.0000 0.0000 6.3193 0.0000 27.7735
#
#
#
# Elastic Compliance Matrix: (Units=1/GPa)
#
#
# Indices 1 2 3 4 5 6 
#
# 1 0.030090 -0.017755 -0.003035 0.000000 0.005112 0.000000
# 2 -0.017755 0.029022 -0.003947 0.000000 -0.005413 0.000000
# 3 -0.003035 -0.003947 0.008209 0.000000 -0.000059 0.000000
# 4 0.000000 0.000000 0.000000 0.038672 0.000000 -0.008799
# 5 0.005112 -0.005413 -0.000059 0.000000 0.032616 0.000000
# 6 0.000000 0.000000 0.000000 -0.008799 0.000000 0.038008
#
#
# Mechanical properties :
#
#
# Convention : Reuss Voigt Hill
#
# Bulk Modulus (GPa) = 56.03610 64.89147 60.46378
# Shear Modulus (GPa) = 21.54793 27.79075 24.66934
#
# Velocity S-wave (km/s) = 3.39551 3.85613 3.63313
# Velocity P-wave (km/s) = 6.73464 7.38561 7.06763
#
# Compressibility (1/GPa) = 0.01784564
#
# Stress axis : x y z
#
# Youngs Moduli (GPa) = 33.23358 34.45666 121.81474
#
# Poissons Ratio (x) = 0.61179 0.36972
# Poissons Ratio (y) = 0.59008 0.48082
# Poissons Ratio (z) = 0.10087 0.13601
#
# Static dielectric constant tensor:
#      x y z
#    x 3.487860 0.000000 0.110830 
#    y 0.000000 3.380050 0.000000 
#    z 0.110830 0.000000 3.905150 
# 
# 
# High freq. dielectric constant tensor:
#      x y z
#    x 1.718110 0.000000 0.008840 
#    y 0.000000 1.712620 0.000000 
#    z 0.008840 0.000000 1.745040 
# 
# From -- ./inp_files/66932.got.cif
#   From: 2010.06.25/outbox.cif.g09.slc.cpg/sg11_34_cif.got.tgz:66932.got - 2010.06.27 23:14:04.
