data_PCOD8070293
_publ_section_title
;
Structure prediction by ZEFSAII (Michael W. Deem and Ramdas Pophale) SiO2 
 PCOD8070293
Probable space group: P 21/M
;
_chemical_formula_sum "Si O2"
_cell_formula_units_Z 32
_cell_length_a 20.949415
_cell_length_b 9.108594
_cell_length_c 12.329289
_cell_angle_alpha 90.000000
_cell_angle_beta 134.073082
_cell_angle_gamma 90.000000
_cell_volume 1690.284227
_symmetry_space_group_name_H-M "P 21/M"
_symmetry_group_IT_number 11
_symmetry_cell_setting 'monoclinic'
loop_
_space_group_symop_operation_xyz
x,y,z
-x,1/2+y,-z
-x,-y,-z
x,1/2-y,z
loop_
_atom_site_type_symbol
_atom_site_label
_atom_site_fract_x
_atom_site_fract_y
_atom_site_fract_z
Si Si1 0.442533 0.418391 0.019297
Si Si2 0.668849 0.086113 0.814303
Si Si3 0.962299 0.076092 0.130691
Si Si4 0.486921 0.083689 0.697530
Si Si5 0.262658 0.418073 0.900848
Si Si6 0.119323 0.417209 0.161304
Si Si7 0.939976 0.577219 0.338113
Si Si8 0.685859 0.916410 0.621046
O O1 0.461655 0.250000 0.022432
O O2 0.480474 0.466579 0.178461
O O3 0.500000 0.500000 0.000000
O O4 0.335525 0.451092 0.891363
O O5 0.704864 0.250000 0.842808
O O6 0.561667 0.084687 0.692836
O O7 0.699806 0.994558 0.750074
O O8 0.717659 0.024373 0.976945
O O9 0.949969 0.250000 0.134565
O O10 0.057291 0.036464 0.188594
O O11 0.954579 0.994563 0.236974
O O12 0.890802 0.017817 0.958276
O O13 0.475705 0.250000 0.731949
O O14 0.393819 0.017764 0.544591
O O15 0.275164 0.250000 0.954544
O O16 0.161984 0.445243 0.742588
O O17 0.098409 0.250000 0.100707
O O18 0.219339 0.430568 0.326897
O O19 0.963411 0.750000 0.359053
O O20 0.000000 0.500000 0.500000
O O21 0.658959 0.750000 0.614249
#
# Coordination Sequence:
#
# PCOD8070293 Si02
#       8
#     4   4   4   4   4   4   4   4
#     4  10  20  37  59  80 104 138 178 221 265 315
#     4  10  19  30  50  79 109 139 174 222 267 307
#     4  10  20  36  57  80 109 143 182 229 279 328
#     4   9  19  34  50  73 106 141 177 216 262 315
#     4   9  20  38  58  79 104 141 183 216 261 328
#     4   9  19  35  55  79 107 145 187 223 267 329
#     4  11  23  40  60  83 111 144 184 231 282 334
#     4  10  19  32  50  74 106 144 179 211 257 320
#
# _framework density 18.931728
#
# number of rings (size 3 to 8) (size 9 to 14) (size 15 to 20)
#    0.000    2.250    0.000    2.625    0.000    6.500 
#    2.250    0.000    0.000    0.000    0.000    0.000 
#    0.000    0.000    0.000    0.000    0.000    0.000 
#
# Total GULP energy -396602.882497 kJ/mol
# GULP energy per Si atom -12393.840078 kJ/mol
# Density = 1.888864 g / cm^3
# Si number density = 18.931728 Si / 1000 Ang^3
#
#
#
# Elastic Constant Matrix: (Units=GPa)
#
#
# Indices 1 2 3 4 5 6 
#
# 1 108.6977 44.0396 55.0809 0.0000 8.1588 0.0000
# 2 44.0396 80.2107 36.6211 0.0000 2.9141 0.0000
# 3 55.0809 36.6211 86.3543 0.0000 22.0636 0.0000
# 4 0.0000 0.0000 0.0000 29.9213 0.0000 -3.7368
# 5 8.1588 2.9141 22.0636 0.0000 31.3210 0.0000
# 6 0.0000 0.0000 0.0000 -3.7368 0.0000 30.5489
#
#
#
# Elastic Compliance Matrix: (Units=1/GPa)
#
#
# Indices 1 2 3 4 5 6 
#
# 1 0.015070 -0.004587 -0.008259 0.000000 0.002320 0.000000
# 2 -0.004587 0.017253 -0.005227 0.000000 0.003272 0.000000
# 3 -0.008259 -0.005227 0.022428 0.000000 -0.013161 0.000000
# 4 0.000000 0.000000 0.000000 0.033940 0.000000 0.004152
# 5 0.002320 0.003272 -0.013161 0.000000 0.040290 0.000000
# 6 0.000000 0.000000 0.000000 0.004152 0.000000 0.033242
#
#
# Mechanical properties :
#
#
# Convention : Reuss Voigt Hill
#
# Bulk Modulus (GPa) = 53.75242 60.74953 57.25097
# Shear Modulus (GPa) = 24.44152 27.65964 26.05058
#
# Velocity S-wave (km/s) = 3.59700 3.82648 3.71351
# Velocity P-wave (km/s) = 6.76059 7.18895 6.97806
#
# Compressibility (1/GPa) = 0.01860381
#
# Stress axis : x y z
#
# Youngs Moduli (GPa) = 66.35872 57.96016 44.58804
#
# Poissons Ratio (x) = 0.26588 0.36827
# Poissons Ratio (y) = 0.30441 0.23304
# Poissons Ratio (z) = 0.54808 0.30294
#
# Static dielectric constant tensor:
#      x y z
#    x 3.448720 0.000000 0.489700 
#    y 0.000000 3.572500 0.000000 
#    z 0.489700 0.000000 3.271260 
# 
# 
# High freq. dielectric constant tensor:
#      x y z
#    x 1.744480 0.000000 0.021710 
#    y 0.000000 1.743020 0.000000 
#    z 0.021710 0.000000 1.715400 
# 
# From -- ./inp_files/42875.got.cif
#   From: 2010.06.25/outbox.cif.g09.slc.cpg/sg11_22_cif.got.tgz:42875.got - 2010.06.27 23:14:04.
