data_PCOD8070423
_publ_section_title
;
Structure prediction by ZEFSAII (Michael W. Deem and Ramdas Pophale) SiO2 
 PCOD8070423
Probable space group: P 21/M
;
_chemical_formula_sum "Si O2"
_cell_formula_units_Z 20
_cell_length_a 19.083613
_cell_length_b 13.317814
_cell_length_c 12.601389
_cell_angle_alpha 90.000000
_cell_angle_beta 21.385592
_cell_angle_gamma 90.000000
_cell_volume 1167.829442
_symmetry_space_group_name_H-M "P 21/M"
_symmetry_group_IT_number 11
_symmetry_cell_setting 'monoclinic'
loop_
_space_group_symop_operation_xyz
x,y,z
-x,1/2+y,-z
-x,-y,-z
x,1/2-y,z
loop_
_atom_site_type_symbol
_atom_site_label
_atom_site_fract_x
_atom_site_fract_y
_atom_site_fract_z
Si Si1 0.344193 0.365510 0.515316
Si Si2 0.030753 0.135567 0.784129
Si Si3 0.268648 0.989100 0.053420
Si Si4 0.900977 0.634752 0.552288
Si Si5 0.279268 0.025587 0.807417
O O1 0.407423 0.250000 0.415665
O O2 0.186435 0.395704 0.651499
O O3 0.252814 0.382989 0.761701
O O4 0.524545 0.437426 0.241221
O O5 0.962899 0.250000 0.895041
O O6 0.128518 0.120363 0.531616
O O7 0.841014 0.069198 0.066214
O O8 0.111614 0.901837 0.292054
O O9 0.261426 0.069258 0.158943
O O10 0.218281 0.049248 0.014765
O O11 0.877231 0.750000 0.619545
O O12 0.500000 0.000000 0.500000
#
# Coordination Sequence:
#
# PCOD8070423 Si02
#       5
#     4   4   4   4   4
#     4  10  19  31  48  69  94 124 156 191 232 277
#     4   9  18  32  50  70  93 122 153 189 234 279
#     4   9  18  31  48  71  93 122 158 192 232 273
#     4   9  17  31  49  68  93 122 155 193 231 274
#     4   9  18  31  48  70  93 120 154 190 229 274
#
# _framework density 17.125789000000001
#
# number of rings (size 3 to 8) (size 9 to 14) (size 15 to 20)
#    0.000    2.800    0.000    1.200    0.000    6.400 
#    0.000    3.000    0.000    1.200    0.000    0.000 
#    0.000    0.000    0.000    0.000    0.000    0.000 
#
# Total GULP energy -247900.850530 kJ/mol
# GULP energy per Si atom -12395.042526 kJ/mol
# Density = 1.708681 g / cm^3
# Si number density = 17.125789 Si / 1000 Ang^3
#
#
#
# Elastic Constant Matrix: (Units=GPa)
#
#
# Indices 1 2 3 4 5 6 
#
# 1 110.0703 55.1848 44.9899 0.0000 -5.5747 0.0000
# 2 55.1848 85.7765 50.7283 0.0000 1.6429 0.0000
# 3 44.9899 50.7283 81.9891 0.0000 -1.2494 0.0000
# 4 0.0000 0.0000 0.0000 30.7397 0.0000 3.5173
# 5 -5.5747 1.6429 -1.2494 0.0000 21.6203 0.0000
# 6 0.0000 0.0000 0.0000 3.5173 0.0000 28.5800
#
#
#
# Elastic Compliance Matrix: (Units=1/GPa)
#
#
# Indices 1 2 3 4 5 6 
#
# 1 0.014307 -0.007374 -0.003226 0.000000 0.004063 0.000000
# 2 -0.007374 0.022279 -0.009801 0.000000 -0.004161 0.000000
# 3 -0.003226 -0.009801 0.020047 0.000000 0.001072 0.000000
# 4 0.000000 0.000000 0.000000 0.032996 0.000000 -0.004061
# 5 0.004063 -0.004161 0.001072 0.000000 0.047679 0.000000
# 6 0.000000 0.000000 0.000000 -0.004061 0.000000 0.035489
#
#
# Mechanical properties :
#
#
# Convention : Reuss Voigt Hill
#
# Bulk Modulus (GPa) = 63.17152 64.40465 63.78808
# Shear Modulus (GPa) = 22.84405 24.65020 23.74712
#
# Velocity S-wave (km/s) = 3.65622 3.79801 3.72779
# Velocity P-wave (km/s) = 7.40208 7.54464 7.47370
#
# Compressibility (1/GPa) = 0.01582992
#
# Stress axis : x y z
#
# Youngs Moduli (GPa) = 69.89801 44.88628 49.88165
#
# Poissons Ratio (x) = 0.33100 0.16092
# Poissons Ratio (y) = 0.51544 0.48890
# Poissons Ratio (z) = 0.22549 0.43994
#
# Static dielectric constant tensor:
#      x y z
#    x 3.565650 0.000000 0.245850 
#    y 0.000000 3.160230 0.000000 
#    z 0.245850 0.000000 3.147850 
# 
# 
# High freq. dielectric constant tensor:
#      x y z
#    x 1.672020 0.000000 0.005510 
#    y 0.000000 1.650240 0.000000 
#    z 0.005510 0.000000 1.649770 
# 
# From -- ./inp_files/12215.got.cif
#   From: 2010.06.25/outbox.cif.g09.slc.cpg/sg11_7_cif.got.tgz:12215.got - 2010.06.27 23:14:04.
