data_PCOD8070089
_publ_section_title
;
Structure prediction by ZEFSAII (Michael W. Deem and Ramdas Pophale) SiO2 
 PCOD8070089
Probable space group: P 21/M
;
_chemical_formula_sum "Si O2"
_cell_formula_units_Z 28
_cell_length_a 20.448804
_cell_length_b 9.064766
_cell_length_c 12.600580
_cell_angle_alpha 90.000000
_cell_angle_beta 133.612635
_cell_angle_gamma 90.000000
_cell_volume 1691.085125
_symmetry_space_group_name_H-M "P 21/M"
_symmetry_group_IT_number 11
_symmetry_cell_setting 'monoclinic'
loop_
_space_group_symop_operation_xyz
x,y,z
-x,1/2+y,-z
-x,-y,-z
x,1/2-y,z
loop_
_atom_site_type_symbol
_atom_site_label
_atom_site_fract_x
_atom_site_fract_y
_atom_site_fract_z
Si Si1 0.295233 0.574561 0.371495
Si Si2 0.617345 0.579310 0.922673
Si Si3 0.408832 0.418524 0.878962
Si Si4 0.570692 0.576342 0.326053
Si Si5 0.758523 0.576845 0.902129
Si Si6 0.103017 0.586974 0.219864
Si Si7 0.936309 0.413877 0.072004
O O1 0.301671 0.750000 0.364801
O O2 0.383207 0.512081 0.527244
O O3 0.290056 0.503046 0.249929
O O4 0.206551 0.530762 0.341545
O O5 0.588017 0.750000 0.875481
O O6 0.532636 0.476821 0.798364
O O7 0.701127 0.540064 0.942218
O O8 0.652175 0.550881 0.084296
O O9 0.436222 0.250000 0.902951
O O10 0.373310 0.461731 0.721063
O O11 0.500000 0.500000 0.000000
O O12 0.572274 0.750000 0.354024
O O13 0.764988 0.750000 0.885107
O O14 0.858732 0.515044 0.036246
O O15 0.094400 0.750000 0.260041
O O16 0.035518 0.480371 0.208761
O O17 0.076145 0.592918 0.067203
O O18 0.931097 0.250000 0.115415
#
# Coordination Sequence:
#
# PCOD8070089 Si02
#       7
#     4   4   4   4   4   4   4
#     4  10  20  32  45  63  91 122 149 180 217 260
#     4   9  18  32  48  65  88 118 149 182 219 258
#     4   8  15  29  47  66  85 107 142 185 224 258
#     4  10  19  30  47  68  89 115 147 184 222 261
#     4  10  19  30  45  65  90 120 151 180 213 259
#     4   8  15  27  42  60  82 112 147 179 213 255
#     4   9  16  26  42  63  87 114 142 178 220 258
#
# _framework density 16.557416
#
# number of rings (size 3 to 8) (size 9 to 14) (size 15 to 20)
#    0.000    2.857    0.000    2.571    0.000    6.286 
#    0.000    0.000    0.000    0.000    0.000    1.000 
#    0.000    0.000    0.000    0.000    0.000    0.000 
#
# Total GULP energy -346885.744746 kJ/mol
# GULP energy per Si atom -12388.776598 kJ/mol
# Density = 1.651973 g / cm^3
# Si number density = 16.557416 Si / 1000 Ang^3
#
#
#
# Elastic Constant Matrix: (Units=GPa)
#
#
# Indices 1 2 3 4 5 6 
#
# 1 102.9039 44.7311 26.2899 0.0000 -7.4542 0.0000
# 2 44.7311 79.8820 15.8864 0.0000 -4.2558 0.0000
# 3 26.2899 15.8864 12.4519 0.0000 -6.3599 0.0000
# 4 0.0000 0.0000 0.0000 16.1648 0.0000 4.9966
# 5 -7.4542 -4.2558 -6.3599 0.0000 17.7874 0.0000
# 6 0.0000 0.0000 0.0000 4.9966 0.0000 24.6494
#
#
#
# Elastic Compliance Matrix: (Units=1/GPa)
#
#
# Indices 1 2 3 4 5 6 
#
# 1 0.023058 -0.003780 -0.048187 0.000000 -0.008471 0.000000
# 2 -0.003780 0.017687 -0.016190 0.000000 -0.003141 0.000000
# 3 -0.048187 -0.016190 0.232952 0.000000 0.059226 0.000000
# 4 0.000000 0.000000 0.000000 0.065998 0.000000 -0.013378
# 5 -0.008471 -0.003141 0.059226 0.000000 0.073094 0.000000
# 6 0.000000 0.000000 0.000000 -0.013378 0.000000 0.043281
#
#
# Mechanical properties :
#
#
# Convention : Reuss Voigt Hill
#
# Bulk Modulus (GPa) = 7.27883 41.00584 24.14233
# Shear Modulus (GPa) = 7.83479 18.94235 13.38857
#
# Velocity S-wave (km/s) = 2.17765 3.38604 2.84670
# Velocity P-wave (km/s) = 3.27545 6.33298 5.04158
#
# Compressibility (1/GPa) = 0.13738475
#
# Stress axis : x y z
#
# Youngs Moduli (GPa) = 43.36881 56.53732 4.29272
#
# Poissons Ratio (x) = 0.21371 0.20685
# Poissons Ratio (y) = 0.16393 0.06950
# Poissons Ratio (z) = 2.08981 0.91532
#
# Static dielectric constant tensor:
#      x y z
#    x 3.308240 0.000000 -0.141410 
#    y 0.000000 3.276590 0.000000 
#    z -0.141410 0.000000 3.015670 
# 
# 
# High freq. dielectric constant tensor:
#      x y z
#    x 1.627910 0.000000 0.001880 
#    y 0.000000 1.652290 0.000000 
#    z 0.001880 0.000000 1.596460 
# 
# From -- ./inp_files/42618.got.cif
#   From: 2010.06.25/outbox.cif.g09.slc.cpg/sg11_22_cif.got.tgz:42618.got - 2010.06.27 23:14:04.
