data_PCOD8070587
_publ_section_title
;
Structure prediction by ZEFSAII (Michael W. Deem and Ramdas Pophale) SiO2 
 PCOD8070587
Probable space group: P 21/M
;
_chemical_formula_sum "Si O2"
_cell_formula_units_Z 32
_cell_length_a 28.402304
_cell_length_b 8.832792
_cell_length_c 15.887292
_cell_angle_alpha 90.000000
_cell_angle_beta 153.364138
_cell_angle_gamma 90.000000
_cell_volume 1786.850707
_symmetry_space_group_name_H-M "P 21/M"
_symmetry_group_IT_number 11
_symmetry_cell_setting 'monoclinic'
loop_
_space_group_symop_operation_xyz
x,y,z
-x,1/2+y,-z
-x,-y,-z
x,1/2-y,z
loop_
_atom_site_type_symbol
_atom_site_label
_atom_site_fract_x
_atom_site_fract_y
_atom_site_fract_z
Si Si1 0.771517 0.428278 0.787073
Si Si2 0.696210 0.570121 0.500004
Si Si3 0.515558 0.571726 0.787073
Si Si4 0.263239 0.070917 0.784624
Si Si5 0.021384 0.929085 0.784622
Si Si6 0.948692 0.429767 0.500007
Si Si7 0.449788 0.925661 0.499995
Si Si8 0.198800 0.072425 0.500003
O O1 0.771985 0.250000 0.769588
O O2 0.765683 0.511809 0.688650
O O3 0.671671 0.474332 0.684422
O O4 0.874682 0.482179 0.000905
O O5 0.695448 0.750000 0.500012
O O6 0.577033 0.511822 0.311363
O O7 0.749141 0.500930 0.499991
O O8 0.497601 0.750000 0.769599
O O9 0.512764 0.525704 0.684436
O O10 0.626225 0.517818 0.000903
O O11 0.244746 0.250000 0.765604
O O12 0.262069 0.022613 0.684701
O O13 0.171397 0.985314 0.687253
O O14 0.020848 0.750000 0.765596
O O15 0.922625 0.977413 0.684679
O O16 0.015868 0.014676 0.687269
O O17 0.951891 0.250000 0.500013
O O18 0.000000 0.500000 0.500000
O O19 0.459236 0.750000 0.499956
O O20 0.500000 0.000000 0.500000
O O21 0.205310 0.250000 0.499972
#
# Coordination Sequence:
#
# PCOD8070587 Si02
#       8
#     4   4   4   4   4   4   4   4
#     4   9  19  35  53  73  99 133 171 210 253 304
#     4  10  19  31  49  75 106 136 168 208 252 305
#     4   9  19  35  53  73  99 133 171 210 253 304
#     4   9  18  36  57  74  99 135 172 213 260 303
#     4   9  18  36  57  74  99 135 172 213 260 303
#     4  11  22  36  54  78 107 136 170 210 253 304
#     4   9  18  32  48  70  97 124 160 202 247 296
#     4   8  16  31  51  75 102 132 166 208 260 307
#
# _framework density 17.908602999999999
#
# number of rings (size 3 to 8) (size 9 to 14) (size 15 to 20)
#    0.000    2.750    0.000    3.000    0.000    5.000 
#    0.000    7.500    0.000    0.000    0.000    0.000 
#    0.000    0.000    0.000    0.000    0.000    0.000 
#
# Total GULP energy -396760.285105 kJ/mol
# GULP energy per Si atom -12398.758910 kJ/mol
# Density = 1.786784 g / cm^3
# Si number density = 17.908603 Si / 1000 Ang^3
#
#
#
# Elastic Constant Matrix: (Units=GPa)
#
#
# Indices 1 2 3 4 5 6 
#
# 1 190.0356 53.3952 94.7085 0.0000 -2.5203 0.0000
# 2 53.3952 58.8987 45.8007 0.0000 -0.2722 0.0000
# 3 94.7085 45.8007 190.6090 0.0000 2.5314 0.0000
# 4 0.0000 0.0000 0.0000 25.3351 0.0000 -0.0729
# 5 -2.5203 -0.2722 2.5314 0.0000 12.6422 0.0000
# 6 0.0000 0.0000 0.0000 -0.0729 0.0000 27.3638
#
#
#
# Elastic Compliance Matrix: (Units=1/GPa)
#
#
# Indices 1 2 3 4 5 6 
#
# 1 0.008159 -0.005181 -0.002837 0.000000 0.002083 0.000000
# 2 -0.005181 0.024197 -0.003241 0.000000 0.000137 0.000000
# 3 -0.002837 -0.003241 0.007463 0.000000 -0.002130 0.000000
# 4 0.000000 0.000000 0.000000 0.039471 0.000000 0.000105
# 5 0.002083 0.000137 -0.002130 0.000000 0.079945 0.000000
# 6 0.000000 0.000000 0.000000 0.000105 0.000000 0.036545
#
#
# Mechanical properties :
#
#
# Convention : Reuss Voigt Hill
#
# Bulk Modulus (GPa) = 57.80393 91.92801 74.86597
# Shear Modulus (GPa) = 22.31479 29.44414 25.87947
#
# Velocity S-wave (km/s) = 3.53376 4.05919 3.80555
# Velocity P-wave (km/s) = 6.99980 8.56811 7.82335
#
# Compressibility (1/GPa) = 0.01729986
#
# Stress axis : x y z
#
# Youngs Moduli (GPa) = 122.55723 41.32769 133.99317
#
# Poissons Ratio (x) = 0.21414 0.38012
# Poissons Ratio (y) = 0.63502 0.43434
# Poissons Ratio (z) = 0.34768 0.13396
#
# Static dielectric constant tensor:
#      x y z
#    x 3.549110 0.000000 0.006090 
#    y 0.000000 3.132490 0.000000 
#    z 0.006090 0.000000 3.716620 
# 
# 
# High freq. dielectric constant tensor:
#      x y z
#    x 1.698100 0.000000 0.000020 
#    y 0.000000 1.677650 0.000000 
#    z 0.000020 0.000000 1.698680 
# 
# From -- ./inp_files/56186.got.cif
#   From: 2010.06.25/outbox.cif.g09.slc.cpg/sg11_29_cif.got.tgz:56186.got - 2010.06.27 23:14:04.
