data_PCOD8070128
_publ_section_title
;
Structure prediction by ZEFSAII (Michael W. Deem and Ramdas Pophale) SiO2 
 PCOD8070128
Probable space group: P 21/M
;
_chemical_formula_sum "Si O2"
_cell_formula_units_Z 32
_cell_length_a 10.864867
_cell_length_b 16.805600
_cell_length_c 13.441955
_cell_angle_alpha 90.000000
_cell_angle_beta 51.786330
_cell_angle_gamma 90.000000
_cell_volume 1928.425131
_symmetry_space_group_name_H-M "P 21/M"
_symmetry_group_IT_number 11
_symmetry_cell_setting 'monoclinic'
loop_
_space_group_symop_operation_xyz
x,y,z
-x,1/2+y,-z
-x,-y,-z
x,1/2-y,z
loop_
_atom_site_type_symbol
_atom_site_label
_atom_site_fract_x
_atom_site_fract_y
_atom_site_fract_z
Si Si1 0.009509 0.164528 0.107597
Si Si2 0.350106 0.658406 0.208224
Si Si3 0.155056 0.545395 0.170136
Si Si4 0.155054 0.954604 0.674809
Si Si5 0.324471 0.423302 0.724029
Si Si6 0.990490 0.835472 0.117107
Si Si7 0.350106 0.841594 0.441670
Si Si8 0.675529 0.923302 0.048502
O O1 0.988141 0.250000 0.171831
O O2 0.897611 0.099473 0.208515
O O3 0.190867 0.142549 0.023833
O O4 0.954296 0.171175 0.022852
O O5 0.338846 0.750000 0.175092
O O6 0.221174 0.600857 0.224028
O O7 0.318960 0.656570 0.340520
O O8 0.518041 0.622031 0.096817
O O9 0.287847 0.489235 0.054435
O O10 0.000002 0.499998 0.289406
O O11 0.102384 0.599472 0.106129
O O12 0.221173 0.899143 0.554798
O O13 0.287844 0.010766 0.657718
O O14 0.190869 0.357449 0.785299
O O15 0.481960 0.377970 0.614856
O O16 0.334806 0.458175 0.832596
O O17 0.011860 0.750000 0.159972
O O18 0.338846 0.750000 0.486062
#
# Coordination Sequence:
#
# PCOD8070128 Si02
#       8
#     4   4   4   4   4   4   4   4
#     4   9  16  27  45  69  95 120 145 177 220 266
#     4  10  20  33  48  65  87 118 154 187 216 253
#     4  10  19  30  46  68  93 118 145 181 224 266
#     4  10  19  30  46  68  93 118 145 181 224 266
#     4   9  17  30  48  69  91 115 146 183 222 263
#     4   9  16  27  45  69  95 120 145 177 220 266
#     4  10  20  33  48  65  87 118 154 187 216 253
#     4   9  17  30  48  69  91 115 146 183 222 263
#
# _framework density 16.593851000000001
#
# number of rings (size 3 to 8) (size 9 to 14) (size 15 to 20)
#    0.000    2.500    0.000    3.000    0.000    6.500 
#    0.000    0.000    0.000    0.000    0.000    0.000 
#    0.000    8.000    0.000    0.000    0.000    0.000 
#
# Total GULP energy -396559.997243 kJ/mol
# GULP energy per Si atom -12392.499914 kJ/mol
# Density = 1.655608 g / cm^3
# Si number density = 16.593851 Si / 1000 Ang^3
#
#
#
# Elastic Constant Matrix: (Units=GPa)
#
#
# Indices 1 2 3 4 5 6 
#
# 1 75.6956 54.2252 37.5260 0.0000 -8.3023 0.0000
# 2 54.2252 126.8476 48.4969 0.0000 -7.2275 0.0000
# 3 37.5260 48.4969 61.1625 0.0000 -10.0225 0.0000
# 4 0.0000 0.0000 0.0000 21.2997 0.0000 6.5033
# 5 -8.3023 -7.2275 -10.0225 0.0000 13.6257 0.0000
# 6 0.0000 0.0000 0.0000 6.5033 0.0000 16.1397
#
#
#
# Elastic Compliance Matrix: (Units=1/GPa)
#
#
# Indices 1 2 3 4 5 6 
#
# 1 0.022009 -0.006128 -0.007936 0.000000 0.004322 0.000000
# 2 -0.006128 0.013025 -0.006876 0.000000 -0.001883 0.000000
# 3 -0.007936 -0.006876 0.028746 0.000000 0.012661 0.000000
# 4 0.000000 0.000000 0.000000 0.053535 0.000000 -0.021571
# 5 0.004322 -0.001883 0.012661 0.000000 0.084339 0.000000
# 6 0.000000 0.000000 0.000000 -0.021571 0.000000 0.070651
#
#
# Mechanical properties :
#
#
# Convention : Reuss Voigt Hill
#
# Bulk Modulus (GPa) = 45.66439 60.46689 53.06564
# Shear Modulus (GPa) = 15.55274 18.44351 16.99812
#
# Velocity S-wave (km/s) = 3.06479 3.33748 3.20404
# Velocity P-wave (km/s) = 6.33265 7.16730 6.76286
#
# Compressibility (1/GPa) = 0.02189890
#
# Stress axis : x y z
#
# Youngs Moduli (GPa) = 45.43559 76.77661 34.78705
#
# Poissons Ratio (x) = 0.47049 0.27608
# Poissons Ratio (y) = 0.27843 0.23921
# Poissons Ratio (z) = 0.36059 0.52794
#
# Static dielectric constant tensor:
#      x y z
#    x 3.113130 0.000000 -0.114710 
#    y 0.000000 3.541520 0.000000 
#    z -0.114710 0.000000 3.022140 
# 
# 
# High freq. dielectric constant tensor:
#      x y z
#    x 1.629950 0.000000 -0.008710 
#    y 0.000000 1.652910 0.000000 
#    z -0.008710 0.000000 1.623050 
# 
# From -- ./inp_files/36021.got.cif
#   From: 2010.06.25/outbox.cif.g09.slc.cpg/sg11_19_cif.got.tgz:36021.got - 2010.06.27 23:14:04.
