data_PCOD8070301
_publ_section_title
;
Structure prediction by ZEFSAII (Michael W. Deem and Ramdas Pophale) SiO2 
 PCOD8070301
Probable space group: P 21/M
;
_chemical_formula_sum "Si O2"
_cell_formula_units_Z 32
_cell_length_a 28.230439
_cell_length_b 8.986397
_cell_length_c 21.830583
_cell_angle_alpha 90.000000
_cell_angle_beta 161.100260
_cell_angle_gamma 90.000000
_cell_volume 1793.895385
_symmetry_space_group_name_H-M "P 21/M"
_symmetry_group_IT_number 11
_symmetry_cell_setting 'monoclinic'
loop_
_space_group_symop_operation_xyz
x,y,z
-x,1/2+y,-z
-x,-y,-z
x,1/2-y,z
loop_
_atom_site_type_symbol
_atom_site_label
_atom_site_fract_x
_atom_site_fract_y
_atom_site_fract_z
Si Si1 0.657332 0.424311 0.191128
Si Si2 0.436892 0.924904 0.611421
Si Si3 0.842381 0.927993 0.312085
Si Si4 0.403314 0.424924 0.076433
Si Si5 0.700494 0.421321 0.381852
Si Si6 0.593076 0.075083 0.561698
Si Si7 0.825661 0.578176 0.642919
Si Si8 0.078529 0.578219 0.040471
O O1 0.642624 0.250000 0.155790
O O2 0.762812 0.511335 0.274761
O O3 0.731500 0.443113 0.348343
O O4 0.500000 0.500000 0.000000
O O5 0.407994 0.750000 0.581224
O O6 0.571029 0.972263 0.820984
O O7 0.473084 0.969668 0.585875
O O8 0.287982 0.001736 0.450150
O O9 0.855422 0.750000 0.331887
O O10 0.748898 0.983894 0.138288
O O11 0.000000 0.000000 0.500000
O O12 0.397983 0.250000 0.063156
O O13 0.539161 0.484149 0.201829
O O14 0.711369 0.250000 0.414694
O O15 0.820391 0.509998 0.568181
O O16 0.586701 0.250000 0.564462
O O17 0.758633 0.014303 0.769445
O O18 0.500000 0.000000 0.500000
O O19 0.784305 0.750000 0.588899
O O20 0.988691 0.552505 0.867999
O O21 0.088111 0.750000 0.070136
O O22 0.000000 0.500000 0.000000
#
# Coordination Sequence:
#
# PCOD8070301 Si02
#       8
#     4   4   4   4   4   4   4   4
#     4  11  21  36  58  84 112 145 184 230 279 331
#     4   9  17  33  55  76 102 140 179 218 269 325
#     4  11  22  38  56  81 114 149 187 232 280 333
#     4   8  15  31  54  77 103 136 177 223 266 319
#     4   9  18  34  54  78 109 145 181 219 272 329
#     4  10  21  36  54  77 107 143 180 221 267 322
#     4  10  19  30  50  82 112 137 173 226 276 316
#     4  10  20  34  53  79 109 139 175 220 272 320
#
# _framework density 17.838274999999999
#
# number of rings (size 3 to 8) (size 9 to 14) (size 15 to 20)
#    0.000    2.250    2.500    1.875    0.000    2.500 
#    0.000    1.875    0.000    4.500    0.000    0.000 
#    0.000    0.000    0.000    0.000    0.000    0.000 
#
# Total GULP energy -396667.655754 kJ/mol
# GULP energy per Si atom -12395.864242 kJ/mol
# Density = 1.779767 g / cm^3
# Si number density = 17.838275 Si / 1000 Ang^3
#
#
#
# Elastic Constant Matrix: (Units=GPa)
#
#
# Indices 1 2 3 4 5 6 
#
# 1 130.7901 48.6394 81.3861 0.0000 -8.4569 0.0000
# 2 48.6394 67.0947 47.7809 0.0000 -4.2075 0.0000
# 3 81.3861 47.7809 142.5233 0.0000 -9.3461 0.0000
# 4 0.0000 0.0000 0.0000 26.6889 0.0000 0.0585
# 5 -8.4569 -4.2075 -9.3461 0.0000 31.5400 0.0000
# 6 0.0000 0.0000 0.0000 0.0585 0.0000 32.2264
#
#
#
# Elastic Compliance Matrix: (Units=1/GPa)
#
#
# Indices 1 2 3 4 5 6 
#
# 1 0.013306 -0.005539 -0.005666 0.000000 0.001150 0.000000
# 2 -0.005539 0.021899 -0.004165 0.000000 0.000202 0.000000
# 3 -0.005666 -0.004165 0.011740 0.000000 0.001404 0.000000
# 4 0.000000 0.000000 0.000000 0.037469 0.000000 -0.000068
# 5 0.001150 0.000202 0.001404 0.000000 0.032457 0.000000
# 6 0.000000 0.000000 0.000000 -0.000068 0.000000 0.031031
#
#
# Mechanical properties :
#
#
# Convention : Reuss Voigt Hill
#
# Bulk Modulus (GPa) = 61.71077 77.33565 69.52321
# Shear Modulus (GPa) = 27.16765 28.93117 28.04941
#
# Velocity S-wave (km/s) = 3.90679 4.03160 3.96969
# Velocity P-wave (km/s) = 7.41757 8.06967 7.75048
#
# Compressibility (1/GPa) = 0.01620463
#
# Stress axis : x y z
#
# Youngs Moduli (GPa) = 75.15644 45.66494 85.17719
#
# Poissons Ratio (x) = 0.25293 0.48259
# Poissons Ratio (y) = 0.41628 0.35480
# Poissons Ratio (z) = 0.42581 0.19021
#
# Static dielectric constant tensor:
#      x y z
#    x 3.277820 0.000000 -0.383620 
#    y 0.000000 3.247180 0.000000 
#    z -0.383620 0.000000 3.692360 
# 
# 
# High freq. dielectric constant tensor:
#      x y z
#    x 1.681310 0.000000 -0.026170 
#    y 0.000000 1.683000 0.000000 
#    z -0.026170 0.000000 1.688940 
# 
# From -- ./inp_files/67302.got.cif
#   From: 2010.06.25/outbox.cif.g09.slc.cpg/sg11_34_cif.got.tgz:67302.got - 2010.06.27 23:14:04.
