data_PCOD8070922
_publ_section_title
;
Structure prediction by ZEFSAII (Michael W. Deem and Ramdas Pophale) SiO2 
 PCOD8070922
Probable space group: P 21/M
;
_chemical_formula_sum "Si O2"
_cell_formula_units_Z 28
_cell_length_a 14.799234
_cell_length_b 9.238982
_cell_length_c 20.338939
_cell_angle_alpha 90.000000
_cell_angle_beta 32.431299
_cell_angle_gamma 90.000000
_cell_volume 1491.384716
_symmetry_space_group_name_H-M "P 21/M"
_symmetry_group_IT_number 11
_symmetry_cell_setting 'monoclinic'
loop_
_space_group_symop_operation_xyz
x,y,z
-x,1/2+y,-z
-x,-y,-z
x,1/2-y,z
loop_
_atom_site_type_symbol
_atom_site_label
_atom_site_fract_x
_atom_site_fract_y
_atom_site_fract_z
Si Si1 0.010789 0.078426 0.698317
Si Si2 0.211589 0.413699 0.951739
Si Si3 0.079180 0.079531 0.801100
Si Si4 0.420873 0.582270 0.232962
Si Si5 0.368290 0.083823 0.717059
Si Si6 0.679041 0.921783 0.578658
Si Si7 0.650192 0.079580 0.871396
O O1 0.008356 0.250000 0.702615
O O2 0.062427 0.015348 0.737929
O O3 0.145905 0.027578 0.561412
O O4 0.826194 0.020694 0.792270
O O5 0.155551 0.250000 0.000888
O O6 0.380585 0.452685 0.888297
O O7 0.243927 0.437920 0.854923
O O8 0.064661 0.518426 0.063885
O O9 0.054054 0.250000 0.816818
O O10 0.263694 0.039531 0.716240
O O11 0.390872 0.750000 0.269333
O O12 0.324311 0.487145 0.346273
O O13 0.349031 0.541256 0.206115
O O14 0.430662 0.250000 0.675955
O O15 0.529182 0.980840 0.624672
O O16 0.662218 0.750000 0.593312
O O17 0.627120 0.250000 0.896635
O O18 0.500000 0.000000 0.000000
#
# Coordination Sequence:
#
# PCOD8070922 Si02
#       7
#     4   4   4   4   4   4   4
#     4   9  20  36  52  75 106 135 167 213 259 297
#     4   9  17  30  47  72 104 130 164 213 256 297
#     4  10  19  32  51  73 101 138 173 206 254 310
#     4   9  19  35  54  76 105 139 169 208 259 301
#     4   9  19  34  51  73 103 136 168 210 260 305
#     4  10  20  35  54  75 100 133 175 216 253 300
#     4  10  20  36  57  80 109 139 167 205 254 305
#
# _framework density 18.774498000000001
#
# number of rings (size 3 to 8) (size 9 to 14) (size 15 to 20)
#    0.000    2.571    0.000    2.571    0.000    4.571 
#    0.000    2.857    0.000    0.000    0.000    0.000 
#    0.000    0.000    0.000    0.000    0.000    0.000 
#
# Total GULP energy -347217.701517 kJ/mol
# GULP energy per Si atom -12400.632197 kJ/mol
# Density = 1.873177 g / cm^3
# Si number density = 18.774498 Si / 1000 Ang^3
#
#
#
# Elastic Constant Matrix: (Units=GPa)
#
#
# Indices 1 2 3 4 5 6 
#
# 1 157.6870 42.5999 64.8653 0.0000 -5.8907 0.0000
# 2 42.5999 53.9519 51.1207 0.0000 -1.9332 0.0000
# 3 64.8653 51.1207 131.4597 0.0000 -9.3125 0.0000
# 4 0.0000 0.0000 0.0000 26.9701 0.0000 0.6086
# 5 -5.8907 -1.9332 -9.3125 0.0000 15.7439 0.0000
# 6 0.0000 0.0000 0.0000 0.6086 0.0000 21.2844
#
#
#
# Elastic Compliance Matrix: (Units=1/GPa)
#
#
# Indices 1 2 3 4 5 6 
#
# 1 0.008583 -0.004438 -0.002422 0.000000 0.001234 0.000000
# 2 -0.004438 0.031808 -0.010458 0.000000 -0.003941 0.000000
# 3 -0.002422 -0.010458 0.013270 0.000000 0.005659 0.000000
# 4 0.000000 0.000000 0.000000 0.037102 0.000000 -0.001061
# 5 0.001234 -0.003941 0.005659 0.000000 0.066841 0.000000
# 6 0.000000 0.000000 0.000000 -0.001061 0.000000 0.047013
#
#
# Mechanical properties :
#
#
# Convention : Reuss Voigt Hill
#
# Bulk Modulus (GPa) = 52.56577 73.36339 62.96458
# Shear Modulus (GPa) = 20.35876 25.10053 22.72964
#
# Velocity S-wave (km/s) = 3.29657 3.66040 3.48324
# Velocity P-wave (km/s) = 6.52297 7.55153 7.05602
#
# Compressibility (1/GPa) = 0.01902379
#
# Stress axis : x y z
#
# Youngs Moduli (GPa) = 116.50985 31.43895 75.35996
#
# Poissons Ratio (x) = 0.13953 0.18250
# Poissons Ratio (y) = 0.51709 0.78814
# Poissons Ratio (z) = 0.28216 0.32880
#
# Static dielectric constant tensor:
#      x y z
#    x 3.881870 0.000000 -0.013540 
#    y 0.000000 3.243790 0.000000 
#    z -0.013540 0.000000 3.329260 
# 
# 
# High freq. dielectric constant tensor:
#      x y z
#    x 1.743280 0.000000 -0.001120 
#    y 0.000000 1.709900 0.000000 
#    z -0.001120 0.000000 1.721950 
# 
# From -- ./inp_files/38456.got.cif
#   From: 2010.06.25/outbox.cif.g09.slc.cpg/sg11_20_cif.got.tgz:38456.got - 2010.06.27 23:14:04.
