data_PCOD8070767
_publ_section_title
;
Structure prediction by ZEFSAII (Michael W. Deem and Ramdas Pophale) SiO2 
 PCOD8070767
Probable space group: P 21/M
;
_chemical_formula_sum "Si O2"
_cell_formula_units_Z 32
_cell_length_a 11.274638
_cell_length_b 9.115668
_cell_length_c 29.170878
_cell_angle_alpha 90.000000
_cell_angle_beta 145.187980
_cell_angle_gamma 90.000000
_cell_volume 1711.551081
_symmetry_space_group_name_H-M "P 21/M"
_symmetry_group_IT_number 11
_symmetry_cell_setting 'monoclinic'
loop_
_space_group_symop_operation_xyz
x,y,z
-x,1/2+y,-z
-x,-y,-z
x,1/2-y,z
loop_
_atom_site_type_symbol
_atom_site_label
_atom_site_fract_x
_atom_site_fract_y
_atom_site_fract_z
Si Si1 0.364373 0.574906 0.760319
Si Si2 0.746473 0.922218 0.464550
Si Si3 0.206851 0.087457 0.058960
Si Si4 0.554174 0.580563 0.563614
Si Si5 0.825482 0.922108 0.384749
Si Si6 0.641674 0.587622 0.992196
Si Si7 0.234799 0.081699 0.871639
Si Si8 0.036855 0.584158 0.731901
O O1 0.354829 0.750000 0.750010
O O2 0.587243 0.522729 0.851155
O O3 0.331913 0.492485 0.701836
O O4 0.185120 0.521312 0.738712
O O5 0.751501 0.750000 0.478473
O O6 0.727907 0.947500 0.404131
O O7 0.549959 0.998678 0.426273
O O8 0.954882 0.995877 0.550196
O O9 0.173959 0.250000 0.068120
O O10 0.222833 0.089133 0.009661
O O11 0.000000 0.000000 0.000000
O O12 0.500000 0.500000 0.500000
O O13 0.481158 0.750000 0.539763
O O14 0.800195 0.569008 0.643342
O O15 0.858022 0.750000 0.385332
O O16 0.543769 0.750000 0.970010
O O17 0.791613 0.547590 0.082607
O O18 0.462676 0.469367 0.928760
O O19 0.209394 0.250000 0.851366
O O20 0.061073 0.998775 0.787617
O O21 0.106088 0.750000 0.762553
#
# Coordination Sequence:
#
# PCOD8070767 Si02
#       8
#     4   4   4   4   4   4   4   4
#     4  10  20  37  60  82 110 149 189 231 287 344
#     4  10  21  39  60  84 119 156 190 233 284 339
#     4  10  21  38  58  79 110 149 186 232 285 339
#     4  11  23  38  60  88 118 154 191 234 286 339
#     4  10  21  37  61  89 114 149 194 240 283 330
#     4   9  18  36  56  77 110 145 178 222 282 336
#     4  10  19  31  56  86 107 138 183 230 273 326
#     4  10  21  38  57  80 114 150 184 228 285 339
#
# _framework density 18.696491999999999
#
# number of rings (size 3 to 8) (size 9 to 14) (size 15 to 20)
#    0.000    2.000    1.250    2.250    0.000    5.500 
#    2.250    0.000    0.000    0.000    0.000    0.000 
#    0.000    0.000    0.000    0.000    0.000    0.000 
#
# Total GULP energy -396751.139589 kJ/mol
# GULP energy per Si atom -12398.473112 kJ/mol
# Density = 1.865394 g / cm^3
# Si number density = 18.696492 Si / 1000 Ang^3
#
#
#
# Elastic Constant Matrix: (Units=GPa)
#
#
# Indices 1 2 3 4 5 6 
#
# 1 91.4536 47.5876 57.2009 0.0000 1.3260 0.0000
# 2 47.5876 96.3731 60.6108 0.0000 -4.6558 0.0000
# 3 57.2009 60.6108 112.6600 0.0000 -9.9214 0.0000
# 4 0.0000 0.0000 0.0000 35.3296 0.0000 -0.8949
# 5 1.3260 -4.6558 -9.9214 0.0000 30.8059 0.0000
# 6 0.0000 0.0000 0.0000 -0.8949 0.0000 32.4838
#
#
#
# Elastic Compliance Matrix: (Units=1/GPa)
#
#
# Indices 1 2 3 4 5 6 
#
# 1 0.017637 -0.004612 -0.006795 0.000000 -0.003644 0.000000
# 2 -0.004612 0.016892 -0.006694 0.000000 0.000596 0.000000
# 3 -0.006795 -0.006694 0.016327 0.000000 0.004539 0.000000
# 4 0.000000 0.000000 0.000000 0.028325 0.000000 0.000780
# 5 -0.003644 0.000596 0.004539 0.000000 0.034170 0.000000
# 6 0.000000 0.000000 0.000000 0.000780 0.000000 0.030806
#
#
# Mechanical properties :
#
#
# Convention : Reuss Voigt Hill
#
# Bulk Modulus (GPa) = 68.23309 70.14282 69.18796
# Shear Modulus (GPa) = 26.99158 28.72970 27.86064
#
# Velocity S-wave (km/s) = 3.80369 3.92425 3.86444
# Velocity P-wave (km/s) = 7.47430 7.62437 7.54970
#
# Compressibility (1/GPa) = 0.01465564
#
# Stress axis : x y z
#
# Youngs Moduli (GPa) = 56.69976 59.19860 61.24721
#
# Poissons Ratio (x) = 0.27300 0.41615
# Poissons Ratio (y) = 0.26147 0.41000
# Poissons Ratio (z) = 0.38526 0.39628
#
# Static dielectric constant tensor:
#      x y z
#    x 3.213280 0.000000 -0.176240 
#    y 0.000000 3.557270 0.000000 
#    z -0.176240 0.000000 3.518120 
# 
# 
# High freq. dielectric constant tensor:
#      x y z
#    x 1.720690 0.000000 -0.015800 
#    y 0.000000 1.731570 0.000000 
#    z -0.015800 0.000000 1.726810 
# 
# From -- ./inp_files/73164.got.cif
#   From: 2010.06.25/outbox.cif.g09.slc.cpg/sg11_37_cif.got.tgz:73164.got - 2010.06.27 23:14:04.
