data_PCOD8070609
_publ_section_title
;
Structure prediction by ZEFSAII (Michael W. Deem and Ramdas Pophale) SiO2 
 PCOD8070609
Probable space group: P 21/M
;
_chemical_formula_sum "Si O2"
_cell_formula_units_Z 32
_cell_length_a 22.769283
_cell_length_b 8.543959
_cell_length_c 17.176312
_cell_angle_alpha 90.000000
_cell_angle_beta 152.454878
_cell_angle_gamma 90.000000
_cell_volume 1545.255905
_symmetry_space_group_name_H-M "P 21/M"
_symmetry_group_IT_number 11
_symmetry_cell_setting 'monoclinic'
loop_
_space_group_symop_operation_xyz
x,y,z
-x,1/2+y,-z
-x,-y,-z
x,1/2-y,z
loop_
_atom_site_type_symbol
_atom_site_label
_atom_site_fract_x
_atom_site_fract_y
_atom_site_fract_z
Si Si1 0.110006 0.568094 0.240778
Si Si2 0.289136 0.930568 0.583506
Si Si3 0.644719 0.063312 0.171138
Si Si4 0.766941 0.563817 0.036576
Si Si5 0.686229 0.568371 0.630118
Si Si6 0.513602 0.435053 0.306881
Si Si7 0.862439 0.564224 0.313978
Si Si8 0.165709 0.436234 0.051388
O O1 0.128190 0.750000 0.238804
O O2 0.153502 0.545129 0.382373
O O3 0.191014 0.461837 0.278798
O O4 0.966416 0.507618 0.066300
O O5 0.324425 0.750000 0.633766
O O6 0.293072 0.000002 0.674993
O O7 0.395429 0.008459 0.652425
O O8 0.641252 0.250000 0.159764
O O9 0.739824 0.998613 0.216907
O O10 0.500000 0.000000 0.000000
O O11 0.764121 0.750000 0.029820
O O12 0.845082 0.509060 0.203918
O O13 0.624451 0.496640 0.873067
O O14 0.823831 0.493920 0.023303
O O15 0.655434 0.750000 0.594717
O O16 0.563030 0.481125 0.451237
O O17 0.719592 0.508742 0.757039
O O18 0.514656 0.250000 0.304798
O O19 0.863535 0.750000 0.323211
O O20 0.000000 0.500000 0.500000
O O21 0.164368 0.250000 0.044770
#
# Coordination Sequence:
#
# PCOD8070609 Si02
#       8
#     4   4   4   4   4   4   4   4
#     4   9  17  32  54  75 100 138 185 227 263 321
#     4   8  16  30  53  79 102 137 186 229 268 326
#     4  11  22  38  62  91 121 155 199 251 301 355
#     4   9  19  36  59  80 104 145 194 230 266 333
#     4  10  19  31  49  79 113 140 172 225 286 327
#     4   9  17  34  57  79 104 141 188 227 261 322
#     4  11  24  42  64  89 120 157 198 249 307 364
#     4   9  18  31  52  79 105 139 186 228 265 324
#
# _framework density 20.708544
#
# number of rings (size 3 to 8) (size 9 to 14) (size 15 to 20)
#    0.000    2.500    0.000    3.000    1.750    2.500 
#    0.000    9.375    0.000    4.500    0.000    0.000 
#    0.000    0.000    0.000    0.000    0.000    0.000 
#
# Total GULP energy -396510.505580 kJ/mol
# GULP energy per Si atom -12390.953299 kJ/mol
# Density = 2.066141 g / cm^3
# Si number density = 20.708544 Si / 1000 Ang^3
#
#
#
# Elastic Constant Matrix: (Units=GPa)
#
#
# Indices 1 2 3 4 5 6 
#
# 1 98.8972 16.6824 52.5675 0.0000 -18.2204 0.0000
# 2 16.6824 37.0992 21.0387 0.0000 -1.1618 0.0000
# 3 52.5675 21.0387 139.4786 0.0000 -13.2670 0.0000
# 4 0.0000 0.0000 0.0000 28.6214 0.0000 -0.0960
# 5 -18.2204 -1.1618 -13.2670 0.0000 39.3330 0.0000
# 6 0.0000 0.0000 0.0000 -0.0960 0.0000 22.7531
#
#
#
# Elastic Compliance Matrix: (Units=1/GPa)
#
#
# Indices 1 2 3 4 5 6 
#
# 1 0.013873 -0.003701 -0.004204 0.000000 0.004899 0.000000
# 2 -0.003701 0.030479 -0.003389 0.000000 -0.001957 0.000000
# 3 -0.004204 -0.003389 0.009371 0.000000 0.001113 0.000000
# 4 0.000000 0.000000 0.000000 0.034939 0.000000 0.000147
# 5 0.004899 -0.001957 0.001113 0.000000 0.028011 0.000000
# 6 0.000000 0.000000 0.000000 0.000147 0.000000 0.043951
#
#
# Mechanical properties :
#
#
# Convention : Reuss Voigt Hill
#
# Bulk Modulus (GPa) = 32.11735 50.67247 41.39491
# Shear Modulus (GPa) = 25.82764 30.48727 28.15745
#
# Velocity S-wave (km/s) = 3.53540 3.84110 3.69141
# Velocity P-wave (km/s) = 5.67523 6.64790 6.18073
#
# Compressibility (1/GPa) = 0.03113582
#
# Stress axis : x y z
#
# Youngs Moduli (GPa) = 72.08183 32.80914 106.70996
#
# Poissons Ratio (x) = 0.12141 0.44865
# Poissons Ratio (y) = 0.26675 0.36163
# Poissons Ratio (z) = 0.30306 0.11119
#
# Static dielectric constant tensor:
#      x y z
#    x 4.007230 0.000000 -0.181600 
#    y 0.000000 3.331240 0.000000 
#    z -0.181600 0.000000 4.072330 
# 
# 
# High freq. dielectric constant tensor:
#      x y z
#    x 1.810480 0.000000 -0.010730 
#    y 0.000000 1.765760 0.000000 
#    z -0.010730 0.000000 1.827980 
# 
# From -- ./inp_files/61814.got.cif
#   From: 2010.06.25/outbox.cif.g09.slc.cpg/sg11_31_cif.got.tgz:61814.got - 2010.06.27 23:14:04.
