data_PCOD8070258
_publ_section_title
;
Structure prediction by ZEFSAII (Michael W. Deem and Ramdas Pophale) SiO2 
 PCOD8070258
Probable space group: P 21/M
;
_chemical_formula_sum "Si O2"
_cell_formula_units_Z 32
_cell_length_a 25.379204
_cell_length_b 9.170642
_cell_length_c 24.058353
_cell_angle_alpha 90.000000
_cell_angle_beta 17.973687
_cell_angle_gamma 90.000000
_cell_volume 1727.872419
_symmetry_space_group_name_H-M "P 21/M"
_symmetry_group_IT_number 11
_symmetry_cell_setting 'monoclinic'
loop_
_space_group_symop_operation_xyz
x,y,z
-x,1/2+y,-z
-x,-y,-z
x,1/2-y,z
loop_
_atom_site_type_symbol
_atom_site_label
_atom_site_fract_x
_atom_site_fract_y
_atom_site_fract_z
Si Si1 0.191269 0.577115 0.142574
Si Si2 0.195700 0.420844 0.747325
Si Si3 0.180111 0.080113 0.494354
Si Si4 0.336379 0.417141 0.223516
Si Si5 0.495901 0.424389 0.245702
Si Si6 0.504690 0.077000 0.361486
Si Si7 0.190545 0.579157 0.866936
Si Si8 0.684265 0.582087 0.878936
O O1 0.199778 0.750000 0.141369
O O2 0.200789 0.508861 0.194213
O O3 0.009665 0.527665 0.298245
O O4 0.340367 0.518758 0.952908
O O5 0.217837 0.250000 0.735826
O O6 0.332777 0.477802 0.564766
O O7 0.235653 0.500032 0.764650
O O8 0.003442 0.456919 0.919056
O O9 0.196230 0.250000 0.489052
O O10 0.203986 0.044855 0.405131
O O11 0.326694 0.008816 0.385962
O O12 0.403272 0.250000 0.162092
O O13 0.246782 0.439708 0.253419
O O14 0.491300 0.527072 0.075528
O O15 0.495874 0.250000 0.246264
O O16 0.505270 0.487706 0.298676
O O17 0.504263 0.250000 0.359134
O O18 0.676186 0.022399 0.220480
O O19 0.213775 0.750000 0.833127
O O20 0.688685 0.750000 0.892363
#
# Coordination Sequence:
#
# PCOD8070258 Si02
#       8
#     4   4   4   4   4   4   4   4
#     4  10  19  32  52  72  94 127 161 196 241 289
#     4   9  17  29  46  69  97 126 154 189 232 277
#     4   9  17  30  50  73  94 122 160 199 239 286
#     4   9  17  32  51  72  99 126 157 198 241 290
#     4   9  17  30  48  71  96 121 158 204 239 274
#     4   9  17  28  45  70  97 123 155 197 236 270
#     4   9  17  29  46  70  98 124 153 191 233 278
#     4  10  19  30  49  74  99 127 157 195 244 292
#
# _framework density 18.519884999999999
#
# number of rings (size 3 to 8) (size 9 to 14) (size 15 to 20)
#    0.000    2.750    1.250    0.750    0.000    2.000 
#    0.000    5.625    0.000    1.500    0.000    1.750 
#    0.000    0.000    0.000    0.000    0.000    0.000 
#
# Total GULP energy -396639.716390 kJ/mol
# GULP energy per Si atom -12394.991137 kJ/mol
# Density = 1.847773 g / cm^3
# Si number density = 18.519885 Si / 1000 Ang^3
#
#
#
# Elastic Constant Matrix: (Units=GPa)
#
#
# Indices 1 2 3 4 5 6 
#
# 1 157.9229 24.7950 98.4861 0.0000 -4.9821 0.0000
# 2 24.7950 23.4502 20.5562 0.0000 -0.4833 0.0000
# 3 98.4861 20.5562 145.3912 0.0000 -13.9764 0.0000
# 4 0.0000 0.0000 0.0000 12.3259 0.0000 0.3120
# 5 -4.9821 -0.4833 -13.9764 0.0000 20.9478 0.0000
# 6 0.0000 0.0000 0.0000 0.3120 0.0000 21.0347
#
#
#
# Elastic Compliance Matrix: (Units=1/GPa)
#
#
# Indices 1 2 3 4 5 6 
#
# 1 0.011798 -0.006080 -0.007347 0.000000 -0.002236 0.000000
# 2 -0.006080 0.052081 -0.003492 0.000000 -0.002575 0.000000
# 3 -0.007347 -0.003492 0.013007 0.000000 0.006850 0.000000
# 4 0.000000 0.000000 0.000000 0.081161 0.000000 -0.001204
# 5 -0.002236 -0.002575 0.006850 0.000000 0.051717 0.000000
# 6 0.000000 0.000000 0.000000 -0.001204 0.000000 0.047558
#
#
# Mechanical properties :
#
#
# Convention : Reuss Voigt Hill
#
# Bulk Modulus (GPa) = 23.23067 68.27098 45.75082
# Shear Modulus (GPa) = 16.36601 23.05682 19.71142
#
# Velocity S-wave (km/s) = 2.97593 3.53225 3.26596
# Velocity P-wave (km/s) = 4.93752 7.31979 6.24334
#
# Compressibility (1/GPa) = 0.04304654
#
# Stress axis : x y z
#
# Youngs Moduli (GPa) = 84.75721 19.20095 76.87994
#
# Poissons Ratio (x) = 0.11675 0.56487
# Poissons Ratio (y) = 0.51536 0.26847
# Poissons Ratio (z) = 0.62274 0.06705
#
# Static dielectric constant tensor:
#      x y z
#    x 3.655440 0.000000 -0.046870 
#    y 0.000000 3.006320 0.000000 
#    z -0.046870 0.000000 3.590860 
# 
# 
# High freq. dielectric constant tensor:
#      x y z
#    x 1.719110 0.000000 -0.003430 
#    y 0.000000 1.669880 0.000000 
#    z -0.003430 0.000000 1.722840 
# 
# From -- ./inp_files/69918.got.cif
#   From: 2010.06.25/outbox.cif.g09.slc.cpg/sg11_35_cif.got.tgz:69918.got - 2010.06.27 23:14:04.
