data_PCOD8070996
_publ_section_title
;
Structure prediction by ZEFSAII (Michael W. Deem and Ramdas Pophale) SiO2 
 PCOD8070996
Probable space group: P 21/M
;
_chemical_formula_sum "Si O2"
_cell_formula_units_Z 32
_cell_length_a 9.442091
_cell_length_b 15.024102
_cell_length_c 26.166382
_cell_angle_alpha 90.000000
_cell_angle_beta 151.944386
_cell_angle_gamma 90.000000
_cell_volume 1745.828426
_symmetry_space_group_name_H-M "P 21/M"
_symmetry_group_IT_number 11
_symmetry_cell_setting 'monoclinic'
loop_
_space_group_symop_operation_xyz
x,y,z
-x,1/2+y,-z
-x,-y,-z
x,1/2-y,z
loop_
_atom_site_type_symbol
_atom_site_label
_atom_site_fract_x
_atom_site_fract_y
_atom_site_fract_z
Si Si1 0.194361 0.851466 0.778953
Si Si2 0.171858 0.910849 0.656519
Si Si3 0.011297 0.649569 0.263229
Si Si4 0.236523 0.996111 0.875806
Si Si5 0.433919 0.479106 0.301612
Si Si6 0.523822 0.846648 0.599350
Si Si7 0.207055 0.557862 0.420604
Si Si8 0.654390 0.847363 0.420010
O O1 0.298791 0.750000 0.825704
O O2 0.258623 0.867385 0.739014
O O3 0.843900 0.865258 0.676042
O O4 0.335878 0.924231 0.863368
O O5 0.482573 0.934181 0.725898
O O6 0.952974 0.852779 0.550363
O O7 0.001030 0.002334 0.608604
O O8 0.885402 0.750000 0.228877
O O9 0.990253 0.588740 0.306407
O O10 0.364666 0.649650 0.364082
O O11 0.802595 0.597011 0.156871
O O12 0.926226 0.973220 0.806552
O O13 0.500000 0.000000 0.000000
O O14 0.575976 0.419491 0.391652
O O15 0.596537 0.575646 0.359272
O O16 0.505375 0.750000 0.619337
O O17 0.298878 0.853088 0.480035
O O18 0.500000 0.500000 0.500000
O O19 0.667767 0.750000 0.396859
#
# Coordination Sequence:
#
# PCOD8070996 Si02
#       8
#     4   4   4   4   4   4   4   4
#     4  10  20  35  57  82 107 141 187 227 271 328
#     4  12  20  32  53  79 116 150 174 220 267 322
#     4  10  19  33  55  83 109 139 186 233 269 323
#     4  10  21  41  63  80 100 139 188 242 288 329
#     4  10  22  37  51  82 114 144 186 228 274 321
#     4  10  19  32  51  77 112 150 185 220 256 311
#     4  12  17  30  51  75 112 149 184 212 256 324
#     4  10  19  32  52  78 114 155 185 210 258 325
#
# _framework density 18.329407
#
# number of rings (size 3 to 8) (size 9 to 14) (size 15 to 20)
#    0.000    1.500    5.000    1.875    0.000    3.500 
#    0.000    1.250    0.000    0.000    0.000    0.000 
#    0.000    0.000    0.000    0.000    0.000    0.000 
#
# Total GULP energy -396430.765348 kJ/mol
# GULP energy per Si atom -12388.461417 kJ/mol
# Density = 1.828769 g / cm^3
# Si number density = 18.329407 Si / 1000 Ang^3
#
#
#
# Elastic Constant Matrix: (Units=GPa)
#
#
# Indices 1 2 3 4 5 6 
#
# 1 89.2828 42.2854 25.4863 0.0000 -7.1459 0.0000
# 2 42.2854 128.1155 41.3252 0.0000 -11.0328 0.0000
# 3 25.4863 41.3252 96.8243 0.0000 -16.6296 0.0000
# 4 0.0000 0.0000 0.0000 15.9834 0.0000 -2.0342
# 5 -7.1459 -11.0328 -16.6296 0.0000 15.5157 0.0000
# 6 0.0000 0.0000 0.0000 -2.0342 0.0000 17.1783
#
#
#
# Elastic Compliance Matrix: (Units=1/GPa)
#
#
# Indices 1 2 3 4 5 6 
#
# 1 0.013619 -0.003808 -0.001651 0.000000 0.001795 0.000000
# 2 -0.003808 0.010218 -0.002956 0.000000 0.002343 0.000000
# 3 -0.001651 -0.002956 0.014135 0.000000 0.012287 0.000000
# 4 0.000000 0.000000 0.000000 0.063522 0.000000 0.007522
# 5 0.001795 0.002343 0.012287 0.000000 0.080113 0.000000
# 6 0.000000 0.000000 0.000000 0.007522 0.000000 0.059104
#
#
# Mechanical properties :
#
#
# Convention : Reuss Voigt Hill
#
# Bulk Modulus (GPa) = 47.30268 59.15738 53.23003
# Shear Modulus (GPa) = 18.89738 23.41052 21.15395
#
# Velocity S-wave (km/s) = 3.21438 3.57769 3.40089
# Velocity P-wave (km/s) = 6.29598 7.02930 6.67272
#
# Compressibility (1/GPa) = 0.02114045
#
# Stress axis : x y z
#
# Youngs Moduli (GPa) = 73.42793 97.87045 70.74827
#
# Poissons Ratio (x) = 0.37267 0.11683
# Poissons Ratio (y) = 0.27960 0.20914
# Poissons Ratio (z) = 0.12125 0.28932
#
# Static dielectric constant tensor:
#      x y z
#    x 3.407730 0.000000 0.046920 
#    y 0.000000 3.778160 0.000000 
#    z 0.046920 0.000000 3.156110 
# 
# 
# High freq. dielectric constant tensor:
#      x y z
#    x 1.698240 0.000000 -0.012650 
#    y 0.000000 1.728820 0.000000 
#    z -0.012650 0.000000 1.663840 
# 
# From -- ./inp_files/22149.got.cif
#   From: 2010.06.25/outbox.cif.g09.slc.cpg/sg11_12_cif.got.tgz:22149.got - 2010.06.27 23:14:04.
