data_PCOD8070006
_publ_section_title
;
Structure prediction by ZEFSAII (Michael W. Deem and Ramdas Pophale) SiO2 
 PCOD8070006
Probable space group: P 21/M
;
_chemical_formula_sum "Si O2"
_cell_formula_units_Z 28
_cell_length_a 33.795818
_cell_length_b 9.367049
_cell_length_c 9.868845
_cell_angle_alpha 90.000000
_cell_angle_beta 148.179749
_cell_angle_gamma 90.000000
_cell_volume 1647.228093
_symmetry_space_group_name_H-M "P 21/M"
_symmetry_group_IT_number 11
_symmetry_cell_setting 'monoclinic'
loop_
_space_group_symop_operation_xyz
x,y,z
-x,1/2+y,-z
-x,-y,-z
x,1/2-y,z
loop_
_atom_site_type_symbol
_atom_site_label
_atom_site_fract_x
_atom_site_fract_y
_atom_site_fract_z
Si Si1 0.661818 0.592695 0.335385
Si Si2 0.910739 0.583378 0.612738
Si Si3 0.365736 0.092208 0.425161
Si Si4 0.201029 0.418147 0.945536
Si Si5 0.499558 0.916825 0.858678
Si Si6 0.917840 0.085669 0.895243
Si Si7 0.200090 0.916826 0.219776
O O1 0.690852 0.750000 0.376126
O O2 0.644516 0.592414 0.443839
O O3 0.725350 0.476304 0.487215
O O4 0.581713 0.560019 0.027926
O O5 0.899379 0.750000 0.604926
O O6 0.858728 0.529885 0.338946
O O7 0.885761 0.504829 0.676990
O O8 0.996169 0.544301 0.822997
O O9 0.388632 0.250000 0.440574
O O10 0.431569 0.982719 0.570589
O O11 0.284338 0.047328 0.128698
O O12 0.193901 0.250000 0.957826
O O13 0.184380 0.503962 0.033783
O O14 0.483903 0.750000 0.838526
O O15 0.500000 0.000000 0.000000
O O16 0.910699 0.250000 0.832527
O O17 0.870920 0.051358 0.892613
O O18 0.211908 0.750000 0.226808
#
# Coordination Sequence:
#
# PCOD8070006 Si02
#       7
#     4   4   4   4   4   4   4
#     4   8  15  26  38  56  85 118 150 183 217 260
#     4   9  18  34  53  68  87 120 155 185 223 270
#     4   8  14  24  37  56  84 114 143 179 219 258
#     4   9  18  31  46  67  94 121 152 187 221 266
#     4   9  15  22  34  54  81 113 147 180 215 257
#     4   9  19  34  49  69  94 116 148 192 227 264
#     4  10  19  29  44  68  96 122 148 184 230 270
#
# _framework density 16.998253999999999
#
# number of rings (size 3 to 8) (size 9 to 14) (size 15 to 20)
#    0.000    3.143    0.000    2.571    0.000    8.000 
#    0.000    0.000    0.000    0.000    0.000    1.000 
#    0.000    0.000    0.000    0.000    0.000    0.000 
#
# Total GULP energy -346989.899108 kJ/mol
# GULP energy per Si atom -12392.496397 kJ/mol
# Density = 1.695956 g / cm^3
# Si number density = 16.998254 Si / 1000 Ang^3
#
#
#
# Elastic Constant Matrix: (Units=GPa)
#
#
# Indices 1 2 3 4 5 6 
#
# 1 39.7459 39.2170 60.3359 0.0000 2.1937 0.0000
# 2 39.2170 87.1713 64.8768 0.0000 4.7954 0.0000
# 3 60.3359 64.8768 123.5715 0.0000 16.7342 0.0000
# 4 0.0000 0.0000 0.0000 26.5581 0.0000 4.4754
# 5 2.1937 4.7954 16.7342 0.0000 13.9037 0.0000
# 6 0.0000 0.0000 0.0000 4.4754 0.0000 23.6304
#
#
#
# Elastic Compliance Matrix: (Units=1/GPa)
#
#
# Indices 1 2 3 4 5 6 
#
# 1 0.150750 -0.015996 -0.074950 0.000000 0.071940 0.000000
# 2 -0.015996 0.021024 -0.003091 0.000000 -0.001007 0.000000
# 3 -0.074950 -0.003091 0.053243 0.000000 -0.051191 0.000000
# 4 0.000000 0.000000 0.000000 0.038895 0.000000 -0.007366
# 5 0.071940 -0.001007 -0.051191 0.000000 0.122532 0.000000
# 6 0.000000 0.000000 0.000000 -0.007366 0.000000 0.043714
#
#
# Mechanical properties :
#
#
# Convention : Reuss Voigt Hill
#
# Bulk Modulus (GPa) = 27.06932 64.37201 45.72067
# Shear Modulus (GPa) = 7.92964 18.55569 13.24266
#
# Velocity S-wave (km/s) = 2.16220 3.30756 2.79419
# Velocity P-wave (km/s) = 4.71092 7.24835 6.11275
#
# Compressibility (1/GPa) = 0.03694219
#
# Stress axis : x y z
#
# Youngs Moduli (GPa) = 6.63351 47.56440 18.78175
#
# Poissons Ratio (x) = 0.76086 1.40769
# Poissons Ratio (y) = 0.10611 0.05806
# Poissons Ratio (z) = 0.49718 0.14702
#
# Static dielectric constant tensor:
#      x y z
#    x 2.898780 0.000000 0.520990 
#    y 0.000000 3.327820 0.000000 
#    z 0.520990 0.000000 3.766310 
# 
# 
# High freq. dielectric constant tensor:
#      x y z
#    x 1.609700 0.000000 0.034370 
#    y 0.000000 1.659810 0.000000 
#    z 0.034370 0.000000 1.656950 
# 
# From -- ./inp_files/29096.got.cif
#   From: 2010.06.25/outbox.cif.g09.slc.cpg/sg11_15_cif.got.tgz:29096.got - 2010.06.27 23:14:04.
