data_PCOD8070869
_publ_section_title
;
Structure prediction by ZEFSAII (Michael W. Deem and Ramdas Pophale) SiO2 
 PCOD8070869
Probable space group: P 21/M
;
_chemical_formula_sum "Si O2"
_cell_formula_units_Z 28
_cell_length_a 22.131034
_cell_length_b 8.878532
_cell_length_c 24.615353
_cell_angle_alpha 90.000000
_cell_angle_beta 17.502548
_cell_angle_gamma 90.000000
_cell_volume 1454.628164
_symmetry_space_group_name_H-M "P 21/M"
_symmetry_group_IT_number 11
_symmetry_cell_setting 'monoclinic'
loop_
_space_group_symop_operation_xyz
x,y,z
-x,1/2+y,-z
-x,-y,-z
x,1/2-y,z
loop_
_atom_site_type_symbol
_atom_site_label
_atom_site_fract_x
_atom_site_fract_y
_atom_site_fract_z
Si Si1 0.737872 0.073747 0.953653
Si Si2 0.362477 0.584459 0.075692
Si Si3 0.355043 0.927203 0.556762
Si Si4 0.191257 0.428398 0.803579
Si Si5 0.177436 0.070273 0.602724
Si Si6 0.345755 0.426270 0.345500
Si Si7 0.949106 0.915488 0.489163
O O1 0.765613 0.250000 0.917891
O O2 0.580571 0.039750 0.136307
O O3 0.654498 0.002114 0.968613
O O4 0.949393 0.010773 0.792932
O O5 0.458396 0.750000 0.986527
O O6 0.139887 0.595887 0.287915
O O7 0.500000 0.500000 0.000000
O O8 0.323500 0.750000 0.590860
O O9 0.593075 0.967970 0.354068
O O10 0.215224 0.007622 0.721979
O O11 0.280092 0.983812 0.563468
O O12 0.153709 0.250000 0.833152
O O13 0.000000 0.500000 0.000000
O O14 0.194538 0.250000 0.596812
O O15 0.287013 0.010731 0.454478
O O16 0.293912 0.250000 0.389229
O O17 0.221255 0.497978 0.401590
O O18 0.873968 0.750000 0.571132
O O19 0.000000 0.000000 0.500000
#
# Coordination Sequence:
#
# PCOD8070869 Si02
#       7
#     4   4   4   4   4   4   4
#     4   9  17  31  51  74 101 135 177 228 281 334
#     4  10  19  32  50  73 101 132 174 227 281 339
#     4  10  22  39  59  88 124 161 195 236 289 342
#     4  10  21  39  64  92 124 160 199 240 283 335
#     4  10  19  34  55  79 107 144 192 235 276 339
#     4   9  17  31  51  73 100 135 176 226 280 331
#     4  10  19  32  50  73 100 132 173 226 280 337
#
# _framework density 19.248905000000001
#
# number of rings (size 3 to 8) (size 9 to 14) (size 15 to 20)
#    0.000    2.286    1.429    1.714    0.000    4.571 
#    0.000    2.857    0.000    1.714    0.000    0.000 
#    0.000    0.000    0.000    0.000    0.000    0.000 
#
# Total GULP energy -346984.418699 kJ/mol
# GULP energy per Si atom -12392.300668 kJ/mol
# Density = 1.920509 g / cm^3
# Si number density = 19.248905 Si / 1000 Ang^3
#
#
#
# Elastic Constant Matrix: (Units=GPa)
#
#
# Indices 1 2 3 4 5 6 
#
# 1 167.9744 38.6236 72.4060 0.0000 0.1911 0.0000
# 2 38.6236 55.4339 33.5820 0.0000 1.6661 0.0000
# 3 72.4060 33.5820 146.3985 0.0000 10.9177 0.0000
# 4 0.0000 0.0000 0.0000 20.9410 0.0000 -0.8338
# 5 0.1911 1.6661 10.9177 0.0000 30.7117 0.0000
# 6 0.0000 0.0000 0.0000 -0.8338 0.0000 31.6791
#
#
#
# Elastic Compliance Matrix: (Units=1/GPa)
#
#
# Indices 1 2 3 4 5 6 
#
# 1 0.008249 -0.003781 -0.003312 0.000000 0.001331 0.000000
# 2 -0.003781 0.022694 -0.003334 0.000000 -0.000022 0.000000
# 3 -0.003312 -0.003334 0.009469 0.000000 -0.003165 0.000000
# 4 0.000000 0.000000 0.000000 0.047803 0.000000 0.001258
# 5 0.001331 -0.000022 -0.003165 0.000000 0.033679 0.000000
# 6 0.000000 0.000000 0.000000 0.001258 0.000000 0.031600
#
#
# Mechanical properties :
#
#
# Convention : Reuss Voigt Hill
#
# Bulk Modulus (GPa) = 51.12755 73.22555 62.17655
# Shear Modulus (GPa) = 27.64456 31.67938 29.66197
#
# Velocity S-wave (km/s) = 3.79378 4.06122 3.92978
# Velocity P-wave (km/s) = 6.76826 7.75341 7.27752
#
# Compressibility (1/GPa) = 0.01955893
#
# Stress axis : x y z
#
# Youngs Moduli (GPa) = 121.23196 44.06364 105.60423
#
# Poissons Ratio (x) = 0.16661 0.34971
# Poissons Ratio (y) = 0.45839 0.35209
# Poissons Ratio (z) = 0.40147 0.14691
#
# Static dielectric constant tensor:
#      x y z
#    x 3.518090 0.000000 0.030480 
#    y 0.000000 3.197800 0.000000 
#    z 0.030480 0.000000 3.587360 
# 
# 
# High freq. dielectric constant tensor:
#      x y z
#    x 1.756380 0.000000 0.002480 
#    y 0.000000 1.707260 0.000000 
#    z 0.002480 0.000000 1.764090 
# 
# From -- ./inp_files/69763.got.cif
#   From: 2010.06.25/outbox.cif.g09.slc.cpg/sg11_35_cif.got.tgz:69763.got - 2010.06.27 23:14:04.
