data_PCOD8070901
_publ_section_title
;
Structure prediction by ZEFSAII (Michael W. Deem and Ramdas Pophale) SiO2 
 PCOD8070901
Probable space group: P 21/M
;
_chemical_formula_sum "Si O2"
_cell_formula_units_Z 32
_cell_length_a 15.276613
_cell_length_b 8.809620
_cell_length_c 22.928967
_cell_angle_alpha 90.000000
_cell_angle_beta 148.588703
_cell_angle_gamma 90.000000
_cell_volume 1608.254395
_symmetry_space_group_name_H-M "P 21/M"
_symmetry_group_IT_number 11
_symmetry_cell_setting 'monoclinic'
loop_
_space_group_symop_operation_xyz
x,y,z
-x,1/2+y,-z
-x,-y,-z
x,1/2-y,z
loop_
_atom_site_type_symbol
_atom_site_label
_atom_site_fract_x
_atom_site_fract_y
_atom_site_fract_z
Si Si1 0.950707 0.923980 0.141493
Si Si2 0.422248 0.425069 0.104520
Si Si3 0.811243 0.572727 0.810033
Si Si4 0.546909 0.416463 0.583579
Si Si5 0.587274 0.430619 0.775659
Si Si6 0.617826 0.569536 0.115800
Si Si7 0.989206 0.928853 0.293519
Si Si8 0.278980 0.415394 0.524967
O O1 0.003718 0.750000 0.162845
O O2 0.020189 0.986353 0.243907
O O3 0.749913 0.940100 0.029460
O O4 0.016885 0.014299 0.122145
O O5 0.465908 0.250000 0.142279
O O6 0.406472 0.516271 0.155139
O O7 0.569551 0.501694 0.151132
O O8 0.827867 0.750000 0.831675
O O9 0.668945 0.534508 0.683136
O O10 0.755181 0.493303 0.838773
O O11 0.500000 0.500000 0.500000
O O12 0.632127 0.250000 0.621677
O O13 0.377506 0.390794 0.521651
O O14 0.593158 0.250000 0.772902
O O15 0.410357 0.489253 0.646371
O O16 0.597923 0.750000 0.104717
O O17 0.807162 0.516790 0.211074
O O18 0.500000 0.500000 0.000000
O O19 0.998530 0.750000 0.297049
O O20 0.119643 0.983081 0.417230
O O21 0.216037 0.250000 0.511837
#
# Coordination Sequence:
#
# PCOD8070901 Si02
#       8
#     4   4   4   4   4   4   4   4
#     4  10  21  38  57  84 122 156 192 245 299 351
#     4  11  23  41  64  90 117 152 198 247 298 356
#     4  11  22  35  54  83 115 155 202 243 289 350
#     4  10  19  32  50  76 111 152 196 244 294 347
#     4  10  22  42  62  83 117 160 201 245 294 346
#     4  11  22  40  63  91 122 155 192 238 296 356
#     4  10  21  37  59  88 121 153 190 239 296 350
#     4   9  20  36  55  81 113 150 194 240 288 344
#
# _framework density 19.897349999999999
#
# number of rings (size 3 to 8) (size 9 to 14) (size 15 to 20)
#    0.000    1.750    1.250    4.125    0.000    8.000 
#    0.000    0.625    0.000    0.000    0.000    0.000 
#    0.000    0.000    0.000    0.000    0.000    0.000 
#
# Total GULP energy -396596.425107 kJ/mol
# GULP energy per Si atom -12393.638285 kJ/mol
# Density = 1.985206 g / cm^3
# Si number density = 19.897350 Si / 1000 Ang^3
#
#
#
# Elastic Constant Matrix: (Units=GPa)
#
#
# Indices 1 2 3 4 5 6 
#
# 1 106.7400 36.4257 17.8954 0.0000 0.3151 0.0000
# 2 36.4257 84.0809 19.7504 0.0000 7.8760 0.0000
# 3 17.8954 19.7504 57.1619 0.0000 14.3508 0.0000
# 4 0.0000 0.0000 0.0000 29.8353 0.0000 -1.1356
# 5 0.3151 7.8760 14.3508 0.0000 26.2448 0.0000
# 6 0.0000 0.0000 0.0000 -1.1356 0.0000 33.8366
#
#
#
# Elastic Compliance Matrix: (Units=1/GPa)
#
#
# Indices 1 2 3 4 5 6 
#
# 1 0.011358 -0.004547 -0.002658 0.000000 0.002682 0.000000
# 2 -0.004547 0.014828 -0.003009 0.000000 -0.002750 0.000000
# 3 -0.002658 -0.003009 0.022175 0.000000 -0.011191 0.000000
# 4 0.000000 0.000000 0.000000 0.033560 0.000000 0.001126
# 5 0.002682 -0.002750 -0.011191 0.000000 0.045015 0.000000
# 6 0.000000 0.000000 0.000000 0.001126 0.000000 0.029592
#
#
# Mechanical properties :
#
#
# Convention : Reuss Voigt Hill
#
# Bulk Modulus (GPa) = 35.80089 44.01396 39.90743
# Shear Modulus (GPa) = 26.84304 29.57741 28.21023
#
# Velocity S-wave (km/s) = 3.67696 3.85970 3.76944
# Velocity P-wave (km/s) = 6.00488 6.48318 6.24861
#
# Compressibility (1/GPa) = 0.02793226
#
# Stress axis : x y z
#
# Youngs Moduli (GPa) = 88.04299 67.44089 45.09482
#
# Poissons Ratio (x) = 0.30668 0.11985
# Poissons Ratio (y) = 0.40037 0.13570
# Poissons Ratio (z) = 0.23400 0.20295
#
# Static dielectric constant tensor:
#      x y z
#    x 3.690010 0.000000 0.098410 
#    y 0.000000 3.540210 0.000000 
#    z 0.098410 0.000000 3.605970 
# 
# 
# High freq. dielectric constant tensor:
#      x y z
#    x 1.773980 0.000000 -0.000020 
#    y 0.000000 1.775700 0.000000 
#    z -0.000020 0.000000 1.772380 
# 
# From -- ./inp_files/69113.got.cif
#   From: 2010.06.25/outbox.cif.g09.slc.cpg/sg11_35_cif.got.tgz:69113.got - 2010.06.27 23:14:04.
