data_PCOD8070981
_publ_section_title
;
Structure prediction by ZEFSAII (Michael W. Deem and Ramdas Pophale) SiO2 
 PCOD8070981
Probable space group: P 21/M
;
_chemical_formula_sum "Si O2"
_cell_formula_units_Z 28
_cell_length_a 12.102272
_cell_length_b 21.221414
_cell_length_c 6.389959
_cell_angle_alpha 90.000000
_cell_angle_beta 98.091589
_cell_angle_gamma 90.000000
_cell_volume 1624.777665
_symmetry_space_group_name_H-M "P 21/M"
_symmetry_group_IT_number 11
_symmetry_cell_setting 'monoclinic'
loop_
_space_group_symop_operation_xyz
x,y,z
-x,1/2+y,-z
-x,-y,-z
x,1/2-y,z
loop_
_atom_site_type_symbol
_atom_site_label
_atom_site_fract_x
_atom_site_fract_y
_atom_site_fract_z
Si Si1 0.166836 0.680040 0.291135
Si Si2 0.928924 0.087317 0.019618
Si Si3 0.518091 0.452583 0.813601
Si Si4 0.330242 0.998911 0.493276
Si Si5 0.918016 0.517686 0.666909
Si Si6 0.248488 0.884920 0.704547
Si Si7 0.380531 0.679412 0.069681
O O1 0.128877 0.750000 0.333784
O O2 0.164400 0.641000 0.505650
O O3 0.291988 0.676336 0.234427
O O4 0.076854 0.654904 0.096992
O O5 0.822139 0.078244 0.139716
O O6 0.039103 0.079270 0.193082
O O7 0.918956 0.038275 0.831098
O O8 0.627149 0.479962 0.725575
O O9 0.412539 0.451766 0.627919
O O10 0.533584 0.379100 0.883900
O O11 0.500000 0.500000 0.000000
O O12 0.206983 0.029598 0.448636
O O13 0.332846 0.935511 0.631375
O O14 0.000000 0.500000 0.500000
O O15 0.318355 0.828481 0.829449
O O16 0.436531 0.750000 0.084791
#
# Coordination Sequence:
#
# PCOD8070981 Si02
#       7
#     4   4   4   4   4   4   4
#     4  10  19  32  51  76 109 142 174 221 275 327
#     4  10  20  30  52  78 108 138 172 216 266 324
#     4  11  22  35  54  77 113 148 177 227 272 326
#     4  11  21  33  53  80 111 140 180 216 277 323
#     4  11  20  34  53  78 108 141 174 223 267 317
#     4  11  17  33  51  79 112 136 171 224 272 326
#     4  10  20  33  51  77 106 144 185 223 272 329
#
# _framework density 17.233129000000002
#
# number of rings (size 3 to 8) (size 9 to 14) (size 15 to 20)
#    0.000    1.429    5.714    1.286    0.000    0.571 
#    0.000    0.000    0.000    0.857    0.000    4.000 
#    0.000    0.000    0.000    0.000    0.000    0.000 
#
# Total GULP energy -346992.034730 kJ/mol
# GULP energy per Si atom -12392.572669 kJ/mol
# Density = 1.719391 g / cm^3
# Si number density = 17.233129 Si / 1000 Ang^3
#
#
#
# Elastic Constant Matrix: (Units=GPa)
#
#
# Indices 1 2 3 4 5 6 
#
# 1 88.0363 39.6384 40.6791 0.0000 7.7996 0.0000
# 2 39.6384 110.3744 45.8253 0.0000 6.0485 0.0000
# 3 40.6791 45.8253 107.2454 0.0000 -4.5799 0.0000
# 4 0.0000 0.0000 0.0000 25.3831 0.0000 6.6425
# 5 7.7996 6.0485 -4.5799 0.0000 34.8614 0.0000
# 6 0.0000 0.0000 0.0000 6.6425 0.0000 24.8104
#
#
#
# Elastic Compliance Matrix: (Units=1/GPa)
#
#
# Indices 1 2 3 4 5 6 
#
# 1 0.015276 -0.003444 -0.004468 0.000000 -0.003407 0.000000
# 2 -0.003444 0.012019 -0.003907 0.000000 -0.001828 0.000000
# 3 -0.004468 -0.003907 0.012833 0.000000 0.003363 0.000000
# 4 0.000000 0.000000 0.000000 0.042364 0.000000 -0.011342
# 5 -0.003407 -0.001828 0.003363 0.000000 0.030206 0.000000
# 6 0.000000 0.000000 0.000000 -0.011342 0.000000 0.043342
#
#
# Mechanical properties :
#
#
# Convention : Reuss Voigt Hill
#
# Bulk Modulus (GPa) = 60.64896 61.99353 61.32125
# Shear Modulus (GPa) = 27.00112 28.97852 27.98982
#
# Velocity S-wave (km/s) = 3.96260 4.10513 4.03449
# Velocity P-wave (km/s) = 7.49706 7.64990 7.57387
#
# Compressibility (1/GPa) = 0.01648833
#
# Stress axis : x y z
#
# Youngs Moduli (GPa) = 65.46120 83.19817 77.92705
#
# Poissons Ratio (x) = 0.28656 0.34819
# Poissons Ratio (y) = 0.22547 0.30450
# Poissons Ratio (z) = 0.29249 0.32510
#
# Static dielectric constant tensor:
#      x y z
#    x 3.140000 0.000000 0.063600 
#    y 0.000000 3.274990 0.000000 
#    z 0.063600 0.000000 3.558060 
# 
# 
# High freq. dielectric constant tensor:
#      x y z
#    x 1.631540 0.000000 -0.000340 
#    y 0.000000 1.646100 0.000000 
#    z -0.000340 0.000000 1.694660 
# 
# From -- ./inp_files/4902.got.cif
#   From: 2010.06.25/outbox.cif.g09.slc.cpg/sg11_3_cif.got.tgz:4902.got - 2010.06.27 23:14:04.
