data_PCOD8070386
_publ_section_title
;
Structure prediction by ZEFSAII (Michael W. Deem and Ramdas Pophale) SiO2 
 PCOD8070386
Probable space group: P 21/M
;
_chemical_formula_sum "Si O2"
_cell_formula_units_Z 32
_cell_length_a 14.543450
_cell_length_b 8.855563
_cell_length_c 26.106577
_cell_angle_alpha 90.000000
_cell_angle_beta 147.258877
_cell_angle_gamma 90.000000
_cell_volume 1818.468140
_symmetry_space_group_name_H-M "P 21/M"
_symmetry_group_IT_number 11
_symmetry_cell_setting 'monoclinic'
loop_
_space_group_symop_operation_xyz
x,y,z
-x,1/2+y,-z
-x,-y,-z
x,1/2-y,z
loop_
_atom_site_type_symbol
_atom_site_label
_atom_site_fract_x
_atom_site_fract_y
_atom_site_fract_z
Si Si1 0.564170 0.574921 0.943699
Si Si2 0.055612 0.571456 0.603165
Si Si3 0.783898 0.925737 0.949108
Si Si4 0.744951 0.573326 0.390647
Si Si5 0.920532 0.928778 0.852583
Si Si6 0.641901 0.072382 0.781103
Si Si7 0.861744 0.072209 0.139733
Si Si8 0.816907 0.429096 0.230600
O O1 0.565874 0.750000 0.958683
O O2 0.635373 0.545432 0.920360
O O3 0.374812 0.506479 0.856983
O O4 0.678425 0.492771 0.039387
O O5 0.071954 0.750000 0.610036
O O6 0.209432 0.508350 0.640961
O O7 0.075383 0.508619 0.670525
O O8 0.873446 0.518283 0.495661
O O9 0.834211 0.750000 0.969267
O O10 0.716628 0.982426 0.863752
O O11 0.949977 0.021024 0.042162
O O12 0.764901 0.750000 0.390245
O O13 0.555386 0.530463 0.318975
O O14 0.894056 0.750000 0.842353
O O15 0.991905 0.983995 0.830717
O O16 0.741438 0.013633 0.777405
O O17 0.667913 0.250000 0.801187
O O18 0.845041 0.250000 0.127522
O O19 0.905603 0.021516 0.218567
O O20 0.807345 0.250000 0.229767
#
# Coordination Sequence:
#
# PCOD8070386 Si02
#       8
#     4   4   4   4   4   4   4   4
#     4   9  17  28  44  68  96 123 150 181 220 270
#     4   9  17  32  53  73  95 122 149 182 227 278
#     4  10  19  31  47  69  96 124 154 188 228 273
#     4   9  19  33  49  72  98 121 148 185 230 276
#     4  10  20  33  47  65  91 124 159 193 230 268
#     4  11  21  32  47  67  92 122 156 192 229 272
#     4   9  18  31  46  65  91 122 155 191 225 261
#     4   9  16  28  48  71  92 118 154 188 221 268
#
# _framework density 17.597228999999999
#
# number of rings (size 3 to 8) (size 9 to 14) (size 15 to 20)
#    0.000    2.500    0.000    2.625    0.000    3.000 
#    0.000    1.250    0.000    0.750    0.000    0.000 
#    0.000    0.000    0.000    0.000    0.000    0.500 
#
# Total GULP energy -396751.359469 kJ/mol
# GULP energy per Si atom -12398.479983 kJ/mol
# Density = 1.755718 g / cm^3
# Si number density = 17.597229 Si / 1000 Ang^3
#
#
#
# Elastic Constant Matrix: (Units=GPa)
#
#
# Indices 1 2 3 4 5 6 
#
# 1 116.6905 20.9732 74.7743 0.0000 -5.7052 0.0000
# 2 20.9732 25.9785 16.8425 0.0000 1.5942 0.0000
# 3 74.7743 16.8425 96.1057 0.0000 -4.0928 0.0000
# 4 0.0000 0.0000 0.0000 18.8348 0.0000 2.6170
# 5 -5.7052 1.5942 -4.0928 0.0000 31.9515 0.0000
# 6 0.0000 0.0000 0.0000 2.6170 0.0000 22.3851
#
#
#
# Elastic Compliance Matrix: (Units=1/GPa)
#
#
# Indices 1 2 3 4 5 6 
#
# 1 0.018026 -0.006350 -0.012831 0.000000 0.001892 0.000000
# 2 -0.006350 0.045984 -0.003282 0.000000 -0.003849 0.000000
# 3 -0.012831 -0.003282 0.020988 0.000000 0.000561 0.000000
# 4 0.000000 0.000000 0.000000 0.053970 0.000000 -0.006309
# 5 0.001892 -0.003849 0.000561 0.000000 0.031899 0.000000
# 6 0.000000 0.000000 0.000000 -0.006309 0.000000 0.045410
#
#
# Mechanical properties :
#
#
# Convention : Reuss Voigt Hill
#
# Bulk Modulus (GPa) = 24.95599 51.55050 38.25325
# Shear Modulus (GPa) = 18.21096 23.04659 20.62878
#
# Velocity S-wave (km/s) = 3.22044 3.62286 3.42756
# Velocity P-wave (km/s) = 5.29536 6.84532 6.11961
#
# Compressibility (1/GPa) = 0.04007054
#
# Stress axis : x y z
#
# Youngs Moduli (GPa) = 55.47643 21.74676 47.64711
#
# Poissons Ratio (x) = 0.13809 0.61138
# Poissons Ratio (y) = 0.35227 0.15638
# Poissons Ratio (z) = 0.71184 0.07137
#
# Static dielectric constant tensor:
#      x y z
#    x 3.594870 0.000000 -0.014990 
#    y 0.000000 3.146190 0.000000 
#    z -0.014990 0.000000 3.380830 
# 
# 
# High freq. dielectric constant tensor:
#      x y z
#    x 1.685860 0.000000 0.001010 
#    y 0.000000 1.669810 0.000000 
#    z 0.001010 0.000000 1.659750 
# 
# From -- ./inp_files/51664.got.cif
#   From: 2010.06.25/outbox.cif.g09.slc.cpg/sg11_26_cif.got.tgz:51664.got - 2010.06.27 23:14:04.
