data_PCOD8070163
_publ_section_title
;
Structure prediction by ZEFSAII (Michael W. Deem and Ramdas Pophale) SiO2 
 PCOD8070163
Probable space group: P 21/M
;
_chemical_formula_sum "Si O2"
_cell_formula_units_Z 32
_cell_length_a 17.255761
_cell_length_b 9.423020
_cell_length_c 22.235486
_cell_angle_alpha 90.000000
_cell_angle_beta 29.880677
_cell_angle_gamma 90.000000
_cell_volume 1801.235618
_symmetry_space_group_name_H-M "P 21/M"
_symmetry_group_IT_number 11
_symmetry_cell_setting 'monoclinic'
loop_
_space_group_symop_operation_xyz
x,y,z
-x,1/2+y,-z
-x,-y,-z
x,1/2-y,z
loop_
_atom_site_type_symbol
_atom_site_label
_atom_site_fract_x
_atom_site_fract_y
_atom_site_fract_z
Si Si1 0.703002 0.584682 0.942951
Si Si2 0.850778 0.910613 0.716629
Si Si3 0.446161 0.418292 0.303780
Si Si4 0.014345 0.586023 0.205584
Si Si5 0.425528 0.415497 0.181109
Si Si6 0.927971 0.912711 0.132075
Si Si7 0.764272 0.084139 0.146121
Si Si8 0.872353 0.915642 0.427120
O O1 0.692569 0.750000 0.966615
O O2 0.742166 0.559125 0.847072
O O3 0.833903 0.512193 0.896401
O O4 0.539815 0.509472 0.064258
O O5 0.912602 0.750000 0.676759
O O6 0.749303 0.939655 0.725446
O O7 0.000440 0.011254 0.615746
O O8 0.452025 0.250000 0.300418
O O9 0.432069 0.471441 0.244891
O O10 0.603715 0.478413 0.227549
O O11 0.298365 0.473897 0.441209
O O12 0.069208 0.750000 0.170604
O O13 0.918759 0.554815 0.209212
O O14 0.902570 0.549112 0.336803
O O15 0.472777 0.250000 0.143728
O O16 0.888320 0.750000 0.144631
O O17 0.799600 0.007957 0.185489
O O18 0.101029 0.949969 0.992542
O O19 0.750345 0.250000 0.168975
O O20 0.884913 0.750000 0.432242
#
# Coordination Sequence:
#
# PCOD8070163 Si02
#       8
#     4   4   4   4   4   4   4   4
#     4  10  19  30  46  72 102 124 152 198 242 280
#     4   9  19  33  48  69  97 127 157 195 242 283
#     4   9  18  33  51  70  93 125 164 198 231 277
#     4   9  17  31  51  71  93 126 162 192 230 282
#     4  10  19  32  50  69  94 129 162 192 235 289
#     4   9  17  30  49  72  95 120 153 189 229 282
#     4   9  17  30  48  69  95 123 150 188 236 280
#     4   9  18  33  52  70  91 124 164 201 232 271
#
# _framework density 17.765581999999998
#
# number of rings (size 3 to 8) (size 9 to 14) (size 15 to 20)
#    0.000    2.750    0.000    1.500    0.000    4.000 
#    0.000    5.000    0.000    0.000    0.000    0.000 
#    0.000    0.000    0.000    0.000    0.000    0.000 
#
# Total GULP energy -396837.652427 kJ/mol
# GULP energy per Si atom -12401.176638 kJ/mol
# Density = 1.772515 g / cm^3
# Si number density = 17.765582 Si / 1000 Ang^3
#
#
#
# Elastic Constant Matrix: (Units=GPa)
#
#
# Indices 1 2 3 4 5 6 
#
# 1 137.1921 44.3438 53.8205 0.0000 -17.2467 0.0000
# 2 44.3438 53.2956 35.3405 0.0000 -8.3594 0.0000
# 3 53.8205 35.3405 91.4276 0.0000 -18.9679 0.0000
# 4 0.0000 0.0000 0.0000 19.1344 0.0000 -5.4005
# 5 -17.2467 -8.3594 -18.9679 0.0000 19.0395 0.0000
# 6 0.0000 0.0000 0.0000 -5.4005 0.0000 28.9216
#
#
#
# Elastic Compliance Matrix: (Units=1/GPa)
#
#
# Indices 1 2 3 4 5 6 
#
# 1 0.011168 -0.006528 -0.003210 0.000000 0.004052 0.000000
# 2 -0.006528 0.029090 -0.007537 0.000000 -0.000649 0.000000
# 3 -0.003210 -0.007537 0.018216 0.000000 0.011930 0.000000
# 4 0.000000 0.000000 0.000000 0.055169 0.000000 0.010302
# 5 0.004052 -0.000649 0.011930 0.000000 0.067793 0.000000
# 6 0.000000 0.000000 0.000000 0.010302 0.000000 0.036500
#
#
# Mechanical properties :
#
#
# Convention : Reuss Voigt Hill
#
# Bulk Modulus (GPa) = 41.79782 60.99166 51.39474
# Shear Modulus (GPa) = 19.19680 23.31313 21.25496
#
# Velocity S-wave (km/s) = 3.29076 3.62645 3.46267
# Velocity P-wave (km/s) = 6.16581 7.20699 6.70664
#
# Compressibility (1/GPa) = 0.02392469
#
# Stress axis : x y z
#
# Youngs Moduli (GPa) = 89.54406 34.37578 54.89771
#
# Poissons Ratio (x) = 0.22439 0.17623
# Poissons Ratio (y) = 0.58451 0.41374
# Poissons Ratio (z) = 0.28746 0.25908
#
# Static dielectric constant tensor:
#      x y z
#    x 3.375520 0.000000 -0.005820 
#    y 0.000000 3.175610 0.000000 
#    z -0.005820 0.000000 3.244790 
# 
# 
# High freq. dielectric constant tensor:
#      x y z
#    x 1.691580 0.000000 0.000260 
#    y 0.000000 1.671310 0.000000 
#    z 0.000260 0.000000 1.673240 
# 
# From -- ./inp_files/68319.got.cif
#   From: 2010.06.25/outbox.cif.g09.slc.cpg/sg11_35_cif.got.tgz:68319.got - 2010.06.27 23:14:04.
