data_PCOD8070561
_publ_section_title
;
Structure prediction by ZEFSAII (Michael W. Deem and Ramdas Pophale) SiO2 
 PCOD8070561
Probable space group: P 21/M
;
_chemical_formula_sum "Si O2"
_cell_formula_units_Z 32
_cell_length_a 11.679059
_cell_length_b 8.831801
_cell_length_c 21.280746
_cell_angle_alpha 90.000000
_cell_angle_beta 52.184774
_cell_angle_gamma 90.000000
_cell_volume 1734.070413
_symmetry_space_group_name_H-M "P 21/M"
_symmetry_group_IT_number 11
_symmetry_cell_setting 'monoclinic'
loop_
_space_group_symop_operation_xyz
x,y,z
-x,1/2+y,-z
-x,-y,-z
x,1/2-y,z
loop_
_atom_site_type_symbol
_atom_site_label
_atom_site_fract_x
_atom_site_fract_y
_atom_site_fract_z
Si Si1 0.341005 0.574581 0.278248
Si Si2 0.337450 0.074271 0.795176
Si Si3 0.156513 0.926095 0.751301
Si Si4 0.836260 0.576444 0.910545
Si Si5 0.057850 0.080194 0.665205
Si Si6 0.051881 0.429021 0.418191
Si Si7 0.153360 0.571840 0.963995
Si Si8 0.262068 0.582946 0.172203
O O1 0.290597 0.750000 0.298694
O O2 0.490475 0.547687 0.264094
O O3 0.219469 0.471610 0.351086
O O4 0.362402 0.530292 0.197001
O O5 0.297841 0.250000 0.817323
O O6 0.277637 0.015256 0.749282
O O7 0.271730 0.980591 0.874472
O O8 0.195222 0.750000 0.736461
O O9 0.002291 0.954362 0.836319
O O10 0.160312 0.990369 0.679299
O O11 0.808862 0.750000 0.936752
O O12 0.729064 0.531603 0.889369
O O13 0.794798 0.475995 0.984298
O O14 0.118608 0.250000 0.634481
O O15 0.899201 0.086515 0.747142
O O16 0.053200 0.992169 0.600929
O O17 0.036193 0.250000 0.425645
O O18 0.000000 0.500000 0.500000
O O19 0.136285 0.750000 0.965601
O O20 0.000000 0.500000 0.000000
O O21 0.307697 0.750000 0.133083
#
# Coordination Sequence:
#
# PCOD8070561 Si02
#       8
#     4   4   4   4   4   4   4   4
#     4   9  20  38  57  80 110 143 180 218 264 324
#     4  11  22  36  55  77 107 145 181 223 274 325
#     4  10  19  31  50  77 108 141 182 226 266 317
#     4  10  19  31  49  74 102 133 176 228 275 319
#     4   9  17  31  52  79 110 140 177 222 265 312
#     4  11  21  35  59  88 116 144 176 217 264 315
#     4  12  23  35  51  73 103 138 182 231 277 325
#     4   8  15  30  51  73 100 134 173 219 266 314
#
# _framework density 18.453690000000002
#
# number of rings (size 3 to 8) (size 9 to 14) (size 15 to 20)
#    0.000    2.000    1.250    4.500    0.000    5.000 
#    0.000    0.625    0.000    0.750    0.000    0.000 
#    0.000    0.000    0.000    0.000    0.000    0.000 
#
# Total GULP energy -396826.033041 kJ/mol
# GULP energy per Si atom -12400.813533 kJ/mol
# Density = 1.841169 g / cm^3
# Si number density = 18.453690 Si / 1000 Ang^3
#
#
#
# Elastic Constant Matrix: (Units=GPa)
#
#
# Indices 1 2 3 4 5 6 
#
# 1 115.0774 55.6819 45.2225 0.0000 26.4862 0.0000
# 2 55.6819 144.6308 51.2911 0.0000 19.0619 0.0000
# 3 45.2225 51.2911 75.1086 0.0000 27.4232 0.0000
# 4 0.0000 0.0000 0.0000 28.8154 0.0000 8.1512
# 5 26.4862 19.0619 27.4232 0.0000 27.7451 0.0000
# 6 0.0000 0.0000 0.0000 8.1512 0.0000 30.0860
#
#
#
# Elastic Compliance Matrix: (Units=1/GPa)
#
#
# Indices 1 2 3 4 5 6 
#
# 1 0.013036 -0.002927 -0.003193 0.000000 -0.007278 0.000000
# 2 -0.002927 0.009782 -0.005451 0.000000 0.001462 0.000000
# 3 -0.003193 -0.005451 0.025783 0.000000 -0.018691 0.000000
# 4 0.000000 0.000000 0.000000 0.037584 0.000000 -0.010183
# 5 -0.007278 0.001462 -0.018691 0.000000 0.060460 0.000000
# 6 0.000000 0.000000 0.000000 -0.010183 0.000000 0.035997
#
#
# Mechanical properties :
#
#
# Convention : Reuss Voigt Hill
#
# Bulk Modulus (GPa) = 39.27926 71.02308 55.15117
# Shear Modulus (GPa) = 23.33508 29.50405 26.41956
#
# Velocity S-wave (km/s) = 3.55987 4.00286 3.78784
# Velocity P-wave (km/s) = 6.18291 7.74174 7.00582
#
# Compressibility (1/GPa) = 0.02545873
#
# Stress axis : x y z
#
# Youngs Moduli (GPa) = 76.71133 102.23268 38.78487
#
# Poissons Ratio (x) = 0.29927 0.12383
# Poissons Ratio (y) = 0.22456 0.21142
# Poissons Ratio (z) = 0.24491 0.55727
#
# Static dielectric constant tensor:
#      x y z
#    x 3.647050 0.000000 0.320140 
#    y 0.000000 3.550110 0.000000 
#    z 0.320140 0.000000 3.121850 
# 
# 
# High freq. dielectric constant tensor:
#      x y z
#    x 1.716680 0.000000 0.029740 
#    y 0.000000 1.728470 0.000000 
#    z 0.029740 0.000000 1.678920 
# 
# From -- ./inp_files/64384.got.cif
#   From: 2010.06.25/outbox.cif.g09.slc.cpg/sg11_33_cif.got.tgz:64384.got - 2010.06.27 23:14:04.
