data_PCOD8070630
_publ_section_title
;
Structure prediction by ZEFSAII (Michael W. Deem and Ramdas Pophale) SiO2 
 PCOD8070630
Probable space group: P 21/M
;
_chemical_formula_sum "Si O2"
_cell_formula_units_Z 32
_cell_length_a 12.720728
_cell_length_b 8.938611
_cell_length_c 19.054786
_cell_angle_alpha 90.000000
_cell_angle_beta 115.804668
_cell_angle_gamma 90.000000
_cell_volume 1950.586789
_symmetry_space_group_name_H-M "P 21/M"
_symmetry_group_IT_number 11
_symmetry_cell_setting 'monoclinic'
loop_
_space_group_symop_operation_xyz
x,y,z
-x,1/2+y,-z
-x,-y,-z
x,1/2-y,z
loop_
_atom_site_type_symbol
_atom_site_label
_atom_site_fract_x
_atom_site_fract_y
_atom_site_fract_z
Si Si1 0.980014 0.925103 0.331455
Si Si2 0.231073 0.925152 0.663873
Si Si3 0.118190 0.581100 0.236919
Si Si4 0.293395 0.072759 0.199993
Si Si5 0.186546 0.922526 0.492429
Si Si6 0.909255 0.080751 0.924056
Si Si7 0.416931 0.075495 0.531384
Si Si8 0.466648 0.073896 0.705326
O O1 0.950761 0.750000 0.317784
O O2 0.041315 0.983830 0.277969
O O3 0.063194 0.961156 0.421467
O O4 0.860554 0.015886 0.305463
O O5 0.251735 0.750000 0.680138
O O6 0.179419 0.964347 0.572207
O O7 0.352780 0.010153 0.711362
O O8 0.159392 0.750000 0.267643
O O9 0.234919 0.481562 0.257135
O O10 0.042405 0.581055 0.142485
O O11 0.298121 0.250000 0.198281
O O12 0.214666 0.008229 0.112613
O O13 0.421870 0.006197 0.228833
O O14 0.219643 0.750000 0.491266
O O15 0.285526 0.017834 0.482149
O O16 0.889153 0.250000 0.944990
O O17 0.000000 0.000000 0.000000
O O18 0.418494 0.250000 0.518460
O O19 0.460624 0.032653 0.621611
O O20 0.500000 0.000000 0.500000
O O21 0.474658 0.250000 0.720473
#
# Coordination Sequence:
#
# PCOD8070630 Si02
#       8
#     4   4   4   4   4   4   4   4
#     4  10  19  33  51  69  94 130 166 205 252 299
#     4  10  20  33  48  70  95 124 167 217 254 288
#     4   8  18  32  47  71 102 131 163 196 238 292
#     4  10  19  31  50  75 102 128 158 199 243 286
#     4   9  19  33  48  66  91 124 165 208 252 297
#     4   9  17  31  50  76 107 136 163 192 232 288
#     4  10  21  32  45  64  89 122 160 202 251 299
#     4  10  20  35  50  65  92 129 165 202 244 298
#
# _framework density 16.40532
#
# number of rings (size 3 to 8) (size 9 to 14) (size 15 to 20)
#    0.750    1.750    0.000    2.625    1.750    3.000 
#    0.000    0.000    0.000    0.000    0.000    0.875 
#    0.000    0.000    0.000    0.000    0.000    0.000 
#
# Total GULP energy -396685.145480 kJ/mol
# GULP energy per Si atom -12396.410796 kJ/mol
# Density = 1.636798 g / cm^3
# Si number density = 16.405320 Si / 1000 Ang^3
#
#
#
# Elastic Constant Matrix: (Units=GPa)
#
#
# Indices 1 2 3 4 5 6 
#
# 1 96.2556 44.4221 34.5894 0.0000 20.5788 0.0000
# 2 44.4221 93.1225 32.8549 0.0000 18.2505 0.0000
# 3 34.5894 32.8549 61.6472 0.0000 19.9468 0.0000
# 4 0.0000 0.0000 0.0000 23.8978 0.0000 5.5134
# 5 20.5788 18.2505 19.9468 0.0000 21.5879 0.0000
# 6 0.0000 0.0000 0.0000 5.5134 0.0000 32.3587
#
#
#
# Elastic Compliance Matrix: (Units=1/GPa)
#
#
# Indices 1 2 3 4 5 6 
#
# 1 0.015449 -0.004576 -0.003874 0.000000 -0.007278 0.000000
# 2 -0.004576 0.015288 -0.004008 0.000000 -0.004859 0.000000
# 3 -0.003874 -0.004008 0.026018 0.000000 -0.016959 0.000000
# 4 0.000000 0.000000 0.000000 0.043557 0.000000 -0.007421
# 5 -0.007278 -0.004859 -0.016959 0.000000 0.073038 0.000000
# 6 0.000000 0.000000 0.000000 -0.007421 0.000000 0.032168
#
#
# Mechanical properties :
#
#
# Convention : Reuss Voigt Hill
#
# Bulk Modulus (GPa) = 31.40849 52.75089 42.07969
# Shear Modulus (GPa) = 20.74270 24.84614 22.79442
#
# Velocity S-wave (km/s) = 3.55968 3.89590 3.73158
# Velocity P-wave (km/s) = 6.00683 7.24306 6.65372
#
# Compressibility (1/GPa) = 0.03183853
#
# Stress axis : x y z
#
# Youngs Moduli (GPa) = 64.72758 65.41141 38.43430
#
# Poissons Ratio (x) = 0.29935 0.14891
# Poissons Ratio (y) = 0.29622 0.15404
# Poissons Ratio (z) = 0.25078 0.26215
#
# Static dielectric constant tensor:
#      x y z
#    x 3.092260 0.000000 0.019040 
#    y 0.000000 3.165020 0.000000 
#    z 0.019040 0.000000 2.888770 
# 
# 
# High freq. dielectric constant tensor:
#      x y z
#    x 1.621670 0.000000 0.012190 
#    y 0.000000 1.642220 0.000000 
#    z 0.012190 0.000000 1.598490 
# 
# From -- ./inp_files/64220.got.cif
#   From: 2010.06.25/outbox.cif.g09.slc.cpg/sg11_33_cif.got.tgz:64220.got - 2010.06.27 23:14:04.
