data_PCOD8070865
_publ_section_title
;
Structure prediction by ZEFSAII (Michael W. Deem and Ramdas Pophale) SiO2 
 PCOD8070865
Probable space group: P 21/M
;
_chemical_formula_sum "Si O2"
_cell_formula_units_Z 32
_cell_length_a 12.068639
_cell_length_b 9.194079
_cell_length_c 21.968555
_cell_angle_alpha 90.000000
_cell_angle_beta 46.487334
_cell_angle_gamma 90.000000
_cell_volume 1767.824301
_symmetry_space_group_name_H-M "P 21/M"
_symmetry_group_IT_number 11
_symmetry_cell_setting 'monoclinic'
loop_
_space_group_symop_operation_xyz
x,y,z
-x,1/2+y,-z
-x,-y,-z
x,1/2-y,z
loop_
_atom_site_type_symbol
_atom_site_label
_atom_site_fract_x
_atom_site_fract_y
_atom_site_fract_z
Si Si1 0.099348 0.916088 0.913167
Si Si2 0.366019 0.421279 0.215854
Si Si3 0.430285 0.923590 0.754159
Si Si4 0.729318 0.079478 0.427171
Si Si5 0.497900 0.579588 0.593986
Si Si6 0.936969 0.576804 0.730143
Si Si7 0.877596 0.916433 0.889007
Si Si8 0.581391 0.421576 0.024335
O O1 0.105669 0.750000 0.933069
O O2 0.270216 0.982046 0.842524
O O3 0.028541 0.927277 0.872574
O O4 0.000000 0.000000 0.000000
O O5 0.347546 0.250000 0.225829
O O6 0.428959 0.479241 0.256886
O O7 0.199770 0.486334 0.260720
O O8 0.490326 0.464728 0.118953
O O9 0.420971 0.750000 0.756448
O O10 0.457203 0.982862 0.675969
O O11 0.725021 0.250000 0.442393
O O12 0.643106 0.042744 0.396875
O O13 0.901869 0.019269 0.356376
O O14 0.651119 0.998439 0.513079
O O15 0.531944 0.750000 0.583260
O O16 0.938671 0.750000 0.729997
O O17 0.913503 0.522748 0.808136
O O18 0.817788 0.750000 0.908088
O O19 0.751435 0.017915 0.967991
O O20 0.584305 0.250000 0.011939
O O21 0.500000 0.500000 0.000000
#
# Coordination Sequence:
#
# PCOD8070865 Si02
#       8
#     4   4   4   4   4   4   4   4
#     4  10  20  33  50  72 101 133 167 208 249 295
#     4   9  17  29  48  71  96 127 166 206 236 282
#     4   9  17  31  50  72  97 131 169 199 239 292
#     4   9  17  30  51  74  96 122 155 199 248 295
#     4   9  17  31  51  74  96 121 157 200 244 292
#     4   9  16  29  48  71  95 123 163 203 241 290
#     4  10  19  32  50  72  98 129 168 210 250 292
#     4  11  20  32  50  73 101 133 169 208 247 292
#
# _framework density 18.101347000000001
#
# number of rings (size 3 to 8) (size 9 to 14) (size 15 to 20)
#    0.000    2.500    1.250    1.875    0.000    4.500 
#    0.000    1.875    0.000    4.500    0.000    0.000 
#    0.000    0.000    0.000    0.000    0.000    0.000 
#
# Total GULP energy -396736.565127 kJ/mol
# GULP energy per Si atom -12398.017660 kJ/mol
# Density = 1.806015 g / cm^3
# Si number density = 18.101347 Si / 1000 Ang^3
#
#
#
# Elastic Constant Matrix: (Units=GPa)
#
#
# Indices 1 2 3 4 5 6 
#
# 1 121.9684 19.3376 80.1647 0.0000 -7.0821 0.0000
# 2 19.3376 28.7444 34.5938 0.0000 -2.4577 0.0000
# 3 80.1647 34.5938 154.1176 0.0000 -9.2827 0.0000
# 4 0.0000 0.0000 0.0000 27.2556 0.0000 -2.7449
# 5 -7.0821 -2.4577 -9.2827 0.0000 36.7703 0.0000
# 6 0.0000 0.0000 0.0000 -2.7449 0.0000 17.3816
#
#
#
# Elastic Compliance Matrix: (Units=1/GPa)
#
#
# Indices 1 2 3 4 5 6 
#
# 1 0.012493 -0.000786 -0.006275 0.000000 0.000769 0.000000
# 2 -0.000786 0.047724 -0.010277 0.000000 0.000444 0.000000
# 3 -0.006275 -0.010277 0.012130 0.000000 0.001167 0.000000
# 4 0.000000 0.000000 0.000000 0.037283 0.000000 0.005888
# 5 0.000769 0.000444 0.001167 0.000000 0.027668 0.000000
# 6 0.000000 0.000000 0.000000 0.005888 0.000000 0.058462
#
#
# Mechanical properties :
#
#
# Convention : Reuss Voigt Hill
#
# Bulk Modulus (GPa) = 26.54621 63.66918 45.10770
# Shear Modulus (GPa) = 20.57678 27.66377 24.12028
#
# Velocity S-wave (km/s) = 3.37524 3.91355 3.65432
# Velocity P-wave (km/s) = 5.46688 7.46132 6.54057
#
# Compressibility (1/GPa) = 0.03767015
#
# Stress axis : x y z
#
# Youngs Moduli (GPa) = 80.04715 20.95372 82.44284
#
# Poissons Ratio (x) = 0.01648 0.51735
# Poissons Ratio (y) = 0.06294 0.84723
# Poissons Ratio (z) = 0.50231 0.21533
#
# Static dielectric constant tensor:
#      x y z
#    x 3.651070 0.000000 -0.098690 
#    y 0.000000 3.347570 0.000000 
#    z -0.098690 0.000000 3.398020 
# 
# 
# High freq. dielectric constant tensor:
#      x y z
#    x 1.711700 0.000000 -0.003270 
#    y 0.000000 1.655700 0.000000 
#    z -0.003270 0.000000 1.700280 
# 
# From -- ./inp_files/64391.got.cif
#   From: 2010.06.25/outbox.cif.g09.slc.cpg/sg11_33_cif.got.tgz:64391.got - 2010.06.27 23:14:04.
