data_PCOD8070746
_publ_section_title
;
Structure prediction by ZEFSAII (Michael W. Deem and Ramdas Pophale) SiO2 
 PCOD8070746
Probable space group: P 21/M
;
_chemical_formula_sum "Si O2"
_cell_formula_units_Z 28
_cell_length_a 16.621234
_cell_length_b 9.005479
_cell_length_c 14.930678
_cell_angle_alpha 90.000000
_cell_angle_beta 134.358133
_cell_angle_gamma 90.000000
_cell_volume 1597.885954
_symmetry_space_group_name_H-M "P 21/M"
_symmetry_group_IT_number 11
_symmetry_cell_setting 'monoclinic'
loop_
_space_group_symop_operation_xyz
x,y,z
-x,1/2+y,-z
-x,-y,-z
x,1/2-y,z
loop_
_atom_site_type_symbol
_atom_site_label
_atom_site_fract_x
_atom_site_fract_y
_atom_site_fract_z
Si Si1 0.637565 0.074382 0.738973
Si Si2 0.650562 0.577848 0.060228
Si Si3 0.971911 0.421279 0.885664
Si Si4 0.211667 0.080477 0.001699
Si Si5 0.597382 0.076483 0.191820
Si Si6 0.747246 0.577603 0.661163
Si Si7 0.397540 0.420845 0.623513
O O1 0.640538 0.250000 0.726661
O O2 0.516490 0.018856 0.679013
O O3 0.660518 0.995436 0.662771
O O4 0.733463 0.028522 0.883571
O O5 0.649942 0.750000 0.085172
O O6 0.749235 0.536432 0.067641
O O7 0.671197 0.487421 0.167401
O O8 0.532740 0.531220 0.923000
O O9 0.942318 0.250000 0.882007
O O10 0.867669 0.499311 0.756882
O O11 0.077460 0.436159 0.900991
O O12 0.000000 0.500000 0.000000
O O13 0.249020 0.250000 0.052370
O O14 0.616253 0.250000 0.209728
O O15 0.640351 0.009847 0.318413
O O16 0.761307 0.750000 0.697116
O O17 0.698877 0.555419 0.524609
O O18 0.411046 0.250000 0.660933
#
# Coordination Sequence:
#
# PCOD8070746 Si02
#       7
#     4   4   4   4   4   4   4
#     4  11  21  33  53  80 108 140 180 221 265 317
#     4   9  18  33  52  77 108 141 172 211 268 323
#     4  11  22  36  56  80 106 140 183 226 267 309
#     4  10  20  35  55  78 108 142 175 217 269 318
#     4  10  19  31  53  81 108 139 173 216 265 320
#     4  11  23  38  54  74 108 148 184 220 266 319
#     4  10  22  37  53  77 109 146 180 219 268 321
#
# _framework density 17.523154000000002
#
# number of rings (size 3 to 8) (size 9 to 14) (size 15 to 20)
#    0.000    1.714    2.857    2.143    0.000    3.429 
#    0.000    0.000    0.000    0.857    0.000    0.000 
#    0.000    0.000    0.000    0.000    0.000    0.000 
#
# Total GULP energy -347324.403045 kJ/mol
# GULP energy per Si atom -12404.442966 kJ/mol
# Density = 1.748327 g / cm^3
# Si number density = 17.523154 Si / 1000 Ang^3
#
#
#
# Elastic Constant Matrix: (Units=GPa)
#
#
# Indices 1 2 3 4 5 6 
#
# 1 107.9654 44.1289 41.2816 0.0000 -20.0602 0.0000
# 2 44.1289 91.2692 46.2170 0.0000 -14.4831 0.0000
# 3 41.2816 46.2170 82.4032 0.0000 -9.8259 0.0000
# 4 0.0000 0.0000 0.0000 29.2833 0.0000 -2.5087
# 5 -20.0602 -14.4831 -9.8259 0.0000 28.8541 0.0000
# 6 0.0000 0.0000 0.0000 -2.5087 0.0000 25.4031
#
#
#
# Elastic Compliance Matrix: (Units=1/GPa)
#
#
# Indices 1 2 3 4 5 6 
#
# 1 0.013356 -0.003437 -0.004025 0.000000 0.006190 0.000000
# 2 -0.003437 0.016900 -0.007328 0.000000 0.003598 0.000000
# 3 -0.004025 -0.007328 0.018230 0.000000 -0.000269 0.000000
# 4 0.000000 0.000000 0.000000 0.034441 0.000000 0.003401
# 5 0.006190 0.003598 -0.000269 0.000000 0.040675 0.000000
# 6 0.000000 0.000000 0.000000 0.003401 0.000000 0.039701
#
#
# Mechanical properties :
#
#
# Convention : Reuss Voigt Hill
#
# Bulk Modulus (GPa) = 52.89381 60.54365 56.71873
# Shear Modulus (GPa) = 25.10234 26.70879 25.90557
#
# Velocity S-wave (km/s) = 3.78898 3.90834 3.84912
# Velocity P-wave (km/s) = 7.02797 7.41569 7.22443
#
# Compressibility (1/GPa) = 0.01890580
#
# Stress axis : x y z
#
# Youngs Moduli (GPa) = 74.87117 59.17145 54.85550
#
# Poissons Ratio (x) = 0.20339 0.22080
# Poissons Ratio (y) = 0.25736 0.40196
# Poissons Ratio (z) = 0.30137 0.43359
#
# Static dielectric constant tensor:
#      x y z
#    x 3.387900 0.000000 -0.005290 
#    y 0.000000 3.339790 0.000000 
#    z -0.005290 0.000000 3.078940 
# 
# 
# High freq. dielectric constant tensor:
#      x y z
#    x 1.678220 0.000000 -0.008570 
#    y 0.000000 1.687730 0.000000 
#    z -0.008570 0.000000 1.655620 
# 
# From -- ./inp_files/37691.got.cif
#   From: 2010.06.25/outbox.cif.g09.slc.cpg/sg11_19_cif.got.tgz:37691.got - 2010.06.27 23:14:04.
