data_PCOD8070861
_publ_section_title
;
Structure prediction by ZEFSAII (Michael W. Deem and Ramdas Pophale) SiO2 
 PCOD8070861
Probable space group: P 21/M
;
_chemical_formula_sum "Si O2"
_cell_formula_units_Z 24
_cell_length_a 19.323682
_cell_length_b 8.961573
_cell_length_c 9.197133
_cell_angle_alpha 90.000000
_cell_angle_beta 58.674238
_cell_angle_gamma 90.000000
_cell_volume 1360.501266
_symmetry_space_group_name_H-M "P 21/M"
_symmetry_group_IT_number 11
_symmetry_cell_setting 'monoclinic'
loop_
_space_group_symop_operation_xyz
x,y,z
-x,1/2+y,-z
-x,-y,-z
x,1/2-y,z
loop_
_atom_site_type_symbol
_atom_site_label
_atom_site_fract_x
_atom_site_fract_y
_atom_site_fract_z
Si Si1 0.664432 0.576198 0.644370
Si Si2 0.166627 0.072458 0.655855
Si Si3 0.076505 0.576196 0.987740
Si Si4 0.013170 0.422116 0.637472
Si Si5 0.505275 0.927705 0.650241
Si Si6 0.569828 0.925422 0.016341
O O1 0.668698 0.750000 0.608638
O O2 0.749499 0.506174 0.500060
O O3 0.589076 0.515109 0.631725
O O4 0.651539 0.546833 0.831925
O O5 0.166672 0.250000 0.671489
O O6 0.094328 0.017851 0.628766
O O7 0.155335 0.002214 0.830359
O O8 0.077386 0.750000 0.948225
O O9 0.000000 0.500000 0.000000
O O10 0.066274 0.552056 0.173028
O O11 0.025836 0.250000 0.589765
O O12 0.000000 0.500000 0.500000
O O13 0.498552 0.750000 0.649343
O O14 0.500000 0.000000 0.500000
O O15 0.429579 0.992363 0.828009
O O16 0.553552 0.750000 0.054659
O O17 0.500000 0.000000 0.000000
#
# Coordination Sequence:
#
# PCOD8070861 Si02
#       6
#     4   4   4   4   4   4
#     4   8  16  31  51  71  93 121 157 195 235 281
#     4   9  17  32  51  71  92 120 158 197 232 277
#     4   9  17  30  47  69  93 122 157 192 230 278
#     4   9  18  30  47  68  92 119 151 188 227 271
#     4  10  19  32  50  72  96 126 161 200 242 288
#     4   9  16  29  49  71  95 126 160 196 235 285
#
# _framework density 17.640557000000001
#
# number of rings (size 3 to 8) (size 9 to 14) (size 15 to 20)
#    0.000    3.000    0.000    3.500    0.000    3.333 
#    0.000    6.667    0.000    8.000    0.000    0.000 
#    0.000    0.000    0.000    0.000    0.000    0.000 
#
# Total GULP energy -297320.544736 kJ/mol
# GULP energy per Si atom -12388.356031 kJ/mol
# Density = 1.760041 g / cm^3
# Si number density = 17.640557 Si / 1000 Ang^3
#
#
#
# Elastic Constant Matrix: (Units=GPa)
#
#
# Indices 1 2 3 4 5 6 
#
# 1 53.6965 23.2446 61.4458 0.0000 -3.5510 0.0000
# 2 23.2446 71.3714 61.7585 0.0000 2.4249 0.0000
# 3 61.4458 61.7585 191.6689 0.0000 -3.6987 0.0000
# 4 0.0000 0.0000 0.0000 37.6241 0.0000 5.0151
# 5 -3.5510 2.4249 -3.6987 0.0000 31.8135 0.0000
# 6 0.0000 0.0000 0.0000 5.0151 0.0000 18.4970
#
#
#
# Elastic Compliance Matrix: (Units=1/GPa)
#
#
# Indices 1 2 3 4 5 6 
#
# 1 0.029805 -0.002169 -0.008809 0.000000 0.002468 0.000000
# 2 -0.002169 0.019743 -0.005713 0.000000 -0.002411 0.000000
# 3 -0.008809 -0.005713 0.009894 0.000000 0.000602 0.000000
# 4 0.000000 0.000000 0.000000 0.027575 0.000000 -0.007476
# 5 0.002468 -0.002411 0.000602 0.000000 0.031963 0.000000
# 6 0.000000 0.000000 0.000000 -0.007476 0.000000 0.056090
#
#
# Mechanical properties :
#
#
# Convention : Reuss Voigt Hill
#
# Bulk Modulus (GPa) = 38.37108 67.73718 53.05413
# Shear Modulus (GPa) = 23.02707 28.93945 25.98326
#
# Velocity S-wave (km/s) = 3.61688 4.05471 3.84204
# Velocity P-wave (km/s) = 6.26429 7.77193 7.05847
#
# Compressibility (1/GPa) = 0.02606130
#
# Stress axis : x y z
#
# Youngs Moduli (GPa) = 33.55142 50.65170 101.07630
#
# Poissons Ratio (x) = 0.10985 0.89034
# Poissons Ratio (y) = 0.07277 0.57741
# Poissons Ratio (z) = 0.29554 0.28935
#
# Static dielectric constant tensor:
#      x y z
#    x 3.056810 0.000000 -0.221600 
#    y 0.000000 3.360000 0.000000 
#    z -0.221600 0.000000 4.076080 
# 
# 
# High freq. dielectric constant tensor:
#      x y z
#    x 1.630610 0.000000 -0.005050 
#    y 0.000000 1.675360 0.000000 
#    z -0.005050 0.000000 1.708830 
# 
# From -- ./inp_files/23757.got.cif
#   From: 2010.06.25/outbox.cif.g09.slc.cpg/sg11_12_cif.got.tgz:23757.got - 2010.06.27 23:14:04.
