data_PCOD8070779
_publ_section_title
;
Structure prediction by ZEFSAII (Michael W. Deem and Ramdas Pophale) SiO2 
 PCOD8070779
Probable space group: P 21/M
;
_chemical_formula_sum "Si O2"
_cell_formula_units_Z 32
_cell_length_a 27.039833
_cell_length_b 9.037527
_cell_length_c 19.038893
_cell_angle_alpha 90.000000
_cell_angle_beta 155.306511
_cell_angle_gamma 90.000000
_cell_volume 1943.686157
_symmetry_space_group_name_H-M "P 21/M"
_symmetry_group_IT_number 11
_symmetry_cell_setting 'monoclinic'
loop_
_space_group_symop_operation_xyz
x,y,z
-x,1/2+y,-z
-x,-y,-z
x,1/2-y,z
loop_
_atom_site_type_symbol
_atom_site_label
_atom_site_fract_x
_atom_site_fract_y
_atom_site_fract_z
Si Si1 0.724819 0.076123 0.816794
Si Si2 0.002417 0.923259 0.811569
Si Si3 0.088232 0.573769 0.168774
Si Si4 0.982592 0.080658 0.646215
Si Si5 0.325618 0.575446 0.403258
Si Si6 0.116749 0.920651 0.625059
Si Si7 0.773457 0.577545 0.115849
Si Si8 0.587606 0.575142 0.763257
O O1 0.702346 0.250000 0.793194
O O2 0.694500 0.011338 0.700815
O O3 0.639226 0.996621 0.760295
O O4 0.859818 0.035936 0.007857
O O5 0.979997 0.750000 0.794098
O O6 0.933557 0.014033 0.781747
O O7 0.951889 0.973689 0.671106
O O8 0.071878 0.750000 0.144723
O O9 0.221148 0.523532 0.319986
O O10 0.000000 0.500000 0.000000
O O11 0.986719 0.250000 0.677965
O O12 0.878510 0.060023 0.453474
O O13 0.109669 0.036728 0.777705
O O14 0.321995 0.750000 0.391730
O O15 0.451741 0.522844 0.596972
O O16 0.108558 0.750000 0.635141
O O17 0.226891 0.993073 0.809250
O O18 0.000000 0.000000 0.500000
O O19 0.768627 0.750000 0.126540
O O20 0.659460 0.523430 0.924884
O O21 0.598839 0.750000 0.768382
#
# Coordination Sequence:
#
# PCOD8070779 Si02
#       8
#     4   4   4   4   4   4   4   4
#     4  10  19  32  47  69 100 128 162 201 240 286
#     4  11  21  32  49  73  98 129 164 201 245 287
#     4  11  21  36  54  71  94 126 165 208 250 288
#     4   9  17  30  45  68  97 126 161 196 234 286
#     4   9  19  35  51  68  94 127 164 205 243 283
#     4   9  17  28  44  66  95 128 160 192 233 285
#     4   9  17  28  44  69  98 127 160 191 232 289
#     4  10  19  32  50  71  97 130 165 197 235 288
#
# _framework density 16.463564000000002
#
# number of rings (size 3 to 8) (size 9 to 14) (size 15 to 20)
#    0.000    2.250    2.500    2.250    0.000    3.500 
#    0.000    1.250    0.000    0.000    0.000    0.875 
#    0.000    0.000    0.000    0.000    0.000    0.000 
#
# Total GULP energy -396718.147453 kJ/mol
# GULP energy per Si atom -12397.442108 kJ/mol
# Density = 1.642609 g / cm^3
# Si number density = 16.463564 Si / 1000 Ang^3
#
#
#
# Elastic Constant Matrix: (Units=GPa)
#
#
# Indices 1 2 3 4 5 6 
#
# 1 96.0987 42.9679 70.8042 0.0000 -7.8441 0.0000
# 2 42.9679 56.9429 38.4998 0.0000 -5.0518 0.0000
# 3 70.8042 38.4998 102.4391 0.0000 -10.1814 0.0000
# 4 0.0000 0.0000 0.0000 20.1259 0.0000 -7.3662
# 5 -7.8441 -5.0518 -10.1814 0.0000 30.9355 0.0000
# 6 0.0000 0.0000 0.0000 -7.3662 0.0000 28.1543
#
#
#
# Elastic Compliance Matrix: (Units=1/GPa)
#
#
# Indices 1 2 3 4 5 6 
#
# 1 0.024476 -0.009418 -0.013350 0.000000 0.000274 0.000000
# 2 -0.009418 0.027196 -0.003626 0.000000 0.000860 0.000000
# 3 -0.013350 -0.003626 0.020632 0.000000 0.002813 0.000000
# 4 0.000000 0.000000 0.000000 0.054949 0.000000 0.014377
# 5 0.000274 0.000860 0.002813 0.000000 0.033461 0.000000
# 6 0.000000 0.000000 0.000000 0.014377 0.000000 0.039280
#
#
# Mechanical properties :
#
#
# Convention : Reuss Voigt Hill
#
# Bulk Modulus (GPa) = 51.24377 62.22494 56.73436
# Shear Modulus (GPa) = 19.28358 22.72372 21.00365
#
# Velocity S-wave (km/s) = 3.42612 3.71919 3.57566
# Velocity P-wave (km/s) = 6.84428 7.50472 7.18210
#
# Compressibility (1/GPa) = 0.01951457
#
# Stress axis : x y z
#
# Youngs Moduli (GPa) = 40.85668 36.76993 48.46898
#
# Poissons Ratio (x) = 0.34631 0.64708
# Poissons Ratio (y) = 0.38480 0.17575
# Poissons Ratio (z) = 0.54545 0.13333
#
# Static dielectric constant tensor:
#      x y z
#    x 2.880410 0.000000 0.185150 
#    y 0.000000 3.078910 0.000000 
#    z 0.185150 0.000000 2.686300 
# 
# 
# High freq. dielectric constant tensor:
#      x y z
#    x 1.615450 0.000000 -0.024470 
#    y 0.000000 1.630190 0.000000 
#    z -0.024470 0.000000 1.624200 
# 
# From -- ./inp_files/61787.got.cif
#   From: 2010.06.25/outbox.cif.g09.slc.cpg/sg11_31_cif.got.tgz:61787.got - 2010.06.27 23:14:04.
