data_PCOD8070107
_publ_section_title
;
Structure prediction by ZEFSAII (Michael W. Deem and Ramdas Pophale) SiO2 
 PCOD8070107
Probable space group: P 21/M
;
_chemical_formula_sum "Si O2"
_cell_formula_units_Z 32
_cell_length_a 30.804039
_cell_length_b 9.101244
_cell_length_c 14.966261
_cell_angle_alpha 90.000000
_cell_angle_beta 28.802879
_cell_angle_gamma 90.000000
_cell_volume 2021.559205
_symmetry_space_group_name_H-M "P 21/M"
_symmetry_group_IT_number 11
_symmetry_cell_setting 'monoclinic'
loop_
_space_group_symop_operation_xyz
x,y,z
-x,1/2+y,-z
-x,-y,-z
x,1/2-y,z
loop_
_atom_site_type_symbol
_atom_site_label
_atom_site_fract_x
_atom_site_fract_y
_atom_site_fract_z
Si Si1 0.072395 0.578468 0.484523
Si Si2 0.412270 0.424628 0.465459
Si Si3 0.102057 0.579552 0.226176
Si Si4 0.561282 0.420197 0.760706
Si Si5 0.609974 0.075659 0.163302
Si Si6 0.387302 0.918638 0.138143
Si Si7 0.744984 0.078110 0.771228
Si Si8 0.698960 0.076125 0.185614
O O1 0.056990 0.750000 0.525590
O O2 0.101136 0.538316 0.332037
O O3 0.153493 0.515951 0.400856
O O4 0.978790 0.501595 0.679956
O O5 0.405530 0.250000 0.476018
O O6 0.395079 0.486079 0.397232
O O7 0.509126 0.481160 0.326301
O O8 0.335082 0.490042 0.666924
O O9 0.086119 0.750000 0.240602
O O10 0.197299 0.530308 0.014073
O O11 0.556891 0.250000 0.741136
O O12 0.623349 0.444169 0.736745
O O13 0.461082 0.474839 0.962808
O O14 0.612151 0.250000 0.154429
O O15 0.641748 0.021760 0.203205
O O16 0.676547 0.009155 0.967825
O O17 0.416655 0.750000 0.065083
O O18 0.292139 0.953782 0.261529
O O19 0.751095 0.250000 0.781071
O O20 0.688356 0.250000 0.218592
#
# Coordination Sequence:
#
# PCOD8070107 Si02
#       8
#     4   4   4   4   4   4   4   4
#     4   9  16  27  47  68  88 117 152 185 219 268
#     4  11  21  32  47  65  90 126 160 194 228 262
#     4   9  17  29  44  64  91 121 148 183 229 267
#     4  10  19  30  45  68  93 120 153 190 229 270
#     4   9  16  28  46  65  90 123 158 187 218 262
#     4   9  17  30  49  68  91 120 152 189 228 271
#     4   9  14  26  48  70  90 120 154 181 220 271
#     4  10  19  32  48  65  89 124 161 193 224 266
#
# _framework density 15.829364
#
# number of rings (size 3 to 8) (size 9 to 14) (size 15 to 20)
#    0.000    2.500    2.500    1.125    0.000    1.000 
#    0.000    1.250    0.000    0.000    0.000    0.875 
#    0.000    0.000    0.000    0.000    0.000    0.000 
#
# Total GULP energy -396721.315886 kJ/mol
# GULP energy per Si atom -12397.541121 kJ/mol
# Density = 1.579334 g / cm^3
# Si number density = 15.829364 Si / 1000 Ang^3
#
#
#
# Elastic Constant Matrix: (Units=GPa)
#
#
# Indices 1 2 3 4 5 6 
#
# 1 114.1620 36.3817 65.4139 0.0000 -7.3849 0.0000
# 2 36.3817 43.5268 39.0430 0.0000 -0.7934 0.0000
# 3 65.4139 39.0430 103.6344 0.0000 -7.9721 0.0000
# 4 0.0000 0.0000 0.0000 24.6573 0.0000 0.2449
# 5 -7.3849 -0.7934 -7.9721 0.0000 26.7279 0.0000
# 6 0.0000 0.0000 0.0000 0.2449 0.0000 19.1884
#
#
#
# Elastic Compliance Matrix: (Units=1/GPa)
#
#
# Indices 1 2 3 4 5 6 
#
# 1 0.014775 -0.006160 -0.006863 0.000000 0.001852 0.000000
# 2 -0.006160 0.037496 -0.010525 0.000000 -0.003728 0.000000
# 3 -0.006863 -0.010525 0.018194 0.000000 0.003218 0.000000
# 4 0.000000 0.000000 0.000000 0.040561 0.000000 -0.000518
# 5 0.001852 -0.003728 0.003218 0.000000 0.038775 0.000000
# 6 0.000000 0.000000 0.000000 -0.000518 0.000000 0.052121
#
#
# Mechanical properties :
#
#
# Convention : Reuss Voigt Hill
#
# Bulk Modulus (GPa) = 42.79081 60.33338 51.56210
# Shear Modulus (GPa) = 19.47002 22.14704 20.80853
#
# Velocity S-wave (km/s) = 3.51093 3.74453 3.62961
# Velocity P-wave (km/s) = 6.59748 7.54274 7.08589
#
# Compressibility (1/GPa) = 0.02336950
#
# Stress axis : x y z
#
# Youngs Moduli (GPa) = 67.68402 26.66981 54.96468
#
# Poissons Ratio (x) = 0.16428 0.37720
# Poissons Ratio (y) = 0.41693 0.57848
# Poissons Ratio (z) = 0.46448 0.28069
#
# Static dielectric constant tensor:
#      x y z
#    x 3.166700 0.000000 -0.139010 
#    y 0.000000 2.836920 0.000000 
#    z -0.139010 0.000000 2.927640 
# 
# 
# High freq. dielectric constant tensor:
#      x y z
#    x 1.604160 0.000000 -0.008660 
#    y 0.000000 1.589900 0.000000 
#    z -0.008660 0.000000 1.585580 
# 
# From -- ./inp_files/56459.got.cif
#   From: 2010.06.25/outbox.cif.g09.slc.cpg/sg11_29_cif.got.tgz:56459.got - 2010.06.27 23:14:04.
