data_PCOD8070989
_publ_section_title
;
Structure prediction by ZEFSAII (Michael W. Deem and Ramdas Pophale) SiO2 
 PCOD8070989
Probable space group: P 21/M
;
_chemical_formula_sum "Si O2"
_cell_formula_units_Z 28
_cell_length_a 21.869853
_cell_length_b 8.655690
_cell_length_c 14.876876
_cell_angle_alpha 90.000000
_cell_angle_beta 148.920821
_cell_angle_gamma 90.000000
_cell_volume 1453.770731
_symmetry_space_group_name_H-M "P 21/M"
_symmetry_group_IT_number 11
_symmetry_cell_setting 'monoclinic'
loop_
_space_group_symop_operation_xyz
x,y,z
-x,1/2+y,-z
-x,-y,-z
x,1/2-y,z
loop_
_atom_site_type_symbol
_atom_site_label
_atom_site_fract_x
_atom_site_fract_y
_atom_site_fract_z
Si Si1 0.105895 0.067729 0.523795
Si Si2 0.024207 0.568761 0.934562
Si Si3 0.392824 0.433026 0.564969
Si Si4 0.143131 0.067203 0.769743
Si Si5 0.291364 0.568370 0.255984
Si Si6 0.363368 0.067260 0.163830
Si Si7 0.195576 0.432737 0.452042
O O1 0.088207 0.250000 0.502103
O O2 0.156281 0.008761 0.682788
O O3 0.196902 0.017505 0.558955
O O4 0.977590 0.996959 0.340448
O O5 0.010989 0.750000 0.926580
O O6 0.926365 0.500553 0.743372
O O7 0.000000 0.500000 0.000000
O O8 0.154911 0.524171 0.064908
O O9 0.411510 0.250000 0.592720
O O10 0.334589 0.476384 0.397086
O O11 0.516974 0.518992 0.736174
O O12 0.308995 0.495547 0.540404
O O13 0.139586 0.250000 0.768303
O O14 0.253938 0.004786 0.966454
O O15 0.310648 0.750000 0.296603
O O16 0.365813 0.514431 0.263744
O O17 0.357811 0.250000 0.170125
O O18 0.195148 0.250000 0.442139
#
# Coordination Sequence:
#
# PCOD8070989 Si02
#       7
#     4   4   4   4   4   4   4
#     4   9  17  34  60  84 108 137 171 214 265 324
#     4  10  19  32  51  77 107 136 169 210 257 310
#     4  11  22  37  55  75 106 144 183 222 263 316
#     4   9  19  35  56  83 110 137 171 218 270 312
#     4  11  22  36  56  81 106 139 182 223 268 317
#     4  11  23  38  54  75 107 143 182 223 266 315
#     4   9  18  33  54  79 107 140 175 211 261 315
#
# _framework density 19.260258
#
# number of rings (size 3 to 8) (size 9 to 14) (size 15 to 20)
#    0.000    2.000    1.429    2.571    0.000    2.857 
#    0.000    2.857    0.000    0.000    0.000    0.000 
#    0.000    0.000    0.000    0.000    0.000    0.000 
#
# Total GULP energy -347181.769240 kJ/mol
# GULP energy per Si atom -12399.348901 kJ/mol
# Density = 1.921642 g / cm^3
# Si number density = 19.260258 Si / 1000 Ang^3
#
#
#
# Elastic Constant Matrix: (Units=GPa)
#
#
# Indices 1 2 3 4 5 6 
#
# 1 141.9551 7.3851 52.7123 0.0000 2.6634 0.0000
# 2 7.3851 21.2981 13.6531 0.0000 2.2009 0.0000
# 3 52.7123 13.6531 78.6071 0.0000 6.5183 0.0000
# 4 0.0000 0.0000 0.0000 23.2740 0.0000 3.9443
# 5 2.6634 2.2009 6.5183 0.0000 28.8073 0.0000
# 6 0.0000 0.0000 0.0000 3.9443 0.0000 24.3639
#
#
#
# Elastic Compliance Matrix: (Units=1/GPa)
#
#
# Indices 1 2 3 4 5 6 
#
# 1 0.009403 0.000849 -0.006497 0.000000 0.000536 0.000000
# 2 0.000849 0.053025 -0.009617 0.000000 -0.001953 0.000000
# 3 -0.006497 -0.009617 0.018995 0.000000 -0.002962 0.000000
# 4 0.000000 0.000000 0.000000 0.044179 0.000000 -0.007152
# 5 0.000536 -0.001953 -0.002962 0.000000 0.035483 0.000000
# 6 0.000000 0.000000 0.000000 -0.007152 0.000000 0.042202
#
#
# Mechanical properties :
#
#
# Convention : Reuss Voigt Hill
#
# Bulk Modulus (GPa) = 19.64956 43.26235 31.45595
# Shear Modulus (GPa) = 19.93769 26.49636 23.21703
#
# Velocity S-wave (km/s) = 3.22090 3.71307 3.47571
# Velocity P-wave (km/s) = 4.90475 6.39478 5.69867
#
# Compressibility (1/GPa) = 0.05089173
#
# Stress axis : x y z
#
# Youngs Moduli (GPa) = 106.35012 18.85902 52.64674
#
# Poissons Ratio (x) = -0.01602 0.34206
# Poissons Ratio (y) = -0.09032 0.50632
# Poissons Ratio (z) = 0.69099 0.18137
#
# Static dielectric constant tensor:
#      x y z
#    x 3.853110 0.000000 0.024720 
#    y 0.000000 3.338730 0.000000 
#    z 0.024720 0.000000 3.717270 
# 
# 
# High freq. dielectric constant tensor:
#      x y z
#    x 1.759070 0.000000 0.002460 
#    y 0.000000 1.733530 0.000000 
#    z 0.002460 0.000000 1.742990 
# 
# From -- ./inp_files/37391.got.cif
#   From: 2010.06.25/outbox.cif.g09.slc.cpg/sg11_19_cif.got.tgz:37391.got - 2010.06.27 23:14:04.
