data_PCOD8070931
_publ_section_title
;
Structure prediction by ZEFSAII (Michael W. Deem and Ramdas Pophale) SiO2 
 PCOD8070931
Probable space group: P 21/M
;
_chemical_formula_sum "Si O2"
_cell_formula_units_Z 32
_cell_length_a 18.988342
_cell_length_b 9.072093
_cell_length_c 25.910601
_cell_angle_alpha 90.000000
_cell_angle_beta 156.327316
_cell_angle_gamma 90.000000
_cell_volume 1792.130675
_symmetry_space_group_name_H-M "P 21/M"
_symmetry_group_IT_number 11
_symmetry_cell_setting 'monoclinic'
loop_
_space_group_symop_operation_xyz
x,y,z
-x,1/2+y,-z
-x,-y,-z
x,1/2-y,z
loop_
_atom_site_type_symbol
_atom_site_label
_atom_site_fract_x
_atom_site_fract_y
_atom_site_fract_z
Si Si1 0.681159 0.419210 0.613900
Si Si2 0.827651 0.076850 0.404917
Si Si3 0.656089 0.082520 0.869789
Si Si4 0.470419 0.418738 0.118441
Si Si5 0.687019 0.920147 0.412357
Si Si6 0.853903 0.421664 0.619890
Si Si7 0.013752 0.087339 0.140846
Si Si8 0.827928 0.083893 0.126473
O O1 0.500000 0.500000 0.500000
O O2 0.648312 0.250000 0.602924
O O3 0.751715 0.451370 0.604298
O O4 0.824974 0.474283 0.752265
O O5 0.858121 0.250000 0.436157
O O6 0.680121 0.054653 0.261087
O O7 0.774983 0.997871 0.422508
O O8 0.000000 0.000000 0.500000
O O9 0.637724 0.250000 0.880643
O O10 0.526458 0.068137 0.733777
O O11 0.597586 0.959283 0.870663
O O12 0.863949 0.055174 0.996397
O O13 0.423601 0.250000 0.075621
O O14 0.369120 0.515530 0.007211
O O15 0.747409 0.750000 0.454267
O O16 0.741624 0.000527 0.500816
O O17 0.872215 0.250000 0.620006
O O18 0.048524 0.490835 0.752241
O O19 0.095109 0.250000 0.188436
O O20 0.908046 0.076208 0.123341
O O21 0.816103 0.250000 0.139618
#
# Coordination Sequence:
#
# PCOD8070931 Si02
#       8
#     4   4   4   4   4   4   4   4
#     4  10  20  32  48  70  96 126 159 197 240 286
#     4  10  20  33  50  73 101 132 165 201 241 285
#     4   8  15  27  44  67  93 122 156 194 235 279
#     4   9  16  26  43  68  95 122 155 198 241 278
#     4  10  19  32  51  74 100 130 163 198 239 288
#     4  10  20  33  49  72 100 128 160 199 243 288
#     4   8  14  26  44  66  92 119 151 193 236 277
#     4   9  16  27  45  68  93 123 158 196 238 283
#
# _framework density 17.855840000000001
#
# number of rings (size 3 to 8) (size 9 to 14) (size 15 to 20)
#    0.000    2.750    0.000    3.000    0.000    6.500 
#    0.000    0.000    0.000    1.500    0.000    0.000 
#    0.000    0.000    0.000    0.000    0.000    0.000 
#
# Total GULP energy -396535.735674 kJ/mol
# GULP energy per Si atom -12391.741740 kJ/mol
# Density = 1.781520 g / cm^3
# Si number density = 17.855840 Si / 1000 Ang^3
#
#
#
# Elastic Constant Matrix: (Units=GPa)
#
#
# Indices 1 2 3 4 5 6 
#
# 1 22.0587 37.1124 35.9529 0.0000 2.7276 0.0000
# 2 37.1124 142.0031 92.8913 0.0000 6.1787 0.0000
# 3 35.9529 92.8913 174.2955 0.0000 4.7620 0.0000
# 4 0.0000 0.0000 0.0000 37.3708 0.0000 -0.3368
# 5 2.7276 6.1787 4.7620 0.0000 23.0183 0.0000
# 6 0.0000 0.0000 0.0000 -0.3368 0.0000 21.9076
#
#
#
# Elastic Compliance Matrix: (Units=1/GPa)
#
#
# Indices 1 2 3 4 5 6 
#
# 1 0.089999 -0.017305 -0.009230 0.000000 -0.004110 0.000000
# 2 -0.017305 0.014207 -0.003976 0.000000 -0.000940 0.000000
# 3 -0.009230 -0.003976 0.009756 0.000000 0.000143 0.000000
# 4 0.000000 0.000000 0.000000 0.026763 0.000000 0.000411
# 5 -0.004110 -0.000940 0.000143 0.000000 0.044154 0.000000
# 6 0.000000 0.000000 0.000000 0.000411 0.000000 0.045653
#
#
# Mechanical properties :
#
#
# Convention : Reuss Voigt Hill
#
# Bulk Modulus (GPa) = 18.88900 74.47450 46.68175
# Shear Modulus (GPa) = 16.17079 27.95272 22.06176
#
# Velocity S-wave (km/s) = 3.01263 3.96089 3.51885
# Velocity P-wave (km/s) = 4.76475 7.91944 6.53530
#
# Compressibility (1/GPa) = 0.05294088
#
# Stress axis : x y z
#
# Youngs Moduli (GPa) = 11.11122 70.38956 102.49585
#
# Poissons Ratio (x) = 1.21807 0.94601
# Poissons Ratio (y) = 0.19228 0.40755
# Poissons Ratio (z) = 0.10255 0.27989
#
# Static dielectric constant tensor:
#      x y z
#    x 2.711320 0.000000 0.087030 
#    y 0.000000 3.491290 0.000000 
#    z 0.087030 0.000000 4.003530 
# 
# 
# High freq. dielectric constant tensor:
#      x y z
#    x 1.612470 0.000000 0.003560 
#    y 0.000000 1.708360 0.000000 
#    z 0.003560 0.000000 1.719370 
# 
# From -- ./inp_files/64221.got.cif
#   From: 2010.06.25/outbox.cif.g09.slc.cpg/sg11_33_cif.got.tgz:64221.got - 2010.06.27 23:14:04.
