data_PCOD8070316
_publ_section_title
;
Structure prediction by ZEFSAII (Michael W. Deem and Ramdas Pophale) SiO2 
 PCOD8070316
Probable space group: P 21/M
;
_chemical_formula_sum "Si O2"
_cell_formula_units_Z 32
_cell_length_a 20.042197
_cell_length_b 8.692479
_cell_length_c 25.826133
_cell_angle_alpha 90.000000
_cell_angle_beta 158.242710
_cell_angle_gamma 90.000000
_cell_volume 1667.793866
_symmetry_space_group_name_H-M "P 21/M"
_symmetry_group_IT_number 11
_symmetry_cell_setting 'monoclinic'
loop_
_space_group_symop_operation_xyz
x,y,z
-x,1/2+y,-z
-x,-y,-z
x,1/2-y,z
loop_
_atom_site_type_symbol
_atom_site_label
_atom_site_fract_x
_atom_site_fract_y
_atom_site_fract_z
Si Si1 0.280058 0.569385 0.200315
Si Si2 0.189619 0.069089 0.652249
Si Si3 0.464954 0.929811 0.774539
Si Si4 0.381011 0.571711 0.595870
Si Si5 0.865643 0.931761 0.089965
Si Si6 0.690529 0.432299 0.153394
Si Si7 0.979403 0.933339 0.283677
Si Si8 0.004384 0.068325 0.923742
O O1 0.275922 0.750000 0.191692
O O2 0.485336 0.511576 0.348145
O O3 0.182387 0.517571 0.183565
O O4 0.175417 0.499518 0.076432
O O5 0.170980 0.250000 0.648843
O O6 0.324694 0.036395 0.702949
O O7 0.262760 0.987468 0.755840
O O8 0.000000 0.000000 0.500000
O O9 0.429571 0.750000 0.761188
O O10 0.443656 0.964609 0.698833
O O11 0.661107 0.984658 0.933988
O O12 0.389663 0.750000 0.588810
O O13 0.179092 0.510821 0.442236
O O14 0.873718 0.750000 0.097803
O O15 0.939091 0.997074 0.196992
O O16 0.989904 0.990769 0.131658
O O17 0.678125 0.250000 0.143667
O O18 0.842666 0.487896 0.224011
O O19 0.500000 0.500000 0.000000
O O20 0.957699 0.750000 0.272558
O O21 0.030502 0.250000 0.944533
#
# Coordination Sequence:
#
# PCOD8070316 Si02
#       8
#     4   4   4   4   4   4   4   4
#     4  10  19  30  52  82 111 144 187 235 281 333
#     4  12  25  41  61  88 120 153 192 244 297 353
#     4  10  19  34  57  81 108 147 188 234 287 343
#     4  10  20  35  55  80 114 151 187 227 282 345
#     4   9  17  33  57  81 107 143 187 231 277 335
#     4  12  25  43  65  89 118 156 198 244 295 355
#     4  10  21  37  59  85 112 149 192 235 284 344
#     4   9  17  33  54  79 110 146 186 231 284 336
#
# _framework density 19.187021999999999
#
# number of rings (size 3 to 8) (size 9 to 14) (size 15 to 20)
#    0.000    1.750    1.250    4.125    0.000    3.500 
#    0.000    1.250    0.000    0.000    0.000    0.000 
#    0.000    0.000    0.000    0.000    0.000    0.000 
#
# Total GULP energy -396825.998482 kJ/mol
# GULP energy per Si atom -12400.812453 kJ/mol
# Density = 1.914335 g / cm^3
# Si number density = 19.187022 Si / 1000 Ang^3
#
#
#
# Elastic Constant Matrix: (Units=GPa)
#
#
# Indices 1 2 3 4 5 6 
#
# 1 71.6008 23.4147 37.2472 0.0000 33.0486 0.0000
# 2 23.4147 57.9565 32.3155 0.0000 11.0554 0.0000
# 3 37.2472 32.3155 122.8067 0.0000 13.0844 0.0000
# 4 0.0000 0.0000 0.0000 25.0602 0.0000 7.4995
# 5 33.0486 11.0554 13.0844 0.0000 30.1936 0.0000
# 6 0.0000 0.0000 0.0000 7.4995 0.0000 27.8527
#
#
#
# Elastic Compliance Matrix: (Units=1/GPa)
#
#
# Indices 1 2 3 4 5 6 
#
# 1 0.033113 -0.004137 -0.005509 0.000000 -0.032342 0.000000
# 2 -0.004137 0.021596 -0.004265 0.000000 -0.001531 0.000000
# 3 -0.005509 -0.004265 0.010617 0.000000 0.002990 0.000000
# 4 0.000000 0.000000 0.000000 0.043401 0.000000 -0.011686
# 5 -0.032342 -0.001531 0.002990 0.000000 0.067784 0.000000
# 6 0.000000 0.000000 0.000000 -0.011686 0.000000 0.039050
#
#
# Mechanical properties :
#
#
# Convention : Reuss Voigt Hill
#
# Bulk Modulus (GPa) = 26.66306 48.70208 37.68257
# Shear Modulus (GPa) = 19.54014 27.24707 23.39360
#
# Velocity S-wave (km/s) = 3.19471 3.77248 3.49555
# Velocity P-wave (km/s) = 5.24736 6.66434 5.99784
#
# Compressibility (1/GPa) = 0.03750507
#
# Stress axis : x y z
#
# Youngs Moduli (GPa) = 30.19979 46.30553 94.18547
#
# Poissons Ratio (x) = 0.19156 0.51884
# Poissons Ratio (y) = 0.12493 0.40169
# Poissons Ratio (z) = 0.16636 0.19749
#
# Static dielectric constant tensor:
#      x y z
#    x 3.901510 0.000000 -0.003340 
#    y 0.000000 3.394070 0.000000 
#    z -0.003340 0.000000 3.674050 
# 
# 
# High freq. dielectric constant tensor:
#      x y z
#    x 1.762280 0.000000 0.009960 
#    y 0.000000 1.730800 0.000000 
#    z 0.009960 0.000000 1.745730 
# 
# From -- ./inp_files/72134.got.cif
#   From: 2010.06.25/outbox.cif.g09.slc.cpg/sg11_37_cif.got.tgz:72134.got - 2010.06.27 23:14:04.
