data_PCOD8070266
_publ_section_title
;
Structure prediction by ZEFSAII (Michael W. Deem and Ramdas Pophale) SiO2 
 PCOD8070266
Probable space group: P 21/M
;
_chemical_formula_sum "Si O2"
_cell_formula_units_Z 28
_cell_length_a 8.096696
_cell_length_b 19.793731
_cell_length_c 9.925701
_cell_angle_alpha 90.000000
_cell_angle_beta 109.927021
_cell_angle_gamma 90.000000
_cell_volume 1495.489752
_symmetry_space_group_name_H-M "P 21/M"
_symmetry_group_IT_number 11
_symmetry_cell_setting 'monoclinic'
loop_
_space_group_symop_operation_xyz
x,y,z
-x,1/2+y,-z
-x,-y,-z
x,1/2-y,z
loop_
_atom_site_type_symbol
_atom_site_label
_atom_site_fract_x
_atom_site_fract_y
_atom_site_fract_z
Si Si1 0.631595 0.104295 0.549117
Si Si2 0.840188 0.951882 0.989469
Si Si3 0.985712 0.173414 0.627799
Si Si4 0.448729 0.016983 0.301149
Si Si5 0.034368 0.823458 0.059146
Si Si6 0.281536 0.423172 0.754785
Si Si7 0.571005 0.172808 0.801317
O O1 0.805835 0.136784 0.531596
O O2 0.493935 0.087027 0.390930
O O3 0.552660 0.156610 0.636224
O O4 0.667122 0.032839 0.636353
O O5 0.661746 0.969050 0.863190
O O6 0.808069 0.956684 0.140277
O O7 0.900673 0.877124 0.959276
O O8 0.000000 0.000000 0.000000
O O9 0.001596 0.250000 0.570409
O O10 0.989405 0.179775 0.788399
O O11 0.145195 0.123276 0.630131
O O12 0.634941 0.981477 0.315356
O O13 0.993755 0.750000 0.984186
O O14 0.236148 0.844155 0.087758
O O15 0.437491 0.373371 0.848620
O O16 0.519832 0.250000 0.809922
#
# Coordination Sequence:
#
# PCOD8070266 Si02
#       7
#     4   4   4   4   4   4   4
#     4   9  18  33  49  71  99 130 165 200 250 307
#     4  11  20  33  52  74 102 136 174 212 256 306
#     4   9  16  29  49  70  93 125 166 206 244 294
#     4  10  20  32  48  73 103 133 166 208 255 303
#     4   8  16  30  48  70  96 128 165 206 253 300
#     4  10  19  30  49  77 101 127 168 215 256 291
#     4   9  16  31  55  77  99 128 165 210 252 299
#
# _framework density 18.722963
#
# number of rings (size 3 to 8) (size 9 to 14) (size 15 to 20)
#    0.000    2.571    0.000    5.571    0.000    1.143 
#    0.000    2.857    0.000    0.000    0.000    8.000 
#    0.000    0.000    0.000    0.000    0.000    0.000 
#
# Total GULP energy -346985.637336 kJ/mol
# GULP energy per Si atom -12392.344191 kJ/mol
# Density = 1.868035 g / cm^3
# Si number density = 18.722963 Si / 1000 Ang^3
#
#
#
# Elastic Constant Matrix: (Units=GPa)
#
#
# Indices 1 2 3 4 5 6 
#
# 1 83.8820 34.4286 10.8148 0.0000 5.6969 0.0000
# 2 34.4286 84.3697 25.5170 0.0000 8.7479 0.0000
# 3 10.8148 25.5170 46.1659 0.0000 6.7140 0.0000
# 4 0.0000 0.0000 0.0000 22.5048 0.0000 7.0892
# 5 5.6969 8.7479 6.7140 0.0000 16.9560 0.0000
# 6 0.0000 0.0000 0.0000 7.0892 0.0000 34.4789
#
#
#
# Elastic Compliance Matrix: (Units=1/GPa)
#
#
# Indices 1 2 3 4 5 6 
#
# 1 0.014378 -0.005684 0.000053 0.000000 -0.001919 0.000000
# 2 -0.005684 0.016808 -0.007401 0.000000 -0.003831 0.000000
# 3 0.000053 -0.007401 0.026726 0.000000 -0.006782 0.000000
# 4 0.000000 0.000000 0.000000 0.047512 0.000000 -0.009769
# 5 -0.001919 -0.003831 -0.006782 0.000000 0.064283 0.000000
# 6 0.000000 0.000000 0.000000 -0.009769 0.000000 0.031012
#
#
# Mechanical properties :
#
#
# Convention : Reuss Voigt Hill
#
# Bulk Modulus (GPa) = 31.40112 39.54872 35.47492
# Shear Modulus (GPa) = 21.06154 24.36509 22.71332
#
# Velocity S-wave (km/s) = 3.35760 3.61133 3.48677
# Velocity P-wave (km/s) = 5.64262 6.20950 5.93284
#
# Compressibility (1/GPa) = 0.03184599
#
# Stress axis : x y z
#
# Youngs Moduli (GPa) = 69.55035 59.49597 37.41690
#
# Poissons Ratio (x) = 0.33819 -0.00197
# Poissons Ratio (y) = 0.39534 0.27694
# Poissons Ratio (z) = -0.00366 0.44035
#
# Static dielectric constant tensor:
#      x y z
#    x 3.613160 0.000000 0.203030 
#    y 0.000000 3.924650 0.000000 
#    z 0.203030 0.000000 2.966800 
# 
# 
# High freq. dielectric constant tensor:
#      x y z
#    x 1.730040 0.000000 0.016150 
#    y 0.000000 1.736840 0.000000 
#    z 0.016150 0.000000 1.668590 
# 
# From -- ./inp_files/23173.got.cif
#   From: 2010.06.25/outbox.cif.g09.slc.cpg/sg11_12_cif.got.tgz:23173.got - 2010.06.27 23:14:04.
