data_PCOD8070496
_publ_section_title
;
Structure prediction by ZEFSAII (Michael W. Deem and Ramdas Pophale) SiO2 
 PCOD8070496
Probable space group: P 21/M
;
_chemical_formula_sum "Si O2"
_cell_formula_units_Z 32
_cell_length_a 23.123547
_cell_length_b 9.048301
_cell_length_c 18.450388
_cell_angle_alpha 90.000000
_cell_angle_beta 152.876442
_cell_angle_gamma 90.000000
_cell_volume 1759.976886
_symmetry_space_group_name_H-M "P 21/M"
_symmetry_group_IT_number 11
_symmetry_cell_setting 'monoclinic'
loop_
_space_group_symop_operation_xyz
x,y,z
-x,1/2+y,-z
-x,-y,-z
x,1/2-y,z
loop_
_atom_site_type_symbol
_atom_site_label
_atom_site_fract_x
_atom_site_fract_y
_atom_site_fract_z
Si Si1 0.924395 0.413639 0.809392
Si Si2 0.852137 0.086399 0.895764
Si Si3 0.436239 0.077721 0.775303
Si Si4 0.225434 0.573898 0.636886
Si Si5 0.316766 0.419440 0.491886
Si Si6 0.018016 0.925695 0.597221
Si Si7 0.291540 0.576904 0.872263
Si Si8 0.614015 0.921644 0.590168
O O1 0.952292 0.250000 0.809432
O O2 0.900603 0.403388 0.868127
O O3 0.806887 0.480224 0.633711
O O4 0.043727 0.522136 0.932398
O O5 0.813244 0.250000 0.879570
O O6 0.736861 0.973741 0.770520
O O7 0.423602 0.250000 0.783083
O O8 0.416195 0.055912 0.667209
O O9 0.328743 0.985063 0.696067
O O10 0.576390 0.010981 0.949144
O O11 0.212773 0.750000 0.616309
O O12 0.270611 0.520830 0.766836
O O13 0.086129 0.500331 0.465293
O O14 0.270774 0.250000 0.435667
O O15 0.383596 0.466733 0.491674
O O16 0.994946 0.750000 0.567490
O O17 0.166907 0.960057 0.783205
O O18 0.000000 0.000000 0.500000
O O19 0.310294 0.750000 0.890994
O O20 0.598835 0.750000 0.584071
O O21 0.500000 0.000000 0.500000
#
# Coordination Sequence:
#
# PCOD8070496 Si02
#       8
#     4   4   4   4   4   4   4   4
#     4   9  16  27  46  70  96 122 151 190 238 286
#     4   9  16  27  46  72  96 120 152 193 237 285
#     4  10  19  33  52  73 100 135 171 212 258 305
#     4  10  19  31  48  75 105 134 171 215 258 306
#     4   9  19  33  50  71  97 128 165 203 249 303
#     4   9  16  29  49  73  99 130 167 212 260 307
#     4   8  16  30  50  75 101 130 171 216 257 301
#     4  10  19  32  50  73  98 127 164 208 253 302
#
# _framework density 18.182058000000001
#
# number of rings (size 3 to 8) (size 9 to 14) (size 15 to 20)
#    0.000    2.750    0.000    3.000    0.000    4.000 
#    0.000    3.125    2.750    0.000    0.000    0.000 
#    0.000    0.000    0.000    0.000    0.000    0.000 
#
# Total GULP energy -396551.126217 kJ/mol
# GULP energy per Si atom -12392.222694 kJ/mol
# Density = 1.814067 g / cm^3
# Si number density = 18.182058 Si / 1000 Ang^3
#
#
#
# Elastic Constant Matrix: (Units=GPa)
#
#
# Indices 1 2 3 4 5 6 
#
# 1 61.8424 38.1951 61.2048 0.0000 19.8617 0.0000
# 2 38.1951 86.0835 47.7269 0.0000 10.4196 0.0000
# 3 61.2048 47.7269 116.9762 0.0000 21.5090 0.0000
# 4 0.0000 0.0000 0.0000 27.3290 0.0000 7.2743
# 5 19.8617 10.4196 21.5090 0.0000 26.6532 0.0000
# 6 0.0000 0.0000 0.0000 7.2743 0.0000 23.7846
#
#
#
# Elastic Compliance Matrix: (Units=1/GPa)
#
#
# Indices 1 2 3 4 5 6 
#
# 1 0.041379 -0.007841 -0.015670 0.000000 -0.015124 0.000000
# 2 -0.007841 0.016525 -0.002966 0.000000 0.001777 0.000000
# 3 -0.015670 -0.002966 0.018316 0.000000 -0.001943 0.000000
# 4 0.000000 0.000000 0.000000 0.039834 0.000000 -0.012183
# 5 -0.015124 0.001777 -0.001943 0.000000 0.049663 0.000000
# 6 0.000000 0.000000 0.000000 -0.012183 0.000000 0.045770
#
#
# Mechanical properties :
#
#
# Convention : Reuss Voigt Hill
#
# Bulk Modulus (GPa) = 42.98475 62.12840 52.55658
# Shear Modulus (GPa) = 18.36897 23.40504 20.88700
#
# Velocity S-wave (km/s) = 3.18194 3.59173 3.39303
# Velocity P-wave (km/s) = 6.09855 7.17252 6.65723
#
# Compressibility (1/GPa) = 0.02326407
#
# Stress axis : x y z
#
# Youngs Moduli (GPa) = 24.16667 60.51313 54.59832
#
# Poissons Ratio (x) = 0.47449 0.85558
# Poissons Ratio (y) = 0.18950 0.16196
# Poissons Ratio (z) = 0.37870 0.17951
#
# Static dielectric constant tensor:
#      x y z
#    x 3.095880 0.000000 0.222480 
#    y 0.000000 3.415540 0.000000 
#    z 0.222480 0.000000 3.761480 
# 
# 
# High freq. dielectric constant tensor:
#      x y z
#    x 1.662940 0.000000 0.019380 
#    y 0.000000 1.706480 0.000000 
#    z 0.019380 0.000000 1.708440 
# 
# From -- ./inp_files/67175.got.cif
#   From: 2010.06.25/outbox.cif.g09.slc.cpg/sg11_34_cif.got.tgz:67175.got - 2010.06.27 23:14:04.
