data_PCOD8070788
_publ_section_title
;
Structure prediction by ZEFSAII (Michael W. Deem and Ramdas Pophale) SiO2 
 PCOD8070788
Probable space group: P 21/M
;
_chemical_formula_sum "Si O2"
_cell_formula_units_Z 32
_cell_length_a 15.758665
_cell_length_b 9.234514
_cell_length_c 12.229903
_cell_angle_alpha 90.000000
_cell_angle_beta 99.497024
_cell_angle_gamma 90.000000
_cell_volume 1755.346862
_symmetry_space_group_name_H-M "P 21/M"
_symmetry_group_IT_number 11
_symmetry_cell_setting 'monoclinic'
loop_
_space_group_symop_operation_xyz
x,y,z
-x,1/2+y,-z
-x,-y,-z
x,1/2-y,z
loop_
_atom_site_type_symbol
_atom_site_label
_atom_site_fract_x
_atom_site_fract_y
_atom_site_fract_z
Si Si1 0.262701 0.417955 0.594283
Si Si2 0.297114 0.586549 0.280106
Si Si3 0.775090 0.082598 0.961302
Si Si4 0.589018 0.579098 0.536553
Si Si5 0.210961 0.082009 0.816969
Si Si6 0.935167 0.580568 0.910410
Si Si7 0.011746 0.413457 0.741819
Si Si8 0.849827 0.411173 0.584270
O O1 0.245434 0.250000 0.576994
O O2 0.350469 0.464705 0.553078
O O3 0.269067 0.457893 0.724105
O O4 0.179262 0.488384 0.521154
O O5 0.324472 0.750000 0.317124
O O6 0.367533 0.475846 0.342185
O O7 0.203000 0.551889 0.313929
O O8 0.298999 0.572950 0.147357
O O9 0.805100 0.250000 0.981385
O O10 0.753696 0.018102 0.076697
O O11 0.843562 0.977384 0.923303
O O12 0.500000 0.500000 0.500000
O O13 0.574468 0.750000 0.541629
O O14 0.220727 0.250000 0.853029
O O15 0.112622 0.049068 0.757739
O O16 0.937827 0.750000 0.930117
O O17 0.963208 0.539608 0.795837
O O18 0.000000 0.500000 0.000000
O O19 0.001053 0.250000 0.789057
O O20 0.954266 0.421571 0.619059
O O21 0.824607 0.250000 0.543250
#
# Coordination Sequence:
#
# PCOD8070788 Si02
#       8
#     4   4   4   4   4   4   4   4
#     4   9  20  37  53  76 107 139 175 216 264 320
#     4   9  18  33  53  79 111 138 167 214 267 312
#     4  11  21  34  52  76 106 141 182 223 265 313
#     4  10  20  36  61  88 111 133 165 209 261 321
#     4  10  21  35  51  71 104 148 186 221 263 311
#     4  12  22  31  46  69 100 139 186 236 275 308
#     4  10  19  32  48  70 100 140 186 229 271 309
#     4   9  17  31  50  72 101 139 179 223 268 307
#
# _framework density 18.230014000000001
#
# number of rings (size 3 to 8) (size 9 to 14) (size 15 to 20)
#    0.000    2.000    2.500    1.875    0.000    3.000 
#    0.000    0.000    0.000    0.750    0.000    0.000 
#    0.000    0.000    0.000    0.000    0.000    0.000 
#
# Total GULP energy -396430.721779 kJ/mol
# GULP energy per Si atom -12388.460056 kJ/mol
# Density = 1.818852 g / cm^3
# Si number density = 18.230014 Si / 1000 Ang^3
#
#
#
# Elastic Constant Matrix: (Units=GPa)
#
#
# Indices 1 2 3 4 5 6 
#
# 1 69.6340 40.3119 40.1751 0.0000 10.2567 0.0000
# 2 40.3119 105.6375 54.3592 0.0000 2.6343 0.0000
# 3 40.1751 54.3592 108.8468 0.0000 -1.5975 0.0000
# 4 0.0000 0.0000 0.0000 33.3154 0.0000 4.8266
# 5 10.2567 2.6343 -1.5975 0.0000 19.5714 0.0000
# 6 0.0000 0.0000 0.0000 4.8266 0.0000 22.4478
#
#
#
# Elastic Compliance Matrix: (Units=1/GPa)
#
#
# Indices 1 2 3 4 5 6 
#
# 1 0.022489 -0.005296 -0.005825 0.000000 -0.011548 0.000000
# 2 -0.005296 0.014086 -0.005073 0.000000 0.000466 0.000000
# 3 -0.005825 -0.005073 0.013942 0.000000 0.004873 0.000000
# 4 0.000000 0.000000 0.000000 0.030981 0.000000 -0.006661
# 5 -0.011548 0.000466 0.004873 0.000000 0.057482 0.000000
# 6 0.000000 0.000000 0.000000 -0.006661 0.000000 0.045980
#
#
# Mechanical properties :
#
#
# Convention : Reuss Voigt Hill
#
# Bulk Modulus (GPa) = 55.16223 61.53452 58.34837
# Shear Modulus (GPa) = 22.38213 25.01838 23.70025
#
# Velocity S-wave (km/s) = 3.50775 3.70857 3.60956
# Velocity P-wave (km/s) = 6.83596 7.22259 7.03194
#
# Compressibility (1/GPa) = 0.01812835
#
# Stress axis : x y z
#
# Youngs Moduli (GPa) = 44.46706 70.99017 71.72410
#
# Poissons Ratio (x) = 0.37599 0.41778
# Poissons Ratio (y) = 0.23552 0.36387
# Poissons Ratio (z) = 0.25901 0.36015
#
# Static dielectric constant tensor:
#      x y z
#    x 3.126320 0.000000 -0.025740 
#    y 0.000000 3.275860 0.000000 
#    z -0.025740 0.000000 3.556340 
# 
# 
# High freq. dielectric constant tensor:
#      x y z
#    x 1.667260 0.000000 0.009880 
#    y 0.000000 1.713760 0.000000 
#    z 0.009880 0.000000 1.702880 
# 
# From -- ./inp_files/38172.got.cif
#   From: 2010.06.25/outbox.cif.g09.slc.cpg/sg11_20_cif.got.tgz:38172.got - 2010.06.27 23:14:04.
