data_PCOD8070812
_publ_section_title
;
Structure prediction by ZEFSAII (Michael W. Deem and Ramdas Pophale) SiO2 
 PCOD8070812
Probable space group: P 21/M
;
_chemical_formula_sum "Si O2"
_cell_formula_units_Z 24
_cell_length_a 11.508597
_cell_length_b 8.820261
_cell_length_c 13.990662
_cell_angle_alpha 90.000000
_cell_angle_beta 102.343853
_cell_angle_gamma 90.000000
_cell_volume 1387.344438
_symmetry_space_group_name_H-M "P 21/M"
_symmetry_group_IT_number 11
_symmetry_cell_setting 'monoclinic'
loop_
_space_group_symop_operation_xyz
x,y,z
-x,1/2+y,-z
-x,-y,-z
x,1/2-y,z
loop_
_atom_site_type_symbol
_atom_site_label
_atom_site_fract_x
_atom_site_fract_y
_atom_site_fract_z
Si Si1 0.586659 0.570913 0.644377
Si Si2 0.884032 0.928153 0.024702
Si Si3 0.096032 0.430069 0.587063
Si Si4 0.791124 0.572869 0.813442
Si Si5 0.954910 0.069888 0.218319
Si Si6 0.648700 0.927998 0.442550
O O1 0.576033 0.750000 0.650708
O O2 0.676560 0.502326 0.740009
O O3 0.456075 0.502525 0.638597
O O4 0.637732 0.520101 0.550619
O O5 0.901595 0.750000 0.045251
O O6 0.859831 0.011897 0.121320
O O7 0.781810 0.958340 0.926367
O O8 0.000000 0.000000 0.000000
O O9 0.084025 0.250000 0.583508
O O10 0.078112 0.492673 0.689103
O O11 0.225260 0.484297 0.574544
O O12 0.000000 0.500000 0.500000
O O13 0.792669 0.750000 0.792537
O O14 0.914139 0.510619 0.789614
O O15 0.947016 0.250000 0.226202
O O16 0.635340 0.750000 0.430186
#
# Coordination Sequence:
#
# PCOD8070812 Si02
#       6
#     4   4   4   4   4   4
#     4   9  16  30  51  70  91 123 160 194 232 282
#     4   9  16  28  46  70  99 129 162 199 243 288
#     4  11  22  35  51  71  98 129 160 194 236 287
#     4   8  15  28  48  72  97 125 156 196 242 282
#     4  10  19  32  49  71 101 131 160 197 242 288
#     4   9  19  33  47  68  98 127 154 192 240 281
#
# _framework density 17.299236000000001
#
# number of rings (size 3 to 8) (size 9 to 14) (size 15 to 20)
#    0.000    2.667    0.000    3.500    0.000    4.000 
#    0.000    8.333    0.000    1.000    0.000    0.000 
#    0.000    0.000    0.000    0.000    0.000    0.000 
#
# Total GULP energy -297458.164088 kJ/mol
# GULP energy per Si atom -12394.090170 kJ/mol
# Density = 1.725986 g / cm^3
# Si number density = 17.299236 Si / 1000 Ang^3
#
#
#
# Elastic Constant Matrix: (Units=GPa)
#
#
# Indices 1 2 3 4 5 6 
#
# 1 121.4475 36.6302 77.2169 0.0000 15.0107 0.0000
# 2 36.6302 46.4608 38.4875 0.0000 2.8332 0.0000
# 3 77.2169 38.4875 147.7995 0.0000 16.2645 0.0000
# 4 0.0000 0.0000 0.0000 30.4459 0.0000 0.9603
# 5 15.0107 2.8332 16.2645 0.0000 29.5725 0.0000
# 6 0.0000 0.0000 0.0000 0.9603 0.0000 24.0766
#
#
#
# Elastic Compliance Matrix: (Units=1/GPa)
#
#
# Indices 1 2 3 4 5 6 
#
# 1 0.013933 -0.006456 -0.005203 0.000000 -0.003592 0.000000
# 2 -0.006456 0.030488 -0.004902 0.000000 0.003052 0.000000
# 3 -0.005203 -0.004902 0.011090 0.000000 -0.002989 0.000000
# 4 0.000000 0.000000 0.000000 0.032886 0.000000 -0.001312
# 5 -0.003592 0.003052 -0.002989 0.000000 0.036990 0.000000
# 6 0.000000 0.000000 0.000000 -0.001312 0.000000 0.041586
#
#
# Mechanical properties :
#
#
# Convention : Reuss Voigt Hill
#
# Bulk Modulus (GPa) = 44.66504 68.93077 56.79790
# Shear Modulus (GPa) = 24.08952 27.71056 25.90004
#
# Velocity S-wave (km/s) = 3.73570 4.00664 3.87354
# Velocity P-wave (km/s) = 6.66951 7.83178 7.27390
#
# Compressibility (1/GPa) = 0.02238888
#
# Stress axis : x y z
#
# Youngs Moduli (GPa) = 71.77082 32.79938 90.17513
#
# Poissons Ratio (x) = 0.21176 0.46916
# Poissons Ratio (y) = 0.46336 0.44206
# Poissons Ratio (z) = 0.37341 0.16079
#
# Static dielectric constant tensor:
#      x y z
#    x 3.271480 0.000000 0.322170 
#    y 0.000000 3.244460 0.000000 
#    z 0.322170 0.000000 3.728090 
# 
# 
# High freq. dielectric constant tensor:
#      x y z
#    x 1.641460 0.000000 0.018420 
#    y 0.000000 1.661320 0.000000 
#    z 0.018420 0.000000 1.677040 
# 
# From -- ./inp_files/33822.got.cif
#   From: 2010.06.25/outbox.cif.g09.slc.cpg/sg11_17_cif.got.tgz:33822.got - 2010.06.27 23:14:04.
