data_PCOD8070318
_publ_section_title
;
Structure prediction by ZEFSAII (Michael W. Deem and Ramdas Pophale) SiO2 
 PCOD8070318
Probable space group: P 21/M
;
_chemical_formula_sum "Si O2"
_cell_formula_units_Z 28
_cell_length_a 14.325124
_cell_length_b 9.049911
_cell_length_c 13.094588
_cell_angle_alpha 90.000000
_cell_angle_beta 123.215377
_cell_angle_gamma 90.000000
_cell_volume 1420.238864
_symmetry_space_group_name_H-M "P 21/M"
_symmetry_group_IT_number 11
_symmetry_cell_setting 'monoclinic'
loop_
_space_group_symop_operation_xyz
x,y,z
-x,1/2+y,-z
-x,-y,-z
x,1/2-y,z
loop_
_atom_site_type_symbol
_atom_site_label
_atom_site_fract_x
_atom_site_fract_y
_atom_site_fract_z
Si Si1 0.595166 0.925616 0.490048
Si Si2 0.243621 0.076648 0.786691
Si Si3 0.826842 0.920879 0.730754
Si Si4 0.937703 0.080095 0.204666
Si Si5 0.386033 0.578788 0.713256
Si Si6 0.375091 0.081727 0.065381
Si Si7 0.803030 0.421569 0.923530
O O1 0.578183 0.750000 0.477763
O O2 0.714290 0.971236 0.607938
O O3 0.500000 0.000000 0.500000
O O4 0.588252 0.989806 0.373204
O O5 0.240797 0.250000 0.762041
O O6 0.120349 0.022331 0.744988
O O7 0.279755 0.991746 0.706026
O O8 0.331264 0.033357 0.927963
O O9 0.822649 0.750000 0.758673
O O10 0.930059 0.951846 0.715879
O O11 0.847678 0.009566 0.846374
O O12 0.910853 0.250000 0.215273
O O13 0.891119 0.040240 0.064765
O O14 0.362414 0.750000 0.673961
O O15 0.492444 0.560088 0.851213
O O16 0.340516 0.250000 0.066485
O O17 0.318128 0.985362 0.119789
O O18 0.788174 0.250000 0.896559
#
# Coordination Sequence:
#
# PCOD8070318 Si02
#       7
#     4   4   4   4   4   4   4
#     4  11  24  41  59  81 108 141 181 224 267 314
#     4  10  20  35  56  83 112 141 175 220 268 319
#     4  10  21  37  56  76 106 146 183 220 267 319
#     4   9  19  36  55  79 110 143 178 219 266 319
#     4  11  22  37  57  80 108 145 183 221 266 317
#     4   9  19  34  53  79 112 146 178 214 265 323
#     4  10  19  30  52  84 113 140 175 220 269 319
#
# _framework density 19.714993
#
# number of rings (size 3 to 8) (size 9 to 14) (size 15 to 20)
#    0.000    2.000    0.000    3.429    0.000    7.429 
#    0.000    0.714    0.000    0.000    0.000    0.000 
#    0.000    0.000    0.000    0.000    0.000    0.000 
#
# Total GULP energy -347307.409837 kJ/mol
# GULP energy per Si atom -12403.836066 kJ/mol
# Density = 1.967012 g / cm^3
# Si number density = 19.714993 Si / 1000 Ang^3
#
#
#
# Elastic Constant Matrix: (Units=GPa)
#
#
# Indices 1 2 3 4 5 6 
#
# 1 140.6672 60.9572 50.1114 0.0000 -4.0850 0.0000
# 2 60.9572 86.6857 36.0964 0.0000 -4.9447 0.0000
# 3 50.1114 36.0964 58.5928 0.0000 -5.3561 0.0000
# 4 0.0000 0.0000 0.0000 25.6601 0.0000 -7.5741
# 5 -4.0850 -4.9447 -5.3561 0.0000 33.3319 0.0000
# 6 0.0000 0.0000 0.0000 -7.5741 0.0000 39.0409
#
#
#
# Elastic Compliance Matrix: (Units=1/GPa)
#
#
# Indices 1 2 3 4 5 6 
#
# 1 0.011945 -0.005588 -0.006816 0.000000 -0.000460 0.000000
# 2 -0.005588 0.018150 -0.006312 0.000000 0.000994 0.000000
# 3 -0.006816 -0.006312 0.027019 0.000000 0.002570 0.000000
# 4 0.000000 0.000000 0.000000 0.041338 0.000000 0.008020
# 5 -0.000460 0.000994 0.002570 0.000000 0.030505 0.000000
# 6 0.000000 0.000000 0.000000 0.008020 0.000000 0.027170
#
#
# Mechanical properties :
#
#
# Convention : Reuss Voigt Hill
#
# Bulk Modulus (GPa) = 50.80225 64.47507 57.63866
# Shear Modulus (GPa) = 24.98501 28.85863 26.92182
#
# Velocity S-wave (km/s) = 3.56379 3.83010 3.69934
# Velocity P-wave (km/s) = 6.53899 7.23423 6.89538
#
# Compressibility (1/GPa) = 0.01968417
#
# Stress axis : x y z
#
# Youngs Moduli (GPa) = 83.71615 55.09565 37.01066
#
# Poissons Ratio (x) = 0.30787 0.25225
# Poissons Ratio (y) = 0.46780 0.23360
# Poissons Ratio (z) = 0.57058 0.34774
#
# Static dielectric constant tensor:
#      x y z
#    x 3.674430 0.000000 0.055730 
#    y 0.000000 3.622110 0.000000 
#    z 0.055730 0.000000 3.418670 
# 
# 
# High freq. dielectric constant tensor:
#      x y z
#    x 1.777870 0.000000 -0.001610 
#    y 0.000000 1.774320 0.000000 
#    z -0.001610 0.000000 1.746460 
# 
# From -- ./inp_files/37846.got.cif
#   From: 2010.06.25/outbox.cif.g09.slc.cpg/sg11_19_cif.got.tgz:37846.got - 2010.06.27 23:14:04.
