data_PCOD8070380
_publ_section_title
;
Structure prediction by ZEFSAII (Michael W. Deem and Ramdas Pophale) SiO2 
 PCOD8070380
Probable space group: P 21/M
;
_chemical_formula_sum "Si O2"
_cell_formula_units_Z 28
_cell_length_a 16.216736
_cell_length_b 9.017367
_cell_length_c 18.444600
_cell_angle_alpha 90.000000
_cell_angle_beta 37.620070
_cell_angle_gamma 90.000000
_cell_volume 1646.429267
_symmetry_space_group_name_H-M "P 21/M"
_symmetry_group_IT_number 11
_symmetry_cell_setting 'monoclinic'
loop_
_space_group_symop_operation_xyz
x,y,z
-x,1/2+y,-z
-x,-y,-z
x,1/2-y,z
loop_
_atom_site_type_symbol
_atom_site_label
_atom_site_fract_x
_atom_site_fract_y
_atom_site_fract_z
Si Si1 0.483613 0.578148 0.740786
Si Si2 0.296711 0.423890 0.152832
Si Si3 0.216104 0.422749 0.521879
Si Si4 0.990132 0.574085 0.584512
Si Si5 0.694726 0.082597 0.403249
Si Si6 0.452957 0.924869 0.925290
Si Si7 0.609574 0.583415 0.329051
O O1 0.448049 0.750000 0.756247
O O2 0.640789 0.550606 0.615932
O O3 0.451720 0.519420 0.843429
O O4 0.388487 0.488655 0.751887
O O5 0.303491 0.250000 0.134866
O O6 0.150704 0.474714 0.281558
O O7 0.405807 0.474885 0.136877
O O8 0.327723 0.502317 0.054731
O O9 0.176891 0.250000 0.550229
O O10 0.217066 0.484227 0.603143
O O11 0.108741 0.516042 0.552228
O O12 0.000196 0.750000 0.568630
O O13 0.000000 0.500000 0.500000
O O14 0.751935 0.250000 0.360641
O O15 0.540948 0.083166 0.535618
O O16 0.705408 0.010293 0.316063
O O17 0.436549 0.750000 0.940111
O O18 0.666344 0.750000 0.284418
#
# Coordination Sequence:
#
# PCOD8070380 Si02
#       7
#     4   4   4   4   4   4   4
#     4   9  17  29  45  67  96 126 154 190 235 277
#     4   9  19  34  49  67  92 121 153 192 235 273
#     4  10  19  31  47  68  96 127 158 192 231 275
#     4  11  22  35  50  69  95 125 157 192 231 275
#     4   9  16  27  42  62  91 125 158 190 229 276
#     4   9  17  31  50  69  90 119 155 192 231 275
#     4   9  16  25  40  64  92 122 156 192 230 274
#
# _framework density 17.006499999999999
#
# number of rings (size 3 to 8) (size 9 to 14) (size 15 to 20)
#    0.000    2.571    0.000    2.571    0.000    8.000 
#    0.000    2.857    0.000    0.000    0.000    1.000 
#    0.000    0.000    0.000    0.000    0.000    0.000 
#
# Total GULP energy -347217.350151 kJ/mol
# GULP energy per Si atom -12400.619648 kJ/mol
# Density = 1.696779 g / cm^3
# Si number density = 17.006500 Si / 1000 Ang^3
#
#
#
# Elastic Constant Matrix: (Units=GPa)
#
#
# Indices 1 2 3 4 5 6 
#
# 1 121.7904 49.9704 56.8955 0.0000 30.6636 0.0000
# 2 49.9704 82.1925 44.4013 0.0000 13.1093 0.0000
# 3 56.8955 44.4013 78.5148 0.0000 22.2787 0.0000
# 4 0.0000 0.0000 0.0000 23.5883 0.0000 4.8602
# 5 30.6636 13.1093 22.2787 0.0000 27.5555 0.0000
# 6 0.0000 0.0000 0.0000 4.8602 0.0000 34.9787
#
#
#
# Elastic Compliance Matrix: (Units=1/GPa)
#
#
# Indices 1 2 3 4 5 6 
#
# 1 0.015314 -0.004681 -0.005510 0.000000 -0.010359 0.000000
# 2 -0.004681 0.018953 -0.008105 0.000000 0.002745 0.000000
# 3 -0.005510 -0.008105 0.023980 0.000000 -0.009400 0.000000
# 4 0.000000 0.000000 0.000000 0.043643 0.000000 -0.006064
# 5 -0.010359 0.002745 -0.009400 0.000000 0.054112 0.000000
# 6 0.000000 0.000000 0.000000 -0.006064 0.000000 0.029431
#
#
# Mechanical properties :
#
#
# Convention : Reuss Voigt Hill
#
# Bulk Modulus (GPa) = 46.18102 65.00358 55.59230
# Shear Modulus (GPa) = 21.81064 25.97321 23.89192
#
# Velocity S-wave (km/s) = 3.58507 3.91225 3.75223
# Velocity P-wave (km/s) = 6.65964 7.66246 7.17859
#
# Compressibility (1/GPa) = 0.02165392
#
# Stress axis : x y z
#
# Youngs Moduli (GPa) = 65.29990 52.76154 41.70060
#
# Poissons Ratio (x) = 0.24700 0.22979
# Poissons Ratio (y) = 0.30569 0.33798
# Poissons Ratio (z) = 0.35983 0.42763
#
# Static dielectric constant tensor:
#      x y z
#    x 3.399890 0.000000 0.211920 
#    y 0.000000 3.275110 0.000000 
#    z 0.211920 0.000000 2.956110 
# 
# 
# High freq. dielectric constant tensor:
#      x y z
#    x 1.659260 0.000000 0.022600 
#    y 0.000000 1.665740 0.000000 
#    z 0.022600 0.000000 1.615390 
# 
# From -- ./inp_files/42301.got.cif
#   From: 2010.06.25/outbox.cif.g09.slc.cpg/sg11_22_cif.got.tgz:42301.got - 2010.06.27 23:14:04.
