data_PCOD8070319
_publ_section_title
;
Structure prediction by ZEFSAII (Michael W. Deem and Ramdas Pophale) SiO2 
 PCOD8070319
Probable space group: P 21/M
;
_chemical_formula_sum "Si O2"
_cell_formula_units_Z 28
_cell_length_a 13.187134
_cell_length_b 9.017960
_cell_length_c 14.275878
_cell_angle_alpha 90.000000
_cell_angle_beta 57.331834
_cell_angle_gamma 90.000000
_cell_volume 1429.144203
_symmetry_space_group_name_H-M "P 21/M"
_symmetry_group_IT_number 11
_symmetry_cell_setting 'monoclinic'
loop_
_space_group_symop_operation_xyz
x,y,z
-x,1/2+y,-z
-x,-y,-z
x,1/2-y,z
loop_
_atom_site_type_symbol
_atom_site_label
_atom_site_fract_x
_atom_site_fract_y
_atom_site_fract_z
Si Si1 0.558700 0.579563 0.311250
Si Si2 0.686766 0.578192 0.554006
Si Si3 0.291191 0.078211 0.247872
Si Si4 0.434457 0.580826 0.878345
Si Si5 0.793962 0.919848 0.309876
Si Si6 0.790114 0.421761 0.886121
Si Si7 0.004335 0.073965 0.099081
O O1 0.529992 0.750000 0.310314
O O2 0.436665 0.504923 0.407709
O O3 0.606664 0.516486 0.189046
O O4 0.661155 0.552361 0.336588
O O5 0.651484 0.750000 0.572754
O O6 0.739454 0.533119 0.629538
O O7 0.786688 0.544972 0.424785
O O8 0.262898 0.250000 0.242455
O O9 0.430693 0.040178 0.157133
O O10 0.207628 0.979968 0.221705
O O11 0.429518 0.750000 0.846673
O O12 0.344449 0.552181 0.008687
O O13 0.835557 0.750000 0.271202
O O14 0.886425 0.031834 0.216667
O O15 0.829040 0.250000 0.868991
O O16 0.879405 0.516639 0.904596
O O17 0.010957 0.250000 0.083973
O O18 0.000000 0.000000 0.000000
#
# Coordination Sequence:
#
# PCOD8070319 Si02
#       7
#     4   4   4   4   4   4   4
#     4  10  19  30  52  85 116 145 182 228 278 331
#     4   9  19  36  57  81 115 152 185 226 277 330
#     4   9  18  34  55  82 114 147 183 226 276 330
#     4   9  19  34  53  79 113 150 185 224 277 334
#     4  10  21  38  58  82 112 149 190 232 277 326
#     4  11  22  37  58  83 111 147 188 231 279 331
#     4  12  26  43  62  84 111 144 183 229 276 328
#
# _framework density 19.592146
#
# number of rings (size 3 to 8) (size 9 to 14) (size 15 to 20)
#    0.000    2.000    0.000    4.714    0.000    7.429 
#    0.000    0.714    0.000    0.000    0.000    0.000 
#    0.000    0.000    0.000    0.000    0.000    0.000 
#
# Total GULP energy -347244.560620 kJ/mol
# GULP energy per Si atom -12401.591451 kJ/mol
# Density = 1.954755 g / cm^3
# Si number density = 19.592146 Si / 1000 Ang^3
#
#
#
# Elastic Constant Matrix: (Units=GPa)
#
#
# Indices 1 2 3 4 5 6 
#
# 1 96.6596 58.5552 54.1177 0.0000 22.5085 0.0000
# 2 58.5552 114.7336 57.5387 0.0000 11.0819 0.0000
# 3 54.1177 57.5387 119.5294 0.0000 17.0696 0.0000
# 4 0.0000 0.0000 0.0000 29.1416 0.0000 0.5680
# 5 22.5085 11.0819 17.0696 0.0000 25.6602 0.0000
# 6 0.0000 0.0000 0.0000 0.5680 0.0000 34.2691
#
#
#
# Elastic Compliance Matrix: (Units=1/GPa)
#
#
# Indices 1 2 3 4 5 6 
#
# 1 0.019271 -0.006821 -0.003810 0.000000 -0.011424 0.000000
# 2 -0.006821 0.013951 -0.004001 0.000000 0.002620 0.000000
# 3 -0.003810 -0.004001 0.012479 0.000000 -0.003231 0.000000
# 4 0.000000 0.000000 0.000000 0.034326 0.000000 -0.000569
# 5 -0.011424 0.002620 -0.003231 0.000000 0.050009 0.000000
# 6 0.000000 0.000000 0.000000 -0.000569 0.000000 0.029190
#
#
# Mechanical properties :
#
#
# Convention : Reuss Voigt Hill
#
# Bulk Modulus (GPa) = 60.84493 74.59399 67.71946
# Shear Modulus (GPa) = 25.77719 28.52824 27.15271
#
# Velocity S-wave (km/s) = 3.63118 3.82004 3.72680
# Velocity P-wave (km/s) = 6.97881 7.59032 7.29098
#
# Compressibility (1/GPa) = 0.01643522
#
# Stress axis : x y z
#
# Youngs Moduli (GPa) = 51.89123 71.68158 80.13552
#
# Poissons Ratio (x) = 0.48893 0.30534
# Poissons Ratio (y) = 0.35394 0.32066
# Poissons Ratio (z) = 0.19772 0.28683
#
# Static dielectric constant tensor:
#      x y z
#    x 3.424820 0.000000 0.144500 
#    y 0.000000 3.577990 0.000000 
#    z 0.144500 0.000000 3.808740 
# 
# 
# High freq. dielectric constant tensor:
#      x y z
#    x 1.752590 0.000000 0.015180 
#    y 0.000000 1.764140 0.000000 
#    z 0.015180 0.000000 1.766370 
# 
# From -- ./inp_files/49102.got.cif
#   From: 2010.06.25/outbox.cif.g09.slc.cpg/sg11_25_cif.got.tgz:49102.got - 2010.06.27 23:14:04.
