data_PCOD8070422
_publ_section_title
;
Structure prediction by ZEFSAII (Michael W. Deem and Ramdas Pophale) SiO2 
 PCOD8070422
Probable space group: P 21/M
;
_chemical_formula_sum "Si O2"
_cell_formula_units_Z 28
_cell_length_a 14.631751
_cell_length_b 9.388047
_cell_length_c 18.728079
_cell_angle_alpha 90.000000
_cell_angle_beta 37.470127
_cell_angle_gamma 90.000000
_cell_volume 1565.008369
_symmetry_space_group_name_H-M "P 21/M"
_symmetry_group_IT_number 11
_symmetry_cell_setting 'monoclinic'
loop_
_space_group_symop_operation_xyz
x,y,z
-x,1/2+y,-z
-x,-y,-z
x,1/2-y,z
loop_
_atom_site_type_symbol
_atom_site_label
_atom_site_fract_x
_atom_site_fract_y
_atom_site_fract_z
Si Si1 0.252724 0.912547 0.762327
Si Si2 0.404425 0.409731 0.403123
Si Si3 0.480563 0.908313 0.230837
Si Si4 0.816381 0.919919 0.336251
Si Si5 0.174194 0.408166 0.937784
Si Si6 0.900254 0.915725 0.858784
Si Si7 0.566348 0.582262 0.025159
O O1 0.201606 0.750000 0.778867
O O2 0.424925 0.919289 0.677904
O O3 0.241176 0.009578 0.700414
O O4 0.147383 0.975389 0.891710
O O5 0.356784 0.250000 0.414797
O O6 0.379528 0.495512 0.345277
O O7 0.297435 0.469656 0.531409
O O8 0.414567 0.750000 0.277560
O O9 0.652947 0.909674 0.146834
O O10 0.471459 0.961646 0.154461
O O11 0.822459 0.750000 0.323755
O O12 0.979194 0.983867 0.255267
O O13 0.132979 0.250000 0.934929
O O14 0.079976 0.443707 0.067914
O O15 0.930173 0.750000 0.823548
O O16 0.738904 0.963003 0.929577
O O17 0.554796 0.750000 0.018960
O O18 0.500000 0.500000 0.000000
#
# Coordination Sequence:
#
# PCOD8070422 Si02
#       7
#     4   4   4   4   4   4   4
#     4  10  19  31  48  69  93 125 167 208 244 283
#     4   9  19  33  48  69  96 127 166 207 241 276
#     4   8  15  29  50  74  97 123 155 192 236 283
#     4  11  22  33  46  67  97 131 166 204 242 280
#     4   8  15  30  49  67  92 124 158 200 242 280
#     4   9  19  35  51  70  98 129 160 193 237 292
#     4   9  18  33  55  82 105 123 149 189 237 290
#
# _framework density 17.891279000000001
#
# number of rings (size 3 to 8) (size 9 to 14) (size 15 to 20)
#    0.000    2.857    0.000    3.000    0.000    4.000 
#    0.000    2.857    0.000    0.857    0.000    0.000 
#    0.000    0.000    0.000    0.000    0.000    0.000 
#
# Total GULP energy -347126.004083 kJ/mol
# GULP energy per Si atom -12397.357289 kJ/mol
# Density = 1.785056 g / cm^3
# Si number density = 17.891279 Si / 1000 Ang^3
#
#
#
# Elastic Constant Matrix: (Units=GPa)
#
#
# Indices 1 2 3 4 5 6 
#
# 1 48.9556 28.0879 5.6745 0.0000 21.4613 0.0000
# 2 28.0879 81.1151 43.9316 0.0000 14.8936 0.0000
# 3 5.6745 43.9316 92.8779 0.0000 17.8942 0.0000
# 4 0.0000 0.0000 0.0000 30.5822 0.0000 5.4649
# 5 21.4613 14.8936 17.8942 0.0000 22.9261 0.0000
# 6 0.0000 0.0000 0.0000 5.4649 0.0000 31.3353
#
#
#
# Elastic Compliance Matrix: (Units=1/GPa)
#
#
# Indices 1 2 3 4 5 6 
#
# 1 0.046913 -0.015054 0.012748 0.000000 -0.044086 0.000000
# 2 -0.015054 0.022009 -0.011124 0.000000 0.008477 0.000000
# 3 0.012748 -0.011124 0.019016 0.000000 -0.019550 0.000000
# 4 0.000000 0.000000 0.000000 0.033751 0.000000 -0.005886
# 5 -0.044086 0.008477 -0.019550 0.000000 0.094640 0.000000
# 6 0.000000 0.000000 0.000000 -0.005886 0.000000 0.032939
#
#
# Mechanical properties :
#
#
# Convention : Reuss Voigt Hill
#
# Bulk Modulus (GPa) = 16.37243 42.03742 29.20493
# Shear Modulus (GPa) = 16.86413 26.65237 21.75825
#
# Velocity S-wave (km/s) = 3.07349 3.86383 3.49110
# Velocity P-wave (km/s) = 4.66541 6.59186 5.71046
#
# Compressibility (1/GPa) = 0.06107827
#
# Stress axis : x y z
#
# Youngs Moduli (GPa) = 21.31608 45.43533 52.58700
#
# Poissons Ratio (x) = 0.68400 -0.67040
# Poissons Ratio (y) = 0.32090 0.58497
# Poissons Ratio (z) = -0.27174 0.50542
#
# Static dielectric constant tensor:
#      x y z
#    x 3.060490 0.000000 0.115610 
#    y 0.000000 3.459240 0.000000 
#    z 0.115610 0.000000 3.504120 
# 
# 
# High freq. dielectric constant tensor:
#      x y z
#    x 1.663720 0.000000 0.005800 
#    y 0.000000 1.693960 0.000000 
#    z 0.005800 0.000000 1.695280 
# 
# From -- ./inp_files/53235.got.cif
#   From: 2010.06.25/outbox.cif.g09.slc.cpg/sg11_27_cif.got.tgz:53235.got - 2010.06.27 23:14:04.
