data_PCOD8070784
_publ_section_title
;
Structure prediction by ZEFSAII (Michael W. Deem and Ramdas Pophale) SiO2 
 PCOD8070784
Probable space group: P 21/M
;
_chemical_formula_sum "Si O2"
_cell_formula_units_Z 32
_cell_length_a 19.527332
_cell_length_b 13.309642
_cell_length_c 23.189230
_cell_angle_alpha 90.000000
_cell_angle_beta 162.587497
_cell_angle_gamma 90.000000
_cell_volume 1803.550662
_symmetry_space_group_name_H-M "P 21/M"
_symmetry_group_IT_number 11
_symmetry_cell_setting 'monoclinic'
loop_
_space_group_symop_operation_xyz
x,y,z
-x,1/2+y,-z
-x,-y,-z
x,1/2-y,z
loop_
_atom_site_type_symbol
_atom_site_label
_atom_site_fract_x
_atom_site_fract_y
_atom_site_fract_z
Si Si1 0.639149 0.630550 0.532797
Si Si2 0.675171 0.941646 0.272221
Si Si3 0.339030 0.638542 0.091788
Si Si4 0.989928 0.053861 0.083442
Si Si5 0.056891 0.140663 0.319151
Si Si6 0.887941 0.135337 0.881296
Si Si7 0.168166 0.636744 0.652746
Si Si8 0.697589 0.368345 0.112727
O O1 0.683151 0.750000 0.570817
O O2 0.781223 0.578483 0.697571
O O3 0.729483 0.588307 0.542457
O O4 0.376592 0.602037 0.328431
O O5 0.552859 0.920015 0.234975
O O6 0.898180 0.872377 0.446820
O O7 0.745410 0.059373 0.326497
O O8 0.519596 0.919211 0.091498
O O9 0.418206 0.750000 0.175615
O O10 0.243965 0.576784 0.070040
O O11 0.141253 0.650545 0.887080
O O12 0.987866 0.935748 0.065478
O O13 0.999503 0.121300 0.033603
O O14 0.141407 0.250000 0.407725
O O15 0.936961 0.085858 0.277640
O O16 0.916975 0.250000 0.884290
O O17 0.221844 0.750000 0.675213
O O18 0.305231 0.611632 0.821696
O O19 0.690666 0.250000 0.092442
#
# Coordination Sequence:
#
# PCOD8070784 Si02
#       8
#     4   4   4   4   4   4   4   4
#     4   9  16  28  46  68  95 123 151 188 231 270
#     4  10  19  32  48  68  95 122 152 192 232 270
#     4   9  16  29  50  70  88 116 151 187 233 276
#     4  10  19  32  48  68  95 122 152 192 232 270
#     4   7  12  23  41  66  92 116 144 181 222 262
#     4  10  20  31  46  69  94 123 157 188 226 277
#     4  10  20  31  46  69  94 123 157 188 226 277
#     4   9  16  28  46  68  95 123 151 188 231 270
#
# _framework density 17.742778000000001
#
# number of rings (size 3 to 8) (size 9 to 14) (size 15 to 20)
#    0.000    2.750    0.000    4.500    0.000    1.000 
#    0.000    3.125    0.000    0.000    0.000    0.000 
#    0.000    8.000    0.000    0.000    0.000    0.000 
#
# Total GULP energy -396519.128357 kJ/mol
# GULP energy per Si atom -12391.222761 kJ/mol
# Density = 1.770239 g / cm^3
# Si number density = 17.742778 Si / 1000 Ang^3
#
#
#
# Elastic Constant Matrix: (Units=GPa)
#
#
# Indices 1 2 3 4 5 6 
#
# 1 56.5999 43.4303 7.2551 0.0000 25.6034 0.0000
# 2 43.4303 92.9091 20.0224 0.0000 16.6178 0.0000
# 3 7.2551 20.0224 54.1446 0.0000 9.4308 0.0000
# 4 0.0000 0.0000 0.0000 17.1609 0.0000 1.5245
# 5 25.6034 16.6178 9.4308 0.0000 21.5739 0.0000
# 6 0.0000 0.0000 0.0000 1.5245 0.0000 20.7942
#
#
#
# Elastic Compliance Matrix: (Units=1/GPa)
#
#
# Indices 1 2 3 4 5 6 
#
# 1 0.055686 -0.017906 0.008950 0.000000 -0.056207 0.000000
# 2 -0.017906 0.018769 -0.006196 0.000000 0.009502 0.000000
# 3 0.008950 -0.006196 0.022276 0.000000 -0.015586 0.000000
# 4 0.000000 0.000000 0.000000 0.058654 0.000000 -0.004300
# 5 -0.056207 0.009502 -0.015586 0.000000 0.112552 0.000000
# 6 0.000000 0.000000 0.000000 -0.004300 0.000000 0.048406
#
#
# Mechanical properties :
#
#
# Convention : Reuss Voigt Hill
#
# Bulk Modulus (GPa) = 15.05432 38.34100 26.69766
# Shear Modulus (GPa) = 13.55789 20.76887 17.16338
#
# Velocity S-wave (km/s) = 2.76730 3.42505 3.11359
# Velocity P-wave (km/s) = 4.32594 6.10717 5.29204
#
# Compressibility (1/GPa) = 0.06642612
#
# Stress axis : x y z
#
# Youngs Moduli (GPa) = 17.95791 53.27886 44.89130
#
# Poissons Ratio (x) = 0.95400 -0.40177
# Poissons Ratio (y) = 0.32155 0.27817
# Poissons Ratio (z) = -0.16072 0.33014
#
# Static dielectric constant tensor:
#      x y z
#    x 3.473710 0.000000 0.118670 
#    y 0.000000 3.081200 0.000000 
#    z 0.118670 0.000000 3.256480 
# 
# 
# High freq. dielectric constant tensor:
#      x y z
#    x 1.679750 0.000000 -0.000330 
#    y 0.000000 1.652630 0.000000 
#    z -0.000330 0.000000 1.690870 
# 
# From -- ./inp_files/66290.got.cif
#   From: 2010.06.25/outbox.cif.g09.slc.cpg/sg11_34_cif.got.tgz:66290.got - 2010.06.27 23:14:04.
