data_PCOD8070413
_publ_section_title
;
Structure prediction by ZEFSAII (Michael W. Deem and Ramdas Pophale) SiO2 
 PCOD8070413
Probable space group: P 21/M
;
_chemical_formula_sum "Si O2"
_cell_formula_units_Z 32
_cell_length_a 21.607352
_cell_length_b 9.316041
_cell_length_c 29.623778
_cell_angle_alpha 90.000000
_cell_angle_beta 160.465433
_cell_angle_gamma 90.000000
_cell_volume 1993.920477
_symmetry_space_group_name_H-M "P 21/M"
_symmetry_group_IT_number 11
_symmetry_cell_setting 'monoclinic'
loop_
_space_group_symop_operation_xyz
x,y,z
-x,1/2+y,-z
-x,-y,-z
x,1/2-y,z
loop_
_atom_site_type_symbol
_atom_site_label
_atom_site_fract_x
_atom_site_fract_y
_atom_site_fract_z
Si Si1 0.232062 0.408913 0.798427
Si Si2 0.372673 0.078850 0.376738
Si Si3 0.083104 0.921707 0.355756
Si Si4 0.508214 0.080670 0.371483
Si Si5 0.992237 0.916895 0.120426
Si Si6 0.151930 0.416584 0.076230
Si Si7 0.501192 0.090964 0.068527
Si Si8 0.827383 0.919753 0.100972
O O1 0.197089 0.250000 0.755248
O O2 0.312303 0.500712 0.811968
O O3 0.039349 0.474368 0.685538
O O4 0.377892 0.403441 0.939072
O O5 0.376548 0.250000 0.386708
O O6 0.447147 0.032468 0.379157
O O7 0.500000 0.000000 0.500000
O O8 0.166130 0.021123 0.239600
O O9 0.084852 0.750000 0.356452
O O10 0.290663 0.986081 0.502109
O O11 0.991951 0.978804 0.246328
O O12 0.525781 0.250000 0.381616
O O13 0.355383 0.026906 0.230423
O O14 0.055298 0.750000 0.167670
O O15 0.865426 0.963013 0.075571
O O16 0.870378 0.943289 0.992211
O O17 0.129495 0.250000 0.073528
O O18 0.000000 0.500000 0.000000
O O19 0.567249 0.250000 0.127434
O O20 0.373744 0.021277 0.020796
O O21 0.818909 0.750000 0.101536
#
# Coordination Sequence:
#
# PCOD8070413 Si02
#       8
#     4   4   4   4   4   4   4   4
#     4   8  13  21  36  58  80 105 137 171 207 250
#     4  11  21  32  47  66  91 119 148 180 220 271
#     4   8  13  23  40  60  84 112 142 175 212 260
#     4   9  17  29  45  64  86 115 148 182 221 263
#     4  10  19  31  48  67  88 115 150 189 224 261
#     4  10  19  32  49  67  86 112 149 192 229 264
#     4   8  13  22  37  56  81 111 138 166 206 258
#     4   8  14  25  41  62  86 114 145 175 213 263
#
# _framework density 16.048784999999999
#
# number of rings (size 3 to 8) (size 9 to 14) (size 15 to 20)
#    0.000    3.000    1.250    2.625    0.000    2.000 
#    0.000    0.625    0.000    7.500    0.000    0.875 
#    0.000    0.000    0.000    0.000    0.000    0.000 
#
# Total GULP energy -396552.195566 kJ/mol
# GULP energy per Si atom -12392.256111 kJ/mol
# Density = 1.601226 g / cm^3
# Si number density = 16.048785 Si / 1000 Ang^3
#
#
#
# Elastic Constant Matrix: (Units=GPa)
#
#
# Indices 1 2 3 4 5 6 
#
# 1 119.1206 37.2603 91.3501 0.0000 26.5098 0.0000
# 2 37.2603 41.1159 30.9223 0.0000 5.4542 0.0000
# 3 91.3501 30.9223 99.2235 0.0000 7.8941 0.0000
# 4 0.0000 0.0000 0.0000 18.4855 0.0000 4.8925
# 5 26.5098 5.4542 7.8941 0.0000 29.0852 0.0000
# 6 0.0000 0.0000 0.0000 4.8925 0.0000 19.8921
#
#
#
# Elastic Compliance Matrix: (Units=1/GPa)
#
#
# Indices 1 2 3 4 5 6 
#
# 1 0.048689 -0.010573 -0.039000 0.000000 -0.031810 0.000000
# 2 -0.010573 0.034384 -0.001263 0.000000 0.003531 0.000000
# 3 -0.039000 -0.001263 0.044491 0.000000 0.023708 0.000000
# 4 0.000000 0.000000 0.000000 0.057863 0.000000 -0.014232
# 5 -0.031810 0.003531 0.023708 0.000000 0.056278 0.000000
# 6 0.000000 0.000000 0.000000 -0.014232 0.000000 0.053772
#
#
# Mechanical properties :
#
#
# Convention : Reuss Voigt Hill
#
# Bulk Modulus (GPa) = 38.62014 64.28061 51.45037
# Shear Modulus (GPa) = 12.32202 20.15438 16.23820
#
# Velocity S-wave (km/s) = 2.77390 3.54760 3.18433
# Velocity P-wave (km/s) = 5.86309 7.54459 6.75635
#
# Compressibility (1/GPa) = 0.02589323
#
# Stress axis : x y z
#
# Youngs Moduli (GPa) = 20.53859 29.08340 22.47659
#
# Poissons Ratio (x) = 0.30749 0.87658
# Poissons Ratio (y) = 0.21715 0.02838
# Poissons Ratio (z) = 0.80100 0.03673
#
# Static dielectric constant tensor:
#      x y z
#    x 3.239890 0.000000 0.211240 
#    y 0.000000 2.862310 0.000000 
#    z 0.211240 0.000000 3.327590 
# 
# 
# High freq. dielectric constant tensor:
#      x y z
#    x 1.612670 0.000000 0.022270 
#    y 0.000000 1.582190 0.000000 
#    z 0.022270 0.000000 1.600240 
# 
# From -- ./inp_files/40695.got.cif
#   From: 2010.06.25/outbox.cif.g09.slc.cpg/sg11_21_cif.got.tgz:40695.got - 2010.06.27 23:14:04.
