data_PCOD8070048
_publ_section_title
;
Structure prediction by ZEFSAII (Michael W. Deem and Ramdas Pophale) SiO2 
 PCOD8070048
Probable space group: P 21/M
;
_chemical_formula_sum "Si O2"
_cell_formula_units_Z 24
_cell_length_a 12.081795
_cell_length_b 8.836899
_cell_length_c 23.275720
_cell_angle_alpha 90.000000
_cell_angle_beta 145.211088
_cell_angle_gamma 90.000000
_cell_volume 1417.854691
_symmetry_space_group_name_H-M "P 21/M"
_symmetry_group_IT_number 11
_symmetry_cell_setting 'monoclinic'
loop_
_space_group_symop_operation_xyz
x,y,z
-x,1/2+y,-z
-x,-y,-z
x,1/2-y,z
loop_
_atom_site_type_symbol
_atom_site_label
_atom_site_fract_x
_atom_site_fract_y
_atom_site_fract_z
Si Si1 0.718799 0.576412 0.148524
Si Si2 0.811316 0.071333 0.946968
Si Si3 0.315388 0.424243 0.994954
Si Si4 0.087658 0.922113 0.672387
Si Si5 0.563701 0.425842 0.267092
Si Si6 0.828106 0.926936 0.461858
O O1 0.659103 0.750000 0.133295
O O2 0.779727 0.550541 0.108297
O O3 0.898396 0.530373 0.265994
O O4 0.539831 0.470724 0.089340
O O5 0.822833 0.250000 0.947204
O O6 0.625427 0.013407 0.833487
O O7 0.802552 0.023822 0.010000
O O8 0.000000 0.000000 0.000000
O O9 0.306257 0.250000 0.010544
O O10 0.096628 0.750000 0.697595
O O11 0.266439 0.956491 0.706079
O O12 0.882451 0.952559 0.552324
O O13 0.515222 0.250000 0.253162
O O14 0.628861 0.491803 0.357330
O O15 0.816118 0.750000 0.442354
O O16 0.000000 0.000000 0.500000
#
# Coordination Sequence:
#
# PCOD8070048 Si02
#       6
#     4   4   4   4   4   4
#     4  10  19  29  48  73  99 133 166 200 246 295
#     4  12  24  37  54  73  96 131 170 208 249 295
#     4  10  20  34  48  69 100 130 166 207 245 292
#     4   9  17  28  45  69 101 133 162 199 244 293
#     4  10  19  32  48  69  98 130 163 206 248 291
#     4   9  17  28  43  66  96 131 165 200 244 294
#
# _framework density 16.926981000000001
#
# number of rings (size 3 to 8) (size 9 to 14) (size 15 to 20)
#    0.000    2.000    1.667    4.500    0.000    5.333 
#    0.000    0.000    0.000    0.000    0.000    1.167 
#    0.000    0.000    0.000    0.000    0.000    0.000 
#
# Total GULP energy -297535.052353 kJ/mol
# GULP energy per Si atom -12397.293848 kJ/mol
# Density = 1.688845 g / cm^3
# Si number density = 16.926981 Si / 1000 Ang^3
#
#
#
# Elastic Constant Matrix: (Units=GPa)
#
#
# Indices 1 2 3 4 5 6 
#
# 1 67.2734 46.3559 49.3795 0.0000 -10.4719 0.0000
# 2 46.3559 126.6319 61.9194 0.0000 -13.1411 0.0000
# 3 49.3795 61.9194 102.9570 0.0000 -28.7258 0.0000
# 4 0.0000 0.0000 0.0000 32.7703 0.0000 -4.8281
# 5 -10.4719 -13.1411 -28.7258 0.0000 24.9786 0.0000
# 6 0.0000 0.0000 0.0000 -4.8281 0.0000 23.8271
#
#
#
# Elastic Compliance Matrix: (Units=1/GPa)
#
#
# Indices 1 2 3 4 5 6 
#
# 1 0.024936 -0.004473 -0.010321 0.000000 -0.003769 0.000000
# 2 -0.004473 0.012116 -0.005723 0.000000 -0.002082 0.000000
# 3 -0.010321 -0.005723 0.023644 0.000000 0.019853 0.000000
# 4 0.000000 0.000000 0.000000 0.031455 0.000000 0.006374
# 5 -0.003769 -0.002082 0.019853 0.000000 0.060191 0.000000
# 6 0.000000 0.000000 0.000000 0.006374 0.000000 0.043261
#
#
# Mechanical properties :
#
#
# Convention : Reuss Voigt Hill
#
# Bulk Modulus (GPa) = 50.85630 68.01910 59.43770
# Shear Modulus (GPa) = 20.56016 25.59568 23.07792
#
# Velocity S-wave (km/s) = 3.48895 3.89282 3.69640
# Velocity P-wave (km/s) = 6.80735 7.77666 7.30810
#
# Compressibility (1/GPa) = 0.01966325
#
# Stress axis : x y z
#
# Youngs Moduli (GPa) = 40.10289 82.53326 42.29441
#
# Poissons Ratio (x) = 0.36913 0.43653
# Poissons Ratio (y) = 0.17936 0.24204
# Poissons Ratio (z) = 0.41391 0.47231
#
# Static dielectric constant tensor:
#      x y z
#    x 2.945230 0.000000 -0.399550 
#    y 0.000000 3.419480 0.000000 
#    z -0.399550 0.000000 3.626190 
# 
# 
# High freq. dielectric constant tensor:
#      x y z
#    x 1.601860 0.000000 -0.037710 
#    y 0.000000 1.671820 0.000000 
#    z -0.037710 0.000000 1.654180 
# 
# From -- ./inp_files/37242.got.cif
#   From: 2010.06.25/outbox.cif.g09.slc.cpg/sg11_19_cif.got.tgz:37242.got - 2010.06.27 23:14:04.
