data_PCOD8070159
_publ_section_title
;
Structure prediction by ZEFSAII (Michael W. Deem and Ramdas Pophale) SiO2 
 PCOD8070159
Probable space group: P 21/M
;
_chemical_formula_sum "Si O2"
_cell_formula_units_Z 32
_cell_length_a 25.755023
_cell_length_b 9.049581
_cell_length_c 14.316005
_cell_angle_alpha 90.000000
_cell_angle_beta 146.488279
_cell_angle_gamma 90.000000
_cell_volume 1842.196490
_symmetry_space_group_name_H-M "P 21/M"
_symmetry_group_IT_number 11
_symmetry_cell_setting 'monoclinic'
loop_
_space_group_symop_operation_xyz
x,y,z
-x,1/2+y,-z
-x,-y,-z
x,1/2-y,z
loop_
_atom_site_type_symbol
_atom_site_label
_atom_site_fract_x
_atom_site_fract_y
_atom_site_fract_z
Si Si1 0.749103 0.574796 0.770534
Si Si2 0.744114 0.575088 0.259007
Si Si3 0.744116 0.924900 0.973348
Si Si4 0.901608 0.579587 0.352421
Si Si5 0.611827 0.426286 0.917751
Si Si6 0.601312 0.574398 0.401976
Si Si7 0.900172 0.924468 0.850261
Si Si8 0.250899 0.074797 0.523218
O O1 0.747297 0.750000 0.771237
O O2 0.750411 0.512697 0.877622
O O3 0.656383 0.516782 0.576903
O O4 0.842661 0.523734 0.855878
O O5 0.724091 0.750000 0.223469
O O6 0.841987 0.536115 0.354783
O O7 0.750409 0.512695 0.373619
O O8 0.659188 0.490474 0.081740
O O9 0.724042 0.750000 0.948732
O O10 0.659223 0.009568 0.895901
O O11 0.842013 0.963785 0.171202
O O12 0.925780 0.750000 0.388733
O O13 0.000000 0.500000 0.500000
O O14 0.619083 0.250000 0.928651
O O15 0.504660 0.484388 0.756979
O O16 0.602620 0.750000 0.403939
O O17 0.656381 0.516785 0.392257
O O18 0.914437 0.750000 0.871658
O O19 0.842659 0.976266 0.672110
O O20 0.000000 0.000000 0.000000
O O21 0.252704 0.250000 0.529339
#
# Coordination Sequence:
#
# PCOD8070159 Si02
#       8
#     4   4   4   4   4   4   4   4
#     4   8  15  30  50  68  90 124 160 188 220 272
#     4   9  18  33  50  67  90 123 160 190 221 272
#     4   9  18  33  50  67  90 123 160 190 221 272
#     4   9  18  30  44  64  88 115 149 187 224 263
#     4  10  19  30  46  71  98 119 147 192 238 273
#     4   8  15  28  47  71  95 119 150 188 229 273
#     4   9  17  30  49  72  96 123 155 191 231 273
#     4   8  15  30  50  68  90 124 160 188 220 272
#
# _framework density 17.370567999999999
#
# number of rings (size 3 to 8) (size 9 to 14) (size 15 to 20)
#    0.000    3.250    0.000    2.625    0.000    4.000 
#    0.000    1.250    0.000    7.500    0.000    0.000 
#    0.000    0.000    0.000    0.000    0.000    0.000 
#
# Total GULP energy -396644.434945 kJ/mol
# GULP energy per Si atom -12395.138592 kJ/mol
# Density = 1.733103 g / cm^3
# Si number density = 17.370568 Si / 1000 Ang^3
#
#
#
# Elastic Constant Matrix: (Units=GPa)
#
#
# Indices 1 2 3 4 5 6 
#
# 1 162.2096 33.7629 123.3952 0.0000 -14.5579 0.0000
# 2 33.7629 30.4220 39.2537 0.0000 5.4729 0.0000
# 3 123.3952 39.2537 160.2732 0.0000 12.3338 0.0000
# 4 0.0000 0.0000 0.0000 24.8305 0.0000 4.6972
# 5 -14.5579 5.4729 12.3338 0.0000 39.2634 0.0000
# 6 0.0000 0.0000 0.0000 4.6972 0.0000 20.1575
#
#
#
# Elastic Compliance Matrix: (Units=1/GPa)
#
#
# Indices 1 2 3 4 5 6 
#
# 1 0.019663 -0.004838 -0.014928 0.000000 0.012654 0.000000
# 2 -0.004838 0.049614 -0.007949 0.000000 -0.006212 0.000000
# 3 -0.014928 -0.007949 0.020516 0.000000 -0.010872 0.000000
# 4 0.000000 0.000000 0.000000 0.042130 0.000000 -0.009817
# 5 0.012654 -0.006212 -0.010872 0.000000 0.034442 0.000000
# 6 0.000000 0.000000 0.000000 -0.009817 0.000000 0.051897
#
#
# Mechanical properties :
#
#
# Convention : Reuss Voigt Hill
#
# Bulk Modulus (GPa) = 29.09983 82.85871 55.97927
# Shear Modulus (GPa) = 17.53492 27.28315 22.40903
#
# Velocity S-wave (km/s) = 3.18065 3.96745 3.59563
# Velocity P-wave (km/s) = 5.50249 8.29408 7.03808
#
# Compressibility (1/GPa) = 0.03436446
#
# Stress axis : x y z
#
# Youngs Moduli (GPa) = 50.85599 20.15569 48.74289
#
# Poissons Ratio (x) = 0.09751 0.72763
# Poissons Ratio (y) = 0.24603 0.38744
# Poissons Ratio (z) = 0.75917 0.16021
#
# Static dielectric constant tensor:
#      x y z
#    x 3.666710 0.000000 -0.211440 
#    y 0.000000 2.847940 0.000000 
#    z -0.211440 0.000000 3.456800 
# 
# 
# High freq. dielectric constant tensor:
#      x y z
#    x 1.678460 0.000000 -0.002330 
#    y 0.000000 1.631970 0.000000 
#    z -0.002330 0.000000 1.676140 
# 
# From -- ./inp_files/56138.got.cif
#   From: 2010.06.25/outbox.cif.g09.slc.cpg/sg11_29_cif.got.tgz:56138.got - 2010.06.27 23:14:04.
