data_PCOD8070353
_publ_section_title
;
Structure prediction by ZEFSAII (Michael W. Deem and Ramdas Pophale) SiO2 
 PCOD8070353
Probable space group: P 21/M
;
_chemical_formula_sum "Si O2"
_cell_formula_units_Z 24
_cell_length_a 5.185226
_cell_length_b 8.466594
_cell_length_c 26.924926
_cell_angle_alpha 90.000000
_cell_angle_beta 90.010460
_cell_angle_gamma 90.000000
_cell_volume 1182.036632
_symmetry_space_group_name_H-M "P 21/M"
_symmetry_group_IT_number 11
_symmetry_cell_setting 'monoclinic'
loop_
_space_group_symop_operation_xyz
x,y,z
-x,1/2+y,-z
-x,-y,-z
x,1/2-y,z
loop_
_atom_site_type_symbol
_atom_site_label
_atom_site_fract_x
_atom_site_fract_y
_atom_site_fract_z
Si Si1 0.504679 0.561409 0.775320
Si Si2 0.446298 0.063289 0.554370
Si Si3 0.999148 0.937451 0.944723
Si Si4 0.945040 0.937384 0.606460
Si Si5 0.499097 0.561844 0.887405
Si Si6 0.004868 0.937869 0.718665
O O1 0.503236 0.750000 0.775561
O O2 0.499668 0.495637 0.831391
O O3 0.757249 0.495550 0.747771
O O4 0.257922 0.495094 0.745805
O O5 0.431473 0.250000 0.553415
O O6 0.500000 0.000000 0.500000
O O7 0.670239 0.007721 0.591180
O O8 0.170864 0.996524 0.570926
O O9 0.999337 0.750000 0.945665
O O10 0.248367 0.002943 0.915836
O O11 0.748964 0.002952 0.916148
O O12 0.000000 0.000000 0.000000
O O13 0.926370 0.750000 0.603380
O O14 0.002605 0.997350 0.662087
O O15 0.499377 0.750000 0.886361
O O16 0.003834 0.750000 0.720046
#
# Coordination Sequence:
#
# PCOD8070353 Si02
#       6
#     4   4   4   4   4   4
#     4   9  15  26  44  72 105 134 163 208 263 313
#     4  12  25  42  62  87 117 154 195 237 284 336
#     4  10  19  31  46  68  95 128 165 208 256 307
#     4  11  22  39  61  89 121 152 187 233 283 339
#     4   9  17  28  45  69  99 128 163 209 259 307
#     4   9  17  28  48  77 108 136 168 211 264 316
#
# _framework density 20.303939
#
# number of rings (size 3 to 8) (size 9 to 14) (size 15 to 20)
#    0.000    2.000    0.000    5.000    0.000    6.667 
#    0.000    0.000    0.000    0.000    0.000   23.333 
#    0.000    0.000    0.000    0.000    0.000    0.000 
#
# Total GULP energy -297654.874417 kJ/mol
# GULP energy per Si atom -12402.286434 kJ/mol
# Density = 2.025773 g / cm^3
# Si number density = 20.303939 Si / 1000 Ang^3
#
#
#
# Elastic Constant Matrix: (Units=GPa)
#
#
# Indices 1 2 3 4 5 6 
#
# 1 151.1976 13.8583 49.5669 0.0000 0.5030 0.0000
# 2 13.8583 57.6109 17.6192 0.0000 1.9196 0.0000
# 3 49.5669 17.6192 151.5021 0.0000 0.4748 0.0000
# 4 0.0000 0.0000 0.0000 19.8772 0.0000 0.8838
# 5 0.5030 1.9196 0.4748 0.0000 51.0073 0.0000
# 6 0.0000 0.0000 0.0000 0.8838 0.0000 18.5993
#
#
#
# Elastic Compliance Matrix: (Units=1/GPa)
#
#
# Indices 1 2 3 4 5 6 
#
# 1 0.007474 -0.001088 -0.002319 0.000000 -0.000011 0.000000
# 2 -0.001088 0.018179 -0.001756 0.000000 -0.000657 0.000000
# 3 -0.002319 -0.001756 0.007563 0.000000 0.000019 0.000000
# 4 0.000000 0.000000 0.000000 0.050416 0.000000 -0.002396
# 5 -0.000011 -0.000657 0.000019 0.000000 0.019630 0.000000
# 6 0.000000 0.000000 0.000000 -0.002396 0.000000 0.053879
#
#
# Mechanical properties :
#
#
# Convention : Reuss Voigt Hill
#
# Bulk Modulus (GPa) = 43.68757 58.04438 50.86597
# Shear Modulus (GPa) = 28.55577 36.51449 32.53513
#
# Velocity S-wave (km/s) = 3.75429 4.24535 4.00735
# Velocity P-wave (km/s) = 6.35267 7.25813 6.82044
#
# Compressibility (1/GPa) = 0.02288981
#
# Stress axis : x y z
#
# Youngs Moduli (GPa) = 133.80167 55.00984 132.21755
#
# Poissons Ratio (x) = 0.05987 0.30656
# Poissons Ratio (y) = 0.14562 0.23217
# Poissons Ratio (z) = 0.31023 0.09660
#
# Static dielectric constant tensor:
#      x y z
#    x 3.616920 0.000000 0.407490 
#    y 0.000000 3.153580 0.000000 
#    z 0.407490 0.000000 3.617730 
# 
# 
# High freq. dielectric constant tensor:
#      x y z
#    x 1.815350 0.000000 0.000420 
#    y 0.000000 1.740170 0.000000 
#    z 0.000420 0.000000 1.813800 
# 
# From -- ./inp_files/67513.got.cif
#   From: 2010.06.25/outbox.cif.g09.slc.cpg/sg11_34_cif.got.tgz:67513.got - 2010.06.27 23:14:04.
