data_PCOD8070912
_publ_section_title
;
Structure prediction by ZEFSAII (Michael W. Deem and Ramdas Pophale) SiO2 
 PCOD8070912
Probable space group: P 21/M
;
_chemical_formula_sum "Si O2"
_cell_formula_units_Z 32
_cell_length_a 23.812652
_cell_length_b 9.369894
_cell_length_c 14.879279
_cell_angle_alpha 90.000000
_cell_angle_beta 26.424599
_cell_angle_gamma 90.000000
_cell_volume 1477.418607
_symmetry_space_group_name_H-M "P 21/M"
_symmetry_group_IT_number 11
_symmetry_cell_setting 'monoclinic'
loop_
_space_group_symop_operation_xyz
x,y,z
-x,1/2+y,-z
-x,-y,-z
x,1/2-y,z
loop_
_atom_site_type_symbol
_atom_site_label
_atom_site_fract_x
_atom_site_fract_y
_atom_site_fract_z
Si Si1 0.976622 0.583165 0.126775
Si Si2 0.487787 0.586837 0.310988
Si Si3 0.222694 0.085330 0.107816
Si Si4 0.403579 0.091289 0.582295
Si Si5 0.128047 0.090985 0.053736
Si Si6 0.514905 0.593115 0.850377
Si Si7 0.224367 0.409479 0.446860
Si Si8 0.774287 0.089511 0.718189
O O1 0.005596 0.750000 0.067756
O O2 0.834511 0.559515 0.369137
O O3 0.000000 0.500000 0.000000
O O4 0.062527 0.525676 0.085117
O O5 0.448986 0.750000 0.380738
O O6 0.392133 0.487499 0.503351
O O7 0.466803 0.542471 0.239086
O O8 0.633177 0.558065 0.129945
O O9 0.207405 0.250000 0.158601
O O10 0.188245 0.988335 0.242866
O O11 0.129688 0.047590 0.157584
O O12 0.459035 0.250000 0.489784
O O13 0.271691 0.099597 0.819157
O O14 0.500000 0.000000 0.500000
O O15 0.067898 0.250000 0.127755
O O16 0.532030 0.750000 0.778841
O O17 0.623414 0.576104 0.769862
O O18 0.374437 0.586700 0.090698
O O19 0.186061 0.250000 0.472529
O O20 0.164036 0.513134 0.457434
O O21 0.827127 0.250000 0.648832
#
# Coordination Sequence:
#
# PCOD8070912 Si02
#       8
#     4   4   4   4   4   4   4   4
#     4  11  26  46  66  89 117 156 207 256 301 352
#     4  10  19  32  50  82 120 156 196 235 290 358
#     4   9  18  36  58  83 120 159 190 230 294 362
#     4  11  21  34  54  83 119 155 196 243 299 361
#     4  10  22  41  62  84 117 159 201 249 303 355
#     4   9  19  35  56  86 122 159 195 238 298 357
#     4  10  22  41  62  83 117 162 202 245 303 360
#     4  10  20  34  59  95 126 152 193 244 295 358
#
# _framework density 21.659399000000001
#
# number of rings (size 3 to 8) (size 9 to 14) (size 15 to 20)
#    0.000    2.000    1.250    1.875    1.750    4.000 
#    0.000    0.625    0.000    0.000    0.000    0.000 
#    0.000    0.000    0.000    0.000    0.000    0.000 
#
# Total GULP energy -396583.291211 kJ/mol
# GULP energy per Si atom -12393.227850 kJ/mol
# Density = 2.161010 g / cm^3
# Si number density = 21.659399 Si / 1000 Ang^3
#
#
#
# Elastic Constant Matrix: (Units=GPa)
#
#
# Indices 1 2 3 4 5 6 
#
# 1 111.5338 70.1760 26.9925 0.0000 18.5248 0.0000
# 2 70.1760 150.1006 24.9002 0.0000 22.5118 0.0000
# 3 26.9925 24.9002 26.3711 0.0000 18.1498 0.0000
# 4 0.0000 0.0000 0.0000 27.0412 0.0000 6.3646
# 5 18.5248 22.5118 18.1498 0.0000 33.9376 0.0000
# 6 0.0000 0.0000 0.0000 6.3646 0.0000 40.6443
#
#
#
# Elastic Compliance Matrix: (Units=1/GPa)
#
#
# Indices 1 2 3 4 5 6 
#
# 1 0.014717 -0.005253 -0.011035 0.000000 0.001353 0.000000
# 2 -0.005253 0.009859 -0.002224 0.000000 -0.002484 0.000000
# 3 -0.011035 -0.002224 0.073037 0.000000 -0.031562 0.000000
# 4 0.000000 0.000000 0.000000 0.038396 0.000000 -0.006013
# 5 0.001353 -0.002484 -0.031562 0.000000 0.047254 0.000000
# 6 0.000000 0.000000 0.000000 -0.006013 0.000000 0.025545
#
#
# Mechanical properties :
#
#
# Convention : Reuss Voigt Hill
#
# Bulk Modulus (GPa) = 16.50403 59.12698 37.81550
# Shear Modulus (GPa) = 18.79505 31.38708 25.09107
#
# Velocity S-wave (km/s) = 2.94896 3.81086 3.40728
# Velocity P-wave (km/s) = 4.38538 6.83530 5.74251
#
# Compressibility (1/GPa) = 0.06059128
#
# Stress axis : x y z
#
# Youngs Moduli (GPa) = 67.94980 101.42644 13.69168
#
# Poissons Ratio (x) = 0.53277 0.15108
# Poissons Ratio (y) = 0.35693 0.03044
# Poissons Ratio (z) = 0.74980 0.22553
#
# Static dielectric constant tensor:
#      x y z
#    x 3.886960 0.000000 0.207470 
#    y 0.000000 4.001380 0.000000 
#    z 0.207470 0.000000 4.475350 
# 
# 
# High freq. dielectric constant tensor:
#      x y z
#    x 1.842080 0.000000 0.010700 
#    y 0.000000 1.859060 0.000000 
#    z 0.010700 0.000000 1.839320 
# 
# From -- ./inp_files/55541.got.cif
#   From: 2010.06.25/outbox.cif.g09.slc.cpg/sg11_28_cif.got.tgz:55541.got - 2010.06.27 23:14:04.
