data_PCOD8070016
_publ_section_title
;
Structure prediction by ZEFSAII (Michael W. Deem and Ramdas Pophale) SiO2 
 PCOD8070016
Probable space group: P 21/M
;
_chemical_formula_sum "Si O2"
_cell_formula_units_Z 28
_cell_length_a 16.634914
_cell_length_b 9.099102
_cell_length_c 12.031573
_cell_angle_alpha 90.000000
_cell_angle_beta 74.540815
_cell_angle_gamma 90.000000
_cell_volume 1755.244812
_symmetry_space_group_name_H-M "P 21/M"
_symmetry_group_IT_number 11
_symmetry_cell_setting 'monoclinic'
loop_
_space_group_symop_operation_xyz
x,y,z
-x,1/2+y,-z
-x,-y,-z
x,1/2-y,z
loop_
_atom_site_type_symbol
_atom_site_label
_atom_site_fract_x
_atom_site_fract_y
_atom_site_fract_z
Si Si1 0.400569 0.587270 0.432598
Si Si2 0.771149 0.423577 0.434373
Si Si3 0.991383 0.421324 0.829757
Si Si4 0.127615 0.420877 0.966290
Si Si5 0.551999 0.412113 0.327471
Si Si6 0.268231 0.575087 0.795594
Si Si7 0.956152 0.424878 0.413144
O O1 0.397501 0.750000 0.383458
O O2 0.307430 0.513843 0.464322
O O3 0.468397 0.503437 0.332405
O O4 0.428850 0.589514 0.549451
O O5 0.757754 0.250000 0.433471
O O6 0.768336 0.481066 0.308955
O O7 0.858388 0.467467 0.457840
O O8 0.976060 0.250000 0.809743
O O9 0.070694 0.445211 0.879164
O O10 0.004960 0.510174 0.712360
O O11 0.909659 0.489445 0.916817
O O12 0.134535 0.250000 0.995448
O O13 0.218760 0.488073 0.909130
O O14 0.532199 0.250000 0.291671
O O15 0.634091 0.470949 0.232624
O O16 0.256382 0.750000 0.814496
O O17 0.969018 0.250000 0.409769
O O18 0.000000 0.500000 0.500000
#
# Coordination Sequence:
#
# PCOD8070016 Si02
#       7
#     4   4   4   4   4   4   4
#     4   8  13  23  37  53  76 109 146 176 209 256
#     4   8  15  27  43  59  80 115 151 182 219 264
#     4  10  20  33  47  65  88 116 151 186 227 272
#     4  10  19  29  45  68  91 115 148 188 225 265
#     4   8  14  22  34  55  82 111 141 174 213 255
#     4   9  15  26  42  60  86 119 150 177 215 266
#     4  11  21  34  50  66  89 118 153 193 231 266
#
# _framework density 15.95219
#
# number of rings (size 3 to 8) (size 9 to 14) (size 15 to 20)
#    0.000    2.857    1.429    3.000    0.000    1.714 
#    0.000    3.571    0.000    0.000    0.000    0.000 
#    0.000    1.143    0.000    3.429    0.000    5.286 
#
# Total GULP energy -346995.116450 kJ/mol
# GULP energy per Si atom -12392.682730 kJ/mol
# Density = 1.591588 g / cm^3
# Si number density = 15.952190 Si / 1000 Ang^3
#
#
#
# Elastic Constant Matrix: (Units=GPa)
#
#
# Indices 1 2 3 4 5 6 
#
# 1 98.2236 47.8611 60.5270 0.0000 -33.1230 0.0000
# 2 47.8611 79.2761 47.6411 0.0000 -18.3100 0.0000
# 3 60.5270 47.6411 76.5112 0.0000 -26.0543 0.0000
# 4 0.0000 0.0000 0.0000 26.5565 0.0000 -6.9259
# 5 -33.1230 -18.3100 -26.0543 0.0000 33.9242 0.0000
# 6 0.0000 0.0000 0.0000 -6.9259 0.0000 22.9030
#
#
#
# Elastic Compliance Matrix: (Units=1/GPa)
#
#
# Indices 1 2 3 4 5 6 
#
# 1 0.023581 -0.004355 -0.012056 0.000000 0.011414 0.000000
# 2 -0.004355 0.021032 -0.009795 0.000000 -0.000423 0.000000
# 3 -0.012056 -0.009795 0.031007 0.000000 0.006756 0.000000
# 4 0.000000 0.000000 0.000000 0.040880 0.000000 0.012362
# 5 0.011414 -0.000423 0.006756 0.000000 0.045583 0.000000
# 6 0.000000 0.000000 0.000000 0.012362 0.000000 0.047401
#
#
# Mechanical properties :
#
#
# Convention : Reuss Voigt Hill
#
# Bulk Modulus (GPa) = 43.08834 62.89658 52.99246
# Shear Modulus (GPa) = 18.54390 23.20886 20.87638
#
# Velocity S-wave (km/s) = 3.41320 3.81846 3.62150
# Velocity P-wave (km/s) = 6.52708 7.67819 7.12592
#
# Compressibility (1/GPa) = 0.02320814
#
# Stress axis : x y z
#
# Youngs Moduli (GPa) = 42.40644 47.54690 32.25114
#
# Poissons Ratio (x) = 0.20708 0.38882
# Poissons Ratio (y) = 0.18469 0.31589
# Poissons Ratio (z) = 0.51125 0.46570
#
# Static dielectric constant tensor:
#      x y z
#    x 3.120930 0.000000 -0.409680 
#    y 0.000000 3.042500 0.000000 
#    z -0.409680 0.000000 2.827710 
# 
# 
# High freq. dielectric constant tensor:
#      x y z
#    x 1.593790 0.000000 -0.046110 
#    y 0.000000 1.608240 0.000000 
#    z -0.046110 0.000000 1.580650 
# 
# From -- ./inp_files/42138.got.cif
#   From: 2010.06.25/outbox.cif.g09.slc.cpg/sg11_22_cif.got.tgz:42138.got - 2010.06.27 23:14:04.
