data_PCOD8070840
_publ_section_title
;
Structure prediction by ZEFSAII (Michael W. Deem and Ramdas Pophale) SiO2 
 PCOD8070840
Probable space group: P 21/M
;
_chemical_formula_sum "Si O2"
_cell_formula_units_Z 32
_cell_length_a 15.320641
_cell_length_b 9.055346
_cell_length_c 20.720474
_cell_angle_alpha 90.000000
_cell_angle_beta 33.601247
_cell_angle_gamma 90.000000
_cell_volume 1590.847026
_symmetry_space_group_name_H-M "P 21/M"
_symmetry_group_IT_number 11
_symmetry_cell_setting 'monoclinic'
loop_
_space_group_symop_operation_xyz
x,y,z
-x,1/2+y,-z
-x,-y,-z
x,1/2-y,z
loop_
_atom_site_type_symbol
_atom_site_label
_atom_site_fract_x
_atom_site_fract_y
_atom_site_fract_z
Si Si1 0.665320 0.084576 0.828208
Si Si2 0.865689 0.921752 0.165484
Si Si3 0.214238 0.577408 0.911885
Si Si4 0.604210 0.918193 0.096379
Si Si5 0.986505 0.582119 0.441263
Si Si6 0.863036 0.073721 0.398199
Si Si7 0.665450 0.925436 0.413687
Si Si8 0.200116 0.084117 0.145386
O O1 0.603350 0.250000 0.879927
O O2 0.548313 0.014911 0.846732
O O3 0.841309 0.082081 0.694503
O O4 0.665401 0.999548 0.896139
O O5 0.842675 0.750000 0.164812
O O6 0.791957 0.964600 0.279841
O O7 0.773970 0.010083 0.166596
O O8 0.050429 0.965047 0.048554
O O9 0.235888 0.750000 0.892103
O O10 0.360571 0.514470 0.862475
O O11 0.572901 0.750000 0.137553
O O12 0.756163 0.928399 0.956281
O O13 0.925041 0.750000 0.488101
O O14 0.000000 0.500000 0.500000
O O15 0.867046 0.491897 0.468335
O O16 0.838112 0.250000 0.415653
O O17 0.023875 0.022948 0.263263
O O18 0.722503 0.996742 0.445624
O O19 0.645408 0.750000 0.433907
O O20 0.500000 0.000000 0.500000
O O21 0.202853 0.250000 0.169795
#
# Coordination Sequence:
#
# PCOD8070840 Si02
#       8
#     4   4   4   4   4   4   4   4
#     4   9  19  33  50  74 106 142 178 218 270 326
#     4   9  20  39  59  79 109 146 182 226 282 335
#     4  10  20  34  56  84 109 142 187 229 271 329
#     4  10  19  32  49  76 112 146 176 213 270 329
#     4  10  20  37  58  80 106 144 190 235 278 329
#     4  10  20  36  58  85 112 143 184 229 277 333
#     4  11  23  40  61  86 115 149 188 236 290 342
#     4   9  18  31  52  79 108 142 180 221 266 319
#
# _framework density 20.115069999999999
#
# number of rings (size 3 to 8) (size 9 to 14) (size 15 to 20)
#    0.000    2.250    0.000    2.625    0.000    3.500 
#    2.250    0.000    0.000    0.000    0.000    0.000 
#    0.000    0.000    0.000    0.000    0.000    0.000 
#
# Total GULP energy -396794.244609 kJ/mol
# GULP energy per Si atom -12399.820144 kJ/mol
# Density = 2.006929 g / cm^3
# Si number density = 20.115070 Si / 1000 Ang^3
#
#
#
# Elastic Constant Matrix: (Units=GPa)
#
#
# Indices 1 2 3 4 5 6 
#
# 1 169.7389 69.4517 20.9855 0.0000 0.0131 0.0000
# 2 69.4517 92.7275 20.8457 0.0000 6.1814 0.0000
# 3 20.9855 20.8457 27.5928 0.0000 4.1796 0.0000
# 4 0.0000 0.0000 0.0000 24.0790 0.0000 1.8735
# 5 0.0131 6.1814 4.1796 0.0000 29.2815 0.0000
# 6 0.0000 0.0000 0.0000 1.8735 0.0000 42.5725
#
#
#
# Elastic Compliance Matrix: (Units=1/GPa)
#
#
# Indices 1 2 3 4 5 6 
#
# 1 0.008659 -0.006092 -0.002226 0.000000 0.001600 0.000000
# 2 -0.006092 0.017330 -0.008081 0.000000 -0.002502 0.000000
# 3 -0.002226 -0.008081 0.044748 0.000000 -0.004680 0.000000
# 4 0.000000 0.000000 0.000000 0.041673 0.000000 -0.001834
# 5 0.001600 -0.002502 -0.004680 0.000000 0.035347 0.000000
# 6 0.000000 0.000000 0.000000 -0.001834 0.000000 0.023570
#
#
# Mechanical properties :
#
#
# Convention : Reuss Voigt Hill
#
# Bulk Modulus (GPa) = 26.35671 56.95835 41.65753
# Shear Modulus (GPa) = 23.06595 31.10501 27.08548
#
# Velocity S-wave (km/s) = 3.38997 3.93664 3.67349
# Velocity P-wave (km/s) = 5.33422 7.00290 6.22473
#
# Compressibility (1/GPa) = 0.03794101
#
# Stress axis : x y z
#
# Youngs Moduli (GPa) = 115.48658 57.70232 22.34752
#
# Poissons Ratio (x) = 0.35151 0.04974
# Poissons Ratio (y) = 0.70352 0.18058
# Poissons Ratio (z) = 0.25704 0.46627
#
# Static dielectric constant tensor:
#      x y z
#    x 3.813850 0.000000 0.182530 
#    y 0.000000 3.722810 0.000000 
#    z 0.182530 0.000000 3.819690 
# 
# 
# High freq. dielectric constant tensor:
#      x y z
#    x 1.795350 0.000000 -0.000800 
#    y 0.000000 1.785260 0.000000 
#    z -0.000800 0.000000 1.764000 
# 
# From -- ./inp_files/65210.got.cif
#   From: 2010.06.25/outbox.cif.g09.slc.cpg/sg11_33_cif.got.tgz:65210.got - 2010.06.27 23:14:04.
