data_PCOD8070186
_publ_section_title
;
Structure prediction by ZEFSAII (Michael W. Deem and Ramdas Pophale) SiO2 
 PCOD8070186
Probable space group: P 21/M
;
_chemical_formula_sum "Si O2"
_cell_formula_units_Z 32
_cell_length_a 29.893016
_cell_length_b 8.915263
_cell_length_c 21.383983
_cell_angle_alpha 90.000000
_cell_angle_beta 161.715991
_cell_angle_gamma 90.000000
_cell_volume 1787.907443
_symmetry_space_group_name_H-M "P 21/M"
_symmetry_group_IT_number 11
_symmetry_cell_setting 'monoclinic'
loop_
_space_group_symop_operation_xyz
x,y,z
-x,1/2+y,-z
-x,-y,-z
x,1/2-y,z
loop_
_atom_site_type_symbol
_atom_site_label
_atom_site_fract_x
_atom_site_fract_y
_atom_site_fract_z
Si Si1 0.265332 0.583461 0.094586
Si Si2 0.355779 0.926631 0.084905
Si Si3 0.330949 0.073624 0.532070
Si Si4 0.947664 0.915716 0.622097
Si Si5 0.060511 0.572402 0.642083
Si Si6 0.851533 0.422165 0.609569
Si Si7 0.167640 0.422448 0.080239
Si Si8 0.150961 0.572390 0.186035
O O1 0.318901 0.750000 0.185255
O O2 0.358034 0.514141 0.160153
O O3 0.272976 0.474252 0.164475
O O4 0.104968 0.594577 0.857988
O O5 0.332876 0.750000 0.060743
O O6 0.501615 0.967651 0.243435
O O7 0.220988 0.991049 0.867183
O O8 0.305423 0.250000 0.487500
O O9 0.264372 0.023978 0.509389
O O10 0.263571 0.980785 0.386420
O O11 0.877499 0.750000 0.531524
O O12 0.957957 0.973422 0.564166
O O13 0.854843 0.028646 0.541256
O O14 0.062892 0.750000 0.637152
O O15 0.000000 0.500000 0.500000
O O16 0.804503 0.250000 0.550706
O O17 0.003255 0.448005 0.843925
O O18 0.198911 0.250000 0.137068
O O19 0.205074 0.521935 0.189977
O O20 0.135134 0.750000 0.168047
O O21 0.000000 0.500000 0.000000
#
# Coordination Sequence:
#
# PCOD8070186 Si02
#       8
#     4   4   4   4   4   4   4   4
#     4   8  14  29  51  71  94 127 168 210 251 296
#     4   8  17  34  54  76 103 136 171 206 248 306
#     4  11  21  34  53  73  99 137 174 209 256 307
#     4   8  15  28  48  73 101 131 165 204 247 297
#     4   9  17  32  55  83 110 134 164 204 250 300
#     4  10  19  30  47  72 102 131 167 214 256 296
#     4  10  19  31  48  72 100 128 165 214 263 304
#     4  12  23  35  50  71  99 132 172 217 261 303
#
# _framework density 17.898019000000001
#
# number of rings (size 3 to 8) (size 9 to 14) (size 15 to 20)
#    0.000    2.500    1.250    3.750    0.000    1.500 
#    0.000    5.000    0.000    0.750    0.000    0.000 
#    0.000    0.000    0.000    0.000    0.000    0.000 
#
# Total GULP energy -396695.489578 kJ/mol
# GULP energy per Si atom -12396.734049 kJ/mol
# Density = 1.785728 g / cm^3
# Si number density = 17.898019 Si / 1000 Ang^3
#
#
#
# Elastic Constant Matrix: (Units=GPa)
#
#
# Indices 1 2 3 4 5 6 
#
# 1 138.4450 54.2607 48.4318 0.0000 -6.9519 0.0000
# 2 54.2607 92.9546 32.3794 0.0000 -0.8124 0.0000
# 3 48.4318 32.3794 60.9637 0.0000 -0.7241 0.0000
# 4 0.0000 0.0000 0.0000 17.5320 0.0000 -5.1683
# 5 -6.9519 -0.8124 -0.7241 0.0000 25.3350 0.0000
# 6 0.0000 0.0000 0.0000 -5.1683 0.0000 30.6858
#
#
#
# Elastic Compliance Matrix: (Units=1/GPa)
#
#
# Indices 1 2 3 4 5 6 
#
# 1 0.011403 -0.004280 -0.006753 0.000000 0.002799 0.000000
# 2 -0.004280 0.014808 -0.004475 0.000000 -0.000827 0.000000
# 3 -0.006753 -0.004475 0.024129 0.000000 -0.001307 0.000000
# 4 0.000000 0.000000 0.000000 0.060019 0.000000 0.010109
# 5 0.002799 -0.000827 -0.001307 0.000000 0.040175 0.000000
# 6 0.000000 0.000000 0.000000 0.010109 0.000000 0.034291
#
#
# Mechanical properties :
#
#
# Convention : Reuss Voigt Hill
#
# Bulk Modulus (GPa) = 51.74503 62.50079 57.12291
# Shear Modulus (GPa) = 22.49407 25.19666 23.84537
#
# Velocity S-wave (km/s) = 3.54897 3.75612 3.65402
# Velocity P-wave (km/s) = 6.76516 7.33537 7.05603
#
# Compressibility (1/GPa) = 0.01932553
#
# Stress axis : x y z
#
# Youngs Moduli (GPa) = 87.69365 67.53297 41.44404
#
# Poissons Ratio (x) = 0.28903 0.27987
# Poissons Ratio (y) = 0.37531 0.18544
# Poissons Ratio (z) = 0.59218 0.30218
#
# Static dielectric constant tensor:
#      x y z
#    x 3.690660 0.000000 0.085600 
#    y 0.000000 3.298400 0.000000 
#    z 0.085600 0.000000 3.170030 
# 
# 
# High freq. dielectric constant tensor:
#      x y z
#    x 1.707420 0.000000 0.003600 
#    y 0.000000 1.685930 0.000000 
#    z 0.003600 0.000000 1.644930 
# 
# From -- ./inp_files/40626.got.cif
#   From: 2010.06.25/outbox.cif.g09.slc.cpg/sg11_21_cif.got.tgz:40626.got - 2010.06.27 23:14:04.
