data_PCOD8070690
_publ_section_title
;
Structure prediction by ZEFSAII (Michael W. Deem and Ramdas Pophale) SiO2 
 PCOD8070690
Probable space group: P 21/M
;
_chemical_formula_sum "Si O2"
_cell_formula_units_Z 32
_cell_length_a 19.635642
_cell_length_b 13.411456
_cell_length_c 23.472292
_cell_angle_alpha 90.000000
_cell_angle_beta 162.378135
_cell_angle_gamma 90.000000
_cell_volume 1871.273168
_symmetry_space_group_name_H-M "P 21/M"
_symmetry_group_IT_number 11
_symmetry_cell_setting 'monoclinic'
loop_
_space_group_symop_operation_xyz
x,y,z
-x,1/2+y,-z
-x,-y,-z
x,1/2-y,z
loop_
_atom_site_type_symbol
_atom_site_label
_atom_site_fract_x
_atom_site_fract_y
_atom_site_fract_z
Si Si1 0.120349 0.864138 0.624805
Si Si2 0.353613 0.046967 0.765464
Si Si3 0.627536 0.864352 0.628131
Si Si4 0.503916 0.951066 0.412080
Si Si5 0.469208 0.638146 0.202205
Si Si6 0.257979 0.633151 0.860637
Si Si7 0.829849 0.638004 0.586225
Si Si8 0.850544 0.366555 0.954496
O O1 0.188089 0.750000 0.667596
O O2 0.161906 0.897885 0.722804
O O3 0.858426 0.878763 0.402129
O O4 0.272973 0.932543 0.705379
O O5 0.496439 0.061131 0.821696
O O6 0.512481 0.073555 0.945438
O O7 0.593959 0.750000 0.619489
O O8 0.520011 0.881529 0.480515
O O9 0.502742 0.932991 0.575135
O O10 0.889280 0.895278 0.836620
O O11 0.724412 0.935827 0.548869
O O12 0.275788 0.924388 0.196746
O O13 0.431895 0.750000 0.147715
O O14 0.689183 0.637212 0.416299
O O15 0.253516 0.603655 0.067119
O O16 0.307481 0.750000 0.901801
O O17 0.080232 0.604165 0.768739
O O18 0.829132 0.750000 0.611578
O O19 0.807603 0.250000 0.909592
#
# Coordination Sequence:
#
# PCOD8070690 Si02
#       8
#     4   4   4   4   4   4   4   4
#     4  10  21  36  49  71 104 130 159 199 241 286
#     4  11  20  31  53  76  96 130 162 194 242 293
#     4  10  20  32  49  73  98 129 168 199 237 290
#     4  10  19  32  49  72 101 131 157 197 247 292
#     4   9  16  29  48  74 101 124 155 201 249 287
#     4  10  19  31  51  77 101 123 157 202 246 288
#     4   9  17  30  50  74 101 126 152 201 254 287
#     4   9  18  31  50  75 101 124 155 203 250 288
#
# _framework density 17.100656000000001
#
# number of rings (size 3 to 8) (size 9 to 14) (size 15 to 20)
#    0.000    2.250    1.250    3.750    1.750    0.000 
#    0.000    0.000    0.000    3.750    0.000    0.000 
#    0.000    0.000    0.000    0.000    0.000    0.000 
#
# Total GULP energy -396807.918884 kJ/mol
# GULP energy per Si atom -12400.247465 kJ/mol
# Density = 1.706173 g / cm^3
# Si number density = 17.100656 Si / 1000 Ang^3
#
#
#
# Elastic Constant Matrix: (Units=GPa)
#
#
# Indices 1 2 3 4 5 6 
#
# 1 94.3682 56.8993 33.5737 0.0000 0.7957 0.0000
# 2 56.8993 86.5457 37.4471 0.0000 0.7474 0.0000
# 3 33.5737 37.4471 85.5501 0.0000 4.8437 0.0000
# 4 0.0000 0.0000 0.0000 17.6602 0.0000 1.6451
# 5 0.7957 0.7474 4.8437 0.0000 14.7928 0.0000
# 6 0.0000 0.0000 0.0000 1.6451 0.0000 28.7760
#
#
#
# Elastic Compliance Matrix: (Units=1/GPa)
#
#
# Indices 1 2 3 4 5 6 
#
# 1 0.017922 -0.010775 -0.002337 0.000000 0.000345 0.000000
# 2 -0.010775 0.020758 -0.004923 0.000000 0.001143 0.000000
# 3 -0.002337 -0.004923 0.015018 0.000000 -0.004543 0.000000
# 4 0.000000 0.000000 0.000000 0.056928 0.000000 -0.003255
# 5 0.000345 0.001143 -0.004543 0.000000 0.069012 0.000000
# 6 0.000000 0.000000 0.000000 -0.003255 0.000000 0.034937
#
#
# Mechanical properties :
#
#
# Convention : Reuss Voigt Hill
#
# Bulk Modulus (GPa) = 56.71994 58.03381 57.37687
# Shear Modulus (GPa) = 19.49171 21.48205 20.48688
#
# Velocity S-wave (km/s) = 3.37979 3.54815 3.46499
# Velocity P-wave (km/s) = 6.96211 7.12714 7.04511
#
# Compressibility (1/GPa) = 0.01763048
#
# Stress axis : x y z
#
# Youngs Moduli (GPa) = 55.79827 48.17324 66.58674
#
# Poissons Ratio (x) = 0.51905 0.15559
# Poissons Ratio (y) = 0.60120 0.32778
# Poissons Ratio (z) = 0.13038 0.23714
#
# Static dielectric constant tensor:
#      x y z
#    x 3.143090 0.000000 -0.012180 
#    y 0.000000 2.976620 0.000000 
#    z -0.012180 0.000000 3.297410 
# 
# 
# High freq. dielectric constant tensor:
#      x y z
#    x 1.651600 0.000000 -0.007100 
#    y 0.000000 1.629490 0.000000 
#    z -0.007100 0.000000 1.674340 
# 
# From -- ./inp_files/24464.got.cif
#   From: 2010.06.25/outbox.cif.g09.slc.cpg/sg11_13_cif.got.tgz:24464.got - 2010.06.27 23:14:04.
