data_PCOD8070445
_publ_section_title
;
Structure prediction by ZEFSAII (Michael W. Deem and Ramdas Pophale) SiO2 
 PCOD8070445
Probable space group: P 21/M
;
_chemical_formula_sum "Si O2"
_cell_formula_units_Z 16
_cell_length_a 8.375421
_cell_length_b 14.281470
_cell_length_c 8.781791
_cell_angle_alpha 90.000000
_cell_angle_beta 58.381209
_cell_angle_gamma 90.000000
_cell_volume 894.489772
_symmetry_space_group_name_H-M "P 21/M"
_symmetry_group_IT_number 11
_symmetry_cell_setting 'monoclinic'
loop_
_space_group_symop_operation_xyz
x,y,z
-x,1/2+y,-z
-x,-y,-z
x,1/2-y,z
loop_
_atom_site_type_symbol
_atom_site_label
_atom_site_fract_x
_atom_site_fract_y
_atom_site_fract_z
Si Si1 0.797557 0.750000 0.030444
Si Si2 0.509215 0.393455 0.175603
Si Si3 0.783344 0.250000 0.539316
Si Si4 0.216656 0.750000 0.822661
Si Si5 0.202443 0.250000 0.328002
Si Si6 0.490786 0.893455 0.184818
O O1 0.817928 0.750000 0.841035
O O2 0.005453 0.750000 0.996699
O O3 0.682866 0.842239 0.139927
O O4 0.684846 0.343822 0.166865
O O5 0.317134 0.342239 0.322793
O O6 0.500001 0.500000 0.236696
O O7 0.538680 0.386092 0.980660
O O8 0.780153 0.250000 0.359923
O O9 0.684845 0.343822 0.648288
O O10 0.994545 0.250000 0.502154
#
# Coordination Sequence:
#
# PCOD8070445 Si02
#       6
#     2   4   2   2   2   4
#     4   8  16  31  48  69  98 127 155 194 242 280
#     4   9  18  34  53  70  93 128 165 196 230 281
#     4  10  19  31  48  71 100 127 153 196 246 284
#     4  10  19  31  48  71 100 127 153 196 246 284
#     4   8  16  31  48  69  98 127 155 194 242 280
#     4   9  18  34  53  70  93 128 165 196 230 281
#
# _framework density 17.887294000000001
#
# number of rings (size 3 to 8) (size 9 to 14) (size 15 to 20)
#    0.000    3.000    0.000    2.250    0.000    3.000 
#    0.000   10.000    0.000    0.000    0.000    0.000 
#    0.000    0.000    0.000    0.000    0.000    0.000 
#
# Total GULP energy -198357.583017 kJ/mol
# GULP energy per Si atom -12397.348939 kJ/mol
# Density = 1.784658 g / cm^3
# Si number density = 17.887294 Si / 1000 Ang^3
#
#
#
# Elastic Constant Matrix: (Units=GPa)
#
#
# Indices 1 2 3 4 5 6 
#
# 1 126.0471 75.5458 46.2685 0.0000 -42.2771 0.0000
# 2 75.5458 193.2309 53.0336 0.0000 -30.3620 0.0000
# 3 46.2685 53.0336 71.1282 0.0000 -31.7929 0.0000
# 4 0.0000 0.0000 0.0000 19.9491 0.0000 5.8041
# 5 -42.2771 -30.3620 -31.7929 0.0000 38.3562 0.0000
# 6 0.0000 0.0000 0.0000 5.8041 0.0000 15.6466
#
#
#
# Elastic Compliance Matrix: (Units=1/GPa)
#
#
# Indices 1 2 3 4 5 6 
#
# 1 0.014593 -0.003373 -0.001560 0.000000 0.012123 0.000000
# 2 -0.003373 0.007365 -0.003738 0.000000 -0.000986 0.000000
# 3 -0.001560 -0.003738 0.025051 0.000000 0.016086 0.000000
# 4 0.000000 0.000000 0.000000 0.056192 0.000000 -0.020844
# 5 0.012123 -0.000986 0.016086 0.000000 0.051987 0.000000
# 6 0.000000 0.000000 0.000000 -0.020844 0.000000 0.071644
#
#
# Mechanical properties :
#
#
# Convention : Reuss Voigt Hill
#
# Bulk Modulus (GPa) = 33.70571 82.23355 57.96963
# Shear Modulus (GPa) = 19.68023 29.16094 24.42058
#
# Velocity S-wave (km/s) = 3.32058 4.04203 3.69893
# Velocity P-wave (km/s) = 5.79534 8.23753 7.12190
#
# Compressibility (1/GPa) = 0.02966856
#
# Stress axis : x y z
#
# Youngs Moduli (GPa) = 68.52372 135.78277 39.91847
#
# Poissons Ratio (x) = 0.45794 0.06226
# Poissons Ratio (y) = 0.23110 0.14922
# Poissons Ratio (z) = 0.10688 0.50756
#
# Static dielectric constant tensor:
#      x y z
#    x 3.418430 0.000000 -0.278400 
#    y 0.000000 3.455500 0.000000 
#    z -0.278400 0.000000 3.212020 
# 
# 
# High freq. dielectric constant tensor:
#      x y z
#    x 1.687590 0.000000 -0.014310 
#    y 0.000000 1.697060 0.000000 
#    z -0.014310 0.000000 1.676980 
# 
# From -- ./inp_files/11710.got.cif
#   From: 2010.06.25/outbox.cif.g09.slc.cpg/sg11_6_cif.got.tgz:11710.got - 2010.06.27 23:14:04.
