data_PCOD8070129
_publ_section_title
;
Structure prediction by ZEFSAII (Michael W. Deem and Ramdas Pophale) SiO2 
 PCOD8070129
Probable space group: P 21/M
;
_chemical_formula_sum "Si O2"
_cell_formula_units_Z 32
_cell_length_a 17.925004
_cell_length_b 8.953126
_cell_length_c 19.279955
_cell_angle_alpha 90.000000
_cell_angle_beta 144.084855
_cell_angle_gamma 90.000000
_cell_volume 1814.980669
_symmetry_space_group_name_H-M "P 21/M"
_symmetry_group_IT_number 11
_symmetry_cell_setting 'monoclinic'
loop_
_space_group_symop_operation_xyz
x,y,z
-x,1/2+y,-z
-x,-y,-z
x,1/2-y,z
loop_
_atom_site_type_symbol
_atom_site_label
_atom_site_fract_x
_atom_site_fract_y
_atom_site_fract_z
Si Si1 0.622395 0.581525 0.009980
Si Si2 0.371882 0.418918 0.820655
Si Si3 0.100274 0.422945 0.278504
Si Si4 0.107055 0.074480 0.125573
Si Si5 0.374186 0.422057 0.471242
Si Si6 0.113835 0.573699 0.627563
Si Si7 0.645634 0.420233 0.685913
Si Si8 0.121759 0.926367 0.793603
O O1 0.621272 0.750000 0.980686
O O2 0.620196 0.579045 0.090926
O O3 0.749872 0.499947 0.080072
O O4 0.498818 0.497221 0.886339
O O5 0.364780 0.250000 0.786936
O O6 0.247792 0.508160 0.701220
O O7 0.067261 0.250000 0.251833
O O8 0.092608 0.483917 0.193849
O O9 0.243810 0.450607 0.416581
O O10 0.995259 0.495916 0.249869
O O11 0.095382 0.250000 0.110729
O O12 0.244907 0.024273 0.199054
O O13 0.000000 0.000000 0.000000
O O14 0.369562 0.250000 0.438886
O O15 0.504358 0.443857 0.614265
O O16 0.374439 0.540707 0.409597
O O17 0.113595 0.750000 0.615168
O O18 0.095620 0.531087 0.694318
O O19 0.000000 0.500000 0.500000
O O20 0.690718 0.250000 0.727868
O O21 0.137409 0.750000 0.813289
#
# Coordination Sequence:
#
# PCOD8070129 Si02
#       8
#     4   4   4   4   4   4   4   4
#     4   9  16  26  42  66  93 117 145 186 231 268
#     4   9  16  27  44  65  89 117 151 188 225 267
#     4   8  15  29  48  68  90 117 150 187 223 263
#     4  10  19  31  47  67  92 120 151 187 227 270
#     4   8  14  25  42  64  89 116 146 183 223 261
#     4  10  19  30  46  68  93 120 151 188 230 274
#     4   9  15  24  41  65  90 115 147 185 224 264
#     4   9  17  30  48  68  90 119 154 187 221 267
#
# _framework density 17.631042999999998
#
# number of rings (size 3 to 8) (size 9 to 14) (size 15 to 20)
#    0.000    3.000    0.000    2.625    0.000    4.000 
#    0.000    3.125    0.000    1.500    0.000    8.750 
#    0.000    0.000    0.000    0.000    0.000    0.000 
#
# Total GULP energy -396490.603713 kJ/mol
# GULP energy per Si atom -12390.331366 kJ/mol
# Density = 1.759091 g / cm^3
# Si number density = 17.631043 Si / 1000 Ang^3
#
#
#
# Elastic Constant Matrix: (Units=GPa)
#
#
# Indices 1 2 3 4 5 6 
#
# 1 71.6166 29.5934 57.4314 0.0000 33.9188 0.0000
# 2 29.5934 84.5647 59.5601 0.0000 14.8236 0.0000
# 3 57.4314 59.5601 158.7011 0.0000 42.3353 0.0000
# 4 0.0000 0.0000 0.0000 34.3025 0.0000 6.6709
# 5 33.9188 14.8236 42.3353 0.0000 32.0080 0.0000
# 6 0.0000 0.0000 0.0000 6.6709 0.0000 14.1274
#
#
#
# Elastic Compliance Matrix: (Units=1/GPa)
#
#
# Indices 1 2 3 4 5 6 
#
# 1 0.030457 -0.004408 -0.002013 0.000000 -0.027572 0.000000
# 2 -0.004408 0.016726 -0.005967 0.000000 0.004817 0.000000
# 3 -0.002013 -0.005967 0.012304 0.000000 -0.011378 0.000000
# 4 0.000000 0.000000 0.000000 0.032100 0.000000 -0.015158
# 5 -0.027572 0.004817 -0.011378 0.000000 0.073278 0.000000
# 6 0.000000 0.000000 0.000000 -0.015158 0.000000 0.077942
#
#
# Mechanical properties :
#
#
# Convention : Reuss Voigt Hill
#
# Bulk Modulus (GPa) = 28.80824 67.56136 48.18480
# Shear Modulus (GPa) = 17.91128 27.30741 22.60935
#
# Velocity S-wave (km/s) = 3.19077 3.93978 3.58489
# Velocity P-wave (km/s) = 5.47263 7.68756 6.67264
#
# Compressibility (1/GPa) = 0.03471230
#
# Stress axis : x y z
#
# Youngs Moduli (GPa) = 32.83292 59.78660 81.27398
#
# Poissons Ratio (x) = 0.26353 0.16357
# Poissons Ratio (y) = 0.14472 0.48498
# Poissons Ratio (z) = 0.06608 0.35676
#
# Static dielectric constant tensor:
#      x y z
#    x 3.162270 0.000000 0.517920 
#    y 0.000000 3.282540 0.000000 
#    z 0.517920 0.000000 3.451940 
# 
# 
# High freq. dielectric constant tensor:
#      x y z
#    x 1.631660 0.000000 0.046110 
#    y 0.000000 1.681590 0.000000 
#    z 0.046110 0.000000 1.684950 
# 
# From -- ./inp_files/69742.got.cif
#   From: 2010.06.25/outbox.cif.g09.slc.cpg/sg11_35_cif.got.tgz:69742.got - 2010.06.27 23:14:04.
