data_PCOD8070167
_publ_section_title
;
Structure prediction by ZEFSAII (Michael W. Deem and Ramdas Pophale) SiO2 
 PCOD8070167
Probable space group: P 21/M
;
_chemical_formula_sum "Si O2"
_cell_formula_units_Z 32
_cell_length_a 27.266580
_cell_length_b 8.963160
_cell_length_c 21.214411
_cell_angle_alpha 90.000000
_cell_angle_beta 160.413874
_cell_angle_gamma 90.000000
_cell_volume 1738.029642
_symmetry_space_group_name_H-M "P 21/M"
_symmetry_group_IT_number 11
_symmetry_cell_setting 'monoclinic'
loop_
_space_group_symop_operation_xyz
x,y,z
-x,1/2+y,-z
-x,-y,-z
x,1/2-y,z
loop_
_atom_site_type_symbol
_atom_site_label
_atom_site_fract_x
_atom_site_fract_y
_atom_site_fract_z
Si Si1 0.332025 0.572664 0.126392
Si Si2 0.003613 0.572856 0.731714
Si Si3 0.851436 0.573242 0.796476
Si Si4 0.962268 0.423772 0.553688
Si Si5 0.474040 0.925424 0.172033
Si Si6 0.552024 0.573440 0.498993
Si Si7 0.790733 0.423076 0.225839
Si Si8 0.790983 0.572487 0.581876
O O1 0.331772 0.750000 0.125877
O O2 0.387227 0.508500 0.126731
O O3 0.440270 0.512877 0.311090
O O4 0.168377 0.512731 0.939717
O O5 0.997027 0.750000 0.718200
O O6 0.929888 0.507513 0.579518
O O7 0.916715 0.513742 0.687509
O O8 0.871458 0.750000 0.820651
O O9 0.716893 0.525962 0.679077
O O10 0.818574 0.513978 0.686062
O O11 0.000000 0.500000 0.000000
O O12 0.978675 0.250000 0.587363
O O13 0.826345 0.457651 0.341858
O O14 0.110461 0.480429 0.701132
O O15 0.489666 0.750000 0.200168
O O16 0.637475 0.992734 0.368739
O O17 0.379689 0.962876 0.994857
O O18 0.500000 0.500000 0.500000
O O19 0.541772 0.750000 0.493477
O O20 0.822769 0.250000 0.248664
O O21 0.788494 0.750000 0.579745
#
# Coordination Sequence:
#
# PCOD8070167 Si02
#       8
#     4   4   4   4   4   4   4   4
#     4   9  16  29  52  75  97 128 171 215 249 288
#     4  10  19  32  52  77 101 131 171 212 253 298
#     4  10  21  37  55  78 107 139 175 215 261 315
#     4  10  19  30  46  75 108 134 164 208 257 304
#     4   9  14  28  53  76  95 123 169 217 248 282
#     4  10  21  36  55  81 109 136 171 219 266 311
#     4   9  17  30  52  75  99 134 172 207 252 304
#     4   9  18  32  53  78 100 128 174 219 248 291
#
# _framework density 18.411653999999999
#
# number of rings (size 3 to 8) (size 9 to 14) (size 15 to 20)
#    0.000    2.500    2.500    0.375    1.750    1.000 
#    0.000    1.875    0.000    1.500    0.000    0.000 
#    0.000    0.000    0.000    0.000    0.000    0.000 
#
# Total GULP energy -396663.928082 kJ/mol
# GULP energy per Si atom -12395.747753 kJ/mol
# Density = 1.836975 g / cm^3
# Si number density = 18.411654 Si / 1000 Ang^3
#
#
#
# Elastic Constant Matrix: (Units=GPa)
#
#
# Indices 1 2 3 4 5 6 
#
# 1 123.8128 26.2612 75.6095 0.0000 6.9495 0.0000
# 2 26.2612 24.6137 24.2781 0.0000 -0.6636 0.0000
# 3 75.6095 24.2781 175.2600 0.0000 0.3369 0.0000
# 4 0.0000 0.0000 0.0000 21.4672 0.0000 -5.7974
# 5 6.9495 -0.6636 0.3369 0.0000 33.3523 0.0000
# 6 0.0000 0.0000 0.0000 -5.7974 0.0000 23.1391
#
#
#
# Elastic Compliance Matrix: (Units=1/GPa)
#
#
# Indices 1 2 3 4 5 6 
#
# 1 0.012845 -0.009637 -0.004201 0.000000 -0.002826 0.000000
# 2 -0.009637 0.054321 -0.003373 0.000000 0.003123 0.000000
# 3 -0.004201 -0.003373 0.007984 0.000000 0.000728 0.000000
# 4 0.000000 0.000000 0.000000 0.049963 0.000000 0.012518
# 5 -0.002826 0.003123 0.000728 0.000000 0.030626 0.000000
# 6 0.000000 0.000000 0.000000 0.012518 0.000000 0.046353
#
#
# Mechanical properties :
#
#
# Convention : Reuss Voigt Hill
#
# Bulk Modulus (GPa) = 24.55346 63.99826 44.27586
# Shear Modulus (GPa) = 19.99263 28.76090 24.37677
#
# Velocity S-wave (km/s) = 3.29883 3.95663 3.64261
# Velocity P-wave (km/s) = 5.27963 7.46380 6.46463
#
# Compressibility (1/GPa) = 0.04072746
#
# Stress axis : x y z
#
# Youngs Moduli (GPa) = 77.85230 18.40892 125.24904
#
# Poissons Ratio (x) = 0.17741 0.52617
# Poissons Ratio (y) = 0.75027 0.42252
# Poissons Ratio (z) = 0.32706 0.06210
#
# Static dielectric constant tensor:
#      x y z
#    x 3.471950 0.000000 -0.069440 
#    y 0.000000 2.971450 0.000000 
#    z -0.069440 0.000000 3.725170 
# 
# 
# High freq. dielectric constant tensor:
#      x y z
#    x 1.708800 0.000000 -0.009830 
#    y 0.000000 1.667430 0.000000 
#    z -0.009830 0.000000 1.729090 
# 
# From -- ./inp_files/67286.got.cif
#   From: 2010.06.25/outbox.cif.g09.slc.cpg/sg11_34_cif.got.tgz:67286.got - 2010.06.27 23:14:04.
