data_PCOD8070075
_publ_section_title
;
Structure prediction by ZEFSAII (Michael W. Deem and Ramdas Pophale) SiO2 
 PCOD8070075
Probable space group: P 21/M
;
_chemical_formula_sum "Si O2"
_cell_formula_units_Z 32
_cell_length_a 21.776422
_cell_length_b 9.316096
_cell_length_c 11.789921
_cell_angle_alpha 90.000000
_cell_angle_beta 46.433412
_cell_angle_gamma 90.000000
_cell_volume 1733.061818
_symmetry_space_group_name_H-M "P 21/M"
_symmetry_group_IT_number 11
_symmetry_cell_setting 'monoclinic'
loop_
_space_group_symop_operation_xyz
x,y,z
-x,1/2+y,-z
-x,-y,-z
x,1/2-y,z
loop_
_atom_site_type_symbol
_atom_site_label
_atom_site_fract_x
_atom_site_fract_y
_atom_site_fract_z
Si Si1 0.312111 0.078995 0.466930
Si Si2 0.219793 0.588258 0.408506
Si Si3 0.637641 0.412389 0.960612
Si Si4 0.224787 0.919547 0.035971
Si Si5 0.912577 0.418173 0.608727
Si Si6 0.547324 0.905570 0.352377
Si Si7 0.516440 0.079614 0.806996
Si Si8 0.727540 0.908401 0.227513
O O1 0.325200 0.250000 0.441403
O O2 0.294260 0.031050 0.619617
O O3 0.231916 0.025405 0.495411
O O4 0.392724 0.996099 0.311742
O O5 0.210978 0.750000 0.468700
O O6 0.299508 0.581696 0.224470
O O7 0.135480 0.544471 0.447293
O O8 0.605904 0.250000 0.021267
O O9 0.689143 0.467137 0.006938
O O10 0.555730 0.506273 0.021590
O O11 0.226269 0.750000 0.018722
O O12 0.143956 0.968449 0.212550
O O13 0.213763 0.988412 0.923976
O O14 0.930116 0.250000 0.594153
O O15 0.000000 0.500000 0.500000
O O16 0.504269 0.750000 0.414944
O O17 0.531075 0.963828 0.248459
O O18 0.644757 0.897375 0.257180
O O19 0.500000 0.000000 0.500000
O O20 0.526119 0.250000 0.819197
O O21 0.769254 0.750000 0.186608
#
# Coordination Sequence:
#
# PCOD8070075 Si02
#       8
#     4   4   4   4   4   4   4   4
#     4  11  23  36  50  71 103 144 185 221 259 305
#     4   9  20  39  57  76 105 137 172 212 257 312
#     4   9  18  33  52  72  99 135 174 223 270 304
#     4   9  18  32  53  81 109 135 167 209 260 311
#     4   9  19  37  62  91 114 132 159 202 256 314
#     4  10  19  30  44  66  97 134 178 227 268 302
#     4  11  21  31  47  71  99 137 184 226 266 310
#     4  10  20  33  48  72 105 138 176 221 263 304
#
# _framework density 18.46443
#
# number of rings (size 3 to 8) (size 9 to 14) (size 15 to 20)
#    0.000    2.250    2.500    2.250    0.000    4.000 
#    0.000    2.500    0.000    0.750    0.000    0.000 
#    0.000    0.000    0.000    0.000    0.000    0.000 
#
# Total GULP energy -396520.107484 kJ/mol
# GULP energy per Si atom -12391.253359 kJ/mol
# Density = 1.842240 g / cm^3
# Si number density = 18.464430 Si / 1000 Ang^3
#
#
#
# Elastic Constant Matrix: (Units=GPa)
#
#
# Indices 1 2 3 4 5 6 
#
# 1 89.1629 38.5257 33.6561 0.0000 -8.9622 0.0000
# 2 38.5257 72.3679 33.7123 0.0000 -10.4919 0.0000
# 3 33.6561 33.7123 52.0654 0.0000 -16.9165 0.0000
# 4 0.0000 0.0000 0.0000 30.7958 0.0000 -1.9041
# 5 -8.9622 -10.4919 -16.9165 0.0000 21.2794 0.0000
# 6 0.0000 0.0000 0.0000 -1.9041 0.0000 29.4653
#
#
#
# Elastic Compliance Matrix: (Units=1/GPa)
#
#
# Indices 1 2 3 4 5 6 
#
# 1 0.016219 -0.005353 -0.007626 0.000000 -0.001871 0.000000
# 2 -0.005353 0.021559 -0.010486 0.000000 0.000039 0.000000
# 3 -0.007626 -0.010486 0.038024 0.000000 0.021846 0.000000
# 4 0.000000 0.000000 0.000000 0.032602 0.000000 0.002107
# 5 -0.001871 0.000039 0.021846 0.000000 0.063592 0.000000
# 6 0.000000 0.000000 0.000000 0.002107 0.000000 0.034074
#
#
# Mechanical properties :
#
#
# Convention : Reuss Voigt Hill
#
# Bulk Modulus (GPa) = 34.63704 47.26494 40.95099
# Shear Modulus (GPa) = 19.03863 23.48824 21.26344
#
# Velocity S-wave (km/s) = 3.21455 3.57049 3.39719
# Velocity P-wave (km/s) = 5.70765 6.53080 6.13305
#
# Compressibility (1/GPa) = 0.02887083
#
# Stress axis : x y z
#
# Youngs Moduli (GPa) = 61.65670 46.38522 26.29918
#
# Poissons Ratio (x) = 0.24830 0.20056
# Poissons Ratio (y) = 0.33004 0.27578
# Poissons Ratio (z) = 0.47019 0.48641
#
# Static dielectric constant tensor:
#      x y z
#    x 3.414330 0.000000 0.183020 
#    y 0.000000 3.424530 0.000000 
#    z 0.183020 0.000000 3.268780 
# 
# 
# High freq. dielectric constant tensor:
#      x y z
#    x 1.703130 0.000000 0.019190 
#    y 0.000000 1.716190 0.000000 
#    z 0.019190 0.000000 1.700710 
# 
# From -- ./inp_files/42837.got.cif
#   From: 2010.06.25/outbox.cif.g09.slc.cpg/sg11_22_cif.got.tgz:42837.got - 2010.06.27 23:14:04.
