data_PCOD8070384
_publ_section_title
;
Structure prediction by ZEFSAII (Michael W. Deem and Ramdas Pophale) SiO2 
 PCOD8070384
Probable space group: P 21/M
;
_chemical_formula_sum "Si O2"
_cell_formula_units_Z 32
_cell_length_a 21.044174
_cell_length_b 9.330249
_cell_length_c 23.063420
_cell_angle_alpha 90.000000
_cell_angle_beta 156.278370
_cell_angle_gamma 90.000000
_cell_volume 1821.762506
_symmetry_space_group_name_H-M "P 21/M"
_symmetry_group_IT_number 11
_symmetry_cell_setting 'monoclinic'
loop_
_space_group_symop_operation_xyz
x,y,z
-x,1/2+y,-z
-x,-y,-z
x,1/2-y,z
loop_
_atom_site_type_symbol
_atom_site_label
_atom_site_fract_x
_atom_site_fract_y
_atom_site_fract_z
Si Si1 0.370249 0.581750 0.928387
Si Si2 0.490781 0.416529 0.255584
Si Si3 0.712285 0.083745 0.753448
Si Si4 0.155824 0.914861 0.647495
Si Si5 0.475262 0.917950 0.848891
Si Si6 0.178656 0.915015 0.280205
Si Si7 0.830324 0.912480 0.953875
Si Si8 0.618477 0.582502 0.465492
O O1 0.410522 0.750000 0.966352
O O2 0.202771 0.560276 0.754791
O O3 0.500000 0.500000 0.000000
O O4 0.381459 0.507888 0.001121
O O5 0.527838 0.250000 0.297507
O O6 0.524036 0.460298 0.217600
O O7 0.604951 0.510516 0.391243
O O8 0.309765 0.455013 0.119343
O O9 0.753206 0.250000 0.791793
O O10 0.742099 0.029218 0.713232
O O11 0.533807 0.048274 0.622374
O O12 0.831386 0.006488 0.896755
O O13 0.116444 0.750000 0.603132
O O14 0.304368 0.961788 0.731736
O O15 0.000000 0.000000 0.500000
O O16 0.509181 0.750000 0.887207
O O17 0.226136 0.750000 0.331265
O O18 0.991505 0.935755 0.122690
O O19 0.233495 0.013410 0.378696
O O20 0.811581 0.750000 0.916992
O O21 0.646497 0.750000 0.480293
#
# Coordination Sequence:
#
# PCOD8070384 Si02
#       8
#     4   4   4   4   4   4   4   4
#     4   9  17  30  49  74 101 127 158 193 229 271
#     4   9  18  35  54  69  91 125 162 198 235 279
#     4   9  18  31  47  68  94 123 155 194 241 291
#     4   9  18  31  48  74 104 129 154 188 231 275
#     4   9  18  33  53  74  95 125 164 197 230 278
#     4  10  19  31  47  69  96 123 153 194 245 293
#     4   9  18  31  49  71  92 119 157 198 240 286
#     4  10  20  32  47  69  95 125 162 198 235 283
#
# _framework density 17.565405999999999
#
# number of rings (size 3 to 8) (size 9 to 14) (size 15 to 20)
#    0.000    2.750    0.000    2.250    0.000    4.500 
#    0.000    1.250    0.000    6.000    0.000    0.000 
#    0.000    0.000    0.000    0.000    0.000    0.000 
#
# Total GULP energy -396727.940116 kJ/mol
# GULP energy per Si atom -12397.748129 kJ/mol
# Density = 1.752543 g / cm^3
# Si number density = 17.565406 Si / 1000 Ang^3
#
#
#
# Elastic Constant Matrix: (Units=GPa)
#
#
# Indices 1 2 3 4 5 6 
#
# 1 89.5626 43.0383 56.7742 0.0000 -26.7374 0.0000
# 2 43.0383 79.6580 65.2030 0.0000 -19.1761 0.0000
# 3 56.7742 65.2030 120.7558 0.0000 -24.4151 0.0000
# 4 0.0000 0.0000 0.0000 35.6447 0.0000 -6.2921
# 5 -26.7374 -19.1761 -24.4151 0.0000 24.3442 0.0000
# 6 0.0000 0.0000 0.0000 -6.2921 0.0000 23.9320
#
#
#
# Elastic Compliance Matrix: (Units=1/GPa)
#
#
# Indices 1 2 3 4 5 6 
#
# 1 0.020205 -0.003638 -0.004550 0.000000 0.014762 0.000000
# 2 -0.003638 0.024129 -0.010390 0.000000 0.004591 0.000000
# 3 -0.004550 -0.010390 0.016765 0.000000 0.003632 0.000000
# 4 0.000000 0.000000 0.000000 0.029420 0.000000 0.007735
# 5 0.014762 0.004591 0.003632 0.000000 0.064549 0.000000
# 6 0.000000 0.000000 0.000000 0.007735 0.000000 0.043819
#
#
# Mechanical properties :
#
#
# Convention : Reuss Voigt Hill
#
# Bulk Modulus (GPa) = 41.76783 68.88970 55.32876
# Shear Modulus (GPa) = 20.48972 25.11491 22.80231
#
# Velocity S-wave (km/s) = 3.41908 3.78536 3.60688
# Velocity P-wave (km/s) = 6.27829 7.64260 6.99380
#
# Compressibility (1/GPa) = 0.02394187
#
# Stress axis : x y z
#
# Youngs Moduli (GPa) = 49.49228 41.44396 59.64798
#
# Poissons Ratio (x) = 0.15078 0.27143
# Poissons Ratio (y) = 0.18006 0.61974
# Poissons Ratio (z) = 0.22521 0.43060
#
# Static dielectric constant tensor:
#      x y z
#    x 3.266920 0.000000 -0.225750 
#    y 0.000000 3.328690 0.000000 
#    z -0.225750 0.000000 3.334890 
# 
# 
# High freq. dielectric constant tensor:
#      x y z
#    x 1.658630 0.000000 -0.014200 
#    y 0.000000 1.680170 0.000000 
#    z -0.014200 0.000000 1.677940 
# 
# From -- ./inp_files/27298.got.cif
#   From: 2010.06.25/outbox.cif.g09.slc.cpg/sg11_14_cif.got.tgz:27298.got - 2010.06.27 23:14:04.
