data_PCOD8070144
_publ_section_title
;
Structure prediction by ZEFSAII (Michael W. Deem and Ramdas Pophale) SiO2 
 PCOD8070144
Probable space group: P 21/M
;
_chemical_formula_sum "Si O2"
_cell_formula_units_Z 28
_cell_length_a 13.901910
_cell_length_b 9.302964
_cell_length_c 14.115576
_cell_angle_alpha 90.000000
_cell_angle_beta 119.967192
_cell_angle_gamma 90.000000
_cell_volume 1581.497574
_symmetry_space_group_name_H-M "P 21/M"
_symmetry_group_IT_number 11
_symmetry_cell_setting 'monoclinic'
loop_
_space_group_symop_operation_xyz
x,y,z
-x,1/2+y,-z
-x,-y,-z
x,1/2-y,z
loop_
_atom_site_type_symbol
_atom_site_label
_atom_site_fract_x
_atom_site_fract_y
_atom_site_fract_z
Si Si1 0.872613 0.919034 0.230556
Si Si2 0.891773 0.910580 0.444460
Si Si3 0.898878 0.914477 0.654957
Si Si4 0.500637 0.083363 0.142749
Si Si5 0.526557 0.417641 0.370129
Si Si6 0.664456 0.916546 0.586056
Si Si7 0.670465 0.082634 0.061459
O O1 0.872446 0.750000 0.205433
O O2 0.826192 0.950564 0.315374
O O3 0.789181 0.003113 0.121014
O O4 0.997882 0.979368 0.277789
O O5 0.933486 0.750000 0.450744
O O6 0.837110 0.931897 0.520760
O O7 0.000000 0.000000 0.500000
O O8 0.941040 0.750000 0.688916
O O9 0.794869 0.951248 0.672587
O O10 0.463524 0.250000 0.122127
O O11 0.530104 0.031887 0.263002
O O12 0.607574 0.057776 0.129735
O O13 0.399125 0.986059 0.057937
O O14 0.551833 0.250000 0.389963
O O15 0.406041 0.456637 0.355193
O O16 0.622623 0.496407 0.474640
O O17 0.650416 0.750000 0.553221
O O18 0.689302 0.250000 0.049611
#
# Coordination Sequence:
#
# PCOD8070144 Si02
#       7
#     4   4   4   4   4   4   4
#     4  10  19  30  46  69  97 129 161 197 241 287
#     4   8  15  26  39  59  88 122 156 186 221 269
#     4   9  17  30  46  67  97 130 162 196 234 280
#     4   9  19  35  52  71  97 128 161 201 245 287
#     4   9  18  33  51  73 100 129 161 199 243 287
#     4   9  18  31  50  75 101 130 163 197 237 285
#     4  10  20  33  50  73  97 126 163 201 243 291
#
# _framework density 17.704737000000002
#
# number of rings (size 3 to 8) (size 9 to 14) (size 15 to 20)
#    0.000    2.857    0.000    0.857    2.000    2.286 
#    0.000    0.000    0.000    0.857    0.000    0.000 
#    0.000    0.000    0.000    0.000    0.000    0.000 
#
# Total GULP energy -346880.326236 kJ/mol
# GULP energy per Si atom -12388.583080 kJ/mol
# Density = 1.766444 g / cm^3
# Si number density = 17.704737 Si / 1000 Ang^3
#
#
#
# Elastic Constant Matrix: (Units=GPa)
#
#
# Indices 1 2 3 4 5 6 
#
# 1 64.6332 28.9192 32.2417 0.0000 11.4813 0.0000
# 2 28.9192 71.0148 40.1987 0.0000 11.5206 0.0000
# 3 32.2417 40.1987 73.3060 0.0000 4.2096 0.0000
# 4 0.0000 0.0000 0.0000 29.7515 0.0000 4.3699
# 5 11.4813 11.5206 4.2096 0.0000 27.2549 0.0000
# 6 0.0000 0.0000 0.0000 4.3699 0.0000 21.2817
#
#
#
# Elastic Compliance Matrix: (Units=1/GPa)
#
#
# Indices 1 2 3 4 5 6 
#
# 1 0.021911 -0.003803 -0.007177 0.000000 -0.006514 0.000000
# 2 -0.003803 0.022480 -0.010292 0.000000 -0.006310 0.000000
# 3 -0.007177 -0.010292 0.022216 0.000000 0.003943 0.000000
# 4 0.000000 0.000000 0.000000 0.034657 0.000000 -0.007116
# 5 -0.006514 -0.006310 0.003943 0.000000 0.041493 0.000000
# 6 0.000000 0.000000 0.000000 -0.007116 0.000000 0.048450
#
#
# Mechanical properties :
#
#
# Convention : Reuss Voigt Hill
#
# Bulk Modulus (GPa) = 41.56056 45.74147 43.65102
# Shear Modulus (GPa) = 20.68054 22.83059 21.75556
#
# Velocity S-wave (km/s) = 3.42143 3.59488 3.50923
# Velocity P-wave (km/s) = 6.25567 6.56679 6.41312
#
# Compressibility (1/GPa) = 0.02406127
#
# Stress axis : x y z
#
# Youngs Moduli (GPa) = 45.63890 44.48372 45.01307
#
# Poissons Ratio (x) = 0.16918 0.32308
# Poissons Ratio (y) = 0.17357 0.46329
# Poissons Ratio (z) = 0.32757 0.45784
#
# Static dielectric constant tensor:
#      x y z
#    x 1.223730 0.000000 1.120020 
#    y 0.000000 3.334820 0.000000 
#    z 1.120020 0.000000 2.382820 
# 
# 
# High freq. dielectric constant tensor:
#      x y z
#    x 1.671970 0.000000 0.006200 
#    y 0.000000 1.690320 0.000000 
#    z 0.006200 0.000000 1.662060 
# 
# From -- ./inp_files/51789.got.cif
#   From: 2010.06.25/outbox.cif.g09.slc.cpg/sg11_26_cif.got.tgz:51789.got - 2010.06.27 23:14:04.
