data_PCOD8070513
_publ_section_title
;
Structure prediction by ZEFSAII (Michael W. Deem and Ramdas Pophale) SiO2 
 PCOD8070513
Probable space group: P 21/M
;
_chemical_formula_sum "Si O2"
_cell_formula_units_Z 28
_cell_length_a 31.330600
_cell_length_b 8.750875
_cell_length_c 31.330459
_cell_angle_alpha 90.000000
_cell_angle_beta 170.472554
_cell_angle_gamma 90.000000
_cell_volume 1421.796804
_symmetry_space_group_name_H-M "P 21/M"
_symmetry_group_IT_number 11
_symmetry_cell_setting 'monoclinic'
loop_
_space_group_symop_operation_xyz
x,y,z
-x,1/2+y,-z
-x,-y,-z
x,1/2-y,z
loop_
_atom_site_type_symbol
_atom_site_label
_atom_site_fract_x
_atom_site_fract_y
_atom_site_fract_z
Si Si1 0.879469 0.069443 0.120606
Si Si2 0.976721 0.431478 0.023536
Si Si3 0.833492 0.926405 0.166339
Si Si4 0.596495 0.932397 0.403431
Si Si5 0.260753 0.069894 0.739232
Si Si6 0.306358 0.927247 0.693578
Si Si7 0.451879 0.431473 0.548405
O O1 0.881321 0.250000 0.118754
O O2 0.142097 0.002231 0.359652
O O3 0.854744 0.026475 0.145271
O O4 0.640424 0.002231 0.857979
O O5 0.978388 0.250000 0.021885
O O6 0.213267 0.492808 0.285260
O O7 0.000000 0.500000 0.000000
O O8 0.715074 0.492809 0.787091
O O9 0.839987 0.750000 0.159515
O O10 0.069914 0.969642 0.429909
O O11 0.569988 0.969759 0.929983
O O12 0.596477 0.750000 0.403470
O O13 0.572298 0.996822 0.427562
O O14 0.257053 0.250000 0.742955
O O15 0.285723 0.034134 0.714136
O O16 0.000000 0.000000 0.500000
O O17 0.500000 0.000000 0.000000
O O18 0.299489 0.750000 0.700676
O O19 0.451236 0.250000 0.549066
#
# Coordination Sequence:
#
# PCOD8070513 Si02
#       7
#     4   4   4   4   4   4   4
#     4  10  19  31  51  76 101 129 166 214 261 304
#     4  10  19  31  49  71  95 126 161 202 248 300
#     4  10  21  36  55  78 109 146 181 220 270 327
#     4   9  17  30  49  74  99 126 165 212 254 299
#     4  12  25  42  65  93 124 159 198 245 297 350
#     4  10  21  38  58  81 110 148 190 230 273 326
#     4   9  17  30  49  71  95 126 165 203 247 302
#
# _framework density 19.693391999999999
#
# number of rings (size 3 to 8) (size 9 to 14) (size 15 to 20)
#    0.000    2.000    0.000    4.286    0.000    5.714 
#    0.000    0.000    0.000    5.143    0.000    0.000 
#    0.000    0.000    0.000    0.000    0.000    0.000 
#
# Total GULP energy -347320.258466 kJ/mol
# GULP energy per Si atom -12404.294945 kJ/mol
# Density = 1.964857 g / cm^3
# Si number density = 19.693392 Si / 1000 Ang^3
#
#
#
# Elastic Constant Matrix: (Units=GPa)
#
#
# Indices 1 2 3 4 5 6 
#
# 1 164.7088 32.6492 99.4926 0.0000 1.0524 0.0000
# 2 32.6492 47.1197 35.9900 0.0000 0.2978 0.0000
# 3 99.4926 35.9900 219.2096 0.0000 3.8858 0.0000
# 4 0.0000 0.0000 0.0000 33.4638 0.0000 0.1007
# 5 1.0524 0.2978 3.8858 0.0000 38.5059 0.0000
# 6 0.0000 0.0000 0.0000 0.1007 0.0000 31.9116
#
#
#
# Elastic Compliance Matrix: (Units=1/GPa)
#
#
# Indices 1 2 3 4 5 6 
#
# 1 0.008843 -0.003500 -0.003441 0.000000 0.000133 0.000000
# 2 -0.003500 0.025652 -0.002626 0.000000 0.000162 0.000000
# 3 -0.003441 -0.002626 0.006565 0.000000 -0.000548 0.000000
# 4 0.000000 0.000000 0.000000 0.029883 0.000000 -0.000094
# 5 0.000133 0.000162 -0.000548 0.000000 0.026020 0.000000
# 6 0.000000 0.000000 0.000000 -0.000094 0.000000 0.031337
#
#
# Mechanical properties :
#
#
# Convention : Reuss Voigt Hill
#
# Bulk Modulus (GPa) = 45.60858 85.25575 65.43217
# Shear Modulus (GPa) = 32.31160 38.30332 35.30746
#
# Velocity S-wave (km/s) = 4.05499 4.41498 4.23881
# Velocity P-wave (km/s) = 6.71815 8.32916 7.56665
#
# Compressibility (1/GPa) = 0.02192570
#
# Stress axis : x y z
#
# Youngs Moduli (GPa) = 113.08492 38.98293 152.33169
#
# Poissons Ratio (x) = 0.13643 0.52422
# Poissons Ratio (y) = 0.39575 0.40004
# Poissons Ratio (z) = 0.38916 0.10237
#
# Static dielectric constant tensor:
#      x y z
#    x 3.672600 0.000000 0.030380 
#    y 0.000000 3.190930 0.000000 
#    z 0.030380 0.000000 4.013580 
# 
# 
# High freq. dielectric constant tensor:
#      x y z
#    x 1.784720 0.000000 0.000760 
#    y 0.000000 1.728870 0.000000 
#    z 0.000760 0.000000 1.793290 
# 
# From -- ./inp_files/9645.got.cif
#   From: 2010.06.25/outbox.cif.g09.slc.cpg/sg11_5_cif.got.tgz:9645.got - 2010.06.27 23:14:04.
