data_PCOD8070407
_publ_section_title
;
Structure prediction by ZEFSAII (Michael W. Deem and Ramdas Pophale) SiO2 
 PCOD8070407
Probable space group: P 21/M
;
_chemical_formula_sum "Si O2"
_cell_formula_units_Z 32
_cell_length_a 15.607027
_cell_length_b 9.053584
_cell_length_c 14.148109
_cell_angle_alpha 90.000000
_cell_angle_beta 89.887089
_cell_angle_gamma 90.000000
_cell_volume 1999.117269
_symmetry_space_group_name_H-M "P 21/M"
_symmetry_group_IT_number 11
_symmetry_cell_setting 'monoclinic'
loop_
_space_group_symop_operation_xyz
x,y,z
-x,1/2+y,-z
-x,-y,-z
x,1/2-y,z
loop_
_atom_site_type_symbol
_atom_site_label
_atom_site_fract_x
_atom_site_fract_y
_atom_site_fract_z
Si Si1 0.171880 0.420026 0.289729
Si Si2 0.688305 0.575892 0.398329
Si Si3 0.502358 0.581684 0.403448
Si Si4 0.835773 0.075314 0.282335
Si Si5 0.001166 0.077092 0.400078
Si Si6 0.082822 0.081644 0.102234
Si Si7 0.316446 0.577026 0.398513
Si Si8 0.907581 0.920478 0.110523
O O1 0.194067 0.250000 0.311462
O O2 0.157729 0.446501 0.178015
O O3 0.249829 0.522030 0.321034
O O4 0.086416 0.469424 0.344649
O O5 0.708546 0.750000 0.403154
O O6 0.593127 0.543361 0.352916
O O7 0.753122 0.496350 0.328989
O O8 0.696840 0.510317 0.503653
O O9 0.500000 0.500000 0.500000
O O10 0.505220 0.750000 0.432796
O O11 0.411592 0.547509 0.351826
O O12 0.824676 0.250000 0.279931
O O13 0.919536 0.024953 0.339993
O O14 0.843865 0.014796 0.175814
O O15 0.997368 0.250000 0.417622
O O16 0.000000 0.000000 0.500000
O O17 0.048010 0.250000 0.112535
O O18 0.121422 0.054618 0.998006
O O19 0.005003 0.972475 0.123602
O O20 0.301609 0.750000 0.418748
O O21 0.901801 0.750000 0.140021
#
# Coordination Sequence:
#
# PCOD8070407 Si02
#       8
#     4   4   4   4   4   4   4   4
#     4  10  19  33  48  65  92 129 161 192 231 276
#     4  10  19  32  49  70  94 126 163 196 232 280
#     4   8  16  30  47  66  93 122 153 195 238 276
#     4  11  21  34  48  67  96 128 157 195 238 279
#     4  10  21  33  44  59  89 128 160 187 223 265
#     4   9  18  34  51  68  93 122 157 199 241 278
#     4  10  19  31  47  71  98 126 158 195 237 279
#     4  10  19  31  51  73  91 119 158 199 239 283
#
# _framework density 16.007065999999998
#
# number of rings (size 3 to 8) (size 9 to 14) (size 15 to 20)
#    0.000    2.250    1.250    2.250    0.000    5.500 
#    0.000    0.000    0.000    0.000    0.000    0.875 
#    0.000    0.000    0.000    0.000    0.000    0.000 
#
# Total GULP energy -396615.580595 kJ/mol
# GULP energy per Si atom -12394.236894 kJ/mol
# Density = 1.597063 g / cm^3
# Si number density = 16.007066 Si / 1000 Ang^3
#
#
#
# Elastic Constant Matrix: (Units=GPa)
#
#
# Indices 1 2 3 4 5 6 
#
# 1 129.9974 55.2817 56.8726 0.0000 0.0219 0.0000
# 2 55.2817 72.7781 43.9482 0.0000 -2.8543 0.0000
# 3 56.8726 43.9482 98.0051 0.0000 -0.4187 0.0000
# 4 0.0000 0.0000 0.0000 25.3372 0.0000 -1.1741
# 5 0.0219 -2.8543 -0.4187 0.0000 9.2736 0.0000
# 6 0.0000 0.0000 0.0000 -1.1741 0.0000 24.5994
#
#
#
# Elastic Compliance Matrix: (Units=1/GPa)
#
#
# Indices 1 2 3 4 5 6 
#
# 1 0.012508 -0.007140 -0.004067 0.000000 -0.002411 0.000000
# 2 -0.007140 0.023194 -0.006228 0.000000 0.006875 0.000000
# 3 -0.004067 -0.006228 0.015352 0.000000 -0.001214 0.000000
# 4 0.000000 0.000000 0.000000 0.039555 0.000000 0.001888
# 5 -0.002411 0.006875 -0.001214 0.000000 0.109900 0.000000
# 6 0.000000 0.000000 0.000000 0.001888 0.000000 0.040741
#
#
# Mechanical properties :
#
#
# Convention : Reuss Voigt Hill
#
# Bulk Modulus (GPa) = 61.79127 68.10952 64.95039
# Shear Modulus (GPa) = 17.76094 21.48726 19.62410
#
# Velocity S-wave (km/s) = 3.33463 3.66780 3.50518
# Velocity P-wave (km/s) = 7.31524 7.78325 7.55287
#
# Compressibility (1/GPa) = 0.01618352
#
# Stress axis : x y z
#
# Youngs Moduli (GPa) = 79.94570 43.11370 65.13957
#
# Poissons Ratio (x) = 0.30782 0.26494
# Poissons Ratio (y) = 0.57079 0.40572
# Poissons Ratio (z) = 0.32517 0.26853
#
# Static dielectric constant tensor:
#      x y z
#    x 3.661570 0.000000 0.130320 
#    y 0.000000 3.150740 0.000000 
#    z 0.130320 0.000000 3.063070 
# 
# 
# High freq. dielectric constant tensor:
#      x y z
#    x 1.608630 0.000000 -0.000480 
#    y 0.000000 1.627990 0.000000 
#    z -0.000480 0.000000 1.592870 
# 
# From -- ./inp_files/51266.got.cif
#   From: 2010.06.25/outbox.cif.g09.slc.cpg/sg11_26_cif.got.tgz:51266.got - 2010.06.27 23:14:04.
