data_PCOD8070641
_publ_section_title
;
Structure prediction by ZEFSAII (Michael W. Deem and Ramdas Pophale) SiO2 
 PCOD8070641
Probable space group: P 21/M
;
_chemical_formula_sum "Si O2"
_cell_formula_units_Z 28
_cell_length_a 9.369897
_cell_length_b 9.243160
_cell_length_c 26.274694
_cell_angle_alpha 90.000000
_cell_angle_beta 137.552716
_cell_angle_gamma 90.000000
_cell_volume 1535.818279
_symmetry_space_group_name_H-M "P 21/M"
_symmetry_group_IT_number 11
_symmetry_cell_setting 'monoclinic'
loop_
_space_group_symop_operation_xyz
x,y,z
-x,1/2+y,-z
-x,-y,-z
x,1/2-y,z
loop_
_atom_site_type_symbol
_atom_site_label
_atom_site_fract_x
_atom_site_fract_y
_atom_site_fract_z
Si Si1 0.367264 0.580078 0.345187
Si Si2 0.502341 0.581297 0.079863
Si Si3 0.809755 0.083595 0.092131
Si Si4 0.037305 0.418621 0.330208
Si Si5 0.702873 0.918316 0.775039
Si Si6 0.656596 0.914260 0.506990
Si Si7 0.554359 0.419919 0.193379
O O1 0.320701 0.750000 0.327741
O O2 0.176856 0.509636 0.327366
O O3 0.384659 0.510003 0.294739
O O4 0.598440 0.549602 0.432845
O O5 0.540736 0.750000 0.098609
O O6 0.715288 0.514128 0.112145
O O7 0.449473 0.505324 0.119147
O O8 0.303944 0.549845 0.991098
O O9 0.775856 0.250000 0.099207
O O10 0.053849 0.044461 0.149873
O O11 0.060509 0.250000 0.321535
O O12 0.108439 0.445132 0.408545
O O13 0.796642 0.469466 0.263173
O O14 0.671213 0.750000 0.754165
O O15 0.570447 0.965874 0.789163
O O16 0.596544 0.750000 0.500947
O O17 0.500000 0.000000 0.500000
O O18 0.533380 0.250000 0.177422
#
# Coordination Sequence:
#
# PCOD8070641 Si02
#       7
#     4   4   4   4   4   4   4
#     4  10  19  31  50  76 101 125 160 206 249 285
#     4  10  20  34  54  78 100 124 159 203 247 288
#     4   9  19  36  55  74  98 129 163 198 239 290
#     4   9  17  32  53  73  96 129 165 199 240 291
#     4  10  21  36  51  69  98 135 169 197 234 290
#     4   8  15  28  47  71  97 124 157 199 243 286
#     4  10  21  35  51  72  99 132 167 200 237 287
#
# _framework density 18.231324000000001
#
# number of rings (size 3 to 8) (size 9 to 14) (size 15 to 20)
#    0.000    2.571    0.000    1.714    0.000    6.857 
#    0.000    0.714    0.000    0.000    0.000    0.000 
#    0.000    0.000    0.000    0.000    0.000    0.000 
#
# Total GULP energy -347045.669515 kJ/mol
# GULP energy per Si atom -12394.488197 kJ/mol
# Density = 1.818983 g / cm^3
# Si number density = 18.231324 Si / 1000 Ang^3
#
#
#
# Elastic Constant Matrix: (Units=GPa)
#
#
# Indices 1 2 3 4 5 6 
#
# 1 106.3136 47.3633 54.7014 0.0000 -27.2646 0.0000
# 2 47.3633 65.5900 45.0640 0.0000 -19.0637 0.0000
# 3 54.7014 45.0640 99.5272 0.0000 -27.7179 0.0000
# 4 0.0000 0.0000 0.0000 27.8747 0.0000 -8.7103
# 5 -27.2646 -19.0637 -27.7179 0.0000 19.8481 0.0000
# 6 0.0000 0.0000 0.0000 -8.7103 0.0000 23.9009
#
#
#
# Elastic Compliance Matrix: (Units=1/GPa)
#
#
# Indices 1 2 3 4 5 6 
#
# 1 0.017220 -0.006665 -0.002687 0.000000 0.013501 0.000000
# 2 -0.006665 0.026567 -0.006234 0.000000 0.007657 0.000000
# 3 -0.002687 -0.006234 0.019067 0.000000 0.016949 0.000000
# 4 0.000000 0.000000 0.000000 0.040485 0.000000 0.014754
# 5 0.013501 0.007657 0.016949 0.000000 0.099952 0.000000
# 6 0.000000 0.000000 0.000000 0.014754 0.000000 0.047216
#
#
# Mechanical properties :
#
#
# Convention : Reuss Voigt Hill
#
# Bulk Modulus (GPa) = 31.56178 62.85423 47.20800
# Shear Modulus (GPa) = 17.10922 22.61154 19.86038
#
# Velocity S-wave (km/s) = 3.06674 3.52555 3.30412
# Velocity P-wave (km/s) = 5.46711 7.15007 6.36446
#
# Compressibility (1/GPa) = 0.03168390
#
# Stress axis : x y z
#
# Youngs Moduli (GPa) = 58.07125 37.64021 52.44706
#
# Poissons Ratio (x) = 0.25087 0.14091
# Poissons Ratio (y) = 0.38704 0.32694
# Poissons Ratio (z) = 0.15602 0.23464
#
# Static dielectric constant tensor:
#      x y z
#    x 3.089410 0.000000 -0.121630 
#    y 0.000000 3.352590 0.000000 
#    z -0.121630 0.000000 4.047520 
# 
# 
# High freq. dielectric constant tensor:
#      x y z
#    x 1.676310 0.000000 -0.011930 
#    y 0.000000 1.707380 0.000000 
#    z -0.011930 0.000000 1.727350 
# 
# From -- ./inp_files/24073.got.cif
#   From: 2010.06.25/outbox.cif.g09.slc.cpg/sg11_13_cif.got.tgz:24073.got - 2010.06.27 23:14:04.
