data_PCOD8070551
_publ_section_title
;
Structure prediction by ZEFSAII (Michael W. Deem and Ramdas Pophale) SiO2 
 PCOD8070551
Probable space group: P 21/M
;
_chemical_formula_sum "Si O2"
_cell_formula_units_Z 28
_cell_length_a 18.028334
_cell_length_b 9.180402
_cell_length_c 19.654702
_cell_angle_alpha 90.000000
_cell_angle_beta 152.369152
_cell_angle_gamma 90.000000
_cell_volume 1508.652831
_symmetry_space_group_name_H-M "P 21/M"
_symmetry_group_IT_number 11
_symmetry_cell_setting 'monoclinic'
loop_
_space_group_symop_operation_xyz
x,y,z
-x,1/2+y,-z
-x,-y,-z
x,1/2-y,z
loop_
_atom_site_type_symbol
_atom_site_label
_atom_site_fract_x
_atom_site_fract_y
_atom_site_fract_z
Si Si1 0.657292 0.082697 0.148840
Si Si2 0.969490 0.080629 0.319389
Si Si3 0.412007 0.913417 0.331524
Si Si4 0.239060 0.921872 0.619231
Si Si5 0.895750 0.414082 0.691982
Si Si6 0.561809 0.410878 0.342988
Si Si7 0.743283 0.914652 0.681382
O O1 0.610881 0.250000 0.119955
O O2 0.722716 0.023877 0.274017
O O3 0.789258 0.059510 0.198192
O O4 0.500000 0.000000 0.000000
O O5 0.014730 0.250000 0.347421
O O6 0.086041 0.011053 0.469946
O O7 0.981307 0.000815 0.256251
O O8 0.346185 0.750000 0.270623
O O9 0.578398 0.914981 0.506423
O O10 0.436628 0.978769 0.275823
O O11 0.281565 0.008180 0.266045
O O12 0.198158 0.750000 0.581742
O O13 0.394009 0.958077 0.698024
O O14 0.959330 0.250000 0.756458
O O15 0.725400 0.408884 0.517678
O O16 0.878906 0.497763 0.750049
O O17 0.484397 0.250000 0.281401
O O18 0.802579 0.750000 0.741721
#
# Coordination Sequence:
#
# PCOD8070551 Si02
#       7
#     4   4   4   4   4   4   4
#     4  10  22  37  52  72  98 126 158 197 241 289
#     4  10  19  31  49  73  97 123 159 200 240 285
#     4   9  15  21  31  50  79 114 150 185 224 272
#     4   9  18  33  51  71  95 125 161 199 239 285
#     4   9  16  26  40  59  85 118 154 191 232 277
#     4   8  14  24  38  56  81 113 149 188 228 271
#     4   9  15  22  33  51  79 115 152 188 227 271
#
# _framework density 18.559604
#
# number of rings (size 3 to 8) (size 9 to 14) (size 15 to 20)
#    0.000    2.857    0.000    3.000    0.000    8.571 
#    0.000    0.000    0.000    0.000    0.000    0.000 
#    0.000    1.143    0.000    3.429    0.000    9.571 
#
# Total GULP energy -347140.640046 kJ/mol
# GULP energy per Si atom -12397.880002 kJ/mol
# Density = 1.851736 g / cm^3
# Si number density = 18.559604 Si / 1000 Ang^3
#
#
#
# Elastic Constant Matrix: (Units=GPa)
#
#
# Indices 1 2 3 4 5 6 
#
# 1 124.5985 68.4481 20.3025 0.0000 17.7891 0.0000
# 2 68.4481 137.3891 28.5124 0.0000 12.4322 0.0000
# 3 20.3025 28.5124 33.8503 0.0000 9.9376 0.0000
# 4 0.0000 0.0000 0.0000 16.7839 0.0000 3.0996
# 5 17.7891 12.4322 9.9376 0.0000 6.2470 0.0000
# 6 0.0000 0.0000 0.0000 3.0996 0.0000 35.8439
#
#
#
# Elastic Compliance Matrix: (Units=1/GPa)
#
#
# Indices 1 2 3 4 5 6 
#
# 1 0.017293 -0.005888 0.010515 0.000000 -0.054253 0.000000
# 2 -0.005888 0.011229 -0.008046 0.000000 0.007222 0.000000
# 3 0.010515 -0.008046 0.063984 0.000000 -0.115715 0.000000
# 4 0.000000 0.000000 0.000000 0.060548 0.000000 -0.005236
# 5 -0.054253 0.007222 -0.115715 0.000000 0.484279 0.000000
# 6 0.000000 0.000000 0.000000 -0.005236 0.000000 0.028352
#
#
# Mechanical properties :
#
#
# Convention : Reuss Voigt Hill
#
# Bulk Modulus (GPa) = 11.67316 58.92932 35.30124
# Shear Modulus (GPa) = 7.13188 23.67995 15.40591
#
# Velocity S-wave (km/s) = 1.96240 3.57583 2.88423
# Velocity P-wave (km/s) = 3.38200 6.99064 5.49122
#
# Compressibility (1/GPa) = 0.08566658
#
# Stress axis : x y z
#
# Youngs Moduli (GPa) = 57.82696 89.05836 15.62896
#
# Poissons Ratio (x) = 0.52441 -0.16434
# Poissons Ratio (y) = 0.34051 0.12576
# Poissons Ratio (z) = -0.60807 0.71660
#
# Static dielectric constant tensor:
#      x y z
#    x 3.774100 0.000000 0.030690 
#    y 0.000000 3.596370 0.000000 
#    z 0.030690 0.000000 2.641830 
# 
# 
# High freq. dielectric constant tensor:
#      x y z
#    x 1.741510 0.000000 0.007150 
#    y 0.000000 1.730300 0.000000 
#    z 0.007150 0.000000 1.638480 
# 
# From -- ./inp_files/28558.got.cif
#   From: 2010.06.25/outbox.cif.g09.slc.cpg/sg11_15_cif.got.tgz:28558.got - 2010.06.27 23:14:04.
