data_PCOD8070764
_publ_section_title
;
Structure prediction by ZEFSAII (Michael W. Deem and Ramdas Pophale) SiO2 
 PCOD8070764
Probable space group: P 21/M
;
_chemical_formula_sum "Si O2"
_cell_formula_units_Z 24
_cell_length_a 11.256464
_cell_length_b 16.817253
_cell_length_c 15.307529
_cell_angle_alpha 90.000000
_cell_angle_beta 152.728807
_cell_angle_gamma 90.000000
_cell_volume 1327.760665
_symmetry_space_group_name_H-M "P 21/M"
_symmetry_group_IT_number 11
_symmetry_cell_setting 'monoclinic'
loop_
_space_group_symop_operation_xyz
x,y,z
-x,1/2+y,-z
-x,-y,-z
x,1/2-y,z
loop_
_atom_site_type_symbol
_atom_site_label
_atom_site_fract_x
_atom_site_fract_y
_atom_site_fract_z
Si Si1 0.407764 0.550403 0.282789
Si Si2 0.528005 0.838626 0.517051
Si Si3 0.188546 0.953520 0.559889
Si Si4 0.370245 0.158647 0.102995
Si Si5 0.110550 0.393865 0.111631
Si Si6 0.963502 0.342113 0.688771
O O1 0.540086 0.602078 0.444346
O O2 0.639954 0.520132 0.375058
O O3 0.239465 0.479592 0.214767
O O4 0.202371 0.602473 0.091923
O O5 0.477867 0.750000 0.448200
O O6 0.796942 0.839363 0.747318
O O7 0.302282 0.864017 0.436146
O O8 0.373968 0.894837 0.735584
O O9 0.018426 0.900415 0.382135
O O10 0.000000 0.000000 0.500000
O O11 0.457049 0.250000 0.162325
O O12 0.201229 0.140517 0.078055
O O13 0.202849 0.139496 0.908238
O O14 0.962546 0.250000 0.658054
#
# Coordination Sequence:
#
# PCOD8070764 Si02
#       6
#     4   4   4   4   4   4
#     4  10  21  34  53  82 115 140 176 227 285 328
#     4  11  20  32  55  86 115 142 175 227 291 345
#     4  11  24  39  57  79 112 159 197 227 265 327
#     4  10  19  35  60  86 110 141 186 237 281 330
#     4  10  19  31  55  86 114 138 171 226 289 341
#     4  10  20  35  60  87 110 139 186 238 280 330
#
# _framework density 18.075547
#
# number of rings (size 3 to 8) (size 9 to 14) (size 15 to 20)
#    0.000    1.667    5.000    1.500    0.000    1.333 
#    0.000    1.667    0.000    2.000    0.000    0.000 
#    0.000    0.000    0.000    0.000    0.000    0.000 
#
# Total GULP energy -297622.947597 kJ/mol
# GULP energy per Si atom -12400.956150 kJ/mol
# Density = 1.803441 g / cm^3
# Si number density = 18.075547 Si / 1000 Ang^3
#
#
#
# Elastic Constant Matrix: (Units=GPa)
#
#
# Indices 1 2 3 4 5 6 
#
# 1 87.9172 64.2721 63.3694 0.0000 -3.9410 0.0000
# 2 64.2721 97.9603 68.3560 0.0000 -7.6070 0.0000
# 3 63.3694 68.3560 133.1575 0.0000 -14.5821 0.0000
# 4 0.0000 0.0000 0.0000 35.9335 0.0000 -7.5487
# 5 -3.9410 -7.6070 -14.5821 0.0000 17.8339 0.0000
# 6 0.0000 0.0000 0.0000 -7.5487 0.0000 25.5062
#
#
#
# Elastic Compliance Matrix: (Units=1/GPa)
#
#
# Indices 1 2 3 4 5 6 
#
# 1 0.024297 -0.012276 -0.005763 0.000000 -0.004579 0.000000
# 2 -0.012276 0.022108 -0.005241 0.000000 0.002432 0.000000
# 3 -0.005763 -0.005241 0.013794 0.000000 0.007770 0.000000
# 4 0.000000 0.000000 0.000000 0.029674 0.000000 0.008782
# 5 -0.004579 0.002432 0.007770 0.000000 0.062451 0.000000
# 6 0.000000 0.000000 0.000000 0.008782 0.000000 0.041805
#
#
# Mechanical properties :
#
#
# Convention : Reuss Voigt Hill
#
# Bulk Modulus (GPa) = 73.31187 79.00334 76.15760
# Shear Modulus (GPa) = 20.38863 24.05722 22.22292
#
# Velocity S-wave (km/s) = 3.36217 3.65214 3.51015
# Velocity P-wave (km/s) = 7.46451 7.84770 7.65850
#
# Compressibility (1/GPa) = 0.01364036
#
# Stress axis : x y z
#
# Youngs Moduli (GPa) = 41.15755 45.23183 72.49785
#
# Poissons Ratio (x) = 0.55526 0.41777
# Poissons Ratio (y) = 0.50524 0.37995
# Poissons Ratio (z) = 0.23717 0.23705
#
# Static dielectric constant tensor:
#      x y z
#    x 2.840920 0.000000 -0.087180 
#    y 0.000000 3.502520 0.000000 
#    z -0.087180 0.000000 3.619070 
# 
# 
# High freq. dielectric constant tensor:
#      x y z
#    x 1.643600 0.000000 -0.013680 
#    y 0.000000 1.710300 0.000000 
#    z -0.013680 0.000000 1.721050 
# 
# From -- ./inp_files/35830.got.cif
#   From: 2010.06.25/outbox.cif.g09.slc.cpg/sg11_18_cif.got.tgz:35830.got - 2010.06.27 23:14:04.
