data_PCOD8070106
_publ_section_title
;
Structure prediction by ZEFSAII (Michael W. Deem and Ramdas Pophale) SiO2 
 PCOD8070106
Probable space group: P 21/M
;
_chemical_formula_sum "Si O2"
_cell_formula_units_Z 24
_cell_length_a 23.106466
_cell_length_b 9.187999
_cell_length_c 11.795114
_cell_angle_alpha 90.000000
_cell_angle_beta 146.245281
_cell_angle_gamma 90.000000
_cell_volume 1391.390732
_symmetry_space_group_name_H-M "P 21/M"
_symmetry_group_IT_number 11
_symmetry_cell_setting 'monoclinic'
loop_
_space_group_symop_operation_xyz
x,y,z
-x,1/2+y,-z
-x,-y,-z
x,1/2-y,z
loop_
_atom_site_type_symbol
_atom_site_label
_atom_site_fract_x
_atom_site_fract_y
_atom_site_fract_z
Si Si1 0.422880 0.413794 0.715755
Si Si2 0.246218 0.079532 0.600964
Si Si3 0.708742 0.416486 0.663590
Si Si4 0.891382 0.076262 0.801772
Si Si5 0.398679 0.918993 0.289659
Si Si6 0.347057 0.918056 0.954872
O O1 0.401335 0.250000 0.642190
O O2 0.355846 0.450859 0.717332
O O3 0.389418 0.508000 0.554199
O O4 0.544671 0.438941 0.937026
O O5 0.217043 0.250000 0.558750
O O6 0.155832 0.990380 0.390371
O O7 0.259693 0.015186 0.749631
O O8 0.696234 0.250000 0.610705
O O9 0.818713 0.469750 0.790669
O O10 0.698512 0.443024 0.781894
O O11 0.904190 0.250000 0.810480
O O12 0.000000 0.000000 0.000000
O O13 0.428988 0.750000 0.328993
O O14 0.500000 0.000000 0.500000
O O15 0.360529 0.976359 0.105333
O O16 0.311142 0.750000 0.895096
#
# Coordination Sequence:
#
# PCOD8070106 Si02
#       6
#     4   4   4   4   4   4
#     4   9  17  29  45  68  99 134 168 203 241 286
#     4  10  20  32  48  72 100 130 167 206 248 296
#     4   9  18  31  49  74 101 130 166 205 246 291
#     4  10  20  36  57  78  99 124 159 208 260 305
#     4  10  19  31  48  71 102 139 173 203 237 284
#     4  10  19  30  45  68 102 139 169 200 240 286
#
# _framework density 17.248927999999999
#
# number of rings (size 3 to 8) (size 9 to 14) (size 15 to 20)
#    0.000    2.333    1.667    1.500    0.000    2.667 
#    0.000    0.000    0.000    1.000    0.000    0.000 
#    0.000    0.000    0.000    0.000    0.000    0.000 
#
# Total GULP energy -297495.269348 kJ/mol
# GULP energy per Si atom -12395.636223 kJ/mol
# Density = 1.720967 g / cm^3
# Si number density = 17.248928 Si / 1000 Ang^3
#
#
#
# Elastic Constant Matrix: (Units=GPa)
#
#
# Indices 1 2 3 4 5 6 
#
# 1 70.5866 35.7138 59.1920 0.0000 -16.1418 0.0000
# 2 35.7138 71.6866 57.7941 0.0000 -7.9558 0.0000
# 3 59.1920 57.7941 115.5565 0.0000 -15.4354 0.0000
# 4 0.0000 0.0000 0.0000 33.8542 0.0000 -2.9637
# 5 -16.1418 -7.9558 -15.4354 0.0000 24.5213 0.0000
# 6 0.0000 0.0000 0.0000 -2.9637 0.0000 18.9399
#
#
#
# Elastic Compliance Matrix: (Units=1/GPa)
#
#
# Indices 1 2 3 4 5 6 
#
# 1 0.027473 -0.003868 -0.010798 0.000000 0.010033 0.000000
# 2 -0.003868 0.023921 -0.010138 0.000000 -0.001167 0.000000
# 3 -0.010798 -0.010138 0.019507 0.000000 0.001881 0.000000
# 4 0.000000 0.000000 0.000000 0.029949 0.000000 0.004686
# 5 0.010033 -0.001167 0.001881 0.000000 0.048191 0.000000
# 6 0.000000 0.000000 0.000000 0.004686 0.000000 0.053532
#
#
# Mechanical properties :
#
#
# Convention : Reuss Voigt Hill
#
# Bulk Modulus (GPa) = 46.96573 62.58105 54.77339
# Shear Modulus (GPa) = 19.28432 22.47174 20.87803
#
# Velocity S-wave (km/s) = 3.34728 3.61333 3.48285
# Velocity P-wave (km/s) = 6.49818 7.33268 6.92800
#
# Compressibility (1/GPa) = 0.02129212
#
# Stress axis : x y z
#
# Youngs Moduli (GPa) = 36.39877 41.80513 51.26471
#
# Poissons Ratio (x) = 0.16171 0.55356
# Poissons Ratio (y) = 0.14080 0.51972
# Poissons Ratio (z) = 0.39304 0.42382
#
# Static dielectric constant tensor:
#      x y z
#    x 3.370120 0.000000 -0.097810 
#    y 0.000000 3.371190 0.000000 
#    z -0.097810 0.000000 3.039020 
# 
# 
# High freq. dielectric constant tensor:
#      x y z
#    x 1.655260 0.000000 -0.015750 
#    y 0.000000 1.671320 0.000000 
#    z -0.015750 0.000000 1.642920 
# 
# From -- ./inp_files/33808.got.cif
#   From: 2010.06.25/outbox.cif.g09.slc.cpg/sg11_17_cif.got.tgz:33808.got - 2010.06.27 23:14:04.
