data_PCOD8070174
_publ_section_title
;
Structure prediction by ZEFSAII (Michael W. Deem and Ramdas Pophale) SiO2 
 PCOD8070174
Probable space group: P 21/M
;
_chemical_formula_sum "Si O2"
_cell_formula_units_Z 32
_cell_length_a 31.801679
_cell_length_b 8.877525
_cell_length_c 20.507115
_cell_angle_alpha 90.000000
_cell_angle_beta 162.223988
_cell_angle_gamma 90.000000
_cell_volume 1767.537189
_symmetry_space_group_name_H-M "P 21/M"
_symmetry_group_IT_number 11
_symmetry_cell_setting 'monoclinic'
loop_
_space_group_symop_operation_xyz
x,y,z
-x,1/2+y,-z
-x,-y,-z
x,1/2-y,z
loop_
_atom_site_type_symbol
_atom_site_label
_atom_site_fract_x
_atom_site_fract_y
_atom_site_fract_z
Si Si1 0.701954 0.083058 0.712397
Si Si2 0.368670 0.575997 0.133319
Si Si3 0.642227 0.921042 0.749399
Si Si4 0.087748 0.071032 0.686675
Si Si5 0.660014 0.921078 0.519030
Si Si6 0.107410 0.573038 0.208500
Si Si7 0.966927 0.917882 0.251503
Si Si8 0.979744 0.915912 0.791432
O O1 0.648987 0.250000 0.613773
O O2 0.605952 0.021414 0.630777
O O3 0.703028 0.966696 0.655159
O O4 0.857196 0.094950 0.964993
O O5 0.333554 0.750000 0.097321
O O6 0.417570 0.493713 0.272287
O O7 0.494993 0.563049 0.268720
O O8 0.240820 0.496300 0.910045
O O9 0.588586 0.750000 0.661897
O O10 0.806255 0.920880 0.997645
O O11 0.098361 0.250000 0.694913
O O12 0.014621 0.025570 0.646861
O O13 0.000000 0.000000 0.500000
O O14 0.708438 0.750000 0.579556
O O15 0.737257 0.025222 0.580695
O O16 0.091730 0.750000 0.178881
O O17 0.080486 0.524661 0.242550
O O18 0.000000 0.500000 0.000000
O O19 0.025395 0.750000 0.330526
O O20 0.055438 0.020189 0.332540
O O21 0.913699 0.750000 0.701744
#
# Coordination Sequence:
#
# PCOD8070174 Si02
#       8
#     4   4   4   4   4   4   4   4
#     4  10  19  30  47  69  95 132 176 218 259 304
#     4  10  21  36  52  73 102 135 170 211 258 309
#     4   9  17  30  48  68  96 133 172 213 254 301
#     4  10  20  35  58  85 112 139 168 205 252 309
#     4  11  23  36  50  69  98 134 175 221 264 307
#     4  12  23  35  52  72  98 134 179 227 268 309
#     4   8  16  30  48  74 104 134 167 206 253 301
#     4  10  19  31  49  73 100 133 174 220 264 303
#
# _framework density 18.104286999999999
#
# number of rings (size 3 to 8) (size 9 to 14) (size 15 to 20)
#    0.000    2.000    1.250    4.125    0.000    7.000 
#    0.000    0.000    0.000    0.000    0.000    0.875 
#    0.000    0.000    0.000    0.000    0.000    0.000 
#
# Total GULP energy -396810.970547 kJ/mol
# GULP energy per Si atom -12400.342830 kJ/mol
# Density = 1.806308 g / cm^3
# Si number density = 18.104287 Si / 1000 Ang^3
#
#
#
# Elastic Constant Matrix: (Units=GPa)
#
#
# Indices 1 2 3 4 5 6 
#
# 1 118.0559 60.4089 41.0250 0.0000 9.4652 0.0000
# 2 60.4089 144.9523 36.8841 0.0000 5.3319 0.0000
# 3 41.0250 36.8841 51.0139 0.0000 -0.4005 0.0000
# 4 0.0000 0.0000 0.0000 23.1614 0.0000 1.0454
# 5 9.4652 5.3319 -0.4005 0.0000 30.2550 0.0000
# 6 0.0000 0.0000 0.0000 1.0454 0.0000 33.0437
#
#
#
# Elastic Compliance Matrix: (Units=1/GPa)
#
#
# Indices 1 2 3 4 5 6 
#
# 1 0.013376 -0.003301 -0.008400 0.000000 -0.003714 0.000000
# 2 -0.003301 0.009344 -0.004107 0.000000 -0.000668 0.000000
# 3 -0.008400 -0.004107 0.029356 0.000000 0.003740 0.000000
# 4 0.000000 0.000000 0.000000 0.043237 0.000000 -0.001368
# 5 -0.003714 -0.000668 0.003740 0.000000 0.034382 0.000000
# 6 0.000000 0.000000 0.000000 -0.001368 0.000000 0.030306
#
#
# Mechanical properties :
#
#
# Convention : Reuss Voigt Hill
#
# Bulk Modulus (GPa) = 48.87112 65.62867 57.24989
# Shear Modulus (GPa) = 25.19697 29.00561 27.10129
#
# Velocity S-wave (km/s) = 3.73469 4.00702 3.87325
# Velocity P-wave (km/s) = 6.75648 7.59851 7.18983
#
# Compressibility (1/GPa) = 0.02046198
#
# Stress axis : x y z
#
# Youngs Moduli (GPa) = 74.75958 107.02148 34.06425
#
# Poissons Ratio (x) = 0.35323 0.28613
# Poissons Ratio (y) = 0.24675 0.13990
# Poissons Ratio (z) = 0.62797 0.43952
#
# Static dielectric constant tensor:
#      x y z
#    x 3.494090 0.000000 0.182740 
#    y 0.000000 3.681720 0.000000 
#    z 0.182740 0.000000 3.081190 
# 
# 
# High freq. dielectric constant tensor:
#      x y z
#    x 1.694760 0.000000 0.020990 
#    y 0.000000 1.721710 0.000000 
#    z 0.020990 0.000000 1.661830 
# 
# From -- ./inp_files/54268.got.cif
#   From: 2010.06.25/outbox.cif.g09.slc.cpg/sg11_28_cif.got.tgz:54268.got - 2010.06.27 23:14:04.
