data_PCOD8070195
_publ_section_title
;
Structure prediction by ZEFSAII (Michael W. Deem and Ramdas Pophale) SiO2 
 PCOD8070195
Probable space group: P 21/M
;
_chemical_formula_sum "Si O2"
_cell_formula_units_Z 32
_cell_length_a 23.024105
_cell_length_b 9.067322
_cell_length_c 16.796462
_cell_angle_alpha 90.000000
_cell_angle_beta 147.704918
_cell_angle_gamma 90.000000
_cell_volume 1873.476965
_symmetry_space_group_name_H-M "P 21/M"
_symmetry_group_IT_number 11
_symmetry_cell_setting 'monoclinic'
loop_
_space_group_symop_operation_xyz
x,y,z
-x,1/2+y,-z
-x,-y,-z
x,1/2-y,z
loop_
_atom_site_type_symbol
_atom_site_label
_atom_site_fract_x
_atom_site_fract_y
_atom_site_fract_z
Si Si1 0.360532 0.075754 0.174845
Si Si2 0.610640 0.918881 0.620090
Si Si3 0.406890 0.422837 0.572687
Si Si4 0.389254 0.580653 0.855575
Si Si5 0.163219 0.077389 0.843087
Si Si6 0.923980 0.077000 0.579115
Si Si7 0.717700 0.083099 0.435780
Si Si8 0.813738 0.574676 0.309786
O O1 0.376093 0.250000 0.178780
O O2 0.320545 0.042669 0.220340
O O3 0.475330 0.000592 0.286278
O O4 0.264461 0.006959 0.008745
O O5 0.579526 0.750000 0.586077
O O6 0.656587 0.957253 0.585111
O O7 0.500000 0.000000 0.500000
O O8 0.426769 0.250000 0.607746
O O9 0.325085 0.477845 0.545073
O O10 0.394359 0.750000 0.889698
O O11 0.363112 0.570954 0.732114
O O12 0.302478 0.493780 0.806752
O O13 0.500000 0.500000 0.000000
O O14 0.183552 0.250000 0.867695
O O15 0.157442 0.022042 0.745782
O O16 0.046930 0.040513 0.749763
O O17 0.908015 0.250000 0.540965
O O18 0.838732 0.030715 0.549167
O O19 0.903118 0.989143 0.473493
O O20 0.721531 0.250000 0.472664
O O21 0.809282 0.750000 0.313248
#
# Coordination Sequence:
#
# PCOD8070195 Si02
#       8
#     4   4   4   4   4   4   4   4
#     4   9  17  31  50  72  98 127 155 189 241 294
#     4   8  15  28  46  68  95 125 154 187 233 287
#     4  10  19  30  47  73 100 124 156 197 236 285
#     4  10  21  35  49  67  96 131 163 198 240 285
#     4   9  18  31  51  74  95 122 160 204 240 284
#     4   9  18  35  52  68  92 125 167 206 238 277
#     4   9  19  33  49  67  90 125 164 196 230 281
#     4  10  19  31  48  72  97 125 161 199 241 287
#
# _framework density 17.080539999999999
#
# number of rings (size 3 to 8) (size 9 to 14) (size 15 to 20)
#    0.000    2.750    0.000    2.250    1.750    3.000 
#    0.000    1.875    0.000    0.750    0.000    0.000 
#    0.000    0.000    0.000    0.000    0.000    0.875 
#
# Total GULP energy -396467.346333 kJ/mol
# GULP energy per Si atom -12389.604573 kJ/mol
# Density = 1.704166 g / cm^3
# Si number density = 17.080540 Si / 1000 Ang^3
#
#
#
# Elastic Constant Matrix: (Units=GPa)
#
#
# Indices 1 2 3 4 5 6 
#
# 1 119.2506 39.9616 66.3162 0.0000 -5.7197 0.0000
# 2 39.9616 53.7010 33.8360 0.0000 -6.2296 0.0000
# 3 66.3162 33.8360 88.8935 0.0000 0.9154 0.0000
# 4 0.0000 0.0000 0.0000 19.4232 0.0000 -1.5701
# 5 -5.7197 -6.2296 0.9154 0.0000 16.4680 0.0000
# 6 0.0000 0.0000 0.0000 -1.5701 0.0000 22.2904
#
#
#
# Elastic Compliance Matrix: (Units=1/GPa)
#
#
# Indices 1 2 3 4 5 6 
#
# 1 0.015769 -0.005021 -0.009895 0.000000 0.004128 0.000000
# 2 -0.005021 0.027782 -0.006923 0.000000 0.009150 0.000000
# 3 -0.009895 -0.006923 0.021341 0.000000 -0.007242 0.000000
# 4 0.000000 0.000000 0.000000 0.051780 0.000000 0.003647
# 5 0.004128 0.009150 -0.007242 0.000000 0.066021 0.000000
# 6 0.000000 0.000000 0.000000 0.003647 0.000000 0.045119
#
#
# Mechanical properties :
#
#
# Convention : Reuss Voigt Hill
#
# Bulk Modulus (GPa) = 47.14076 60.23030 53.68553
# Shear Modulus (GPa) = 17.94929 19.75175 18.85052
#
# Velocity S-wave (km/s) = 3.24522 3.40426 3.32569
# Velocity P-wave (km/s) = 6.45763 7.12679 6.80044
#
# Compressibility (1/GPa) = 0.02121306
#
# Stress axis : x y z
#
# Youngs Moduli (GPa) = 63.41495 35.99509 46.85717
#
# Poissons Ratio (x) = 0.18072 0.46367
# Poissons Ratio (y) = 0.31839 0.32440
# Poissons Ratio (z) = 0.62752 0.24920
#
# Static dielectric constant tensor:
#      x y z
#    x 0.970500 0.000000 2.182680 
#    y 0.000000 3.161310 0.000000 
#    z 2.182680 0.000000 0.931270 
# 
# 
# High freq. dielectric constant tensor:
#      x y z
#    x 1.656380 0.000000 -0.006120 
#    y 0.000000 1.653860 0.000000 
#    z -0.006120 0.000000 1.646170 
# 
# From -- ./inp_files/54356.got.cif
#   From: 2010.06.25/outbox.cif.g09.slc.cpg/sg11_28_cif.got.tgz:54356.got - 2010.06.27 23:14:04.
