data_PCOD8070111
_publ_section_title
;
Structure prediction by ZEFSAII (Michael W. Deem and Ramdas Pophale) SiO2 
 PCOD8070111
Probable space group: P 21/M
;
_chemical_formula_sum "Si O2"
_cell_formula_units_Z 32
_cell_length_a 16.527583
_cell_length_b 9.040249
_cell_length_c 13.677391
_cell_angle_alpha 90.000000
_cell_angle_beta 118.582537
_cell_angle_gamma 90.000000
_cell_volume 1794.532134
_symmetry_space_group_name_H-M "P 21/M"
_symmetry_group_IT_number 11
_symmetry_cell_setting 'monoclinic'
loop_
_space_group_symop_operation_xyz
x,y,z
-x,1/2+y,-z
-x,-y,-z
x,1/2-y,z
loop_
_atom_site_type_symbol
_atom_site_label
_atom_site_fract_x
_atom_site_fract_y
_atom_site_fract_z
Si Si1 0.545203 0.417886 0.939139
Si Si2 0.721709 0.077382 0.141495
Si Si3 0.417299 0.919988 0.572209
Si Si4 0.138851 0.418417 0.899488
Si Si5 0.373105 0.423625 0.729591
Si Si6 0.954239 0.421840 0.882473
Si Si7 0.610100 0.420186 0.662373
Si Si8 0.215379 0.076276 0.157488
O O1 0.529470 0.250000 0.956993
O O2 0.484682 0.454341 0.807858
O O3 0.500000 0.500000 0.000000
O O4 0.654461 0.453722 0.007595
O O5 0.727723 0.250000 0.171105
O O6 0.821038 0.019538 0.164235
O O7 0.687250 0.991077 0.217540
O O8 0.438246 0.750000 0.610913
O O9 0.365161 0.931654 0.438333
O O10 0.350102 0.993187 0.614925
O O11 0.511247 0.010503 0.623517
O O12 0.164940 0.250000 0.890508
O O13 0.027518 0.439549 0.835922
O O14 0.182085 0.462047 0.029143
O O15 0.350661 0.250000 0.708504
O O16 0.937370 0.250000 0.896290
O O17 0.856130 0.501097 0.806327
O O18 0.000000 0.500000 0.000000
O O19 0.608250 0.250000 0.696508
O O20 0.684259 0.507824 0.769077
O O21 0.218246 0.250000 0.179593
#
# Coordination Sequence:
#
# PCOD8070111 Si02
#       8
#     4   4   4   4   4   4   4   4
#     4   8  16  28  40  59  85 117 156 194 230 272
#     4  10  19  30  45  68  96 128 166 202 238 286
#     4  10  21  36  52  72  98 128 165 209 250 289
#     4   9  19  32  46  70 102 133 163 198 240 287
#     4  10  19  32  49  67  93 129 165 202 246 291
#     4   9  17  31  49  70  99 132 165 202 245 294
#     4  10  21  36  53  73  98 128 165 206 249 295
#     4  10  20  33  51  75 101 130 166 204 247 297
#
# _framework density 17.831947
#
# number of rings (size 3 to 8) (size 9 to 14) (size 15 to 20)
#    0.000    2.500    0.000    3.000    1.750    5.500 
#    0.000    0.000    0.000    0.000    0.000    0.875 
#    0.000    0.000    0.000    0.000    0.000    0.000 
#
# Total GULP energy -396474.633654 kJ/mol
# GULP energy per Si atom -12389.832302 kJ/mol
# Density = 1.779136 g / cm^3
# Si number density = 17.831947 Si / 1000 Ang^3
#
#
#
# Elastic Constant Matrix: (Units=GPa)
#
#
# Indices 1 2 3 4 5 6 
#
# 1 70.0064 38.0272 10.1888 0.0000 -8.9358 0.0000
# 2 38.0272 106.9580 21.1642 0.0000 -10.2749 0.0000
# 3 10.1888 21.1642 29.3079 0.0000 -8.2475 0.0000
# 4 0.0000 0.0000 0.0000 23.5452 0.0000 -1.6554
# 5 -8.9358 -10.2749 -8.2475 0.0000 24.3215 0.0000
# 6 0.0000 0.0000 0.0000 -1.6554 0.0000 34.2243
#
#
#
# Elastic Compliance Matrix: (Units=1/GPa)
#
#
# Indices 1 2 3 4 5 6 
#
# 1 0.018108 -0.005877 -0.000970 0.000000 0.003841 0.000000
# 2 -0.005877 0.012917 -0.007028 0.000000 0.000915 0.000000
# 3 -0.000970 -0.007028 0.042668 0.000000 0.011144 0.000000
# 4 0.000000 0.000000 0.000000 0.042617 0.000000 0.002061
# 5 0.003841 0.000915 0.011144 0.000000 0.046692 0.000000
# 6 0.000000 0.000000 0.000000 0.002061 0.000000 0.029319
#
#
# Mechanical properties :
#
#
# Convention : Reuss Voigt Hill
#
# Bulk Modulus (GPa) = 21.76545 38.33698 30.05122
# Shear Modulus (GPa) = 21.24165 25.54432 23.39298
#
# Velocity S-wave (km/s) = 3.45514 3.78895 3.62589
# Velocity P-wave (km/s) = 5.30563 6.37865 5.86672
#
# Compressibility (1/GPa) = 0.04594438
#
# Stress axis : x y z
#
# Youngs Moduli (GPa) = 55.22310 77.41475 23.43651
#
# Poissons Ratio (x) = 0.45498 0.02274
# Poissons Ratio (y) = 0.32455 0.16470
# Poissons Ratio (z) = 0.05358 0.54403
#
# Static dielectric constant tensor:
#      x y z
#    x 3.349620 0.000000 0.054990 
#    y 0.000000 3.412060 0.000000 
#    z 0.054990 0.000000 3.098550 
# 
# 
# High freq. dielectric constant tensor:
#      x y z
#    x 1.684510 0.000000 -0.005540 
#    y 0.000000 1.708300 0.000000 
#    z -0.005540 0.000000 1.645170 
# 
# From -- ./inp_files/51722.got.cif
#   From: 2010.06.25/outbox.cif.g09.slc.cpg/sg11_26_cif.got.tgz:51722.got - 2010.06.27 23:14:04.
