data_PCOD8070637
_publ_section_title
;
Structure prediction by ZEFSAII (Michael W. Deem and Ramdas Pophale) SiO2 
 PCOD8070637
Probable space group: P 21/M
;
_chemical_formula_sum "Si O2"
_cell_formula_units_Z 32
_cell_length_a 14.045064
_cell_length_b 8.910117
_cell_length_c 11.863977
_cell_angle_alpha 90.000000
_cell_angle_beta 89.504386
_cell_angle_gamma 90.000000
_cell_volume 1484.640068
_symmetry_space_group_name_H-M "P 21/M"
_symmetry_group_IT_number 11
_symmetry_cell_setting 'monoclinic'
loop_
_space_group_symop_operation_xyz
x,y,z
-x,1/2+y,-z
-x,-y,-z
x,1/2-y,z
loop_
_atom_site_type_symbol
_atom_site_label
_atom_site_fract_x
_atom_site_fract_y
_atom_site_fract_z
Si Si1 0.305809 0.075695 0.695310
Si Si2 0.661042 0.413073 0.741856
Si Si3 0.405987 0.586804 0.018817
Si Si4 0.497621 0.572950 0.620963
Si Si5 0.148145 0.927518 0.140619
Si Si6 0.227965 0.424615 0.932781
Si Si7 0.132523 0.423045 0.552111
Si Si8 0.036500 0.424262 0.325517
O O1 0.333812 0.250000 0.706258
O O2 0.236074 0.028873 0.800613
O O3 0.242951 0.045753 0.583113
O O4 0.405013 0.984879 0.691490
O O5 0.674562 0.250000 0.679078
O O6 0.600622 0.532227 0.671300
O O7 0.762039 0.480552 0.783485
O O8 0.598512 0.378198 0.850665
O O9 0.400401 0.750000 0.955200
O O10 0.328310 0.468524 0.982228
O O11 0.500000 0.500000 0.000000
O O12 0.500000 0.500000 0.500000
O O13 0.489938 0.750000 0.611728
O O14 0.147056 0.750000 0.129221
O O15 0.056539 0.986593 0.209379
O O16 0.149485 0.990722 0.011770
O O17 0.206719 0.250000 0.945979
O O18 0.105131 0.250000 0.576666
O O19 0.116210 0.461337 0.420565
O O20 0.066314 0.527382 0.629171
O O21 0.034942 0.250000 0.296069
#
# Coordination Sequence:
#
# PCOD8070637 Si02
#       8
#     4   4   4   4   4   4   4   4
#     4  10  22  41  62  85 118 156 195 240 291 349
#     4   9  20  37  53  76 109 147 190 236 282 332
#     4  10  19  31  50  75 105 142 187 235 283 333
#     4  12  26  40  57  82 115 155 198 242 288 346
#     4  10  21  37  60  87 120 156 195 245 294 345
#     4  10  20  35  56  83 115 151 193 240 289 346
#     4   9  20  39  62  88 117 153 190 235 296 352
#     4  10  20  36  61  92 120 147 192 243 291 352
#
# _framework density 21.554046
#
# number of rings (size 3 to 8) (size 9 to 14) (size 15 to 20)
#    0.000    2.000    0.000    4.125    1.750    8.000 
#    0.000    0.625    0.000    0.000    0.000    0.000 
#    0.000    0.000    0.000    0.000    0.000    0.000 
#
# Total GULP energy -396512.236025 kJ/mol
# GULP energy per Si atom -12391.007376 kJ/mol
# Density = 2.150499 g / cm^3
# Si number density = 21.554046 Si / 1000 Ang^3
#
#
#
# Elastic Constant Matrix: (Units=GPa)
#
#
# Indices 1 2 3 4 5 6 
#
# 1 19.9301 13.7034 6.9791 0.0000 -8.1359 0.0000
# 2 13.7034 94.6244 35.6285 0.0000 -8.5896 0.0000
# 3 6.9791 35.6285 66.2318 0.0000 -12.0796 0.0000
# 4 0.0000 0.0000 0.0000 31.1858 0.0000 -5.1330
# 5 -8.1359 -8.5896 -12.0796 0.0000 35.5562 0.0000
# 6 0.0000 0.0000 0.0000 -5.1330 0.0000 28.2612
#
#
#
# Elastic Compliance Matrix: (Units=1/GPa)
#
#
# Indices 1 2 3 4 5 6 
#
# 1 0.060315 -0.007622 -0.000079 0.000000 0.011933 0.000000
# 2 -0.007622 0.014239 -0.006979 0.000000 -0.000675 0.000000
# 3 -0.000079 -0.006979 0.019776 0.000000 0.005014 0.000000
# 4 0.000000 0.000000 0.000000 0.033054 0.000000 0.006004
# 5 0.011933 -0.000675 0.005014 0.000000 0.032395 0.000000
# 6 0.000000 0.000000 0.000000 0.006004 0.000000 0.036475
#
#
# Mechanical properties :
#
#
# Convention : Reuss Voigt Hill
#
# Bulk Modulus (GPa) = 15.39208 32.60093 23.99650
# Shear Modulus (GPa) = 20.22079 27.29899 23.75989
#
# Velocity S-wave (km/s) = 3.06624 3.56270 3.32375
# Velocity P-wave (km/s) = 4.43761 5.66408 5.08794
#
# Compressibility (1/GPa) = 0.06496849
#
# Stress axis : x y z
#
# Youngs Moduli (GPa) = 16.57965 70.23206 50.56661
#
# Poissons Ratio (x) = 0.53529 0.00401
# Poissons Ratio (y) = 0.12636 0.35293
# Poissons Ratio (z) = 0.00131 0.49018
#
# Static dielectric constant tensor:
#      x y z
#    x 3.716910 0.000000 0.013390 
#    y 0.000000 5.062530 0.000000 
#    z 0.013390 0.000000 4.104760 
# 
# 
# High freq. dielectric constant tensor:
#      x y z
#    x 1.831670 0.000000 -0.008180 
#    y 0.000000 1.848490 0.000000 
#    z -0.008180 0.000000 1.844470 
# 
# From -- ./inp_files/38158.got.cif
#   From: 2010.06.25/outbox.cif.g09.slc.cpg/sg11_20_cif.got.tgz:38158.got - 2010.06.27 23:14:04.
