data_PCOD8070662
_publ_section_title
;
Structure prediction by ZEFSAII (Michael W. Deem and Ramdas Pophale) SiO2 
 PCOD8070662
Probable space group: P 21/M
;
_chemical_formula_sum "Si O2"
_cell_formula_units_Z 28
_cell_length_a 21.182741
_cell_length_b 9.308979
_cell_length_c 19.785974
_cell_angle_alpha 90.000000
_cell_angle_beta 21.487146
_cell_angle_gamma 90.000000
_cell_volume 1429.123127
_symmetry_space_group_name_H-M "P 21/M"
_symmetry_group_IT_number 11
_symmetry_cell_setting 'monoclinic'
loop_
_space_group_symop_operation_xyz
x,y,z
-x,1/2+y,-z
-x,-y,-z
x,1/2-y,z
loop_
_atom_site_type_symbol
_atom_site_label
_atom_site_fract_x
_atom_site_fract_y
_atom_site_fract_z
Si Si1 0.198536 0.910902 0.014228
Si Si2 0.693069 0.085388 0.640038
Si Si3 0.842283 0.086059 0.090445
Si Si4 0.995495 0.580490 0.574642
Si Si5 0.208119 0.083936 0.587401
Si Si6 0.184615 0.914820 0.737611
Si Si7 0.308868 0.414119 0.028014
O O1 0.234898 0.750000 0.003037
O O2 0.994965 0.942735 0.217267
O O3 0.296769 0.014154 0.966937
O O4 0.270443 0.934715 0.865878
O O5 0.727322 0.250000 0.584425
O O6 0.833854 0.035699 0.554241
O O7 0.697998 0.987219 0.569280
O O8 0.503285 0.067539 0.862288
O O9 0.920913 0.250000 0.009679
O O10 0.730925 0.068375 0.270875
O O11 0.988743 0.965550 0.942725
O O12 0.986668 0.750000 0.569973
O O13 0.827847 0.522510 0.782240
O O14 0.000000 0.500000 0.500000
O O15 0.259217 0.250000 0.538531
O O16 0.277057 0.010639 0.588157
O O17 0.188187 0.750000 0.709844
O O18 0.259427 0.250000 0.065187
#
# Coordination Sequence:
#
# PCOD8070662 Si02
#       7
#     4   4   4   4   4   4   4
#     4   9  17  30  50  76 108 144 183 228 276 325
#     4  10  21  38  59  83 112 146 184 224 269 322
#     4   8  15  26  40  67 104 141 185 234 280 329
#     4  10  22  40  61  86 116 145 177 218 265 320
#     4  10  19  31  50  77 109 144 186 232 278 329
#     4   9  15  24  42  68 102 143 185 231 282 330
#     4  10  21  37  58  84 112 145 185 224 266 322
#
# _framework density 19.592433
#
# number of rings (size 3 to 8) (size 9 to 14) (size 15 to 20)
#    0.000    2.571    1.429    1.714    0.000    5.143 
#    0.000    0.000    0.000    0.857    0.000    0.000 
#    0.000    0.000    0.000    0.000    0.000    0.000 
#
# Total GULP energy -347012.447471 kJ/mol
# GULP energy per Si atom -12393.301695 kJ/mol
# Density = 1.954784 g / cm^3
# Si number density = 19.592433 Si / 1000 Ang^3
#
#
#
# Elastic Constant Matrix: (Units=GPa)
#
#
# Indices 1 2 3 4 5 6 
#
# 1 127.1336 54.8889 74.6603 0.0000 32.6723 0.0000
# 2 54.8889 82.7943 40.6087 0.0000 15.0047 0.0000
# 3 74.6603 40.6087 86.2922 0.0000 4.1871 0.0000
# 4 0.0000 0.0000 0.0000 18.2185 0.0000 9.0225
# 5 32.6723 15.0047 4.1871 0.0000 24.3960 0.0000
# 6 0.0000 0.0000 0.0000 9.0225 0.0000 35.2372
#
#
#
# Elastic Compliance Matrix: (Units=1/GPa)
#
#
# Indices 1 2 3 4 5 6 
#
# 1 0.036551 -0.002647 -0.028318 0.000000 -0.042463 0.000000
# 2 -0.002647 0.017840 -0.005793 0.000000 -0.006434 0.000000
# 3 -0.028318 -0.005793 0.037112 0.000000 0.035119 0.000000
# 4 0.000000 0.000000 0.000000 0.062860 0.000000 -0.016095
# 5 -0.042463 -0.006434 0.035119 0.000000 0.095788 0.000000
# 6 0.000000 0.000000 0.000000 -0.016095 0.000000 0.032500
#
#
# Mechanical properties :
#
#
# Convention : Reuss Voigt Hill
#
# Bulk Modulus (GPa) = 55.59722 70.72621 63.16171
# Shear Modulus (GPa) = 13.80584 23.97450 18.89017
#
# Velocity S-wave (km/s) = 2.65741 3.50188 3.10846
# Velocity P-wave (km/s) = 6.15258 7.24762 6.72243
#
# Compressibility (1/GPa) = 0.01798651
#
# Stress axis : x y z
#
# Youngs Moduli (GPa) = 27.35873 56.05281 26.94548
#
# Poissons Ratio (x) = 0.14836 0.76305
# Poissons Ratio (y) = 0.07241 0.15610
# Poissons Ratio (z) = 0.77476 0.32473
#
# Static dielectric constant tensor:
#      x y z
#    x 3.665500 0.000000 0.205100 
#    y 0.000000 3.548840 0.000000 
#    z 0.205100 0.000000 3.431140 
# 
# 
# High freq. dielectric constant tensor:
#      x y z
#    x 1.759380 0.000000 0.020180 
#    y 0.000000 1.763390 0.000000 
#    z 0.020180 0.000000 1.736250 
# 
# From -- ./inp_files/29022.got.cif
#   From: 2010.06.25/outbox.cif.g09.slc.cpg/sg11_15_cif.got.tgz:29022.got - 2010.06.27 23:14:04.
