data_PCOD8070893
_publ_section_title
;
Structure prediction by ZEFSAII (Michael W. Deem and Ramdas Pophale) SiO2 
 PCOD8070893
Probable space group: P 21/M
;
_chemical_formula_sum "Si O2"
_cell_formula_units_Z 32
_cell_length_a 9.952321
_cell_length_b 13.580713
_cell_length_c 29.086542
_cell_angle_alpha 90.000000
_cell_angle_beta 153.560102
_cell_angle_gamma 90.000000
_cell_volume 1750.457425
_symmetry_space_group_name_H-M "P 21/M"
_symmetry_group_IT_number 11
_symmetry_cell_setting 'monoclinic'
loop_
_space_group_symop_operation_xyz
x,y,z
-x,1/2+y,-z
-x,-y,-z
x,1/2-y,z
loop_
_atom_site_type_symbol
_atom_site_label
_atom_site_fract_x
_atom_site_fract_y
_atom_site_fract_z
Si Si1 0.243498 0.635008 0.998052
Si Si2 0.296517 0.515836 0.831784
Si Si3 0.979702 0.365548 0.169819
Si Si4 0.654800 0.633538 0.871062
Si Si5 0.717596 0.553693 0.602377
Si Si6 0.102172 0.640485 0.647249
Si Si7 0.431342 0.563331 0.609880
Si Si8 0.849770 0.634478 0.475714
O O1 0.302535 0.750000 0.015528
O O2 0.560909 0.586762 0.108596
O O3 0.133905 0.598604 0.914631
O O4 0.992376 0.607202 0.959245
O O5 0.563839 0.577552 0.889485
O O6 0.203165 0.577982 0.847334
O O7 0.003950 0.490858 0.710239
O O8 0.930717 0.250000 0.161608
O O9 0.333368 0.391559 0.281882
O O10 0.610875 0.750000 0.865402
O O11 0.424585 0.595630 0.760663
O O12 0.500000 0.500000 0.500000
O O13 0.527344 0.592087 0.587288
O O14 0.871229 0.640493 0.619792
O O15 0.158055 0.750000 0.647442
O O16 0.965181 0.590007 0.560108
O O17 0.419485 0.444208 0.615990
O O18 0.112895 0.618299 0.519251
O O19 0.741911 0.750000 0.442735
#
# Coordination Sequence:
#
# PCOD8070893 Si02
#       8
#     4   4   4   4   4   4   4   4
#     4  10  20  35  54  78 106 136 172 213 264 318
#     4  10  20  33  54  79 105 135 173 217 261 307
#     4  10  20  35  55  78 103 132 176 222 259 308
#     4   9  17  30  52  79 104 134 174 215 257 306
#     4  10  19  34  50  75 106 135 177 210 258 310
#     4   9  17  30  51  76 102 136 177 220 259 305
#     4  10  20  32  53  78 103 141 176 223 263 310
#     4  10  19  32  50  75 107 139 178 221 266 313
#
# _framework density 18.280936000000001
#
# number of rings (size 3 to 8) (size 9 to 14) (size 15 to 20)
#    0.000    2.250    1.250    2.250    0.000    5.500 
#    0.000    3.125    0.000    1.500    0.000    0.000 
#    0.000    0.000    0.000    0.000    0.000    0.000 
#
# Total GULP energy -396508.364938 kJ/mol
# GULP energy per Si atom -12390.886404 kJ/mol
# Density = 1.823933 g / cm^3
# Si number density = 18.280936 Si / 1000 Ang^3
#
#
#
# Elastic Constant Matrix: (Units=GPa)
#
#
# Indices 1 2 3 4 5 6 
#
# 1 89.0703 15.8485 29.6180 0.0000 1.7718 0.0000
# 2 15.8485 50.1339 20.7682 0.0000 3.2874 0.0000
# 3 29.6180 20.7682 80.2571 0.0000 -1.7936 0.0000
# 4 0.0000 0.0000 0.0000 26.8307 0.0000 5.9205
# 5 1.7718 3.2874 -1.7936 0.0000 21.8765 0.0000
# 6 0.0000 0.0000 0.0000 5.9205 0.0000 21.1370
#
#
#
# Elastic Compliance Matrix: (Units=1/GPa)
#
#
# Indices 1 2 3 4 5 6 
#
# 1 0.013072 -0.002301 -0.004252 0.000000 -0.001062 0.000000
# 2 -0.002301 0.023073 -0.005204 0.000000 -0.003708 0.000000
# 3 -0.004252 -0.005204 0.015429 0.000000 0.002391 0.000000
# 4 0.000000 0.000000 0.000000 0.039726 0.000000 -0.011127
# 5 -0.001062 -0.003708 0.002391 0.000000 0.046550 0.000000
# 6 0.000000 0.000000 0.000000 -0.011127 0.000000 0.050427
#
#
# Mechanical properties :
#
#
# Convention : Reuss Voigt Hill
#
# Bulk Modulus (GPa) = 35.63947 39.10341 37.37144
# Shear Modulus (GPa) = 22.60953 24.18395 23.39674
#
# Velocity S-wave (km/s) = 3.52061 3.64112 3.58137
# Velocity P-wave (km/s) = 6.00533 6.25410 6.13098
#
# Compressibility (1/GPa) = 0.02805878
#
# Stress axis : x y z
#
# Youngs Moduli (GPa) = 76.50166 43.34064 64.81162
#
# Poissons Ratio (x) = 0.09973 0.27559
# Poissons Ratio (y) = 0.17604 0.33730
# Poissons Ratio (z) = 0.32530 0.22556
#
# Static dielectric constant tensor:
#      x y z
#    x 3.569820 0.000000 -0.017410 
#    y 0.000000 3.158130 0.000000 
#    z -0.017410 0.000000 3.414650 
# 
# 
# High freq. dielectric constant tensor:
#      x y z
#    x 1.726270 0.000000 0.002970 
#    y 0.000000 1.684530 0.000000 
#    z 0.002970 0.000000 1.698210 
# 
# From -- ./inp_files/26803.got.cif
#   From: 2010.06.25/outbox.cif.g09.slc.cpg/sg11_14_cif.got.tgz:26803.got - 2010.06.27 23:14:04.
