data_PCOD8070285
_publ_section_title
;
Structure prediction by ZEFSAII (Michael W. Deem and Ramdas Pophale) SiO2 
 PCOD8070285
Probable space group: P 21/M
;
_chemical_formula_sum "Si O2"
_cell_formula_units_Z 32
_cell_length_a 13.132419
_cell_length_b 9.271216
_cell_length_c 13.908722
_cell_angle_alpha 90.000000
_cell_angle_beta 94.940814
_cell_angle_gamma 90.000000
_cell_volume 1687.143017
_symmetry_space_group_name_H-M "P 21/M"
_symmetry_group_IT_number 11
_symmetry_cell_setting 'monoclinic'
loop_
_space_group_symop_operation_xyz
x,y,z
-x,1/2+y,-z
-x,-y,-z
x,1/2-y,z
loop_
_atom_site_type_symbol
_atom_site_label
_atom_site_fract_x
_atom_site_fract_y
_atom_site_fract_z
Si Si1 0.185107 0.918267 0.369986
Si Si2 0.641288 0.589233 0.262187
Si Si3 0.731814 0.082533 0.819461
Si Si4 0.104356 0.584494 0.012786
Si Si5 0.160999 0.093423 0.850923
Si Si6 0.232658 0.918675 0.585512
Si Si7 0.956380 0.917452 0.341059
Si Si8 0.472192 0.577557 0.097692
O O1 0.170480 0.750000 0.346550
O O2 0.250113 0.985405 0.285774
O O3 0.247373 0.945935 0.472817
O O4 0.069735 0.980887 0.369710
O O5 0.615277 0.750000 0.298710
O O6 0.740513 0.593896 0.205867
O O7 0.667350 0.486198 0.354579
O O8 0.550087 0.530264 0.188453
O O9 0.705765 0.250000 0.807629
O O10 0.837048 0.054618 0.883924
O O11 0.636746 0.017565 0.871974
O O12 0.080083 0.750000 0.995482
O O13 0.174422 0.530307 0.930772
O O14 0.000000 0.500000 0.000000
O O15 0.148103 0.250000 0.900566
O O16 0.063247 0.065519 0.774758
O O17 0.227301 0.750000 0.609913
O O18 0.125463 0.989494 0.606651
O O19 0.944534 0.750000 0.371694
O O20 0.474997 0.750000 0.080330
O O21 0.500000 0.500000 0.000000
#
# Coordination Sequence:
#
# PCOD8070285 Si02
#       8
#     4   4   4   4   4   4   4   4
#     4   9  17  31  50  72 101 137 175 213 253 300
#     4   9  19  35  53  74 102 134 164 200 255 313
#     4   9  19  35  53  74 100 133 172 207 248 306
#     4  11  21  32  49  72 100 134 167 201 244 296
#     4   9  17  30  48  70  98 131 164 201 247 299
#     4  10  19  30  50  78 103 132 174 220 254 287
#     4   9  17  31  51  73 103 141 172 205 255 310
#     4  10  20  36  60  83 102 130 167 209 256 305
#
# _framework density 18.966975000000001
#
# number of rings (size 3 to 8) (size 9 to 14) (size 15 to 20)
#    0.000    2.500    0.000    3.375    0.000    4.500 
#    0.000    1.875    0.000    5.250    0.000    0.000 
#    0.000    0.000    0.000    0.000    0.000    0.000 
#
# Total GULP energy -396614.468477 kJ/mol
# GULP energy per Si atom -12394.202140 kJ/mol
# Density = 1.892381 g / cm^3
# Si number density = 18.966975 Si / 1000 Ang^3
#
#
#
# Elastic Constant Matrix: (Units=GPa)
#
#
# Indices 1 2 3 4 5 6 
#
# 1 87.8785 37.3637 47.9860 0.0000 5.6172 0.0000
# 2 37.3637 70.8823 61.7955 0.0000 9.5156 0.0000
# 3 47.9860 61.7955 123.7404 0.0000 -4.0126 0.0000
# 4 0.0000 0.0000 0.0000 27.4050 0.0000 2.7208
# 5 5.6172 9.5156 -4.0126 0.0000 21.8119 0.0000
# 6 0.0000 0.0000 0.0000 2.7208 0.0000 20.0650
#
#
#
# Elastic Compliance Matrix: (Units=1/GPa)
#
#
# Indices 1 2 3 4 5 6 
#
# 1 0.015580 -0.004407 -0.003932 0.000000 -0.002813 0.000000
# 2 -0.004407 0.030743 -0.014127 0.000000 -0.014876 0.000000
# 3 -0.003932 -0.014127 0.016995 0.000000 0.010302 0.000000
# 4 0.000000 0.000000 0.000000 0.036988 0.000000 -0.005016
# 5 -0.002813 -0.014876 0.010302 0.000000 0.054956 0.000000
# 6 0.000000 0.000000 0.000000 -0.005016 0.000000 0.050518
#
#
# Mechanical properties :
#
#
# Convention : Reuss Voigt Hill
#
# Bulk Modulus (GPa) = 54.38528 64.08794 59.23661
# Shear Modulus (GPa) = 19.46728 22.88013 21.17370
#
# Velocity S-wave (km/s) = 3.20719 3.47697 3.34480
# Velocity P-wave (km/s) = 6.51542 7.06977 6.79825
#
# Compressibility (1/GPa) = 0.01838733
#
# Stress axis : x y z
#
# Youngs Moduli (GPa) = 64.18458 32.52724 58.83965
#
# Poissons Ratio (x) = 0.14333 0.23139
# Poissons Ratio (y) = 0.28283 0.83121
# Poissons Ratio (z) = 0.25241 0.45950
#
# Static dielectric constant tensor:
#      x y z
#    x 3.554240 0.000000 0.144260 
#    y 0.000000 3.573290 0.000000 
#    z 0.144260 0.000000 3.812820 
# 
# 
# High freq. dielectric constant tensor:
#      x y z
#    x 1.730430 0.000000 0.008220 
#    y 0.000000 1.707760 0.000000 
#    z 0.008220 0.000000 1.742430 
# 
# From -- ./inp_files/49301.got.cif
#   From: 2010.06.25/outbox.cif.g09.slc.cpg/sg11_25_cif.got.tgz:49301.got - 2010.06.27 23:14:04.
