data_PCOD8070688
_publ_section_title
;
Structure prediction by ZEFSAII (Michael W. Deem and Ramdas Pophale) SiO2 
 PCOD8070688
Probable space group: P 21/M
;
_chemical_formula_sum "Si O2"
_cell_formula_units_Z 28
_cell_length_a 31.549277
_cell_length_b 8.687031
_cell_length_c 31.549225
_cell_angle_alpha 90.000000
_cell_angle_beta 9.458682
_cell_angle_gamma 90.000000
_cell_volume 1420.963851
_symmetry_space_group_name_H-M "P 21/M"
_symmetry_group_IT_number 11
_symmetry_cell_setting 'monoclinic'
loop_
_space_group_symop_operation_xyz
x,y,z
-x,1/2+y,-z
-x,-y,-z
x,1/2-y,z
loop_
_atom_site_type_symbol
_atom_site_label
_atom_site_fract_x
_atom_site_fract_y
_atom_site_fract_z
Si Si1 0.192549 0.067186 0.692801
Si Si2 0.380480 0.933610 0.880514
Si Si3 0.904906 0.932725 0.404950
Si Si4 0.332920 0.931948 0.832719
Si Si5 0.760985 0.432045 0.260989
Si Si6 0.476687 0.068379 0.976769
Si Si7 0.048533 0.931955 0.548458
O O1 0.196811 0.250000 0.697098
O O2 0.427525 0.011954 0.431627
O O3 0.214522 0.976115 0.714469
O O4 0.931271 0.011894 0.927922
O O5 0.379954 0.750000 0.879948
O O6 0.356608 0.001487 0.856578
O O7 0.642800 0.996455 0.642638
O O8 0.142554 0.996449 0.142872
O O9 0.905145 0.750000 0.405192
O O10 0.928768 0.990818 0.428714
O O11 0.334458 0.750000 0.834499
O O12 0.500000 0.500000 0.500000
O O13 0.758150 0.250000 0.258151
O O14 0.000000 0.500000 0.000000
O O15 0.478802 0.250000 0.978856
O O16 0.714660 0.009472 0.713759
O O17 0.213634 0.009474 0.214800
O O18 0.500000 0.000000 0.000000
O O19 0.051413 0.750000 0.551359
#
# Coordination Sequence:
#
# PCOD8070688 Si02
#       7
#     4   4   4   4   4   4   4
#     4  10  19  33  55  82 109 143 186 228 276 335
#     4   9  17  30  49  77 107 135 174 223 265 303
#     4  10  19  31  51  76 102 134 175 218 258 302
#     4   9  17  30  52  79 108 141 178 223 273 324
#     4  12  25  42  63  88 120 157 196 243 295 348
#     4  10  21  36  54  75  99 130 165 206 252 304
#     4  10  21  36  52  73 103 134 165 203 255 310
#
# _framework density 19.704934999999999
#
# number of rings (size 3 to 8) (size 9 to 14) (size 15 to 20)
#    0.000    2.000    0.000    4.286    0.000    5.714 
#    0.000    0.000    0.000    5.143    0.000    0.000 
#    0.000    0.000    0.000    0.000    0.000    0.000 
#
# Total GULP energy -347291.929015 kJ/mol
# GULP energy per Si atom -12403.283179 kJ/mol
# Density = 1.966009 g / cm^3
# Si number density = 19.704935 Si / 1000 Ang^3
#
#
#
# Elastic Constant Matrix: (Units=GPa)
#
#
# Indices 1 2 3 4 5 6 
#
# 1 211.3773 38.8294 120.1300 0.0000 0.3625 0.0000
# 2 38.8294 45.9714 37.1873 0.0000 0.1480 0.0000
# 3 120.1300 37.1873 228.5384 0.0000 -2.2524 0.0000
# 4 0.0000 0.0000 0.0000 11.2549 0.0000 1.7656
# 5 0.3625 0.1480 -2.2524 0.0000 42.7873 0.0000
# 6 0.0000 0.0000 0.0000 1.7656 0.0000 31.3704
#
#
#
# Elastic Compliance Matrix: (Units=1/GPa)
#
#
# Indices 1 2 3 4 5 6 
#
# 1 0.007201 -0.003475 -0.003222 0.000000 -0.000219 0.000000
# 2 -0.003475 0.026731 -0.002525 0.000000 -0.000196 0.000000
# 3 -0.003222 -0.002525 0.006484 0.000000 0.000377 0.000000
# 4 0.000000 0.000000 0.000000 0.089642 0.000000 -0.005045
# 5 -0.000219 -0.000196 0.000377 0.000000 0.023394 0.000000
# 6 0.000000 0.000000 0.000000 -0.005045 0.000000 0.032161
#
#
# Mechanical properties :
#
#
# Convention : Reuss Voigt Hill
#
# Bulk Modulus (GPa) = 45.51264 97.57558 71.54411
# Shear Modulus (GPa) = 23.65421 36.39855 30.02638
#
# Velocity S-wave (km/s) = 3.46847 4.30255 3.90782
# Velocity P-wave (km/s) = 6.26000 8.62023 7.53313
#
# Compressibility (1/GPa) = 0.02197192
#
# Stress axis : x y z
#
# Youngs Moduli (GPa) = 138.87869 37.40980 154.23512
#
# Poissons Ratio (x) = 0.13000 0.49688
# Poissons Ratio (y) = 0.48262 0.38942
# Poissons Ratio (z) = 0.44741 0.09445
#
# Static dielectric constant tensor:
#      x y z
#    x 3.777220 0.000000 -0.154490 
#    y 0.000000 3.182720 0.000000 
#    z -0.154490 0.000000 5.530260 
# 
# 
# High freq. dielectric constant tensor:
#      x y z
#    x 1.788960 0.000000 -0.000320 
#    y 0.000000 1.727860 0.000000 
#    z -0.000320 0.000000 1.792610 
# 
# From -- ./inp_files/9610.got.cif
#   From: 2010.06.25/outbox.cif.g09.slc.cpg/sg11_5_cif.got.tgz:9610.got - 2010.06.27 23:14:04.
