data_PCOD8070366
_publ_section_title
;
Structure prediction by ZEFSAII (Michael W. Deem and Ramdas Pophale) SiO2 
 PCOD8070366
Probable space group: P 21/M
;
_chemical_formula_sum "Si O2"
_cell_formula_units_Z 28
_cell_length_a 11.763960
_cell_length_b 8.970340
_cell_length_c 18.933767
_cell_angle_alpha 90.000000
_cell_angle_beta 51.719584
_cell_angle_gamma 90.000000
_cell_volume 1568.420762
_symmetry_space_group_name_H-M "P 21/M"
_symmetry_group_IT_number 11
_symmetry_cell_setting 'monoclinic'
loop_
_space_group_symop_operation_xyz
x,y,z
-x,1/2+y,-z
-x,-y,-z
x,1/2-y,z
loop_
_atom_site_type_symbol
_atom_site_label
_atom_site_fract_x
_atom_site_fract_y
_atom_site_fract_z
Si Si1 0.996060 0.926338 0.167339
Si Si2 0.843046 0.078201 0.760093
Si Si3 0.264882 0.922150 0.799392
Si Si4 0.750474 0.074673 0.032383
Si Si5 0.131906 0.927140 0.408967
Si Si6 0.527777 0.077506 0.860151
Si Si7 0.582835 0.577251 0.693686
O O1 0.988538 0.750000 0.175095
O O2 0.055637 0.994761 0.218599
O O3 0.103165 0.975007 0.063013
O O4 0.836435 0.987365 0.214756
O O5 0.883592 0.250000 0.739146
O O6 0.870851 0.012070 0.670993
O O7 0.674712 0.059829 0.849494
O O8 0.223642 0.750000 0.809146
O O9 0.237255 0.975098 0.890618
O O10 0.431389 0.950035 0.710252
O O11 0.720455 0.250000 0.035946
O O12 0.616831 0.985199 0.046436
O O13 0.123871 0.750000 0.416881
O O14 0.282209 0.981191 0.388011
O O15 0.000000 0.000000 0.500000
O O16 0.507912 0.250000 0.845037
O O17 0.549050 0.970986 0.785615
O O18 0.626746 0.750000 0.674561
#
# Coordination Sequence:
#
# PCOD8070366 Si02
#       7
#     4   4   4   4   4   4   4
#     4  10  19  31  47  65  91 130 167 197 234 281
#     4   8  17  32  47  68  97 124 152 191 239 284
#     4   9  18  31  45  66  96 126 160 202 238 267
#     4   9  18  30  44  65  93 125 164 207 243 273
#     4  10  19  33  55  80 102 121 147 186 232 285
#     4   9  16  28  46  66  92 125 160 199 240 282
#     4   9  17  31  50  72  98 124 153 193 238 278
#
# _framework density 17.852352
#
# number of rings (size 3 to 8) (size 9 to 14) (size 15 to 20)
#    0.000    2.857    0.000    3.429    0.000    4.000 
#    0.000    4.286    0.000    0.857    0.000    0.000 
#    0.000    0.000    0.000    0.000    0.000    0.000 
#
# Total GULP energy -346944.987794 kJ/mol
# GULP energy per Si atom -12390.892421 kJ/mol
# Density = 1.781172 g / cm^3
# Si number density = 17.852352 Si / 1000 Ang^3
#
#
#
# Elastic Constant Matrix: (Units=GPa)
#
#
# Indices 1 2 3 4 5 6 
#
# 1 127.9188 43.7813 54.9753 0.0000 -20.0261 0.0000
# 2 43.7813 52.6696 32.2748 0.0000 -12.4831 0.0000
# 3 54.9753 32.2748 67.6936 0.0000 -24.2332 0.0000
# 4 0.0000 0.0000 0.0000 23.2309 0.0000 -11.5320
# 5 -20.0261 -12.4831 -24.2332 0.0000 25.0615 0.0000
# 6 0.0000 0.0000 0.0000 -11.5320 0.0000 28.1046
#
#
#
# Elastic Compliance Matrix: (Units=1/GPa)
#
#
# Indices 1 2 3 4 5 6 
#
# 1 0.013335 -0.006286 -0.007859 0.000000 -0.000075 0.000000
# 2 -0.006286 0.029824 -0.008556 0.000000 0.001559 0.000000
# 3 -0.007859 -0.008556 0.032822 0.000000 0.021195 0.000000
# 4 0.000000 0.000000 0.000000 0.054057 0.000000 0.022181
# 5 -0.000075 0.001559 0.021195 0.000000 0.061113 0.000000
# 6 0.000000 0.000000 0.000000 0.022181 0.000000 0.044683
#
#
# Mechanical properties :
#
#
# Convention : Reuss Voigt Hill
#
# Bulk Modulus (GPa) = 32.70381 56.70500 44.70441
# Shear Modulus (GPa) = 17.15678 23.09611 20.12644
#
# Velocity S-wave (km/s) = 3.10342 3.60075 3.36130
# Velocity P-wave (km/s) = 5.58574 7.00853 6.33719
#
# Compressibility (1/GPa) = 0.03057747
#
# Stress axis : x y z
#
# Youngs Moduli (GPa) = 74.99117 33.52961 30.46736
#
# Poissons Ratio (x) = 0.21078 0.23945
# Poissons Ratio (y) = 0.47143 0.26069
# Poissons Ratio (z) = 0.58937 0.28689
#
# Static dielectric constant tensor:
#      x y z
#    x 3.603660 0.000000 -0.289750 
#    y 0.000000 3.220230 0.000000 
#    z -0.289750 0.000000 3.230360 
# 
# 
# High freq. dielectric constant tensor:
#      x y z
#    x 1.687850 0.000000 -0.028230 
#    y 0.000000 1.681230 0.000000 
#    z -0.028230 0.000000 1.659650 
# 
# From -- ./inp_files/37149.got.cif
#   From: 2010.06.25/outbox.cif.g09.slc.cpg/sg11_19_cif.got.tgz:37149.got - 2010.06.27 23:14:04.
