data_PCOD8070140
_publ_section_title
;
Structure prediction by ZEFSAII (Michael W. Deem and Ramdas Pophale) SiO2 
 PCOD8070140
Probable space group: P 21/M
;
_chemical_formula_sum "Si O2"
_cell_formula_units_Z 32
_cell_length_a 13.924921
_cell_length_b 28.158664
_cell_length_c 12.045506
_cell_angle_alpha 90.000000
_cell_angle_beta 20.244635
_cell_angle_gamma 90.000000
_cell_volume 1634.340679
_symmetry_space_group_name_H-M "P 21/M"
_symmetry_group_IT_number 11
_symmetry_cell_setting 'monoclinic'
loop_
_space_group_symop_operation_xyz
x,y,z
-x,1/2+y,-z
-x,-y,-z
x,1/2-y,z
loop_
_atom_site_type_symbol
_atom_site_label
_atom_site_fract_x
_atom_site_fract_y
_atom_site_fract_z
Si Si1 0.278385 0.095301 0.285345
Si Si2 0.775259 0.464578 0.791834
Si Si3 0.034091 0.126553 0.013329
Si Si4 0.805566 0.587350 0.375361
Si Si5 0.658480 0.853147 0.000551
Si Si6 0.513925 0.579316 0.341407
Si Si7 0.322486 0.524280 0.860392
Si Si8 0.884597 0.195183 0.355120
O O1 0.300445 0.109643 0.392464
O O2 0.957061 0.082351 0.616874
O O3 0.503274 0.052236 0.015677
O O4 0.334150 0.138577 0.140513
O O5 0.000000 0.500000 0.500000
O O6 0.654841 0.487151 0.033756
O O7 0.814862 0.084884 0.281802
O O8 0.937559 0.176438 0.171585
O O9 0.069180 0.128466 0.840799
O O10 0.329930 0.114853 0.745582
O O11 0.548589 0.564480 0.586182
O O12 0.019353 0.543687 0.159178
O O13 0.584081 0.903706 0.139489
O O14 0.436981 0.812312 0.267869
O O15 0.950026 0.834532 0.731397
O O16 0.606531 0.526001 0.272703
O O17 0.965012 0.250000 0.272294
#
# Coordination Sequence:
#
# PCOD8070140 Si02
#       8
#     4   4   4   4   4   4   4   4
#     4  10  20  33  50  73 103 138 172 208 253 300
#     4  10  19  30  46  69 102 143 183 216 242 282
#     4  10  21  35  52  74 101 134 171 212 257 308
#     4  10  21  34  48  72 104 144 181 205 243 296
#     4  10  20  35  56  81 105 131 165 212 268 315
#     4  10  20  32  49  74 103 137 178 219 254 286
#     4  10  20  31  46  71 104 143 182 216 245 281
#     4  10  21  38  60  82 101 124 160 212 271 325
#
# _framework density 19.57976
#
# number of rings (size 3 to 8) (size 9 to 14) (size 15 to 20)
#    0.000    2.000    0.000    3.750    0.000    7.000 
#    0.000    0.000    0.000    1.500    0.000    0.000 
#    0.000    0.000    0.000    0.000    0.000    0.000 
#
# Total GULP energy -396566.847890 kJ/mol
# GULP energy per Si atom -12392.713997 kJ/mol
# Density = 1.953520 g / cm^3
# Si number density = 19.579760 Si / 1000 Ang^3
#
#
#
# Elastic Constant Matrix: (Units=GPa)
#
#
# Indices 1 2 3 4 5 6 
#
# 1 63.3151 19.7847 30.0365 0.0000 13.3835 0.0000
# 2 19.7847 62.9618 23.2141 0.0000 22.0117 0.0000
# 3 30.0365 23.2141 70.3999 0.0000 0.4420 0.0000
# 4 0.0000 0.0000 0.0000 15.6169 0.0000 -3.3256
# 5 13.3835 22.0117 0.4420 0.0000 41.3837 0.0000
# 6 0.0000 0.0000 0.0000 -3.3256 0.0000 17.3456
#
#
#
# Elastic Compliance Matrix: (Units=1/GPa)
#
#
# Indices 1 2 3 4 5 6 
#
# 1 0.021692 -0.001442 -0.008741 0.000000 -0.006155 0.000000
# 2 -0.001442 0.022951 -0.006880 0.000000 -0.011668 0.000000
# 3 -0.008741 -0.006880 0.020163 0.000000 0.006271 0.000000
# 4 0.000000 0.000000 0.000000 0.066759 0.000000 0.012799
# 5 -0.006155 -0.011668 0.006271 0.000000 0.032294 0.000000
# 6 0.000000 0.000000 0.000000 0.012799 0.000000 0.060106
#
#
# Mechanical properties :
#
#
# Convention : Reuss Voigt Hill
#
# Bulk Modulus (GPa) = 32.59266 38.08305 35.33785
# Shear Modulus (GPa) = 18.63464 23.11200 20.87332
#
# Velocity S-wave (km/s) = 3.08836 3.43943 3.26861
# Velocity P-wave (km/s) = 5.42213 5.93846 5.68616
#
# Compressibility (1/GPa) = 0.03068176
#
# Stress axis : x y z
#
# Youngs Moduli (GPa) = 46.09916 43.57034 49.59525
#
# Poissons Ratio (x) = 0.06282 0.43352
# Poissons Ratio (y) = 0.06646 0.34120
# Poissons Ratio (z) = 0.40296 0.29975
#
# Static dielectric constant tensor:
#      x y z
#    x 3.744550 0.000000 -0.182200 
#    y 0.000000 3.025890 0.000000 
#    z -0.182200 0.000000 4.004160 
# 
# 
# High freq. dielectric constant tensor:
#      x y z
#    x 1.767570 0.000000 -0.010950 
#    y 0.000000 1.698470 0.000000 
#    z -0.010950 0.000000 1.783180 
# 
# From -- ./inp_files/40197.got.cif
#   From: 2010.06.25/outbox.cif.g09.slc.cpg/sg11_21_cif.got.tgz:40197.got - 2010.06.27 23:14:04.
