data_PCOD8070880
_publ_section_title
;
Structure prediction by ZEFSAII (Michael W. Deem and Ramdas Pophale) SiO2 
 PCOD8070880
Probable space group: P 21/M
;
_chemical_formula_sum "Si O2"
_cell_formula_units_Z 32
_cell_length_a 11.603182
_cell_length_b 8.638484
_cell_length_c 18.042880
_cell_angle_alpha 90.000000
_cell_angle_beta 92.735365
_cell_angle_gamma 90.000000
_cell_volume 1806.447669
_symmetry_space_group_name_H-M "P 21/M"
_symmetry_group_IT_number 11
_symmetry_cell_setting 'monoclinic'
loop_
_space_group_symop_operation_xyz
x,y,z
-x,1/2+y,-z
-x,-y,-z
x,1/2-y,z
loop_
_atom_site_type_symbol
_atom_site_label
_atom_site_fract_x
_atom_site_fract_y
_atom_site_fract_z
Si Si1 0.235052 0.930243 0.356853
Si Si2 0.373752 0.068071 0.489069
Si Si3 0.400047 0.929198 0.918657
Si Si4 0.008009 0.431472 0.581726
Si Si5 0.336757 0.430714 0.220961
Si Si6 0.599351 0.070488 0.242445
Si Si7 0.357202 0.925642 0.073392
Si Si8 0.243285 0.566122 0.622492
O O1 0.259840 0.750000 0.370958
O O2 0.105720 0.974313 0.375791
O O3 0.326296 0.030712 0.406196
O O4 0.251576 0.975086 0.271671
O O5 0.377532 0.250000 0.502470
O O6 0.500000 0.000000 0.500000
O O7 0.289143 0.989091 0.544931
O O8 0.444686 0.750000 0.921744
O O9 0.340804 0.959299 0.836412
O O10 0.506052 0.046930 0.927056
O O11 0.313954 0.958123 0.986585
O O12 0.026645 0.250000 0.574928
O O13 0.114291 0.504365 0.629995
O O14 0.000000 0.500000 0.500000
O O15 0.323681 0.250000 0.235909
O O16 0.467765 0.492263 0.238320
O O17 0.300083 0.465671 0.134335
O O18 0.592558 0.250000 0.260649
O O19 0.676698 0.994058 0.309500
O O20 0.331386 0.750000 0.095807
O O21 0.241297 0.750000 0.623913
#
# Coordination Sequence:
#
# PCOD8070880 Si02
#       8
#     4   4   4   4   4   4   4   4
#     4  11  23  38  55  75  99 129 171 216 259 306
#     4  12  24  37  54  75 104 137 171 207 253 308
#     4   8  14  26  43  65  97 136 173 205 245 297
#     4  11  23  39  58  76  98 129 169 217 264 311
#     4  10  19  32  50  73 105 139 169 205 254 310
#     4   8  16  30  48  72 102 135 167 203 247 300
#     4   9  15  24  42  68  99 134 170 207 246 295
#     4  11  21  35  55  77 102 132 172 216 259 305
#
# _framework density 17.714324999999999
#
# number of rings (size 3 to 8) (size 9 to 14) (size 15 to 20)
#    0.000    2.000    1.250    4.500    0.000    3.000 
#    0.000    5.625    0.000    0.000    0.000    0.875 
#    0.000    0.000    0.000    0.000    0.000    0.000 
#
# Total GULP energy -396640.513977 kJ/mol
# GULP energy per Si atom -12395.016062 kJ/mol
# Density = 1.767401 g / cm^3
# Si number density = 17.714325 Si / 1000 Ang^3
#
#
#
# Elastic Constant Matrix: (Units=GPa)
#
#
# Indices 1 2 3 4 5 6 
#
# 1 75.4642 32.3100 34.2159 0.0000 -15.7517 0.0000
# 2 32.3100 64.1080 22.6772 0.0000 -6.6650 0.0000
# 3 34.2159 22.6772 118.0285 0.0000 -22.7782 0.0000
# 4 0.0000 0.0000 0.0000 25.4270 0.0000 -2.5310
# 5 -15.7517 -6.6650 -22.7782 0.0000 15.9504 0.0000
# 6 0.0000 0.0000 0.0000 -2.5310 0.0000 23.6719
#
#
#
# Elastic Compliance Matrix: (Units=1/GPa)
#
#
# Indices 1 2 3 4 5 6 
#
# 1 0.020555 -0.008293 -0.001542 0.000000 0.014632 0.000000
# 2 -0.008293 0.020210 -0.001974 0.000000 -0.002563 0.000000
# 3 -0.001542 -0.001974 0.012211 0.000000 0.015091 0.000000
# 4 0.000000 0.000000 0.000000 0.039751 0.000000 0.004250
# 5 0.014632 -0.002563 0.015091 0.000000 0.097624 0.000000
# 6 0.000000 0.000000 0.000000 0.004250 0.000000 0.042699
#
#
# Mechanical properties :
#
#
# Convention : Reuss Voigt Hill
#
# Bulk Modulus (GPa) = 34.06036 48.44520 41.25278
# Shear Modulus (GPa) = 18.76498 24.23635 21.50067
#
# Velocity S-wave (km/s) = 3.25824 3.70290 3.48766
# Velocity P-wave (km/s) = 5.78136 6.75939 6.28942
#
# Compressibility (1/GPa) = 0.02935964
#
# Stress axis : x y z
#
# Youngs Moduli (GPa) = 48.64943 49.48044 81.89326
#
# Poissons Ratio (x) = 0.41035 0.12625
# Poissons Ratio (y) = 0.40346 0.16162
# Poissons Ratio (z) = 0.07500 0.09765
#
# Static dielectric constant tensor:
#      x y z
#    x 2.894340 0.000000 0.006560 
#    y 0.000000 3.254150 0.000000 
#    z 0.006560 0.000000 3.744610 
# 
# 
# High freq. dielectric constant tensor:
#      x y z
#    x 1.636250 0.000000 -0.010450 
#    y 0.000000 1.687450 0.000000 
#    z -0.010450 0.000000 1.701570 
# 
# From -- ./inp_files/58727.got.cif
#   From: 2010.06.25/outbox.cif.g09.slc.cpg/sg11_30_cif.got.tgz:58727.got - 2010.06.27 23:14:04.
