data_PCOD8070923
_publ_section_title
;
Structure prediction by ZEFSAII (Michael W. Deem and Ramdas Pophale) SiO2 
 PCOD8070923
Probable space group: P 21/M
;
_chemical_formula_sum "Si O2"
_cell_formula_units_Z 24
_cell_length_a 15.070851
_cell_length_b 8.866223
_cell_length_c 16.693532
_cell_angle_alpha 90.000000
_cell_angle_beta 36.996674
_cell_angle_gamma 90.000000
_cell_volume 1342.314333
_symmetry_space_group_name_H-M "P 21/M"
_symmetry_group_IT_number 11
_symmetry_cell_setting 'monoclinic'
loop_
_space_group_symop_operation_xyz
x,y,z
-x,1/2+y,-z
-x,-y,-z
x,1/2-y,z
loop_
_atom_site_type_symbol
_atom_site_label
_atom_site_fract_x
_atom_site_fract_y
_atom_site_fract_z
Si Si1 0.930113 0.573909 0.128211
Si Si2 0.595035 0.916744 0.821230
Si Si3 0.152358 0.071353 0.076522
Si Si4 0.585291 0.573792 0.365895
Si Si5 0.278782 0.582812 0.131802
Si Si6 0.427684 0.929438 0.790952
O O1 0.968204 0.750000 0.101033
O O2 0.757177 0.543523 0.254203
O O3 0.996864 0.495222 0.159117
O O4 0.000000 0.500000 0.000000
O O5 0.664336 0.750000 0.769953
O O6 0.561661 0.973029 0.754909
O O7 0.710978 0.022657 0.784190
O O8 0.440368 0.913616 0.978399
O O9 0.153022 0.250000 0.069231
O O10 0.175573 0.023491 0.152080
O O11 0.277201 0.006587 0.927949
O O12 0.500000 0.500000 0.500000
O O13 0.548769 0.750000 0.386523
O O14 0.527816 0.491910 0.327359
O O15 0.209978 0.750000 0.183421
O O16 0.403112 0.750000 0.807730
#
# Coordination Sequence:
#
# PCOD8070923 Si02
#       6
#     4   4   4   4   4   4
#     4  11  22  36  55  79 105 138 178 219 264 316
#     4   8  15  26  41  65  96 132 168 207 257 309
#     4  11  20  30  48  74 104 138 174 215 262 313
#     4  11  24  39  56  78 106 140 179 220 266 315
#     4   9  16  26  41  65  98 134 168 210 258 307
#     4  10  19  32  51  73 102 137 175 218 262 311
#
# _framework density 17.879567999999999
#
# number of rings (size 3 to 8) (size 9 to 14) (size 15 to 20)
#    0.000    2.000    1.667    4.500    0.000    6.667 
#    0.000    0.000    0.000    0.000    0.000    1.167 
#    0.000    0.000    0.000    0.000    0.000    0.000 
#
# Total GULP energy -297575.450393 kJ/mol
# GULP energy per Si atom -12398.977100 kJ/mol
# Density = 1.783887 g / cm^3
# Si number density = 17.879568 Si / 1000 Ang^3
#
#
#
# Elastic Constant Matrix: (Units=GPa)
#
#
# Indices 1 2 3 4 5 6 
#
# 1 149.0026 76.4890 48.9644 0.0000 32.1033 0.0000
# 2 76.4890 142.3314 47.4717 0.0000 12.7984 0.0000
# 3 48.9644 47.4717 60.7752 0.0000 13.9341 0.0000
# 4 0.0000 0.0000 0.0000 20.6371 0.0000 5.2165
# 5 32.1033 12.7984 13.9341 0.0000 21.8406 0.0000
# 6 0.0000 0.0000 0.0000 5.2165 0.0000 37.3322
#
#
#
# Elastic Compliance Matrix: (Units=1/GPa)
#
#
# Indices 1 2 3 4 5 6 
#
# 1 0.013555 -0.004658 -0.003912 0.000000 -0.014699 0.000000
# 2 -0.004658 0.011119 -0.005867 0.000000 0.004074 0.000000
# 3 -0.003912 -0.005867 0.025865 0.000000 -0.007313 0.000000
# 4 0.000000 0.000000 0.000000 0.050231 0.000000 -0.007019
# 5 -0.014699 0.004074 -0.007313 0.000000 0.069670 0.000000
# 6 0.000000 0.000000 0.000000 -0.007019 0.000000 0.027767
#
#
# Mechanical properties :
#
#
# Convention : Reuss Voigt Hill
#
# Bulk Modulus (GPa) = 46.15573 77.55105 61.85339
# Shear Modulus (GPa) = 21.33981 27.90759 24.62370
#
# Velocity S-wave (km/s) = 3.45850 3.95506 3.71509
# Velocity P-wave (km/s) = 6.46677 8.02029 7.28506
#
# Compressibility (1/GPa) = 0.02166578
#
# Stress axis : x y z
#
# Youngs Moduli (GPa) = 73.77393 89.93289 38.66159
#
# Poissons Ratio (x) = 0.41889 0.15126
# Poissons Ratio (y) = 0.34362 0.22682
# Poissons Ratio (z) = 0.28864 0.52761
#
# Static dielectric constant tensor:
#      x y z
#    x 4.274700 0.000000 -0.359620 
#    y 0.000000 3.521300 0.000000 
#    z -0.359620 0.000000 3.424710 
# 
# 
# High freq. dielectric constant tensor:
#      x y z
#    x 1.711200 0.000000 0.022360 
#    y 0.000000 1.709350 0.000000 
#    z 0.022360 0.000000 1.624960 
# 
# From -- ./inp_files/51488.got.cif
#   From: 2010.06.25/outbox.cif.g09.slc.cpg/sg11_26_cif.got.tgz:51488.got - 2010.06.27 23:14:04.
