data_PCOD8070397
_publ_section_title
;
Structure prediction by ZEFSAII (Michael W. Deem and Ramdas Pophale) SiO2 
 PCOD8070397
Probable space group: P 21/M
;
_chemical_formula_sum "Si O2"
_cell_formula_units_Z 32
_cell_length_a 22.728689
_cell_length_b 9.248673
_cell_length_c 14.351020
_cell_angle_alpha 90.000000
_cell_angle_beta 143.634366
_cell_angle_gamma 90.000000
_cell_volume 1788.728403
_symmetry_space_group_name_H-M "P 21/M"
_symmetry_group_IT_number 11
_symmetry_cell_setting 'monoclinic'
loop_
_space_group_symop_operation_xyz
x,y,z
-x,1/2+y,-z
-x,-y,-z
x,1/2-y,z
loop_
_atom_site_type_symbol
_atom_site_label
_atom_site_fract_x
_atom_site_fract_y
_atom_site_fract_z
Si Si1 0.879224 0.918989 0.263769
Si Si2 0.716005 0.584167 0.911726
Si Si3 0.500749 0.082321 0.402945
Si Si4 0.811044 0.577536 0.539020
Si Si5 0.207700 0.590057 0.154088
Si Si6 0.103887 0.918826 0.523657
Si Si7 0.307628 0.918029 0.466750
Si Si8 0.988007 0.911467 0.892600
O O1 0.864531 0.750000 0.271310
O O2 0.986717 0.941740 0.352229
O O3 0.871133 0.017373 0.343978
O O4 0.791160 0.979380 0.084802
O O5 0.743752 0.750000 0.937290
O O6 0.599967 0.557842 0.786081
O O7 0.729823 0.518050 0.827711
O O8 0.514324 0.250000 0.445400
O O9 0.589322 0.030042 0.448464
O O10 0.500000 0.000000 0.500000
O O11 0.801697 0.750000 0.515972
O O12 0.824956 0.504194 0.456657
O O13 0.714775 0.513995 0.469951
O O14 0.907177 0.525486 0.719422
O O15 0.252441 0.750000 0.195385
O O16 0.220532 0.551489 0.279910
O O17 0.093935 0.584830 0.976485
O O18 0.131513 0.750000 0.556398
O O19 0.311503 0.750000 0.501372
O O20 0.957020 0.750000 0.881926
O O21 0.000000 0.000000 0.000000
#
# Coordination Sequence:
#
# PCOD8070397 Si02
#       8
#     4   4   4   4   4   4   4   4
#     4   9  19  36  56  81 109 136 170 214 261 310
#     4  10  20  33  53  78 104 135 171 215 263 308
#     4  10  20  34  52  75 104 139 178 218 262 307
#     4  11  22  34  51  75 103 139 178 217 259 307
#     4  10  19  31  47  70 102 138 172 209 253 302
#     4  10  20  35  57  81 107 139 171 209 260 317
#     4  10  20  34  50  70 102 141 177 214 256 304
#     4  10  20  31  44  66  98 135 171 205 245 295
#
# _framework density 17.889803000000001
#
# number of rings (size 3 to 8) (size 9 to 14) (size 15 to 20)
#    0.000    2.000    2.500    1.500    0.000    3.000 
#    0.000    0.000    0.000    0.750    0.000    0.000 
#    0.000    0.000    0.000    0.000    0.000    0.000 
#
# Total GULP energy -396693.196115 kJ/mol
# GULP energy per Si atom -12396.662379 kJ/mol
# Density = 1.784909 g / cm^3
# Si number density = 17.889803 Si / 1000 Ang^3
#
#
#
# Elastic Constant Matrix: (Units=GPa)
#
#
# Indices 1 2 3 4 5 6 
#
# 1 125.5992 56.5346 33.9769 0.0000 3.9685 0.0000
# 2 56.5346 71.4120 26.1128 0.0000 -2.9932 0.0000
# 3 33.9769 26.1128 70.9385 0.0000 5.6537 0.0000
# 4 0.0000 0.0000 0.0000 19.9815 0.0000 -3.0938
# 5 3.9685 -2.9932 5.6537 0.0000 20.9222 0.0000
# 6 0.0000 0.0000 0.0000 -3.0938 0.0000 34.4236
#
#
#
# Elastic Compliance Matrix: (Units=1/GPa)
#
#
# Indices 1 2 3 4 5 6 
#
# 1 0.013025 -0.009540 -0.002475 0.000000 -0.003167 0.000000
# 2 -0.009540 0.023504 -0.004594 0.000000 0.006413 0.000000
# 3 -0.002475 -0.004594 0.017362 0.000000 -0.004879 0.000000
# 4 0.000000 0.000000 0.000000 0.050752 0.000000 0.004561
# 5 -0.003167 0.006413 -0.004879 0.000000 0.050633 0.000000
# 6 0.000000 0.000000 0.000000 0.004561 0.000000 0.029460
#
#
# Mechanical properties :
#
#
# Convention : Reuss Voigt Hill
#
# Bulk Modulus (GPa) = 48.36798 55.68870 52.02834
# Shear Modulus (GPa) = 22.23758 25.15382 23.69570
#
# Velocity S-wave (km/s) = 3.52949 3.75379 3.64337
# Velocity P-wave (km/s) = 6.61098 7.06995 6.84431
#
# Compressibility (1/GPa) = 0.02067484
#
# Stress axis : x y z
#
# Youngs Moduli (GPa) = 76.77386 42.54581 57.59713
#
# Poissons Ratio (x) = 0.40587 0.14254
# Poissons Ratio (y) = 0.73239 0.26460
# Poissons Ratio (z) = 0.18999 0.19546
#
# Static dielectric constant tensor:
#      x y z
#    x 3.219680 0.000000 0.207960 
#    y 0.000000 3.297700 0.000000 
#    z 0.207960 0.000000 3.458810 
# 
# 
# High freq. dielectric constant tensor:
#      x y z
#    x 1.682690 0.000000 0.009740 
#    y 0.000000 1.693340 0.000000 
#    z 0.009740 0.000000 1.676870 
# 
# From -- ./inp_files/54347.got.cif
#   From: 2010.06.25/outbox.cif.g09.slc.cpg/sg11_28_cif.got.tgz:54347.got - 2010.06.27 23:14:04.
