data_PCOD8070947
_publ_section_title
;
Structure prediction by ZEFSAII (Michael W. Deem and Ramdas Pophale) SiO2 
 PCOD8070947
Probable space group: P 21/M
;
_chemical_formula_sum "Si O2"
_cell_formula_units_Z 20
_cell_length_a 28.230759
_cell_length_b 8.843148
_cell_length_c 16.511496
_cell_angle_alpha 90.000000
_cell_angle_beta 16.912756
_cell_angle_gamma 90.000000
_cell_volume 1199.174248
_symmetry_space_group_name_H-M "P 21/M"
_symmetry_group_IT_number 11
_symmetry_cell_setting 'monoclinic'
loop_
_space_group_symop_operation_xyz
x,y,z
-x,1/2+y,-z
-x,-y,-z
x,1/2-y,z
loop_
_atom_site_type_symbol
_atom_site_label
_atom_site_fract_x
_atom_site_fract_y
_atom_site_fract_z
Si Si1 0.709808 0.928755 0.876907
Si Si2 0.726650 0.424897 0.181128
Si Si3 0.946687 0.078947 0.381046
Si Si4 0.423783 0.575279 0.746788
Si Si5 0.597696 0.420820 0.910742
O O1 0.719162 0.750000 0.857026
O O2 0.573637 0.990331 0.035568
O O3 0.886507 0.998675 0.563144
O O4 0.666105 0.979656 0.038043
O O5 0.718818 0.250000 0.218070
O O6 0.607224 0.515881 0.435722
O O7 0.677848 0.452123 0.168231
O O8 0.907883 0.486989 0.898189
O O9 0.003101 0.250000 0.308294
O O10 0.792008 0.078218 0.572285
O O11 0.429554 0.750000 0.762462
O O12 0.533338 0.250000 0.026373
O O13 0.500000 0.500000 0.000000
#
# Coordination Sequence:
#
# PCOD8070947 Si02
#       5
#     4   4   4   4   4
#     4  10  19  32  51  75 100 130 168 208 246 292
#     4  10  20  33  51  73  99 135 172 204 245 295
#     4   9  19  33  50  74 101 130 165 206 249 293
#     4  10  20  34  50  71 102 136 169 205 246 295
#     4   9  18  32  52  76 100 128 162 202 252 299
#
# _framework density 16.678142999999999
#
# number of rings (size 3 to 8) (size 9 to 14) (size 15 to 20)
#    1.200    1.200    0.000    3.600    0.000    3.200 
#    0.000    0.000    0.000    1.200    0.000    0.000 
#    0.000    0.000    0.000    0.000    0.000    0.000 
#
# Total GULP energy -247881.588930 kJ/mol
# GULP energy per Si atom -12394.079447 kJ/mol
# Density = 1.664018 g / cm^3
# Si number density = 16.678143 Si / 1000 Ang^3
#
#
#
# Elastic Constant Matrix: (Units=GPa)
#
#
# Indices 1 2 3 4 5 6 
#
# 1 16.2989 18.4240 3.6638 0.0000 -8.8161 0.0000
# 2 18.4240 112.9503 19.3938 0.0000 -5.2589 0.0000
# 3 3.6638 19.3938 70.2079 0.0000 -8.8779 0.0000
# 4 0.0000 0.0000 0.0000 30.0283 0.0000 2.1248
# 5 -8.8161 -5.2589 -8.8779 0.0000 14.3153 0.0000
# 6 0.0000 0.0000 0.0000 2.1248 0.0000 29.4351
#
#
#
# Elastic Compliance Matrix: (Units=1/GPa)
#
#
# Indices 1 2 3 4 5 6 
#
# 1 0.117170 -0.017122 0.007535 0.000000 0.070542 0.000000
# 2 -0.017122 0.011848 -0.003431 0.000000 -0.008320 0.000000
# 3 0.007535 -0.003431 0.016521 0.000000 0.013626 0.000000
# 4 0.000000 0.000000 0.000000 0.033473 0.000000 -0.002416
# 5 0.070542 -0.008320 0.013626 0.000000 0.118693 0.000000
# 6 0.000000 0.000000 0.000000 -0.002416 0.000000 0.034147
#
#
# Mechanical properties :
#
#
# Convention : Reuss Voigt Hill
#
# Bulk Modulus (GPa) = 8.36796 31.38005 19.87400
# Shear Modulus (GPa) = 12.57158 25.28745 18.92951
#
# Velocity S-wave (km/s) = 2.74848 3.89807 3.37261
# Velocity P-wave (km/s) = 3.88592 6.25427 5.20654
#
# Compressibility (1/GPa) = 0.11950351
#
# Stress axis : x y z
#
# Youngs Moduli (GPa) = 8.53460 84.40181 60.52875
#
# Poissons Ratio (x) = 1.44511 -0.45610
# Poissons Ratio (y) = 0.14613 0.20770
# Poissons Ratio (z) = -0.06431 0.28962
#
# Static dielectric constant tensor:
#      x y z
#    x 2.811030 0.000000 -0.038100 
#    y 0.000000 3.299910 0.000000 
#    z -0.038100 0.000000 3.001100 
# 
# 
# High freq. dielectric constant tensor:
#      x y z
#    x 1.608200 0.000000 -0.003020 
#    y 0.000000 1.667100 0.000000 
#    z -0.003020 0.000000 1.630550 
# 
# From -- ./inp_files/20178.got.cif
#   From: 2010.06.25/outbox.cif.g09.slc.cpg/sg11_11_cif.got.tgz:20178.got - 2010.06.27 23:14:04.
