data_PCOD8070165
_publ_section_title
;
Structure prediction by ZEFSAII (Michael W. Deem and Ramdas Pophale) SiO2 
 PCOD8070165
Probable space group: P 21/M
;
_chemical_formula_sum "Si O2"
_cell_formula_units_Z 24
_cell_length_a 16.456491
_cell_length_b 9.227036
_cell_length_c 15.831854
_cell_angle_alpha 90.000000
_cell_angle_beta 144.881598
_cell_angle_gamma 90.000000
_cell_volume 1382.933950
_symmetry_space_group_name_H-M "P 21/M"
_symmetry_group_IT_number 11
_symmetry_cell_setting 'monoclinic'
loop_
_space_group_symop_operation_xyz
x,y,z
-x,1/2+y,-z
-x,-y,-z
x,1/2-y,z
loop_
_atom_site_type_symbol
_atom_site_label
_atom_site_fract_x
_atom_site_fract_y
_atom_site_fract_z
Si Si1 0.044784 0.917201 0.455416
Si Si2 0.832247 0.582259 0.682933
Si Si3 0.317273 0.918670 0.589776
Si Si4 0.911387 0.921834 0.167408
Si Si5 0.375258 0.417382 0.348472
Si Si6 0.630498 0.920047 0.845294
O O1 0.020662 0.750000 0.453878
O O2 0.947842 0.967656 0.294284
O O3 0.209110 0.951063 0.574222
O O4 0.000000 0.000000 0.500000
O O5 0.854627 0.750000 0.678408
O O6 0.719823 0.514121 0.522716
O O7 0.770949 0.563755 0.724987
O O8 0.980548 0.498706 0.804755
O O9 0.305901 0.750000 0.553463
O O10 0.476849 0.959220 0.753738
O O11 0.929440 0.750000 0.171687
O O12 0.754425 0.980073 0.011484
O O13 0.500000 0.500000 0.500000
O O14 0.420822 0.250000 0.382403
O O15 0.353979 0.482663 0.236402
O O16 0.651674 0.750000 0.858475
#
# Coordination Sequence:
#
# PCOD8070165 Si02
#       6
#     4   4   4   4   4   4
#     4   9  18  32  52  75  95 122 161 200 243 296
#     4  10  19  30  46  73 104 132 165 205 245 283
#     4   9  17  32  54  74  94 129 170 199 237 294
#     4   9  19  35  53  72  96 131 169 200 241 296
#     4  10  19  30  48  73 100 132 170 206 240 279
#     4   9  17  32  53  73  97 130 169 208 238 279
#
# _framework density 17.354409
#
# number of rings (size 3 to 8) (size 9 to 14) (size 15 to 20)
#    0.000    2.667    1.667    1.500    0.000    4.000 
#    0.000    2.500    0.000    0.000    0.000    0.000 
#    0.000    0.000    0.000    0.000    0.000    0.000 
#
# Total GULP energy -297509.511307 kJ/mol
# GULP energy per Si atom -12396.229638 kJ/mol
# Density = 1.731491 g / cm^3
# Si number density = 17.354409 Si / 1000 Ang^3
#
#
#
# Elastic Constant Matrix: (Units=GPa)
#
#
# Indices 1 2 3 4 5 6 
#
# 1 133.3597 37.7862 76.5779 0.0000 3.1044 0.0000
# 2 37.7862 44.3151 31.3599 0.0000 1.5676 0.0000
# 3 76.5779 31.3599 148.6114 0.0000 19.9956 0.0000
# 4 0.0000 0.0000 0.0000 18.1923 0.0000 0.2227
# 5 3.1044 1.5676 19.9956 0.0000 24.9370 0.0000
# 6 0.0000 0.0000 0.0000 0.2227 0.0000 28.4302
#
#
#
# Elastic Compliance Matrix: (Units=1/GPa)
#
#
# Indices 1 2 3 4 5 6 
#
# 1 0.012495 -0.006942 -0.005406 0.000000 0.003216 0.000000
# 2 -0.006942 0.030608 -0.003070 0.000000 0.001402 0.000000
# 3 -0.005406 -0.003070 0.011261 0.000000 -0.008164 0.000000
# 4 0.000000 0.000000 0.000000 0.054974 0.000000 -0.000431
# 5 0.003216 0.001402 -0.008164 0.000000 0.046159 0.000000
# 6 0.000000 0.000000 0.000000 -0.000431 0.000000 0.035177
#
#
# Mechanical properties :
#
#
# Convention : Reuss Voigt Hill
#
# Bulk Modulus (GPa) = 42.50497 68.63714 55.57105
# Shear Modulus (GPa) = 21.80039 26.34938 24.07488
#
# Velocity S-wave (km/s) = 3.54812 3.90078 3.72862
# Velocity P-wave (km/s) = 6.42892 7.74107 7.11531
#
# Compressibility (1/GPa) = 0.02352666
#
# Stress axis : x y z
#
# Youngs Moduli (GPa) = 80.03157 32.67101 88.80109
#
# Poissons Ratio (x) = 0.22681 0.48009
# Poissons Ratio (y) = 0.55559 0.27266
# Poissons Ratio (z) = 0.43268 0.10031
#
# Static dielectric constant tensor:
#      x y z
#    x 3.265370 0.000000 0.170410 
#    y 0.000000 3.089970 0.000000 
#    z 0.170410 0.000000 3.494300 
# 
# 
# High freq. dielectric constant tensor:
#      x y z
#    x 1.668340 0.000000 0.014370 
#    y 0.000000 1.652650 0.000000 
#    z 0.014370 0.000000 1.661330 
# 
# From -- ./inp_files/23715.got.cif
#   From: 2010.06.25/outbox.cif.g09.slc.cpg/sg11_12_cif.got.tgz:23715.got - 2010.06.27 23:14:04.
