data_PCOD8070938
_publ_section_title
;
Structure prediction by ZEFSAII (Michael W. Deem and Ramdas Pophale) SiO2 
 PCOD8070938
Probable space group: P 21/M
;
_chemical_formula_sum "Si O2"
_cell_formula_units_Z 24
_cell_length_a 14.307046
_cell_length_b 13.324925
_cell_length_c 19.283725
_cell_angle_alpha 90.000000
_cell_angle_beta 19.562957
_cell_angle_gamma 90.000000
_cell_volume 1230.966325
_symmetry_space_group_name_H-M "P 21/M"
_symmetry_group_IT_number 11
_symmetry_cell_setting 'monoclinic'
loop_
_space_group_symop_operation_xyz
x,y,z
-x,1/2+y,-z
-x,-y,-z
x,1/2-y,z
loop_
_atom_site_type_symbol
_atom_site_label
_atom_site_fract_x
_atom_site_fract_y
_atom_site_fract_z
Si Si1 0.381615 0.357950 0.641438
Si Si2 0.358062 0.062686 0.507171
Si Si3 0.623136 0.635291 0.869444
Si Si4 0.069748 0.556480 0.311797
Si Si5 0.161143 0.907960 0.919810
Si Si6 0.422116 0.367085 0.258790
O O1 0.540163 0.250000 0.528396
O O2 0.572430 0.443251 0.542345
O O3 0.290698 0.395218 0.629178
O O4 0.091035 0.334008 0.884758
O O5 0.617649 0.127242 0.293691
O O6 0.085818 0.076467 0.651579
O O7 0.726223 0.750000 0.804939
O O8 0.875263 0.562137 0.715245
O O9 0.535284 0.610984 0.851886
O O10 0.361254 0.616235 0.103396
O O11 0.889668 0.598854 0.501625
O O12 0.348110 0.930622 0.858092
O O13 0.000000 0.000000 0.000000
O O14 0.464058 0.250000 0.247388
#
# Coordination Sequence:
#
# PCOD8070938 Si02
#       6
#     4   4   4   4   4   4
#     4  10  19  32  51  74 102 134 167 203 244 291
#     4   9  20  34  49  74 103 132 166 204 246 294
#     4  10  21  35  53  76  99 129 169 209 251 299
#     4  10  20  35  53  73 102 133 164 208 254 295
#     4   9  18  32  49  72 102 131 161 200 244 290
#     4  10  19  32  53  78 102 131 168 206 246 295
#
# _framework density 19.496877000000001
#
# number of rings (size 3 to 8) (size 9 to 14) (size 15 to 20)
#    0.000    2.333    0.000    2.500    0.000    6.000 
#    0.000    0.000    0.000    0.000    0.000   14.000 
#    0.000    0.000    0.000    0.000    0.000    0.000 
#
# Total GULP energy -297362.703874 kJ/mol
# GULP energy per Si atom -12390.112661 kJ/mol
# Density = 1.945250 g / cm^3
# Si number density = 19.496877 Si / 1000 Ang^3
#
#
#
# Elastic Constant Matrix: (Units=GPa)
#
#
# Indices 1 2 3 4 5 6 
#
# 1 42.1552 14.8590 12.8837 0.0000 4.7260 0.0000
# 2 14.8590 83.9877 27.5803 0.0000 8.4887 0.0000
# 3 12.8837 27.5803 74.7195 0.0000 4.9343 0.0000
# 4 0.0000 0.0000 0.0000 17.2299 0.0000 1.3762
# 5 4.7260 8.4887 4.9343 0.0000 21.9240 0.0000
# 6 0.0000 0.0000 0.0000 1.3762 0.0000 16.3189
#
#
#
# Elastic Compliance Matrix: (Units=1/GPa)
#
#
# Indices 1 2 3 4 5 6 
#
# 1 0.026224 -0.003256 -0.003076 0.000000 -0.003700 0.000000
# 2 -0.003256 0.014342 -0.004479 0.000000 -0.003843 0.000000
# 3 -0.003076 -0.004479 0.015641 0.000000 -0.001123 0.000000
# 4 0.000000 0.000000 0.000000 0.058432 0.000000 -0.004927
# 5 -0.003700 -0.003843 -0.001123 0.000000 0.048150 0.000000
# 6 0.000000 0.000000 0.000000 -0.004927 0.000000 0.061694
#
#
# Mechanical properties :
#
#
# Convention : Reuss Voigt Hill
#
# Bulk Modulus (GPa) = 28.91252 34.61204 31.76228
# Shear Modulus (GPa) = 19.40750 20.79721 20.10236
#
# Velocity S-wave (km/s) = 3.15844 3.26957 3.21449
# Velocity P-wave (km/s) = 5.30684 5.66080 5.48667
#
# Compressibility (1/GPa) = 0.03458709
#
# Stress axis : x y z
#
# Youngs Moduli (GPa) = 38.13262 69.72718 63.93442
#
# Poissons Ratio (x) = 0.22700 0.19665
# Poissons Ratio (y) = 0.12414 0.28634
# Poissons Ratio (z) = 0.11729 0.31228
#
# Static dielectric constant tensor:
#      x y z
#    x 3.465920 0.000000 0.237990 
#    y 0.000000 4.046830 0.000000 
#    z 0.237990 0.000000 3.888360 
# 
# 
# High freq. dielectric constant tensor:
#      x y z
#    x 1.749100 0.000000 0.015790 
#    y 0.000000 1.748630 0.000000 
#    z 0.015790 0.000000 1.766930 
# 
# From -- ./inp_files/39717.got.cif
#   From: 2010.06.25/outbox.cif.g09.slc.cpg/sg11_20_cif.got.tgz:39717.got - 2010.06.27 23:14:04.
