data_PCOD8070437
_publ_section_title
;
Structure prediction by ZEFSAII (Michael W. Deem and Ramdas Pophale) SiO2 
 PCOD8070437
Probable space group: P 21/M
;
_chemical_formula_sum "Si O2"
_cell_formula_units_Z 32
_cell_length_a 25.776558
_cell_length_b 9.211180
_cell_length_c 14.575587
_cell_angle_alpha 90.000000
_cell_angle_beta 148.013009
_cell_angle_gamma 90.000000
_cell_volume 1833.234882
_symmetry_space_group_name_H-M "P 21/M"
_symmetry_group_IT_number 11
_symmetry_cell_setting 'monoclinic'
loop_
_space_group_symop_operation_xyz
x,y,z
-x,1/2+y,-z
-x,-y,-z
x,1/2-y,z
loop_
_atom_site_type_symbol
_atom_site_label
_atom_site_fract_x
_atom_site_fract_y
_atom_site_fract_z
Si Si1 0.888776 0.581129 0.924184
Si Si2 0.888737 0.418886 0.742098
Si Si3 0.663619 0.920916 0.088112
Si Si4 0.275649 0.579992 0.646416
Si Si5 0.336408 0.579082 0.097298
Si Si6 0.438463 0.581858 0.747975
Si Si7 0.275661 0.419999 0.180551
Si Si8 0.561564 0.918150 0.432593
O O1 0.878380 0.750000 0.886996
O O2 0.852507 0.499963 0.778792
O O3 0.821016 0.537182 0.907785
O O4 0.000019 0.537639 0.116165
O O5 0.878284 0.250000 0.747932
O O6 0.820964 0.462959 0.555235
O O7 0.682512 0.750000 0.107030
O O8 0.727824 0.985800 0.266660
O O9 0.550300 0.957663 0.938873
O O10 0.697682 0.999987 0.046512
O O11 0.277525 0.750000 0.674309
O O12 0.371891 0.534881 0.733527
O O13 0.317544 0.750000 0.059556
O O14 0.272205 0.514239 0.083253
O O15 0.449728 0.542322 0.288002
O O16 0.425052 0.750000 0.705983
O O17 0.401523 0.499985 0.602314
O O18 0.277639 0.250000 0.158409
O O19 0.371843 0.465174 0.382136
O O20 0.574985 0.750000 0.430881
#
# Coordination Sequence:
#
# PCOD8070437 Si02
#       8
#     4   4   4   4   4   4   4   4
#     4   9  18  32  50  73 100 127 154 188 231 277
#     4   9  18  32  50  73 100 127 154 188 231 277
#     4  10  20  33  48  67  93 125 160 196 234 275
#     4  10  19  31  48  70  96 125 158 194 232 275
#     4  10  20  33  48  67  93 125 160 196 234 275
#     4   9  18  30  45  68  97 127 157 191 230 274
#     4  10  19  31  48  70  96 125 158 194 232 275
#     4   9  18  30  45  68  97 127 157 191 230 274
#
# _framework density 17.455483000000001
#
# number of rings (size 3 to 8) (size 9 to 14) (size 15 to 20)
#    0.000    2.500    0.000    2.250    0.000    3.000 
#    0.000    0.000    0.000    0.750    0.000    0.000 
#    0.000    0.000    0.000    0.000    0.000    0.000 
#
# Total GULP energy -396889.045527 kJ/mol
# GULP energy per Si atom -12402.782673 kJ/mol
# Density = 1.741575 g / cm^3
# Si number density = 17.455483 Si / 1000 Ang^3
#
#
#
# Elastic Constant Matrix: (Units=GPa)
#
#
# Indices 1 2 3 4 5 6 
#
# 1 127.7557 61.0314 65.6963 0.0000 -20.8204 0.0000
# 2 61.0314 68.6636 45.8216 0.0000 -15.4666 0.0000
# 3 65.6963 45.8216 90.3650 0.0000 -17.3190 0.0000
# 4 0.0000 0.0000 0.0000 24.1582 0.0000 -9.2488
# 5 -20.8204 -15.4666 -17.3190 0.0000 24.3913 0.0000
# 6 0.0000 0.0000 0.0000 -9.2488 0.0000 33.3082
#
#
#
# Elastic Compliance Matrix: (Units=1/GPa)
#
#
# Indices 1 2 3 4 5 6 
#
# 1 0.016071 -0.009317 -0.006323 0.000000 0.003321 0.000000
# 2 -0.009317 0.028492 -0.006639 0.000000 0.005400 0.000000
# 3 -0.006323 -0.006639 0.019896 0.000000 0.004520 0.000000
# 4 0.000000 0.000000 0.000000 0.046318 0.000000 0.012861
# 5 0.003321 0.005400 0.004520 0.000000 0.050466 0.000000
# 6 0.000000 0.000000 0.000000 0.012861 0.000000 0.033594
#
#
# Mechanical properties :
#
#
# Convention : Reuss Voigt Hill
#
# Bulk Modulus (GPa) = 50.24941 70.20922 60.22932
# Shear Modulus (GPa) = 20.32289 23.98720 22.15505
#
# Velocity S-wave (km/s) = 3.41584 3.71103 3.56649
# Velocity P-wave (km/s) = 6.66386 7.65973 7.17908
#
# Compressibility (1/GPa) = 0.01990073
#
# Stress axis : x y z
#
# Youngs Moduli (GPa) = 62.22352 35.09753 50.26205
#
# Poissons Ratio (x) = 0.32701 0.31780
# Poissons Ratio (y) = 0.57975 0.33368
# Poissons Ratio (z) = 0.39343 0.23301
#
# Static dielectric constant tensor:
#      x y z
#    x 3.196120 0.000000 0.030260 
#    y 0.000000 3.186440 0.000000 
#    z 0.030260 0.000000 3.226220 
# 
# 
# High freq. dielectric constant tensor:
#      x y z
#    x 1.667510 0.000000 -0.007320 
#    y 0.000000 1.675010 0.000000 
#    z -0.007320 0.000000 1.660270 
# 
# From -- ./inp_files/51652.got.cif
#   From: 2010.06.25/outbox.cif.g09.slc.cpg/sg11_26_cif.got.tgz:51652.got - 2010.06.27 23:14:04.
