data_PCOD8070481
_publ_section_title
;
Structure prediction by ZEFSAII (Michael W. Deem and Ramdas Pophale) SiO2 
 PCOD8070481
Probable space group: P 21/M
;
_chemical_formula_sum "Si O2"
_cell_formula_units_Z 32
_cell_length_a 12.406740
_cell_length_b 8.914279
_cell_length_c 23.829882
_cell_angle_alpha 90.000000
_cell_angle_beta 134.228231
_cell_angle_gamma 90.000000
_cell_volume 1888.524423
_symmetry_space_group_name_H-M "P 21/M"
_symmetry_group_IT_number 11
_symmetry_cell_setting 'monoclinic'
loop_
_space_group_symop_operation_xyz
x,y,z
-x,1/2+y,-z
-x,-y,-z
x,1/2-y,z
loop_
_atom_site_type_symbol
_atom_site_label
_atom_site_fract_x
_atom_site_fract_y
_atom_site_fract_z
Si Si1 0.289075 0.927762 0.186590
Si Si2 0.567613 0.424601 0.079396
Si Si3 0.877578 0.927103 0.186708
Si Si4 0.679860 0.575441 0.917514
Si Si5 0.418795 0.426128 0.340659
Si Si6 0.955492 0.927850 0.091199
Si Si7 0.842186 0.921584 0.666258
Si Si8 0.394843 0.076324 0.506773
O O1 0.297014 0.750000 0.194901
O O2 0.118692 0.988302 0.132467
O O3 0.350108 0.979381 0.148757
O O4 0.395045 0.000228 0.271773
O O5 0.586152 0.250000 0.073416
O O6 0.726676 0.495535 0.153871
O O7 0.458596 0.453716 0.091795
O O8 0.500000 0.500000 0.000000
O O9 0.854467 0.750000 0.179034
O O10 0.914229 0.989140 0.137798
O O11 0.013919 0.971461 0.277149
O O12 0.695206 0.750000 0.907386
O O13 0.832289 0.514511 0.002108
O O14 0.439432 0.250000 0.341396
O O15 0.279955 0.467850 0.330963
O O16 0.574272 0.494387 0.422669
O O17 0.953332 0.750000 0.092608
O O18 0.891473 0.750000 0.693895
O O19 0.774840 0.942029 0.578777
O O20 0.438148 0.250000 0.528092
O O21 0.500000 0.000000 0.500000
#
# Coordination Sequence:
#
# PCOD8070481 Si02
#       8
#     4   4   4   4   4   4   4   4
#     4  11  21  33  51  76 104 135 173 213 253 304
#     4  11  22  37  56  75  99 132 173 219 263 305
#     4  11  20  33  53  76 103 135 172 214 258 305
#     4  10  21  38  53  69  99 135 172 215 259 303
#     4  10  19  31  48  72 103 139 173 206 252 306
#     4   9  18  33  50  72 101 133 168 208 256 302
#     4   9  18  31  47  73 104 134 170 208 251 303
#     4   9  17  29  46  70 102 136 170 208 250 303
#
# _framework density 16.944445999999999
#
# number of rings (size 3 to 8) (size 9 to 14) (size 15 to 20)
#    0.000    2.000    2.500    3.000    0.000    3.500 
#    0.000    0.625    0.000    0.000    0.000    0.875 
#    0.000    0.000    0.000    0.000    0.000    0.000 
#
# Total GULP energy -396811.349801 kJ/mol
# GULP energy per Si atom -12400.354681 kJ/mol
# Density = 1.690588 g / cm^3
# Si number density = 16.944446 Si / 1000 Ang^3
#
#
#
# Elastic Constant Matrix: (Units=GPa)
#
#
# Indices 1 2 3 4 5 6 
#
# 1 62.0360 41.7519 46.5600 0.0000 -1.5611 0.0000
# 2 41.7519 89.8420 59.0552 0.0000 -2.1163 0.0000
# 3 46.5600 59.0552 144.8010 0.0000 -5.5794 0.0000
# 4 0.0000 0.0000 0.0000 33.5752 0.0000 0.1044
# 5 -1.5611 -2.1163 -5.5794 0.0000 16.4255 0.0000
# 6 0.0000 0.0000 0.0000 0.1044 0.0000 22.9243
#
#
#
# Elastic Compliance Matrix: (Units=1/GPa)
#
#
# Indices 1 2 3 4 5 6 
#
# 1 0.025521 -0.008834 -0.004614 0.000000 -0.000280 0.000000
# 2 -0.008834 0.018266 -0.004611 0.000000 -0.000052 0.000000
# 3 -0.004614 -0.004611 0.010366 0.000000 0.002489 0.000000
# 4 0.000000 0.000000 0.000000 0.029784 0.000000 -0.000136
# 5 -0.000280 -0.000052 0.002489 0.000000 0.061693 0.000000
# 6 0.000000 0.000000 0.000000 -0.000136 0.000000 0.043623
#
#
# Mechanical properties :
#
#
# Convention : Reuss Voigt Hill
#
# Bulk Modulus (GPa) = 55.44824 65.71258 60.58041
# Shear Modulus (GPa) = 21.60926 24.53912 23.07419
#
# Velocity S-wave (km/s) = 3.57501 3.80966 3.69420
# Velocity P-wave (km/s) = 7.05943 7.62999 7.35025
#
# Compressibility (1/GPa) = 0.01803484
#
# Stress axis : x y z
#
# Youngs Moduli (GPa) = 39.18301 54.74758 96.46851
#
# Poissons Ratio (x) = 0.48364 0.44512
# Poissons Ratio (y) = 0.34614 0.44481
# Poissons Ratio (z) = 0.18080 0.25244
#
# Static dielectric constant tensor:
#      x y z
#    x 2.942550 0.000000 0.082280 
#    y 0.000000 3.189640 0.000000 
#    z 0.082280 0.000000 3.480510 
# 
# 
# High freq. dielectric constant tensor:
#      x y z
#    x 1.612680 0.000000 0.003730 
#    y 0.000000 1.657410 0.000000 
#    z 0.003730 0.000000 1.663340 
# 
# From -- ./inp_files/64368.got.cif
#   From: 2010.06.25/outbox.cif.g09.slc.cpg/sg11_33_cif.got.tgz:64368.got - 2010.06.27 23:14:04.
