data_PCOD8070585
_publ_section_title
;
Structure prediction by ZEFSAII (Michael W. Deem and Ramdas Pophale) SiO2 
 PCOD8070585
Probable space group: P 21/M
;
_chemical_formula_sum "Si O2"
_cell_formula_units_Z 32
_cell_length_a 25.374234
_cell_length_b 9.303257
_cell_length_c 21.049090
_cell_angle_alpha 90.000000
_cell_angle_beta 159.037650
_cell_angle_gamma 90.000000
_cell_volume 1777.650049
_symmetry_space_group_name_H-M "P 21/M"
_symmetry_group_IT_number 11
_symmetry_cell_setting 'monoclinic'
loop_
_space_group_symop_operation_xyz
x,y,z
-x,1/2+y,-z
-x,-y,-z
x,1/2-y,z
loop_
_atom_site_type_symbol
_atom_site_label
_atom_site_fract_x
_atom_site_fract_y
_atom_site_fract_z
Si Si1 0.610715 0.416189 0.336479
Si Si2 0.768740 0.081803 0.639803
Si Si3 0.714226 0.920412 0.023816
Si Si4 0.889709 0.415310 0.124140
Si Si5 0.637584 0.082644 0.624406
Si Si6 0.024949 0.414929 0.591792
Si Si7 0.136780 0.914165 0.467568
Si Si8 0.068612 0.915432 0.975296
O O1 0.592256 0.250000 0.332155
O O2 0.697323 0.483131 0.494508
O O3 0.448136 0.480241 0.142801
O O4 0.695164 0.440105 0.364741
O O5 0.804739 0.250000 0.673516
O O6 0.651019 0.054441 0.563838
O O7 0.923546 0.005584 0.828728
O O8 0.722389 0.750000 0.023730
O O9 0.825977 0.967902 0.205505
O O10 0.757848 0.994870 0.007008
O O11 0.877076 0.250000 0.130499
O O12 0.880071 0.436414 0.038778
O O13 0.044469 0.476459 0.321813
O O14 0.613777 0.250000 0.613007
O O15 0.500000 0.000000 0.500000
O O16 0.792898 0.028781 0.828054
O O17 0.038415 0.250000 0.587527
O O18 0.000000 0.500000 0.500000
O O19 0.886667 0.442176 0.483773
O O20 0.087027 0.750000 0.396020
O O21 0.032178 0.750000 0.949677
#
# Coordination Sequence:
#
# PCOD8070585 Si02
#       8
#     4   4   4   4   4   4   4   4
#     4   9  17  32  55  80 104 128 169 226 262 293
#     4  10  20  35  57  80  99 133 183 222 254 307
#     4   9  19  34  53  77 105 136 172 214 260 300
#     4  10  19  31  49  75 104 138 172 207 255 312
#     4  10  23  39  53  76 107 138 178 221 266 316
#     4   9  18  32  52  76 103 139 174 207 250 303
#     4   9  17  33  55  78 103 133 171 213 256 299
#     4  10  21  36  52  74 108 140 169 213 270 320
#
# _framework density 18.001294000000001
#
# number of rings (size 3 to 8) (size 9 to 14) (size 15 to 20)
#    0.000    2.500    1.250    1.500    1.750    3.500 
#    0.000    1.875    0.000    0.000    0.000    0.000 
#    0.000    0.000    0.000    0.000    0.000    0.000 
#
# Total GULP energy -396681.063485 kJ/mol
# GULP energy per Si atom -12396.283234 kJ/mol
# Density = 1.796032 g / cm^3
# Si number density = 18.001294 Si / 1000 Ang^3
#
#
#
# Elastic Constant Matrix: (Units=GPa)
#
#
# Indices 1 2 3 4 5 6 
#
# 1 124.1204 40.2295 66.5632 0.0000 12.2612 0.0000
# 2 40.2295 48.0082 32.9856 0.0000 3.1319 0.0000
# 3 66.5632 32.9856 94.9436 0.0000 20.6981 0.0000
# 4 0.0000 0.0000 0.0000 23.0804 0.0000 -0.3417
# 5 12.2612 3.1319 20.6981 0.0000 34.8430 0.0000
# 6 0.0000 0.0000 0.0000 -0.3417 0.0000 28.3424
#
#
#
# Elastic Compliance Matrix: (Units=1/GPa)
#
#
# Indices 1 2 3 4 5 6 
#
# 1 0.014400 -0.006720 -0.007797 0.000000 0.000169 0.000000
# 2 -0.006720 0.030910 -0.006821 0.000000 0.003638 0.000000
# 3 -0.007797 -0.006821 0.020261 0.000000 -0.008679 0.000000
# 4 0.000000 0.000000 0.000000 0.043334 0.000000 0.000522
# 5 0.000169 0.003638 -0.008679 0.000000 0.033469 0.000000
# 6 0.000000 0.000000 0.000000 0.000522 0.000000 0.035289
#
#
# Mechanical properties :
#
#
# Convention : Reuss Voigt Hill
#
# Bulk Modulus (GPa) = 43.67917 60.73654 52.20785
# Shear Modulus (GPa) = 21.93258 25.73944 23.83601
#
# Velocity S-wave (km/s) = 3.49433 3.78546 3.64280
# Velocity P-wave (km/s) = 6.37162 7.27459 6.83803
#
# Compressibility (1/GPa) = 0.02289421
#
# Stress axis : x y z
#
# Youngs Moduli (GPa) = 69.44581 32.35194 49.35618
#
# Poissons Ratio (x) = 0.21741 0.38485
# Poissons Ratio (y) = 0.46668 0.33664
# Poissons Ratio (z) = 0.54150 0.22066
#
# Static dielectric constant tensor:
#      x y z
#    x 3.410970 0.000000 0.106170 
#    y 0.000000 3.207770 0.000000 
#    z 0.106170 0.000000 3.392080 
# 
# 
# High freq. dielectric constant tensor:
#      x y z
#    x 1.706440 0.000000 0.008190 
#    y 0.000000 1.678750 0.000000 
#    z 0.008190 0.000000 1.684680 
# 
# From -- ./inp_files/67149.got.cif
#   From: 2010.06.25/outbox.cif.g09.slc.cpg/sg11_34_cif.got.tgz:67149.got - 2010.06.27 23:14:04.
