data_PCOD8070737
_publ_section_title
;
Structure prediction by ZEFSAII (Michael W. Deem and Ramdas Pophale) SiO2 
 PCOD8070737
Probable space group: P 21/M
;
_chemical_formula_sum "Si O2"
_cell_formula_units_Z 24
_cell_length_a 10.874285
_cell_length_b 9.600344
_cell_length_c 10.715755
_cell_angle_alpha 90.000000
_cell_angle_beta 82.482883
_cell_angle_gamma 90.000000
_cell_volume 1109.077122
_symmetry_space_group_name_H-M "P 21/M"
_symmetry_group_IT_number 11
_symmetry_cell_setting 'monoclinic'
loop_
_space_group_symop_operation_xyz
x,y,z
-x,1/2+y,-z
-x,-y,-z
x,1/2-y,z
loop_
_atom_site_type_symbol
_atom_site_label
_atom_site_fract_x
_atom_site_fract_y
_atom_site_fract_z
Si Si1 0.563763 0.589584 0.883356
Si Si2 0.109367 0.907438 0.841474
Si Si3 0.163947 0.098301 0.389466
Si Si4 0.175576 0.095418 0.046479
Si Si5 0.027880 0.402302 0.660202
Si Si6 0.558743 0.588671 0.602739
O O1 0.528912 0.750000 0.912491
O O2 0.714576 0.569588 0.866305
O O3 0.517765 0.545271 0.750006
O O4 0.500000 0.500000 0.000000
O O5 0.156356 0.750000 0.814451
O O6 0.962058 0.915114 0.881474
O O7 0.130703 0.001704 0.715890
O O8 0.190202 0.975717 0.940417
O O9 0.170006 0.250000 0.317137
O O10 0.066923 0.117853 0.513730
O O11 0.295792 0.059333 0.428087
O O12 0.107788 0.976452 0.310588
O O13 0.193786 0.250000 0.985141
O O14 0.016463 0.250000 0.726872
O O15 0.500000 0.500000 0.500000
O O16 0.526210 0.750000 0.583893
#
# Coordination Sequence:
#
# PCOD8070737 Si02
#       6
#     4   4   4   4   4   4
#     4  10  22  40  61  84 113 150 193 241 290 339
#     4  10  19  32  53  80 111 145 180 223 276 334
#     4   9  19  36  55  76 107 146 185 226 276 332
#     4   9  19  36  55  76 106 145 186 227 274 330
#     4  10  19  31  52  82 112 142 179 224 275 334
#     4  10  22  41  62  84 113 151 194 239 287 340
#
# _framework density 21.639613000000001
#
# number of rings (size 3 to 8) (size 9 to 14) (size 15 to 20)
#    0.000    2.333    0.000    2.000    0.000    7.333 
#    0.000    6.667    0.000    0.000    0.000    0.000 
#    0.000    0.000    0.000    0.000    0.000    0.000 
#
# Total GULP energy -297369.237023 kJ/mol
# GULP energy per Si atom -12390.384876 kJ/mol
# Density = 2.159036 g / cm^3
# Si number density = 21.639613 Si / 1000 Ang^3
#
#
#
# Elastic Constant Matrix: (Units=GPa)
#
#
# Indices 1 2 3 4 5 6 
#
# 1 59.0090 30.6437 29.7082 0.0000 12.3024 0.0000
# 2 30.6437 160.0600 71.4623 0.0000 26.7924 0.0000
# 3 29.7082 71.4623 107.5476 0.0000 29.0349 0.0000
# 4 0.0000 0.0000 0.0000 39.9466 0.0000 8.5359
# 5 12.3024 26.7924 29.0349 0.0000 35.6412 0.0000
# 6 0.0000 0.0000 0.0000 8.5359 0.0000 30.3194
#
#
#
# Elastic Compliance Matrix: (Units=1/GPa)
#
#
# Indices 1 2 3 4 5 6 
#
# 1 0.020291 -0.001789 -0.003703 0.000000 -0.002642 0.000000
# 2 -0.001789 0.009203 -0.005025 0.000000 -0.002207 0.000000
# 3 -0.003703 -0.005025 0.015762 0.000000 -0.007785 0.000000
# 4 0.000000 0.000000 0.000000 0.026636 0.000000 -0.007499
# 5 -0.002642 -0.002207 -0.007785 0.000000 0.036970 0.000000
# 6 0.000000 0.000000 0.000000 -0.007499 0.000000 0.035093
#
#
# Mechanical properties :
#
#
# Convention : Reuss Voigt Hill
#
# Bulk Modulus (GPa) = 41.28571 65.58278 53.43424
# Shear Modulus (GPa) = 28.89117 34.16826 31.52972
#
# Velocity S-wave (km/s) = 3.65787 3.97793 3.82126
# Velocity P-wave (km/s) = 6.07949 7.17434 6.64949
#
# Compressibility (1/GPa) = 0.02422145
#
# Stress axis : x y z
#
# Youngs Moduli (GPa) = 49.28353 108.65720 63.44472
#
# Poissons Ratio (x) = 0.19441 0.23492
# Poissons Ratio (y) = 0.08818 0.31883
# Poissons Ratio (z) = 0.18248 0.54603
#
# Static dielectric constant tensor:
#      x y z
#    x 3.739280 0.000000 0.109440 
#    y 0.000000 4.369330 0.000000 
#    z 0.109440 0.000000 3.900160 
# 
# 
# High freq. dielectric constant tensor:
#      x y z
#    x 1.826940 0.000000 0.014000 
#    y 0.000000 1.855210 0.000000 
#    z 0.014000 0.000000 1.852510 
# 
# From -- ./inp_files/33825.got.cif
#   From: 2010.06.25/outbox.cif.g09.slc.cpg/sg11_17_cif.got.tgz:33825.got - 2010.06.27 23:14:04.
