data_PCOD8070644
_publ_section_title
;
Structure prediction by ZEFSAII (Michael W. Deem and Ramdas Pophale) SiO2 
 PCOD8070644
Probable space group: P 21/M
;
_chemical_formula_sum "Si O2"
_cell_formula_units_Z 32
_cell_length_a 19.185260
_cell_length_b 9.526797
_cell_length_c 24.605567
_cell_angle_alpha 90.000000
_cell_angle_beta 23.571815
_cell_angle_gamma 90.000000
_cell_volume 1798.446129
_symmetry_space_group_name_H-M "P 21/M"
_symmetry_group_IT_number 11
_symmetry_cell_setting 'monoclinic'
loop_
_space_group_symop_operation_xyz
x,y,z
-x,1/2+y,-z
-x,-y,-z
x,1/2-y,z
loop_
_atom_site_type_symbol
_atom_site_label
_atom_site_fract_x
_atom_site_fract_y
_atom_site_fract_z
Si Si1 0.503615 0.086377 0.857569
Si Si2 0.886616 0.412756 0.620985
Si Si3 0.358199 0.587881 0.569840
Si Si4 0.194074 0.907614 0.106692
Si Si5 0.645103 0.416908 0.553395
Si Si6 0.969778 0.587099 0.866686
Si Si7 0.373262 0.086407 0.833229
Si Si8 0.956126 0.593411 0.377932
O O1 0.458367 0.250000 0.897399
O O2 0.688633 0.046975 0.749843
O O3 0.482380 0.043114 0.809111
O O4 0.372590 0.992087 0.985858
O O5 0.918455 0.250000 0.587289
O O6 0.000000 0.500000 0.500000
O O7 0.945247 0.458094 0.638834
O O8 0.500000 0.500000 0.500000
O O9 0.413252 0.750000 0.532101
O O10 0.354828 0.535493 0.509618
O O11 0.174338 0.565473 0.733263
O O12 0.227031 0.750000 0.060582
O O13 0.109153 0.901516 0.225583
O O14 0.063582 0.990701 0.160991
O O15 0.667367 0.250000 0.541690
O O16 0.468979 0.472897 0.710465
O O17 0.806729 0.484956 0.468929
O O18 0.934399 0.750000 0.876588
O O19 0.832436 0.541236 0.012825
O O20 0.379471 0.250000 0.821086
O O21 0.874975 0.750000 0.442795
#
# Coordination Sequence:
#
# PCOD8070644 Si02
#       8
#     4   4   4   4   4   4   4   4
#     4   9  18  33  51  71 101 140 177 214 260 312
#     4  10  21  36  51  71 102 140 179 220 270 319
#     4  10  21  35  55  80 107 137 172 211 256 310
#     4  10  19  31  50  76 103 134 171 216 265 308
#     4  10  19  34  56  81 102 132 181 219 248 311
#     4   9  17  34  55  77 104 137 173 209 255 312
#     4   8  15  29  53  77  99 130 172 218 254 288
#     4  10  21  34  50  75 107 137 168 219 274 310
#
# _framework density 17.793137999999999
#
# number of rings (size 3 to 8) (size 9 to 14) (size 15 to 20)
#    0.000    2.500    1.250    1.875    0.000    4.000 
#    0.000    4.375    0.000    0.000    0.000    0.000 
#    0.000    0.000    0.000    0.000    0.000    0.000 
#
# Total GULP energy -396540.920570 kJ/mol
# GULP energy per Si atom -12391.903768 kJ/mol
# Density = 1.775264 g / cm^3
# Si number density = 17.793138 Si / 1000 Ang^3
#
#
#
# Elastic Constant Matrix: (Units=GPa)
#
#
# Indices 1 2 3 4 5 6 
#
# 1 75.4677 29.6045 65.3811 0.0000 -11.9406 0.0000
# 2 29.6045 55.2690 45.4228 0.0000 -10.5865 0.0000
# 3 65.3811 45.4228 139.1917 0.0000 -7.2421 0.0000
# 4 0.0000 0.0000 0.0000 29.4288 0.0000 -5.8159
# 5 -11.9406 -10.5865 -7.2421 0.0000 29.6951 0.0000
# 6 0.0000 0.0000 0.0000 -5.8159 0.0000 22.6372
#
#
#
# Elastic Compliance Matrix: (Units=1/GPa)
#
#
# Indices 1 2 3 4 5 6 
#
# 1 0.024175 -0.003723 -0.009828 0.000000 0.005997 0.000000
# 2 -0.003723 0.026793 -0.006660 0.000000 0.006431 0.000000
# 3 -0.009828 -0.006660 0.013821 0.000000 -0.002956 0.000000
# 4 0.000000 0.000000 0.000000 0.035798 0.000000 0.009197
# 5 0.005997 0.006431 -0.002956 0.000000 0.037659 0.000000
# 6 0.000000 0.000000 0.000000 0.009197 0.000000 0.046538
#
#
# Mechanical properties :
#
#
# Convention : Reuss Voigt Hill
#
# Bulk Modulus (GPa) = 41.04212 61.19392 51.11802
# Shear Modulus (GPa) = 21.42914 24.98688 23.20801
#
# Velocity S-wave (km/s) = 3.47414 3.75146 3.61546
# Velocity P-wave (km/s) = 6.26172 7.29597 6.79854
#
# Compressibility (1/GPa) = 0.02436522
#
# Stress axis : x y z
#
# Youngs Moduli (GPa) = 41.36546 37.32349 72.35601
#
# Poissons Ratio (x) = 0.13895 0.71115
# Poissons Ratio (y) = 0.15400 0.48189
# Poissons Ratio (z) = 0.40656 0.24858
#
# Static dielectric constant tensor:
#      x y z
#    x 3.159240 0.000000 0.183390 
#    y 0.000000 3.262390 0.000000 
#    z 0.183390 0.000000 3.628460 
# 
# 
# High freq. dielectric constant tensor:
#      x y z
#    x 1.667340 0.000000 0.004000 
#    y 0.000000 1.678200 0.000000 
#    z 0.004000 0.000000 1.702480 
# 
# From -- ./inp_files/67029.got.cif
#   From: 2010.06.25/outbox.cif.g09.slc.cpg/sg11_34_cif.got.tgz:67029.got - 2010.06.27 23:14:04.
