data_PCOD8070983
_publ_section_title
;
Structure prediction by ZEFSAII (Michael W. Deem and Ramdas Pophale) SiO2 
 PCOD8070983
Probable space group: P 21/M
;
_chemical_formula_sum "Si O2"
_cell_formula_units_Z 32
_cell_length_a 22.528963
_cell_length_b 9.061983
_cell_length_c 19.025020
_cell_angle_alpha 90.000000
_cell_angle_beta 153.464230
_cell_angle_gamma 90.000000
_cell_volume 1735.243339
_symmetry_space_group_name_H-M "P 21/M"
_symmetry_group_IT_number 11
_symmetry_cell_setting 'monoclinic'
loop_
_space_group_symop_operation_xyz
x,y,z
-x,1/2+y,-z
-x,-y,-z
x,1/2-y,z
loop_
_atom_site_type_symbol
_atom_site_label
_atom_site_fract_x
_atom_site_fract_y
_atom_site_fract_z
Si Si1 0.883495 0.577471 0.786060
Si Si2 0.853506 0.921504 0.916023
Si Si3 0.475391 0.924255 0.811791
Si Si4 0.276999 0.578913 0.717871
Si Si5 0.359288 0.922101 0.538343
Si Si6 0.985990 0.922399 0.411095
Si Si7 0.270075 0.574398 0.870002
Si Si8 0.440652 0.077135 0.369702
O O1 0.887778 0.750000 0.777001
O O2 0.843073 0.537119 0.822763
O O3 0.775741 0.508029 0.620175
O O4 0.028910 0.512541 0.922460
O O5 0.886499 0.750000 0.960672
O O6 0.714151 0.966110 0.804621
O O7 0.502823 0.750000 0.847608
O O8 0.385612 0.989413 0.780362
O O9 0.401409 0.961730 0.661526
O O10 0.612606 0.012910 0.957640
O O11 0.307445 0.750000 0.756636
O O12 0.289306 0.514507 0.810073
O O13 0.130422 0.554940 0.528027
O O14 0.330233 0.750000 0.497881
O O15 0.478363 0.973319 0.613136
O O16 0.952527 0.750000 0.384483
O O17 0.866654 0.004436 0.243563
O O18 0.000000 0.000000 0.500000
O O19 0.261378 0.750000 0.865113
O O20 0.452290 0.250000 0.395743
O O21 0.500000 0.000000 0.500000
#
# Coordination Sequence:
#
# PCOD8070983 Si02
#       8
#     4   4   4   4   4   4   4   4
#     4  10  19  32  52  76 101 131 164 204 251 298
#     4   9  18  32  51  76 102 128 162 205 249 294
#     4  10  20  35  52  73 101 137 172 208 255 306
#     4   8  16  31  52  76 101 129 171 214 253 299
#     4  10  21  35  53  75 103 135 169 208 255 308
#     4   9  16  29  50  76 102 130 164 210 257 301
#     4  10  19  32  51  77 104 134 171 215 256 299
#     4  10  19  33  53  78 102 129 165 205 249 299
#
# _framework density 18.441216000000001
#
# number of rings (size 3 to 8) (size 9 to 14) (size 15 to 20)
#    0.000    2.500    1.250    2.250    0.000    1.500 
#    0.000    4.375    0.000    7.500    0.000    0.000 
#    0.000    0.000    0.000    0.000    0.000    0.000 
#
# Total GULP energy -396705.378533 kJ/mol
# GULP energy per Si atom -12397.043079 kJ/mol
# Density = 1.839924 g / cm^3
# Si number density = 18.441216 Si / 1000 Ang^3
#
#
#
# Elastic Constant Matrix: (Units=GPa)
#
#
# Indices 1 2 3 4 5 6 
#
# 1 36.0719 17.8988 30.5125 0.0000 3.6957 0.0000
# 2 17.8988 66.2650 59.2913 0.0000 3.3663 0.0000
# 3 30.5125 59.2913 147.9308 0.0000 15.9203 0.0000
# 4 0.0000 0.0000 0.0000 36.4881 0.0000 2.0617
# 5 3.6957 3.3663 15.9203 0.0000 23.7503 0.0000
# 6 0.0000 0.0000 0.0000 2.0617 0.0000 16.0071
#
#
#
# Elastic Compliance Matrix: (Units=1/GPa)
#
#
# Indices 1 2 3 4 5 6 
#
# 1 0.034493 -0.004692 -0.005095 0.000000 -0.001287 0.000000
# 2 -0.004692 0.024398 -0.009180 0.000000 0.003425 0.000000
# 3 -0.005095 -0.009180 0.012141 0.000000 -0.006044 0.000000
# 4 0.000000 0.000000 0.000000 0.027607 0.000000 -0.003556
# 5 -0.001287 0.003425 -0.006044 0.000000 0.045871 0.000000
# 6 0.000000 0.000000 0.000000 -0.003556 0.000000 0.062930
#
#
# Mechanical properties :
#
#
# Convention : Reuss Voigt Hill
#
# Bulk Modulus (GPa) = 30.21458 51.74144 40.97801
# Shear Modulus (GPa) = 19.50035 24.75346 22.12691
#
# Velocity S-wave (km/s) = 3.25535 3.66770 3.46766
# Velocity P-wave (km/s) = 5.52716 6.78634 6.18886
#
# Compressibility (1/GPa) = 0.03309660
#
# Stress axis : x y z
#
# Youngs Moduli (GPa) = 28.99176 40.98726 82.36848
#
# Poissons Ratio (x) = 0.19232 0.41970
# Poissons Ratio (y) = 0.13604 0.75611
# Poissons Ratio (z) = 0.14772 0.37624
#
# Static dielectric constant tensor:
#      x y z
#    x 3.458220 0.000000 0.334530 
#    y 0.000000 3.292540 0.000000 
#    z 0.334530 0.000000 3.499470 
# 
# 
# High freq. dielectric constant tensor:
#      x y z
#    x 1.688760 0.000000 0.024040 
#    y 0.000000 1.705600 0.000000 
#    z 0.024040 0.000000 1.723750 
# 
# From -- ./inp_files/67174.got.cif
#   From: 2010.06.25/outbox.cif.g09.slc.cpg/sg11_34_cif.got.tgz:67174.got - 2010.06.27 23:14:04.
