data_PCOD8070373
_publ_section_title
;
Structure prediction by ZEFSAII (Michael W. Deem and Ramdas Pophale) SiO2 
 PCOD8070373
Probable space group: P 21/M
;
_chemical_formula_sum "Si O2"
_cell_formula_units_Z 32
_cell_length_a 14.246476
_cell_length_b 9.290809
_cell_length_c 15.479178
_cell_angle_alpha 90.000000
_cell_angle_beta 90.001009
_cell_angle_gamma 90.000000
_cell_volume 2048.843928
_symmetry_space_group_name_H-M "P 21/M"
_symmetry_group_IT_number 11
_symmetry_cell_setting 'monoclinic'
loop_
_space_group_symop_operation_xyz
x,y,z
-x,1/2+y,-z
-x,-y,-z
x,1/2-y,z
loop_
_atom_site_type_symbol
_atom_site_label
_atom_site_fract_x
_atom_site_fract_y
_atom_site_fract_z
Si Si1 0.099411 0.080825 0.812158
Si Si2 0.096577 0.582443 0.500006
Si Si3 0.900604 0.919175 0.812149
Si Si4 0.789307 0.417989 0.330197
Si Si5 0.789315 0.417987 0.669793
Si Si6 0.590112 0.082697 0.598647
Si Si7 0.409890 0.582696 0.598648
Si Si8 0.092674 0.412308 0.000004
O O1 0.084226 0.250000 0.792375
O O2 0.144823 0.056458 0.908707
O O3 0.174987 0.015022 0.747830
O O4 0.000007 0.000002 0.801326
O O5 0.073938 0.750000 0.500007
O O6 0.155182 0.538216 0.583855
O O7 0.155192 0.538222 0.416164
O O8 0.000000 0.500000 0.500000
O O9 0.915793 0.750000 0.792369
O O10 0.825033 0.984972 0.747812
O O11 0.855184 0.943542 0.908693
O O12 0.803670 0.250000 0.308733
O O13 0.680151 0.455337 0.343584
O O14 0.803687 0.250000 0.691260
O O15 0.680156 0.455327 0.656417
O O16 0.567304 0.250000 0.602977
O O17 0.610451 0.035324 0.500000
O O18 0.500003 0.999998 0.636557
O O19 0.432692 0.750000 0.602980
O O20 0.057899 0.250000 0.000002
O O21 0.000000 0.500000 0.000000
#
# Coordination Sequence:
#
# PCOD8070373 Si02
#       8
#     4   4   4   4   4   4   4   4
#     4  10  19  31  47  68  93 122 155 190 228 271
#     4  10  20  32  43  58  88 126 157 182 215 258
#     4  10  19  31  47  68  93 122 155 190 228 271
#     4  10  19  32  47  65  92 124 154 187 227 269
#     4  10  19  32  47  65  92 124 154 187 227 269
#     4   9  17  31  49  67  89 118 151 190 232 270
#     4   9  17  31  49  67  89 118 151 190 232 270
#     4   8  16  30  46  64  89 118 149 188 231 270
#
# _framework density 15.618563999999999
#
# number of rings (size 3 to 8) (size 9 to 14) (size 15 to 20)
#    0.000    2.500    1.250    1.500    0.000    5.000 
#    0.000    0.000    0.000    0.000    0.000    0.875 
#    0.000    0.000    0.000    0.000    0.000    0.000 
#
# Total GULP energy -396587.115658 kJ/mol
# GULP energy per Si atom -12393.347364 kJ/mol
# Density = 1.558302 g / cm^3
# Si number density = 15.618564 Si / 1000 Ang^3
#
#
#
# Elastic Constant Matrix: (Units=GPa)
#
#
# Indices 1 2 3 4 5 6 
#
# 1 109.7938 55.1071 60.2847 0.0000 -0.0187 0.0000
# 2 55.1071 68.5846 59.7709 0.0000 -0.0120 0.0000
# 3 60.2847 59.7709 123.9309 0.0000 -0.0236 0.0000
# 4 0.0000 0.0000 0.0000 24.6829 0.0000 -0.0012
# 5 -0.0187 -0.0120 -0.0236 0.0000 3.2445 0.0000
# 6 0.0000 0.0000 0.0000 -0.0012 0.0000 29.4405
#
#
#
# Elastic Compliance Matrix: (Units=1/GPa)
#
#
# Indices 1 2 3 4 5 6 
#
# 1 0.015767 -0.010324 -0.002691 0.000000 0.000033 0.000000
# 2 -0.010324 0.031912 -0.010369 0.000000 -0.000017 0.000000
# 3 -0.002691 -0.010369 0.014379 0.000000 0.000051 0.000000
# 4 0.000000 0.000000 0.000000 0.040514 0.000000 0.000002
# 5 0.000033 -0.000017 0.000051 0.000000 0.308213 0.000000
# 6 0.000000 0.000000 0.000000 0.000002 0.000000 0.033967
#
#
# Mechanical properties :
#
#
# Convention : Reuss Voigt Hill
#
# Bulk Modulus (GPa) = 65.39809 72.51498 68.95653
# Shear Modulus (GPa) = 10.06815 19.95001 15.00908
#
# Velocity S-wave (km/s) = 2.54171 3.57785 3.10333
# Velocity P-wave (km/s) = 7.11172 7.97480 7.55560
#
# Compressibility (1/GPa) = 0.01529097
#
# Stress axis : x y z
#
# Youngs Moduli (GPa) = 63.42370 31.33596 69.54706
#
# Poissons Ratio (x) = 0.32351 0.18712
# Poissons Ratio (y) = 0.65478 0.72114
# Poissons Ratio (z) = 0.17064 0.32493
#
# Static dielectric constant tensor:
#      x y z
#    x 1.782780 0.000000 -0.001000 
#    y 0.000000 3.024070 0.000000 
#    z -0.001000 0.000000 3.596490 
# 
# 
# High freq. dielectric constant tensor:
#      x y z
#    x 1.576220 0.000000 0.000000 
#    y 0.000000 1.606300 0.000000 
#    z 0.000000 0.000000 1.594950 
# 
# From -- ./inp_files/51320.got.cif
#   From: 2010.06.25/outbox.cif.g09.slc.cpg/sg11_26_cif.got.tgz:51320.got - 2010.06.27 23:14:04.
