data_PCOD8070483
_publ_section_title
;
Structure prediction by ZEFSAII (Michael W. Deem and Ramdas Pophale) SiO2 
 PCOD8070483
Probable space group: P 21/M
;
_chemical_formula_sum "Si O2"
_cell_formula_units_Z 32
_cell_length_a 20.929479
_cell_length_b 8.776603
_cell_length_c 12.558893
_cell_angle_alpha 90.000000
_cell_angle_beta 126.595898
_cell_angle_gamma 90.000000
_cell_volume 1852.149927
_symmetry_space_group_name_H-M "P 21/M"
_symmetry_group_IT_number 11
_symmetry_cell_setting 'monoclinic'
loop_
_space_group_symop_operation_xyz
x,y,z
-x,1/2+y,-z
-x,-y,-z
x,1/2-y,z
loop_
_atom_site_type_symbol
_atom_site_label
_atom_site_fract_x
_atom_site_fract_y
_atom_site_fract_z
Si Si1 0.005344 0.426625 0.619663
Si Si2 0.161796 0.927125 0.795293
Si Si3 0.398439 0.573374 0.500404
Si Si4 0.320932 0.071082 0.997197
Si Si5 0.418550 0.073300 0.302087
Si Si6 0.321540 0.072491 0.617612
Si Si7 0.170150 0.576384 0.552770
Si Si8 0.414333 0.929522 0.898335
O O1 0.027074 0.250000 0.629733
O O2 0.076452 0.511033 0.753944
O O3 0.000000 0.500000 0.500000
O O4 0.918005 0.447272 0.586037
O O5 0.168751 0.750000 0.829034
O O6 0.169245 0.961027 0.677194
O O7 0.230375 0.018442 0.925772
O O8 0.377787 0.750000 0.493645
O O9 0.488845 0.536724 0.624500
O O10 0.383905 0.525880 0.364088
O O11 0.339521 0.474666 0.514527
O O12 0.325758 0.250000 0.979517
O O13 0.353714 0.982406 0.928201
O O14 0.372062 0.024344 0.150328
O O15 0.405884 0.250000 0.317254
O O16 0.336950 0.250000 0.650057
O O17 0.229834 0.035907 0.552142
O O18 0.380846 0.978175 0.751172
O O19 0.198868 0.750000 0.564644
O O20 0.422667 0.750000 0.909399
O O21 0.500000 0.000000 0.000000
#
# Coordination Sequence:
#
# PCOD8070483 Si02
#       8
#     4   4   4   4   4   4   4   4
#     4   9  17  29  47  69  98 134 172 210 253 304
#     4  10  19  31  48  72 104 138 172 212 253 304
#     4  10  20  36  57  76 100 133 171 219 265 305
#     4  11  21  34  53  76 104 138 173 212 259 306
#     4   9  20  37  55  76 100 129 171 219 262 307
#     4  12  23  34  52  76 104 138 174 212 257 306
#     4   9  18  32  48  70 102 137 171 211 254 301
#     4  12  24  37  51  71 103 138 175 211 253 310
#
# _framework density 17.277218999999999
#
# number of rings (size 3 to 8) (size 9 to 14) (size 15 to 20)
#    0.000    1.750    1.250    5.250    0.000    5.000 
#    0.000    0.000    0.000    0.000    0.000    0.875 
#    0.000    0.000    0.000    0.000    0.000    0.000 
#
# Total GULP energy -396860.143232 kJ/mol
# GULP energy per Si atom -12401.879476 kJ/mol
# Density = 1.723790 g / cm^3
# Si number density = 17.277219 Si / 1000 Ang^3
#
#
#
# Elastic Constant Matrix: (Units=GPa)
#
#
# Indices 1 2 3 4 5 6 
#
# 1 68.2109 36.1961 21.9279 0.0000 8.1813 0.0000
# 2 36.1961 103.0489 24.7740 0.0000 1.3523 0.0000
# 3 21.9279 24.7740 39.5285 0.0000 3.7429 0.0000
# 4 0.0000 0.0000 0.0000 26.8468 0.0000 4.0856
# 5 8.1813 1.3523 3.7429 0.0000 25.2117 0.0000
# 6 0.0000 0.0000 0.0000 4.0856 0.0000 30.7416
#
#
#
# Elastic Compliance Matrix: (Units=1/GPa)
#
#
# Indices 1 2 3 4 5 6 
#
# 1 0.020551 -0.005332 -0.007561 0.000000 -0.005261 0.000000
# 2 -0.005332 0.012814 -0.005246 0.000000 0.001822 0.000000
# 3 -0.007561 -0.005246 0.032985 0.000000 -0.002162 0.000000
# 4 0.000000 0.000000 0.000000 0.038017 0.000000 -0.005053
# 5 -0.005261 0.001822 -0.002162 0.000000 0.041594 0.000000
# 6 0.000000 0.000000 0.000000 -0.005053 0.000000 0.033201
#
#
# Mechanical properties :
#
#
# Convention : Reuss Voigt Hill
#
# Bulk Modulus (GPa) = 33.25191 41.84269 37.54730
# Shear Modulus (GPa) = 22.17644 25.08603 23.63124
#
# Velocity S-wave (km/s) = 3.58657 3.81461 3.70235
# Velocity P-wave (km/s) = 6.03649 6.60853 6.32898
#
# Compressibility (1/GPa) = 0.03007346
#
# Stress axis : x y z
#
# Youngs Moduli (GPa) = 48.65864 78.03808 30.31689
#
# Poissons Ratio (x) = 0.41610 0.22922
# Poissons Ratio (y) = 0.25945 0.15904
# Poissons Ratio (z) = 0.36789 0.40938
#
# Static dielectric constant tensor:
#      x y z
#    x 3.387020 0.000000 0.346220 
#    y 0.000000 3.348870 0.000000 
#    z 0.346220 0.000000 3.225130 
# 
# 
# High freq. dielectric constant tensor:
#      x y z
#    x 1.655220 0.000000 0.024780 
#    y 0.000000 1.682510 0.000000 
#    z 0.024780 0.000000 1.644220 
# 
# From -- ./inp_files/42917.got.cif
#   From: 2010.06.25/outbox.cif.g09.slc.cpg/sg11_22_cif.got.tgz:42917.got - 2010.06.27 23:14:04.
