data_PCOD8070146
_publ_section_title
;
Structure prediction by ZEFSAII (Michael W. Deem and Ramdas Pophale) SiO2 
 PCOD8070146
Probable space group: P 21/M
;
_chemical_formula_sum "Si O2"
_cell_formula_units_Z 28
_cell_length_a 11.382646
_cell_length_b 9.013458
_cell_length_c 14.644385
_cell_angle_alpha 90.000000
_cell_angle_beta 76.892907
_cell_angle_gamma 90.000000
_cell_volume 1463.327495
_symmetry_space_group_name_H-M "P 21/M"
_symmetry_group_IT_number 11
_symmetry_cell_setting 'monoclinic'
loop_
_space_group_symop_operation_xyz
x,y,z
-x,1/2+y,-z
-x,-y,-z
x,1/2-y,z
loop_
_atom_site_type_symbol
_atom_site_label
_atom_site_fract_x
_atom_site_fract_y
_atom_site_fract_z
Si Si1 0.230010 0.073942 0.141867
Si Si2 0.706235 0.076542 0.203717
Si Si3 0.791204 0.077355 0.389557
Si Si4 0.437592 0.073710 0.231134
Si Si5 0.269979 0.424245 0.421950
Si Si6 0.870650 0.573721 0.030783
Si Si7 0.059337 0.074792 0.328310
O O1 0.228094 0.250000 0.148799
O O2 0.359561 0.016979 0.157583
O O3 0.123004 0.011036 0.225444
O O4 0.209399 0.021322 0.042019
O O5 0.723012 0.250000 0.177608
O O6 0.722259 0.046629 0.307840
O O7 0.574117 0.015163 0.199180
O O8 0.805838 0.983356 0.132718
O O9 0.798838 0.250000 0.410443
O O10 0.925781 0.006361 0.361371
O O11 0.714836 0.001634 0.483230
O O12 0.439092 0.250000 0.234023
O O13 0.374892 0.017408 0.335681
O O14 0.281244 0.250000 0.434438
O O15 0.139870 0.466872 0.401961
O O16 0.885660 0.750000 0.031445
O O17 0.000000 0.500000 0.000000
O O18 0.048295 0.250000 0.319362
#
# Coordination Sequence:
#
# PCOD8070146 Si02
#       7
#     4   4   4   4   4   4   4
#     4   8  15  30  53  76  99 132 170 207 250 302
#     4  10  21  36  53  74 103 138 173 209 250 301
#     4  10  19  30  46  70 101 136 169 206 256 303
#     4   8  16  33  54  75 100 133 173 211 251 302
#     4   9  17  30  50  72  94 127 171 214 252 296
#     4  11  22  36  56  81 106 133 166 206 254 304
#     4   8  14  27  47  70  96 127 165 206 250 302
#
# _framework density 19.134471999999999
#
# number of rings (size 3 to 8) (size 9 to 14) (size 15 to 20)
#    0.000    2.857    0.000    3.429    0.000    4.000 
#    0.000    0.714    0.000    9.429    0.000    0.000 
#    0.000    0.000    0.000    0.000    0.000    0.000 
#
# Total GULP energy -347095.297105 kJ/mol
# GULP energy per Si atom -12396.260611 kJ/mol
# Density = 1.909092 g / cm^3
# Si number density = 19.134472 Si / 1000 Ang^3
#
#
#
# Elastic Constant Matrix: (Units=GPa)
#
#
# Indices 1 2 3 4 5 6 
#
# 1 124.6568 31.6266 43.9686 0.0000 -5.9188 0.0000
# 2 31.6266 37.4506 36.9896 0.0000 4.6355 0.0000
# 3 43.9686 36.9896 93.9677 0.0000 8.4463 0.0000
# 4 0.0000 0.0000 0.0000 23.8498 0.0000 -2.0097
# 5 -5.9188 4.6355 8.4463 0.0000 27.5639 0.0000
# 6 0.0000 0.0000 0.0000 -2.0097 0.0000 17.3659
#
#
#
# Elastic Compliance Matrix: (Units=1/GPa)
#
#
# Indices 1 2 3 4 5 6 
#
# 1 0.011007 -0.007137 -0.002736 0.000000 0.004402 0.000000
# 2 -0.007137 0.048438 -0.015278 0.000000 -0.004997 0.000000
# 3 -0.002736 -0.015278 0.018261 0.000000 -0.003614 0.000000
# 4 0.000000 0.000000 0.000000 0.042342 0.000000 0.004900
# 5 0.004402 -0.004997 -0.003614 0.000000 0.039172 0.000000
# 6 0.000000 0.000000 0.000000 0.004900 0.000000 0.058151
#
#
# Mechanical properties :
#
#
# Convention : Reuss Voigt Hill
#
# Bulk Modulus (GPa) = 36.49373 53.47162 44.98268
# Shear Modulus (GPa) = 18.06289 23.32197 20.69243
#
# Velocity S-wave (km/s) = 3.07579 3.49498 3.29206
# Velocity P-wave (km/s) = 5.63273 6.65525 6.16523
#
# Compressibility (1/GPa) = 0.02740196
#
# Stress axis : x y z
#
# Youngs Moduli (GPa) = 90.85046 20.64491 54.76028
#
# Poissons Ratio (x) = 0.14735 0.14985
# Poissons Ratio (y) = 0.64844 0.83665
# Poissons Ratio (z) = 0.24861 0.31542
#
# Static dielectric constant tensor:
#      x y z
#    x 3.878490 0.000000 0.036680 
#    y 0.000000 2.982850 0.000000 
#    z 0.036680 0.000000 3.592170 
# 
# 
# High freq. dielectric constant tensor:
#      x y z
#    x 1.751570 0.000000 0.003220 
#    y 0.000000 1.691940 0.000000 
#    z 0.003220 0.000000 1.749090 
# 
# From -- ./inp_files/48914.got.cif
#   From: 2010.06.25/outbox.cif.g09.slc.cpg/sg11_25_cif.got.tgz:48914.got - 2010.06.27 23:14:04.
