data_PCOD8070555
_publ_section_title
;
Structure prediction by ZEFSAII (Michael W. Deem and Ramdas Pophale) SiO2 
 PCOD8070555
Probable space group: P 21/M
;
_chemical_formula_sum "Si O2"
_cell_formula_units_Z 20
_cell_length_a 23.161505
_cell_length_b 9.138354
_cell_length_c 16.158295
_cell_angle_alpha 90.000000
_cell_angle_beta 161.110135
_cell_angle_gamma 90.000000
_cell_volume 1107.235866
_symmetry_space_group_name_H-M "P 21/M"
_symmetry_group_IT_number 11
_symmetry_cell_setting 'monoclinic'
loop_
_space_group_symop_operation_xyz
x,y,z
-x,1/2+y,-z
-x,-y,-z
x,1/2-y,z
loop_
_atom_site_type_symbol
_atom_site_label
_atom_site_fract_x
_atom_site_fract_y
_atom_site_fract_z
Si Si1 0.765496 0.920091 0.842764
Si Si2 0.493652 0.422186 0.788940
Si Si3 0.497458 0.579457 0.625295
Si Si4 0.161650 0.921032 0.422586
Si Si5 0.341388 0.916696 0.825290
O O1 0.752024 0.750000 0.801055
O O2 0.659318 0.952913 0.782852
O O3 0.685603 0.013272 0.659079
O O4 0.968070 0.971608 0.129848
O O5 0.469765 0.250000 0.740383
O O6 0.548464 0.501554 0.779485
O O7 0.307870 0.484840 0.572314
O O8 0.659638 0.455973 0.078005
O O9 0.467646 0.750000 0.600738
O O10 0.193979 0.750000 0.446808
O O11 0.168611 0.948190 0.532904
O O12 0.396913 0.750000 0.893407
O O13 0.500000 0.000000 0.000000
#
# Coordination Sequence:
#
# PCOD8070555 Si02
#       5
#     4   4   4   4   4
#     4   9  19  35  53  71  93 124 161 200 241 284
#     4  10  19  31  49  74 101 127 158 194 233 281
#     4  10  20  34  51  70  95 128 162 196 238 285
#     4   9  17  32  53  74  96 123 158 199 240 280
#     4   8  15  28  47  70  96 125 154 189 234 280
#
# _framework density 18.062999000000001
#
# number of rings (size 3 to 8) (size 9 to 14) (size 15 to 20)
#    0.000    2.800    0.000    1.200    0.000    3.200 
#    0.000    1.000    0.000    0.000    0.000    0.000 
#    0.000    0.000    0.000    0.000    0.000    0.000 
#
# Total GULP energy -247788.575408 kJ/mol
# GULP energy per Si atom -12389.428770 kJ/mol
# Density = 1.802189 g / cm^3
# Si number density = 18.062999 Si / 1000 Ang^3
#
#
#
# Elastic Constant Matrix: (Units=GPa)
#
#
# Indices 1 2 3 4 5 6 
#
# 1 54.7825 25.1393 4.6203 0.0000 -23.1604 0.0000
# 2 25.1393 60.1937 9.7847 0.0000 -14.3916 0.0000
# 3 4.6203 9.7847 21.5497 0.0000 -11.1841 0.0000
# 4 0.0000 0.0000 0.0000 22.5955 0.0000 -3.6525
# 5 -23.1604 -14.3916 -11.1841 0.0000 29.9908 0.0000
# 6 0.0000 0.0000 0.0000 -3.6525 0.0000 29.5335
#
#
#
# Elastic Compliance Matrix: (Units=1/GPa)
#
#
# Indices 1 2 3 4 5 6 
#
# 1 0.031617 -0.009120 0.009625 0.000000 0.023630 0.000000
# 2 -0.009120 0.021801 -0.007650 0.000000 0.000566 0.000000
# 3 0.009625 -0.007650 0.061710 0.000000 0.026775 0.000000
# 4 0.000000 0.000000 0.000000 0.045159 0.000000 0.005585
# 5 0.023630 0.000566 0.026775 0.000000 0.061848 0.000000
# 6 0.000000 0.000000 0.000000 0.005585 0.000000 0.034551
#
#
# Mechanical properties :
#
#
# Convention : Reuss Voigt Hill
#
# Bulk Modulus (GPa) = 9.91670 23.95719 16.93695
# Shear Modulus (GPa) = 16.41571 22.88940 19.65256
#
# Velocity S-wave (km/s) = 3.01791 3.56363 3.30206
# Velocity P-wave (km/s) = 4.20067 5.49769 4.89235
#
# Compressibility (1/GPa) = 0.10083997
#
# Stress axis : x y z
#
# Youngs Moduli (GPa) = 31.62859 45.87040 16.20486
#
# Poissons Ratio (x) = 0.41832 -0.15598
# Poissons Ratio (y) = 0.28844 0.12396
# Poissons Ratio (z) = -0.30444 0.35089
#
# Static dielectric constant tensor:
#      x y z
#    x 3.229160 0.000000 -0.522640 
#    y 0.000000 3.346120 0.000000 
#    z -0.522640 0.000000 3.913390 
# 
# 
# High freq. dielectric constant tensor:
#      x y z
#    x 1.679100 0.000000 -0.030980 
#    y 0.000000 1.705930 0.000000 
#    z -0.030980 0.000000 1.702290 
# 
# From -- ./inp_files/16021.got.cif
#   From: 2010.06.25/outbox.cif.g09.slc.cpg/sg11_9_cif.got.tgz:16021.got - 2010.06.27 23:14:04.
