data_PCOD8070628
_publ_section_title
;
Structure prediction by ZEFSAII (Michael W. Deem and Ramdas Pophale) SiO2 
 PCOD8070628
Probable space group: P 21/M
;
_chemical_formula_sum "Si O2"
_cell_formula_units_Z 28
_cell_length_a 18.977075
_cell_length_b 9.188248
_cell_length_c 14.117362
_cell_angle_alpha 90.000000
_cell_angle_beta 137.570223
_cell_angle_gamma 90.000000
_cell_volume 1660.799792
_symmetry_space_group_name_H-M "P 21/M"
_symmetry_group_IT_number 11
_symmetry_cell_setting 'monoclinic'
loop_
_space_group_symop_operation_xyz
x,y,z
-x,1/2+y,-z
-x,-y,-z
x,1/2-y,z
loop_
_atom_site_type_symbol
_atom_site_label
_atom_site_fract_x
_atom_site_fract_y
_atom_site_fract_z
Si Si1 0.306729 0.081618 0.014474
Si Si2 0.094297 0.081143 0.705491
Si Si3 0.624356 0.080178 0.527374
Si Si4 0.687825 0.921020 0.408928
Si Si5 0.889678 0.579420 0.494347
Si Si6 0.616665 0.583286 0.704921
Si Si7 0.512368 0.422052 0.912857
O O1 0.333487 0.250000 0.016727
O O2 0.314985 0.052203 0.134468
O O3 0.383330 0.977351 0.033563
O O4 0.189287 0.041712 0.868843
O O5 0.066602 0.250000 0.681730
O O6 0.125625 0.033719 0.630213
O O7 0.992360 0.995525 0.639770
O O8 0.648443 0.250000 0.549209
O O9 0.502884 0.043799 0.389785
O O10 0.690573 0.003670 0.511234
O O11 0.660485 0.017444 0.664602
O O12 0.690346 0.750000 0.431329
O O13 0.788222 0.974348 0.449966
O O14 0.585719 0.965552 0.248934
O O15 0.904529 0.750000 0.520031
O O16 0.625010 0.750000 0.679923
O O17 0.519104 0.250000 0.935534
O O18 0.500000 0.500000 0.000000
#
# Coordination Sequence:
#
# PCOD8070628 Si02
#       7
#     4   4   4   4   4   4   4
#     4  10  19  34  53  74 102 133 167 205 250 301
#     4   9  18  33  53  74  99 131 168 209 248 291
#     4  10  19  31  50  75 101 130 167 208 246 298
#     4  10  20  34  51  72 101 136 168 205 252 299
#     4   9  18  33  51  72  99 132 170 207 246 293
#     4   9  18  32  50  72 101 134 164 201 250 302
#     4  11  22  33  48  72 104 137 167 201 247 300
#
# _framework density 16.859348000000001
#
# number of rings (size 3 to 8) (size 9 to 14) (size 15 to 20)
#    0.000    2.286    1.429    1.714    0.000    5.143 
#    0.000    2.857    0.000    0.857    0.000    0.000 
#    0.000    0.000    0.000    0.000    0.000    0.000 
#
# Total GULP energy -347292.647702 kJ/mol
# GULP energy per Si atom -12403.308847 kJ/mol
# Density = 1.682098 g / cm^3
# Si number density = 16.859348 Si / 1000 Ang^3
#
#
#
# Elastic Constant Matrix: (Units=GPa)
#
#
# Indices 1 2 3 4 5 6 
#
# 1 77.7366 38.5882 45.9039 0.0000 -10.7824 0.0000
# 2 38.5882 52.0428 36.2756 0.0000 -5.9465 0.0000
# 3 45.9039 36.2756 110.0710 0.0000 -4.7652 0.0000
# 4 0.0000 0.0000 0.0000 26.2324 0.0000 -0.2934
# 5 -10.7824 -5.9465 -4.7652 0.0000 21.7573 0.0000
# 6 0.0000 0.0000 0.0000 -0.2934 0.0000 32.9287
#
#
#
# Elastic Compliance Matrix: (Units=1/GPa)
#
#
# Indices 1 2 3 4 5 6 
#
# 1 0.023245 -0.012853 -0.005161 0.000000 0.006877 0.000000
# 2 -0.012853 0.032617 -0.005330 0.000000 0.001378 0.000000
# 3 -0.005161 -0.005330 0.012943 0.000000 -0.001180 0.000000
# 4 0.000000 0.000000 0.000000 0.038125 0.000000 0.000340
# 5 0.006877 0.001378 -0.001180 0.000000 0.049488 0.000000
# 6 0.000000 0.000000 0.000000 0.000340 0.000000 0.030372
#
#
# Mechanical properties :
#
#
# Convention : Reuss Voigt Hill
#
# Bulk Modulus (GPa) = 45.21023 53.48732 49.34878
# Shear Modulus (GPa) = 20.75992 24.12253 22.44122
#
# Velocity S-wave (km/s) = 3.51288 3.78671 3.65236
# Velocity P-wave (km/s) = 6.58241 7.13536 6.86445
#
# Compressibility (1/GPa) = 0.02211889
#
# Stress axis : x y z
#
# Youngs Moduli (GPa) = 43.01956 30.65851 77.26372
#
# Poissons Ratio (x) = 0.39405 0.39873
# Poissons Ratio (y) = 0.55292 0.41180
# Poissons Ratio (z) = 0.22201 0.16340
#
# Static dielectric constant tensor:
#      x y z
#    x 3.124620 0.000000 -0.056750 
#    y 0.000000 3.150560 0.000000 
#    z -0.056750 0.000000 3.159470 
# 
# 
# High freq. dielectric constant tensor:
#      x y z
#    x 1.641650 0.000000 -0.008490 
#    y 0.000000 1.652270 0.000000 
#    z -0.008490 0.000000 1.640930 
# 
# From -- ./inp_files/53227.got.cif
#   From: 2010.06.25/outbox.cif.g09.slc.cpg/sg11_27_cif.got.tgz:53227.got - 2010.06.27 23:14:04.
