data_PCOD8070540
_publ_section_title
;
Structure prediction by ZEFSAII (Michael W. Deem and Ramdas Pophale) SiO2 
 PCOD8070540
Probable space group: P 21/M
;
_chemical_formula_sum "Si O2"
_cell_formula_units_Z 32
_cell_length_a 19.842507
_cell_length_b 9.276807
_cell_length_c 12.043046
_cell_angle_alpha 90.000000
_cell_angle_beta 56.968540
_cell_angle_gamma 90.000000
_cell_volume 1858.522651
_symmetry_space_group_name_H-M "P 21/M"
_symmetry_group_IT_number 11
_symmetry_cell_setting 'monoclinic'
loop_
_space_group_symop_operation_xyz
x,y,z
-x,1/2+y,-z
-x,-y,-z
x,1/2-y,z
loop_
_atom_site_type_symbol
_atom_site_label
_atom_site_fract_x
_atom_site_fract_y
_atom_site_fract_z
Si Si1 0.738373 0.419262 0.903817
Si Si2 0.675757 0.084181 0.726753
Si Si3 0.542291 0.081907 0.679729
Si Si4 0.050419 0.414087 0.600902
Si Si5 0.783247 0.916249 0.469059
Si Si6 0.101409 0.083397 0.303934
Si Si7 0.651763 0.917903 0.416828
Si Si8 0.359946 0.081000 0.826831
O O1 0.751954 0.250000 0.910519
O O2 0.676825 0.448874 0.857001
O O3 0.823180 0.492356 0.803927
O O4 0.701187 0.488623 0.046399
O O5 0.693911 0.250000 0.686858
O O6 0.589971 0.040162 0.749962
O O7 0.747898 0.999655 0.605307
O O8 0.548444 0.250000 0.646568
O O9 0.450298 0.036217 0.779030
O O10 0.579175 0.000567 0.541203
O O11 0.019315 0.250000 0.640653
O O12 0.121312 0.448769 0.626308
O O13 0.089471 0.438148 0.445234
O O14 0.977203 0.522281 0.689010
O O15 0.769642 0.750000 0.509815
O O16 0.737266 0.958749 0.396875
O O17 0.113088 0.250000 0.260856
O O18 0.632174 0.750000 0.446086
O O19 0.656630 0.963615 0.284972
O O20 0.344527 0.250000 0.861075
#
# Coordination Sequence:
#
# PCOD8070540 Si02
#       8
#     4   4   4   4   4   4   4   4
#     4  11  22  34  49  69  99 134 168 204 241 289
#     4   9  18  31  47  70  99 129 162 201 246 289
#     4   9  18  33  52  73  98 127 161 207 253 291
#     4   9  17  29  48  75 103 128 156 192 239 291
#     4   9  16  29  50  75 101 127 158 197 243 290
#     4  10  19  31  49  73 101 131 160 194 239 292
#     4   9  18  32  52  76  99 126 163 207 246 285
#     4  10  21  35  50  70  98 133 169 203 245 291
#
# _framework density 17.217976
#
# number of rings (size 3 to 8) (size 9 to 14) (size 15 to 20)
#    0.000    2.500    1.250    1.125    0.000    3.000 
#    0.000    0.000    0.000    0.750    0.000    0.000 
#    0.000    0.000    0.000    0.000    0.000    0.000 
#
# Total GULP energy -396759.761361 kJ/mol
# GULP energy per Si atom -12398.742543 kJ/mol
# Density = 1.717879 g / cm^3
# Si number density = 17.217976 Si / 1000 Ang^3
#
#
#
# Elastic Constant Matrix: (Units=GPa)
#
#
# Indices 1 2 3 4 5 6 
#
# 1 87.2787 38.3713 43.1185 0.0000 -16.6165 0.0000
# 2 38.3713 68.0204 47.5123 0.0000 -8.2495 0.0000
# 3 43.1185 47.5123 86.2450 0.0000 -6.4751 0.0000
# 4 0.0000 0.0000 0.0000 28.6310 0.0000 -4.9511
# 5 -16.6165 -8.2495 -6.4751 0.0000 17.8452 0.0000
# 6 0.0000 0.0000 0.0000 -4.9511 0.0000 22.9360
#
#
#
# Elastic Compliance Matrix: (Units=1/GPa)
#
#
# Indices 1 2 3 4 5 6 
#
# 1 0.019075 -0.005174 -0.005687 0.000000 0.013306 0.000000
# 2 -0.005174 0.026045 -0.011533 0.000000 0.003037 0.000000
# 3 -0.005687 -0.011533 0.020554 0.000000 -0.003169 0.000000
# 4 0.000000 0.000000 0.000000 0.036282 0.000000 0.007832
# 5 0.013306 0.003037 -0.003169 0.000000 0.068682 0.000000
# 6 0.000000 0.000000 0.000000 0.007832 0.000000 0.045290
#
#
# Mechanical properties :
#
#
# Convention : Reuss Voigt Hill
#
# Bulk Modulus (GPa) = 47.88218 55.50538 51.69378
# Shear Modulus (GPa) = 18.67917 21.38524 20.03220
#
# Velocity S-wave (km/s) = 3.29730 3.52807 3.41463
# Velocity P-wave (km/s) = 6.50892 6.99308 6.75534
#
# Compressibility (1/GPa) = 0.02088459
#
# Stress axis : x y z
#
# Youngs Moduli (GPa) = 52.42332 38.39582 48.65288
#
# Poissons Ratio (x) = 0.19868 0.27670
# Poissons Ratio (y) = 0.27126 0.56111
# Poissons Ratio (z) = 0.29814 0.44282
#
# Static dielectric constant tensor:
#      x y z
#    x 3.570000 0.000000 0.012190 
#    y 0.000000 3.337980 0.000000 
#    z 0.012190 0.000000 2.886280 
# 
# 
# High freq. dielectric constant tensor:
#      x y z
#    x 1.678480 0.000000 -0.005300 
#    y 0.000000 1.668110 0.000000 
#    z -0.005300 0.000000 1.628580 
# 
# From -- ./inp_files/42823.got.cif
#   From: 2010.06.25/outbox.cif.g09.slc.cpg/sg11_22_cif.got.tgz:42823.got - 2010.06.27 23:14:04.
