data_PCOD8070692
_publ_section_title
;
Structure prediction by ZEFSAII (Michael W. Deem and Ramdas Pophale) SiO2 
 PCOD8070692
Probable space group: P 21/M
;
_chemical_formula_sum "Si O2"
_cell_formula_units_Z 32
_cell_length_a 18.389060
_cell_length_b 9.073138
_cell_length_c 14.055502
_cell_angle_alpha 90.000000
_cell_angle_beta 47.392771
_cell_angle_gamma 90.000000
_cell_volume 1726.029102
_symmetry_space_group_name_H-M "P 21/M"
_symmetry_group_IT_number 11
_symmetry_cell_setting 'monoclinic'
loop_
_space_group_symop_operation_xyz
x,y,z
-x,1/2+y,-z
-x,-y,-z
x,1/2-y,z
loop_
_atom_site_type_symbol
_atom_site_label
_atom_site_fract_x
_atom_site_fract_y
_atom_site_fract_z
Si Si1 0.469380 0.579842 0.734026
Si Si2 0.825518 0.589176 0.993443
Si Si3 0.048183 0.073898 0.281154
Si Si4 0.688916 0.579551 0.478851
Si Si5 0.218833 0.075749 0.268745
Si Si6 0.358612 0.411427 0.982658
Si Si7 0.320852 0.073928 0.729816
Si Si8 0.174695 0.575228 0.498563
O O1 0.440879 0.750000 0.749380
O O2 0.585743 0.553928 0.623048
O O3 0.437020 0.523810 0.867374
O O4 0.416991 0.493429 0.694725
O O5 0.864559 0.750000 0.989781
O O6 0.913140 0.508268 0.856044
O O7 0.735321 0.605168 0.001079
O O8 0.779943 0.512178 0.128662
O O9 0.054493 0.250000 0.268685
O O10 0.119555 0.019761 0.302933
O O11 0.938192 0.017542 0.398145
O O12 0.720846 0.750000 0.454935
O O13 0.680813 0.524604 0.377557
O O14 0.771761 0.480496 0.454348
O O15 0.214201 0.250000 0.291049
O O16 0.228333 0.992443 0.359750
O O17 0.317343 0.033682 0.121420
O O18 0.408837 0.250000 0.948687
O O19 0.327741 0.250000 0.735245
O O20 0.179614 0.750000 0.489408
#
# Coordination Sequence:
#
# PCOD8070692 Si02
#       8
#     4   4   4   4   4   4   4   4
#     4  10  19  31  51  77 102 126 156 203 253 290
#     4   7  11  24  48  74  96 120 154 195 237 284
#     4   8  15  29  50  76 101 126 159 198 243 291
#     4  10  22  37  49  67  99 137 171 200 239 292
#     4   9  17  33  56  76  98 129 162 199 244 296
#     4   8  15  29  51  76  98 125 160 195 238 294
#     4   9  17  32  55  76  95 127 168 202 237 291
#     4  11  22  33  48  72 101 132 166 206 246 284
#
# _framework density 18.539666
#
# number of rings (size 3 to 8) (size 9 to 14) (size 15 to 20)
#    0.000    3.000    0.000    3.750    0.000    2.000 
#    0.000    1.875    0.000    6.000    0.000    0.000 
#    0.000    0.000    0.000    0.000    0.000    0.000 
#
# Total GULP energy -396525.517333 kJ/mol
# GULP energy per Si atom -12391.422417 kJ/mol
# Density = 1.849747 g / cm^3
# Si number density = 18.539666 Si / 1000 Ang^3
#
#
#
# Elastic Constant Matrix: (Units=GPa)
#
#
# Indices 1 2 3 4 5 6 
#
# 1 42.1323 17.6080 10.5935 0.0000 2.0735 0.0000
# 2 17.6080 43.4290 23.8885 0.0000 2.3420 0.0000
# 3 10.5935 23.8885 96.4296 0.0000 8.7822 0.0000
# 4 0.0000 0.0000 0.0000 23.3561 0.0000 2.4855
# 5 2.0735 2.3420 8.7822 0.0000 8.6708 0.0000
# 6 0.0000 0.0000 0.0000 2.4855 0.0000 24.2431
#
#
#
# Elastic Compliance Matrix: (Units=1/GPa)
#
#
# Indices 1 2 3 4 5 6 
#
# 1 0.028698 -0.011447 0.000029 0.000000 -0.003801 0.000000
# 2 -0.011447 0.031227 -0.006565 0.000000 0.000952 0.000000
# 3 0.000029 -0.006565 0.013035 0.000000 -0.011436 0.000000
# 4 0.000000 0.000000 0.000000 0.043288 0.000000 -0.004438
# 5 -0.003801 0.000952 -0.011436 0.000000 0.127565 0.000000
# 6 0.000000 0.000000 0.000000 -0.004438 0.000000 0.041704
#
#
# Mechanical properties :
#
#
# Convention : Reuss Voigt Hill
#
# Bulk Modulus (GPa) = 27.03070 31.79678 29.41374
# Shear Modulus (GPa) = 14.97845 19.91406 17.44625
#
# Velocity S-wave (km/s) = 2.84547 3.28095 3.07094
# Velocity P-wave (km/s) = 5.04055 5.61612 5.33610
#
# Compressibility (1/GPa) = 0.03699497
#
# Stress axis : x y z
#
# Youngs Moduli (GPa) = 34.84526 32.02374 76.71675
#
# Poissons Ratio (x) = 0.36656 -0.00223
# Poissons Ratio (y) = 0.39886 0.50365
# Poissons Ratio (z) = -0.00101 0.21024
#
# Static dielectric constant tensor:
#      x y z
#    x 3.058040 0.000000 0.099780 
#    y 0.000000 3.116570 0.000000 
#    z 0.099780 0.000000 3.989910 
# 
# 
# High freq. dielectric constant tensor:
#      x y z
#    x 1.683170 0.000000 0.008570 
#    y 0.000000 1.687760 0.000000 
#    z 0.008570 0.000000 1.743630 
# 
# From -- ./inp_files/54235.got.cif
#   From: 2010.06.25/outbox.cif.g09.slc.cpg/sg11_28_cif.got.tgz:54235.got - 2010.06.27 23:14:04.
