data_PCOD8070611
_publ_section_title
;
Structure prediction by ZEFSAII (Michael W. Deem and Ramdas Pophale) SiO2 
 PCOD8070611
Probable space group: P 21/M
;
_chemical_formula_sum "Si O2"
_cell_formula_units_Z 32
_cell_length_a 15.706783
_cell_length_b 9.322834
_cell_length_c 27.533416
_cell_angle_alpha 90.000000
_cell_angle_beta 152.776991
_cell_angle_gamma 90.000000
_cell_volume 1844.351663
_symmetry_space_group_name_H-M "P 21/M"
_symmetry_group_IT_number 11
_symmetry_cell_setting 'monoclinic'
loop_
_space_group_symop_operation_xyz
x,y,z
-x,1/2+y,-z
-x,-y,-z
x,1/2-y,z
loop_
_atom_site_type_symbol
_atom_site_label
_atom_site_fract_x
_atom_site_fract_y
_atom_site_fract_z
Si Si1 0.296200 0.085777 0.671734
Si Si2 0.318524 0.915103 0.585932
Si Si3 0.720272 0.417328 0.160058
Si Si4 0.674884 0.415807 0.757253
Si Si5 0.931013 0.916640 0.076729
Si Si6 0.290860 0.417095 0.942595
Si Si7 0.718382 0.412296 0.889557
Si Si8 0.925439 0.585679 0.346654
O O1 0.258745 0.250000 0.637070
O O2 0.505151 0.068157 0.797830
O O3 0.158788 0.036225 0.644568
O O4 0.261202 0.986863 0.607595
O O5 0.365994 0.750000 0.620384
O O6 0.148133 0.930017 0.461992
O O7 0.497340 0.989882 0.651774
O O8 0.763731 0.250000 0.177130
O O9 0.770649 0.492479 0.135057
O O10 0.850979 0.482658 0.267343
O O11 0.505624 0.445563 0.065015
O O12 0.612706 0.250000 0.724801
O O13 0.739026 0.458368 0.843977
O O14 0.846889 0.445688 0.808183
O O15 0.887548 0.750000 0.048985
O O16 0.835176 0.974743 0.077027
O O17 0.848644 0.988612 0.987415
O O18 0.254972 0.250000 0.913324
O O19 0.785760 0.250000 0.931369
O O20 0.866773 0.750000 0.305823
#
# Coordination Sequence:
#
# PCOD8070611 Si02
#       8
#     4   4   4   4   4   4   4   4
#     4   9  18  32  48  69 100 134 163 194 237 285
#     4  10  20  32  48  71  97 129 167 203 239 277
#     4  10  20  33  52  77 101 127 157 190 236 292
#     4   9  19  34  48  66  96 132 166 200 241 283
#     4  10  19  31  50  72  94 126 165 200 238 286
#     4   9  19  35  52  73 101 127 154 194 241 287
#     4   9  17  28  44  69 100 130 158 192 236 283
#     4  10  20  33  50  72  99 130 162 198 241 285
#
# _framework density 17.350270999999999
#
# number of rings (size 3 to 8) (size 9 to 14) (size 15 to 20)
#    0.000    2.500    0.000    3.000    0.000    5.000 
#    0.000    0.000    0.000    0.750    0.000    0.000 
#    0.000    0.000    0.000    0.000    0.000    0.000 
#
# Total GULP energy -396851.503188 kJ/mol
# GULP energy per Si atom -12401.609475 kJ/mol
# Density = 1.731078 g / cm^3
# Si number density = 17.350271 Si / 1000 Ang^3
#
#
#
# Elastic Constant Matrix: (Units=GPa)
#
#
# Indices 1 2 3 4 5 6 
#
# 1 95.0507 41.7841 47.7066 0.0000 13.8782 0.0000
# 2 41.7841 78.8801 50.6573 0.0000 -4.1502 0.0000
# 3 47.7066 50.6573 85.2283 0.0000 0.6178 0.0000
# 4 0.0000 0.0000 0.0000 32.0725 0.0000 -2.4974
# 5 13.8782 -4.1502 0.6178 0.0000 20.5751 0.0000
# 6 0.0000 0.0000 0.0000 -2.4974 0.0000 21.1117
#
#
#
# Elastic Compliance Matrix: (Units=1/GPa)
#
#
# Indices 1 2 3 4 5 6 
#
# 1 0.018582 -0.006378 -0.006511 0.000000 -0.013625 0.000000
# 2 -0.006378 0.023119 -0.010238 0.000000 0.009273 0.000000
# 3 -0.006511 -0.010238 0.021451 0.000000 0.001683 0.000000
# 4 0.000000 0.000000 0.000000 0.031469 0.000000 0.003723
# 5 -0.013625 0.009273 0.001683 0.000000 0.059613 0.000000
# 6 0.000000 0.000000 0.000000 0.003723 0.000000 0.047807
#
#
# Mechanical properties :
#
#
# Convention : Reuss Voigt Hill
#
# Bulk Modulus (GPa) = 59.18512 59.93947 59.56229
# Shear Modulus (GPa) = 19.69045 22.68594 21.18819
#
# Velocity S-wave (km/s) = 3.37245 3.61990 3.49836
# Velocity P-wave (km/s) = 7.02499 7.21756 7.12193
#
# Compressibility (1/GPa) = 0.01689614
#
# Stress axis : x y z
#
# Youngs Moduli (GPa) = 53.81508 43.25404 46.61754
#
# Poissons Ratio (x) = 0.27589 0.30355
# Poissons Ratio (y) = 0.34326 0.47728
# Poissons Ratio (z) = 0.35041 0.44285
#
# Static dielectric constant tensor:
#      x y z
#    x 3.236120 0.000000 0.207090 
#    y 0.000000 3.241360 0.000000 
#    z 0.207090 0.000000 3.106250 
# 
# 
# High freq. dielectric constant tensor:
#      x y z
#    x 1.656300 0.000000 0.015110 
#    y 0.000000 1.673090 0.000000 
#    z 0.015110 0.000000 1.658670 
# 
# From -- ./inp_files/51614.got.cif
#   From: 2010.06.25/outbox.cif.g09.slc.cpg/sg11_26_cif.got.tgz:51614.got - 2010.06.27 23:14:04.
