data_PCOD8070242
_publ_section_title
;
Structure prediction by ZEFSAII (Michael W. Deem and Ramdas Pophale) SiO2 
 PCOD8070242
Probable space group: P 21/M
;
_chemical_formula_sum "Si O2"
_cell_formula_units_Z 32
_cell_length_a 16.831515
_cell_length_b 9.048698
_cell_length_c 21.459076
_cell_angle_alpha 90.000000
_cell_angle_beta 34.189292
_cell_angle_gamma 90.000000
_cell_volume 1836.545141
_symmetry_space_group_name_H-M "P 21/M"
_symmetry_group_IT_number 11
_symmetry_cell_setting 'monoclinic'
loop_
_space_group_symop_operation_xyz
x,y,z
-x,1/2+y,-z
-x,-y,-z
x,1/2-y,z
loop_
_atom_site_type_symbol
_atom_site_label
_atom_site_fract_x
_atom_site_fract_y
_atom_site_fract_z
Si Si1 0.223595 0.075187 0.930653
Si Si2 0.418246 0.924055 0.412541
Si Si3 0.111152 0.577295 0.643325
Si Si4 0.533041 0.075326 0.757586
Si Si5 0.997710 0.423343 0.597459
Si Si6 0.277453 0.425188 0.756604
Si Si7 0.051032 0.923142 0.821911
Si Si8 0.216199 0.423135 0.348161
O O1 0.216261 0.250000 0.935320
O O2 0.368517 0.028558 0.871575
O O3 0.221022 0.020242 0.860799
O O4 0.089364 0.009272 0.054681
O O5 0.432593 0.750000 0.399717
O O6 0.275516 0.974716 0.539761
O O7 0.415115 0.981123 0.343656
O O8 0.559390 0.980348 0.356489
O O9 0.102789 0.750000 0.631076
O O10 0.027408 0.484316 0.646752
O O11 0.040760 0.543328 0.755289
O O12 0.554710 0.250000 0.752434
O O13 0.626373 0.989389 0.747899
O O14 0.969911 0.250000 0.618972
O O15 0.128330 0.461988 0.467498
O O16 0.856597 0.501405 0.663992
O O17 0.263391 0.250000 0.759123
O O18 0.189418 0.500561 0.759415
O O19 0.065168 0.750000 0.825426
O O20 0.224868 0.250000 0.330177
#
# Coordination Sequence:
#
# PCOD8070242 Si02
#       8
#     4   4   4   4   4   4   4   4
#     4   8  16  31  50  71  94 125 163 200 242 284
#     4   8  15  28  46  67  91 124 161 192 235 287
#     4  10  19  32  49  67  96 132 161 195 237 284
#     4   9  15  28  51  71  93 126 160 195 233 283
#     4  10  20  32  48  72 101 130 157 188 228 284
#     4   9  17  31  50  68  90 124 165 205 240 283
#     4  10  20  32  47  70  97 126 162 202 243 283
#     4  10  19  30  48  76 104 124 150 192 239 280
#
# _framework density 17.424019999999999
#
# number of rings (size 3 to 8) (size 9 to 14) (size 15 to 20)
#    0.000    2.750    1.250    2.625    0.000    2.000 
#    0.000    3.750    0.000    0.750    0.000    0.000 
#    0.000    0.000    0.000    0.000    0.000    0.000 
#
# Total GULP energy -396706.638767 kJ/mol
# GULP energy per Si atom -12397.082461 kJ/mol
# Density = 1.738436 g / cm^3
# Si number density = 17.424020 Si / 1000 Ang^3
#
#
#
# Elastic Constant Matrix: (Units=GPa)
#
#
# Indices 1 2 3 4 5 6 
#
# 1 119.8424 48.5841 30.5151 0.0000 -14.0170 0.0000
# 2 48.5841 51.3174 19.6934 0.0000 -3.8144 0.0000
# 3 30.5151 19.6934 48.3560 0.0000 -1.0859 0.0000
# 4 0.0000 0.0000 0.0000 15.3277 0.0000 -4.8673
# 5 -14.0170 -3.8144 -1.0859 0.0000 24.0635 0.0000
# 6 0.0000 0.0000 0.0000 -4.8673 0.0000 31.5770
#
#
#
# Elastic Compliance Matrix: (Units=1/GPa)
#
#
# Indices 1 2 3 4 5 6 
#
# 1 0.015211 -0.012179 -0.004488 0.000000 0.006728 0.000000
# 2 -0.012179 0.033102 -0.005843 0.000000 -0.002111 0.000000
# 3 -0.004488 -0.005843 0.025839 0.000000 -0.002375 0.000000
# 4 0.000000 0.000000 0.000000 0.068599 0.000000 0.010574
# 5 0.006728 -0.002111 -0.002375 0.000000 0.045034 0.000000
# 6 0.000000 0.000000 0.000000 0.010574 0.000000 0.033298
#
#
# Mechanical properties :
#
#
# Convention : Reuss Voigt Hill
#
# Bulk Modulus (GPa) = 34.32656 46.34456 40.33556
# Shear Modulus (GPa) = 18.12821 22.24185 20.18503
#
# Velocity S-wave (km/s) = 3.22905 3.57670 3.40731
# Velocity P-wave (km/s) = 5.80050 6.61157 6.21927
#
# Compressibility (1/GPa) = 0.02913196
#
# Stress axis : x y z
#
# Youngs Moduli (GPa) = 65.74126 30.20974 38.70194
#
# Poissons Ratio (x) = 0.36791 0.17370
# Poissons Ratio (y) = 0.80063 0.22614
# Poissons Ratio (z) = 0.29505 0.17652
#
# Static dielectric constant tensor:
#      x y z
#    x 3.187010 0.000000 -0.200820 
#    y 0.000000 2.939240 0.000000 
#    z -0.200820 0.000000 3.409020 
# 
# 
# High freq. dielectric constant tensor:
#      x y z
#    x 1.673480 0.000000 -0.018340 
#    y 0.000000 1.648560 0.000000 
#    z -0.018340 0.000000 1.655270 
# 
# From -- ./inp_files/42791.got.cif
#   From: 2010.06.25/outbox.cif.g09.slc.cpg/sg11_22_cif.got.tgz:42791.got - 2010.06.27 23:14:04.
