data_PCOD8070505
_publ_section_title
;
Structure prediction by ZEFSAII (Michael W. Deem and Ramdas Pophale) SiO2 
 PCOD8070505
Probable space group: P 21/M
;
_chemical_formula_sum "Si O2"
_cell_formula_units_Z 32
_cell_length_a 18.342201
_cell_length_b 9.000730
_cell_length_c 11.728283
_cell_angle_alpha 90.000000
_cell_angle_beta 92.173572
_cell_angle_gamma 90.000000
_cell_volume 1934.866650
_symmetry_space_group_name_H-M "P 21/M"
_symmetry_group_IT_number 11
_symmetry_cell_setting 'monoclinic'
loop_
_space_group_symop_operation_xyz
x,y,z
-x,1/2+y,-z
-x,-y,-z
x,1/2-y,z
loop_
_atom_site_type_symbol
_atom_site_label
_atom_site_fract_x
_atom_site_fract_y
_atom_site_fract_z
Si Si1 0.577439 0.578716 0.102225
Si Si2 0.718098 0.926184 0.851517
Si Si3 0.735709 0.578079 0.110126
Si Si4 0.077865 0.076867 0.500546
Si Si5 0.143325 0.425711 0.272132
Si Si6 0.124331 0.075814 0.752057
Si Si7 0.004234 0.425667 0.121840
Si Si8 0.423257 0.920063 0.133128
O O1 0.575334 0.750000 0.056116
O O2 0.656556 0.551347 0.166306
O O3 0.507456 0.553142 0.182366
O O4 0.573371 0.463433 0.998936
O O5 0.715673 0.750000 0.849688
O O6 0.779727 0.989835 0.769610
O O7 0.638501 0.984582 0.805449
O O8 0.734956 0.986281 0.980737
O O9 0.753812 0.750000 0.101245
O O10 0.800106 0.509997 0.191499
O O11 0.062095 0.250000 0.481230
O O12 0.125172 0.012889 0.397404
O O13 0.124710 0.046679 0.616772
O O14 0.000000 0.000000 0.500000
O O15 0.148995 0.250000 0.276161
O O16 0.080437 0.475292 0.181571
O O17 0.112870 0.250000 0.778058
O O18 0.059470 0.982853 0.801645
O O19 0.998219 0.250000 0.108427
O O20 0.000000 0.500000 0.000000
O O21 0.400299 0.750000 0.145315
#
# Coordination Sequence:
#
# PCOD8070505 Si02
#       8
#     4   4   4   4   4   4   4   4
#     4   8  14  25  40  57  84 121 148 167 206 267
#     4   9  16  28  44  59  84 120 150 175 214 269
#     4   8  14  26  43  63  87 116 147 176 213 264
#     4  10  19  33  51  69  88 113 151 195 232 268
#     4   9  18  32  48  64  86 120 153 183 223 270
#     4  10  19  31  49  70  90 114 150 192 227 264
#     4  11  21  33  48  65  91 121 150 182 222 274
#     4   9  15  23  38  62  88 111 142 181 215 252
#
# _framework density 16.538606999999999
#
# number of rings (size 3 to 8) (size 9 to 14) (size 15 to 20)
#    0.000    2.750    1.250    2.250    0.000    2.500 
#    0.000    6.875    0.000    0.000    0.000    0.875 
#    0.000    0.000    0.000    0.000    0.000    0.000 
#
# Total GULP energy -396452.799734 kJ/mol
# GULP energy per Si atom -12389.149992 kJ/mol
# Density = 1.650096 g / cm^3
# Si number density = 16.538607 Si / 1000 Ang^3
#
#
#
# Elastic Constant Matrix: (Units=GPa)
#
#
# Indices 1 2 3 4 5 6 
#
# 1 163.0032 30.8969 53.3422 0.0000 -28.5762 0.0000
# 2 30.8969 34.4575 23.3883 0.0000 -3.2104 0.0000
# 3 53.3422 23.3883 83.8862 0.0000 -19.5509 0.0000
# 4 0.0000 0.0000 0.0000 14.5846 0.0000 -2.9295
# 5 -28.5762 -3.2104 -19.5509 0.0000 12.6283 0.0000
# 6 0.0000 0.0000 0.0000 -2.9295 0.0000 24.1566
#
#
#
# Elastic Compliance Matrix: (Units=1/GPa)
#
#
# Indices 1 2 3 4 5 6 
#
# 1 0.012285 -0.009223 0.001083 0.000000 0.027131 0.000000
# 2 -0.009223 0.043534 -0.013389 0.000000 -0.030530 0.000000
# 3 0.001083 -0.013389 0.023066 0.000000 0.034756 0.000000
# 4 0.000000 0.000000 0.000000 0.070277 0.000000 0.008523
# 5 0.027131 -0.030530 0.034756 0.000000 0.186628 0.000000
# 6 0.000000 0.000000 0.000000 0.008523 0.000000 0.042430
#
#
# Mechanical properties :
#
#
# Convention : Reuss Voigt Hill
#
# Bulk Modulus (GPa) = 27.91139 55.17796 41.54467
# Shear Modulus (GPa) = 11.54148 21.85521 16.69835
#
# Velocity S-wave (km/s) = 2.64455 3.63914 3.18096
# Velocity P-wave (km/s) = 5.12231 7.14796 6.21817
#
# Compressibility (1/GPa) = 0.03582767
#
# Stress axis : x y z
#
# Youngs Moduli (GPa) = 81.40019 22.97061 43.35438
#
# Poissons Ratio (x) = 0.21185 -0.04694
# Poissons Ratio (y) = 0.75072 0.58045
# Poissons Ratio (z) = -0.08814 0.30754
#
# Static dielectric constant tensor:
#      x y z
#    x 3.606770 0.000000 0.086700 
#    y 0.000000 2.950660 0.000000 
#    z 0.086700 0.000000 2.771860 
# 
# 
# High freq. dielectric constant tensor:
#      x y z
#    x 1.656170 0.000000 -0.007320 
#    y 0.000000 1.616100 0.000000 
#    z -0.007320 0.000000 1.593210 
# 
# From -- ./inp_files/40658.got.cif
#   From: 2010.06.25/outbox.cif.g09.slc.cpg/sg11_21_cif.got.tgz:40658.got - 2010.06.27 23:14:04.
