data_PCOD8070599
_publ_section_title
;
Structure prediction by ZEFSAII (Michael W. Deem and Ramdas Pophale) SiO2 
 PCOD8070599
Probable space group: P 21/M
;
_chemical_formula_sum "Si O2"
_cell_formula_units_Z 32
_cell_length_a 24.823687
_cell_length_b 8.701106
_cell_length_c 16.197651
_cell_angle_alpha 90.000000
_cell_angle_beta 153.280618
_cell_angle_gamma 90.000000
_cell_volume 1573.039205
_symmetry_space_group_name_H-M "P 21/M"
_symmetry_group_IT_number 11
_symmetry_cell_setting 'monoclinic'
loop_
_space_group_symop_operation_xyz
x,y,z
-x,1/2+y,-z
-x,-y,-z
x,1/2-y,z
loop_
_atom_site_type_symbol
_atom_site_label
_atom_site_fract_x
_atom_site_fract_y
_atom_site_fract_z
Si Si1 0.291042 0.072874 0.034374
Si Si2 0.269708 0.931320 0.458019
Si Si3 0.884368 0.568514 0.884937
Si Si4 0.298535 0.917781 0.784840
Si Si5 0.879123 0.081179 0.318056
Si Si6 0.473685 0.568062 0.168332
Si Si7 0.147145 0.069349 0.442765
Si Si8 0.103042 0.431386 0.908817
O O1 0.329527 0.250000 0.090784
O O2 0.407456 0.976846 0.163976
O O3 0.227217 0.019718 0.032575
O O4 0.191012 0.045014 0.829514
O O5 0.267618 0.750000 0.448105
O O6 0.234863 0.003420 0.322042
O O7 0.399394 0.987674 0.663023
O O8 0.171011 0.984705 0.389026
O O9 0.887490 0.750000 0.880713
O O10 0.879877 0.516574 0.973707
O O11 0.000000 0.500000 0.000000
O O12 0.337830 0.750000 0.802442
O O13 0.181119 0.890872 0.677229
O O14 0.258189 0.030884 0.656219
O O15 0.402384 0.985446 0.987599
O O16 0.891153 0.250000 0.290668
O O17 0.000000 0.000000 0.500000
O O18 0.487345 0.750000 0.186616
O O19 0.146040 0.250000 0.427265
O O20 0.015061 0.013819 0.291952
O O21 0.082856 0.250000 0.871165
#
# Coordination Sequence:
#
# PCOD8070599 Si02
#       8
#     4   4   4   4   4   4   4   4
#     4  10  20  36  58  85 117 157 197 239 295 356
#     4  12  25  42  64  88 119 158 198 248 303 360
#     4  11  22  40  65  93 122 156 196 243 300 360
#     4   9  20  37  55  78 115 157 197 243 296 350
#     4  10  19  31  49  76 111 154 199 246 295 346
#     4  10  22  42  64  87 118 159 205 250 293 349
#     4  12  24  36  58  90 122 156 201 250 299 358
#     4  10  22  39  61  89 125 159 193 243 302 358
#
# _framework density 20.342786
#
# number of rings (size 3 to 8) (size 9 to 14) (size 15 to 20)
#    0.000    1.500    1.250    5.250    0.000    8.000 
#    0.000    0.625    0.000    0.000    0.000    0.000 
#    0.000    0.000    0.000    0.000    0.000    0.000 
#
# Total GULP energy -396634.101303 kJ/mol
# GULP energy per Si atom -12394.815666 kJ/mol
# Density = 2.029649 g / cm^3
# Si number density = 20.342786 Si / 1000 Ang^3
#
#
#
# Elastic Constant Matrix: (Units=GPa)
#
#
# Indices 1 2 3 4 5 6 
#
# 1 64.1677 21.9964 9.2745 0.0000 -14.8939 0.0000
# 2 21.9964 89.0500 25.1066 0.0000 -7.6137 0.0000
# 3 9.2745 25.1066 83.6537 0.0000 -7.9111 0.0000
# 4 0.0000 0.0000 0.0000 33.6635 0.0000 0.6394
# 5 -14.8939 -7.6137 -7.9111 0.0000 26.5244 0.0000
# 6 0.0000 0.0000 0.0000 0.6394 0.0000 28.4799
#
#
#
# Elastic Compliance Matrix: (Units=1/GPa)
#
#
# Indices 1 2 3 4 5 6 
#
# 1 0.019161 -0.003897 -0.000044 0.000000 0.009627 0.000000
# 2 -0.003897 0.013223 -0.003483 0.000000 0.000568 0.000000
# 3 -0.000044 -0.003483 0.013282 0.000000 0.002937 0.000000
# 4 0.000000 0.000000 0.000000 0.029718 0.000000 -0.000667
# 5 0.009627 0.000568 0.002937 0.000000 0.044146 0.000000
# 6 0.000000 0.000000 0.000000 -0.000667 0.000000 0.035128
#
#
# Mechanical properties :
#
#
# Convention : Reuss Voigt Hill
#
# Bulk Modulus (GPa) = 32.44924 38.84738 35.64831
# Shear Modulus (GPa) = 27.81190 29.76648 28.78919
#
# Velocity S-wave (km/s) = 3.70153 3.82939 3.76600
# Velocity P-wave (km/s) = 5.85271 6.22014 6.03922
#
# Compressibility (1/GPa) = 0.03081736
#
# Stress axis : x y z
#
# Youngs Moduli (GPa) = 52.18881 75.62666 75.29037
#
# Poissons Ratio (x) = 0.29475 0.00333
# Poissons Ratio (y) = 0.20340 0.26221
# Poissons Ratio (z) = 0.00231 0.26338
#
# Static dielectric constant tensor:
#      x y z
#    x 3.796590 0.000000 -0.126570 
#    y 0.000000 3.625470 0.000000 
#    z -0.126570 0.000000 3.670390 
# 
# 
# High freq. dielectric constant tensor:
#      x y z
#    x 1.791530 0.000000 0.002530 
#    y 0.000000 1.800910 0.000000 
#    z 0.002530 0.000000 1.786410 
# 
# From -- ./inp_files/55714.got.cif
#   From: 2010.06.25/outbox.cif.g09.slc.cpg/sg11_28_cif.got.tgz:55714.got - 2010.06.27 23:14:04.
