data_PCOD8070563
_publ_section_title
;
Structure prediction by ZEFSAII (Michael W. Deem and Ramdas Pophale) SiO2 
 PCOD8070563
Probable space group: P 21/M
;
_chemical_formula_sum "Si O2"
_cell_formula_units_Z 32
_cell_length_a 29.528019
_cell_length_b 8.878501
_cell_length_c 21.489580
_cell_angle_alpha 90.000000
_cell_angle_beta 19.393577
_cell_angle_gamma 90.000000
_cell_volume 1870.735657
_symmetry_space_group_name_H-M "P 21/M"
_symmetry_group_IT_number 11
_symmetry_cell_setting 'monoclinic'
loop_
_space_group_symop_operation_xyz
x,y,z
-x,1/2+y,-z
-x,-y,-z
x,1/2-y,z
loop_
_atom_site_type_symbol
_atom_site_label
_atom_site_fract_x
_atom_site_fract_y
_atom_site_fract_z
Si Si1 0.586624 0.573100 0.189791
Si Si2 0.437122 0.419110 0.490140
Si Si3 0.426255 0.928339 0.154856
Si Si4 0.872428 0.427688 0.492523
Si Si5 0.850437 0.572483 0.926332
Si Si6 0.874175 0.072507 0.629405
Si Si7 0.413100 0.927795 0.943002
Si Si8 0.708815 0.418553 0.218504
O O1 0.575159 0.750000 0.192050
O O2 0.467376 0.522707 0.391296
O O3 0.561192 0.483107 0.159760
O O4 0.734300 0.529398 0.026567
O O5 0.398817 0.250000 0.518546
O O6 0.567818 0.415651 0.364594
O O7 0.310398 0.489687 0.692399
O O8 0.446642 0.750000 0.124290
O O9 0.266544 0.972917 0.362039
O O10 0.482426 0.991201 0.146440
O O11 0.500000 0.000000 0.000000
O O12 0.887967 0.250000 0.476730
O O13 0.866741 0.494033 0.569496
O O14 0.004891 0.492131 0.285225
O O15 0.852105 0.750000 0.935053
O O16 0.823705 0.496743 0.027529
O O17 0.893393 0.250000 0.603904
O O18 0.738597 0.024363 0.841191
O O19 0.000000 0.000000 0.500000
O O20 0.435600 0.750000 0.918639
O O21 0.756668 0.250000 0.172752
#
# Coordination Sequence:
#
# PCOD8070563 Si02
#       8
#     4   4   4   4   4   4   4   4
#     4  10  19  31  49  74 103 134 168 204 248 300
#     4   9  16  27  44  67  98 135 170 201 241 290
#     4  11  21  37  57  74  95 126 169 216 259 300
#     4   9  18  34  52  70  96 129 164 206 252 295
#     4   9  17  30  49  71 100 134 167 202 247 301
#     4  10  20  34  50  71  99 130 163 201 247 300
#     4  11  22  36  52  72 100 131 167 210 255 299
#     4   9  16  26  42  67 100 133 167 203 241 288
#
# _framework density 17.10557
#
# number of rings (size 3 to 8) (size 9 to 14) (size 15 to 20)
#    0.000    2.250    1.250    2.625    0.000    5.500 
#    0.000    1.875    0.000    0.000    0.000    0.875 
#    0.000    0.000    0.000    0.000    0.000    0.000 
#
# Total GULP energy -396807.381637 kJ/mol
# GULP energy per Si atom -12400.230676 kJ/mol
# Density = 1.706664 g / cm^3
# Si number density = 17.105570 Si / 1000 Ang^3
#
#
#
# Elastic Constant Matrix: (Units=GPa)
#
#
# Indices 1 2 3 4 5 6 
#
# 1 95.5389 35.5879 71.9228 0.0000 2.9355 0.0000
# 2 35.5879 64.9836 37.3411 0.0000 2.1908 0.0000
# 3 71.9228 37.3411 93.6409 0.0000 19.8015 0.0000
# 4 0.0000 0.0000 0.0000 23.3907 0.0000 4.8678
# 5 2.9355 2.1908 19.8015 0.0000 27.6674 0.0000
# 6 0.0000 0.0000 0.0000 4.8678 0.0000 27.4895
#
#
#
# Elastic Compliance Matrix: (Units=1/GPa)
#
#
# Indices 1 2 3 4 5 6 
#
# 1 0.029793 -0.002401 -0.025095 0.000000 0.014990 0.000000
# 2 -0.002401 0.020725 -0.007220 0.000000 0.003781 0.000000
# 3 -0.025095 -0.007220 0.037882 0.000000 -0.023878 0.000000
# 4 0.000000 0.000000 0.000000 0.044388 0.000000 -0.007860
# 5 0.014990 0.003781 -0.023878 0.000000 0.051344 0.000000
# 6 0.000000 0.000000 0.000000 -0.007860 0.000000 0.037769
#
#
# Mechanical properties :
#
#
# Convention : Reuss Voigt Hill
#
# Bulk Modulus (GPa) = 52.72105 60.42968 56.57536
# Shear Modulus (GPa) = 16.79799 22.99695 19.89747
#
# Velocity S-wave (km/s) = 3.13712 3.67060 3.41430
# Velocity P-wave (km/s) = 6.63400 7.30538 6.97777
#
# Compressibility (1/GPa) = 0.01896776
#
# Stress axis : x y z
#
# Youngs Moduli (GPa) = 33.56529 48.25199 26.39746
#
# Poissons Ratio (x) = 0.11584 0.66245
# Poissons Ratio (y) = 0.08058 0.19059
# Poissons Ratio (z) = 0.84233 0.34837
#
# Static dielectric constant tensor:
#      x y z
#    x 3.063110 0.000000 0.159530 
#    y 0.000000 3.209140 0.000000 
#    z 0.159530 0.000000 3.330870 
# 
# 
# High freq. dielectric constant tensor:
#      x y z
#    x 1.637840 0.000000 0.023420 
#    y 0.000000 1.661530 0.000000 
#    z 0.023420 0.000000 1.654700 
# 
# From -- ./inp_files/40651.got.cif
#   From: 2010.06.25/outbox.cif.g09.slc.cpg/sg11_21_cif.got.tgz:40651.got - 2010.06.27 23:14:04.
