data_PCOD8070014
_publ_section_title
;
Structure prediction by ZEFSAII (Michael W. Deem and Ramdas Pophale) SiO2 
 PCOD8070014
Probable space group: P 21/M
;
_chemical_formula_sum "Si O2"
_cell_formula_units_Z 28
_cell_length_a 7.737016
_cell_length_b 14.087834
_cell_length_c 11.156423
_cell_angle_alpha 90.000000
_cell_angle_beta 91.430267
_cell_angle_gamma 90.000000
_cell_volume 1215.646670
_symmetry_space_group_name_H-M "P 21/M"
_symmetry_group_IT_number 11
_symmetry_cell_setting 'monoclinic'
loop_
_space_group_symop_operation_xyz
x,y,z
-x,1/2+y,-z
-x,-y,-z
x,1/2-y,z
loop_
_atom_site_type_symbol
_atom_site_label
_atom_site_fract_x
_atom_site_fract_y
_atom_site_fract_z
Si Si1 0.980312 0.641241 0.939609
Si Si2 0.143827 0.852984 0.709866
Si Si3 0.257075 0.357068 0.375364
Si Si4 0.488141 0.141091 0.926600
Si Si5 0.892665 0.645367 0.189396
Si Si6 0.648087 0.955338 0.852667
Si Si7 0.156609 0.028806 0.584528
O O1 0.905964 0.750000 0.923387
O O2 0.025328 0.624223 0.080798
O O3 0.147142 0.629062 0.855099
O O4 0.842124 0.562581 0.899902
O O5 0.223621 0.750000 0.680339
O O6 0.942512 0.856654 0.668202
O O7 0.249896 0.933250 0.638250
O O8 0.327718 0.250000 0.385564
O O9 0.373159 0.415851 0.282972
O O10 0.282745 0.405079 0.508114
O O11 0.559296 0.250000 0.923259
O O12 0.299854 0.135200 0.864824
O O13 0.609619 0.068474 0.854157
O O14 0.482135 0.103992 0.063874
O O15 0.924862 0.750000 0.240770
O O16 0.927873 0.577619 0.300893
O O17 0.000000 0.000000 0.500000
#
# Coordination Sequence:
#
# PCOD8070014 Si02
#       7
#     4   4   4   4   4   4   4
#     4   8  14  27  49  73  93 117 153 192 229 275
#     4   8  15  28  45  64  89 120 153 190 229 272
#     4   9  16  28  46  68  91 118 157 193 221 270
#     4   9  17  29  48  73  96 118 150 192 235 278
#     4   9  17  30  47  68  92 118 153 196 233 267
#     4   9  15  27  49  71  92 122 153 186 231 277
#     4  10  19  29  45  67  89 120 158 192 229 270
#
# _framework density 23.033007000000001
#
# number of rings (size 3 to 8) (size 9 to 14) (size 15 to 20)
#    0.000    3.143    0.000    3.429    0.000    1.143 
#    0.000    1.429    0.000   19.714    0.000    0.000 
#    0.000    0.000    0.000    0.000    0.000    0.000 
#
# Total GULP energy -346886.079771 kJ/mol
# GULP energy per Si atom -12388.788563 kJ/mol
# Density = 2.298058 g / cm^3
# Si number density = 23.033007 Si / 1000 Ang^3
#
#
#
# Elastic Constant Matrix: (Units=GPa)
#
#
# Indices 1 2 3 4 5 6 
#
# 1 12.5072 13.2909 1.3285 0.0000 -0.9679 0.0000
# 2 13.2909 198.7480 101.1854 0.0000 -18.2501 0.0000
# 3 1.3285 101.1854 185.6727 0.0000 -16.8318 0.0000
# 4 0.0000 0.0000 0.0000 47.3201 0.0000 -6.6518
# 5 -0.9679 -18.2501 -16.8318 0.0000 15.0638 0.0000
# 6 0.0000 0.0000 0.0000 -6.6518 0.0000 21.6732
#
#
#
# Elastic Compliance Matrix: (Units=1/GPa)
#
#
# Indices 1 2 3 4 5 6 
#
# 1 0.087736 -0.007655 0.003577 0.000000 0.000359 0.000000
# 2 -0.007655 0.007940 -0.003833 0.000000 0.004844 0.000000
# 3 0.003577 -0.003833 0.007843 0.000000 0.004350 0.000000
# 4 0.000000 0.000000 0.000000 0.022085 0.000000 0.006778
# 5 0.000359 0.004844 0.004350 0.000000 0.077137 0.000000
# 6 0.000000 0.000000 0.000000 0.006778 0.000000 0.048220
#
#
# Mechanical properties :
#
#
# Convention : Reuss Voigt Hill
#
# Bulk Modulus (GPa) = 11.40296 69.83752 40.62024
# Shear Modulus (GPa) = 16.89090 35.55297 26.22194
#
# Velocity S-wave (km/s) = 2.71095 3.93309 3.37775
# Velocity P-wave (km/s) = 3.84194 7.14227 5.73465
#
# Compressibility (1/GPa) = 0.08769652
#
# Stress axis : x y z
#
# Youngs Moduli (GPa) = 11.39779 125.95033 127.49590
#
# Poissons Ratio (x) = 0.96416 -0.45600
# Poissons Ratio (y) = 0.08725 0.48868
# Poissons Ratio (z) = -0.04077 0.48276
#
# Static dielectric constant tensor:
#      x y z
#    x 3.319950 0.000000 -0.275590 
#    y 0.000000 4.684480 0.000000 
#    z -0.275590 0.000000 4.892860 
# 
# 
# High freq. dielectric constant tensor:
#      x y z
#    x 1.836680 0.000000 -0.007710 
#    y 0.000000 1.931370 0.000000 
#    z -0.007710 0.000000 1.912380 
# 
# From -- ./inp_files/34325.got.cif
#   From: 2010.06.25/outbox.cif.g09.slc.cpg/sg11_18_cif.got.tgz:34325.got - 2010.06.27 23:14:04.
