data_PCOD8070663
_publ_section_title
;
Structure prediction by ZEFSAII (Michael W. Deem and Ramdas Pophale) SiO2 
 PCOD8070663
Probable space group: P 21/M
;
_chemical_formula_sum "Si O2"
_cell_formula_units_Z 28
_cell_length_a 29.863456
_cell_length_b 9.144719
_cell_length_c 9.439853
_cell_angle_alpha 90.000000
_cell_angle_beta 37.782591
_cell_angle_gamma 90.000000
_cell_volume 1579.429004
_symmetry_space_group_name_H-M "P 21/M"
_symmetry_group_IT_number 11
_symmetry_cell_setting 'monoclinic'
loop_
_space_group_symop_operation_xyz
x,y,z
-x,1/2+y,-z
-x,-y,-z
x,1/2-y,z
loop_
_atom_site_type_symbol
_atom_site_label
_atom_site_fract_x
_atom_site_fract_y
_atom_site_fract_z
Si Si1 0.438639 0.921929 0.564721
Si Si2 0.002614 0.079959 0.844882
Si Si3 0.278177 0.911009 0.971836
Si Si4 0.875641 0.074368 0.953538
Si Si5 0.863919 0.579221 0.689166
Si Si6 0.562388 0.424495 0.755694
Si Si7 0.719166 0.409693 0.370229
O O1 0.448665 0.750000 0.554698
O O2 0.357834 0.966891 0.825510
O O3 0.449140 0.971810 0.376942
O O4 0.500000 0.000000 0.500000
O O5 0.991757 0.250000 0.901438
O O6 0.078975 0.046749 0.577999
O O7 0.937650 0.021927 0.906391
O O8 0.000000 0.000000 0.000000
O O9 0.260296 0.750000 0.080829
O O10 0.284284 0.894172 0.789280
O O11 0.214424 0.023836 0.172968
O O12 0.873952 0.250000 0.938485
O O13 0.890655 0.004984 0.762494
O O14 0.797107 0.013794 0.211402
O O15 0.859044 0.750000 0.737404
O O16 0.559498 0.250000 0.780348
O O17 0.642610 0.485120 0.609232
O O18 0.500000 0.500000 0.000000
O O19 0.720887 0.250000 0.437001
#
# Coordination Sequence:
#
# PCOD8070663 Si02
#       7
#     4   4   4   4   4   4   4
#     4   9  18  32  50  72  99 129 164 203 243 287
#     4  10  22  36  50  71 101 133 162 194 241 295
#     4   8  15  30  50  70  93 127 166 200 237 287
#     4   9  17  33  55  74  92 123 164 201 239 289
#     4  10  19  31  50  78 102 121 155 205 249 285
#     4   9  17  30  47  69  96 125 156 195 238 281
#     4   7  12  26  48  68  88 116 155 198 232 268
#
# _framework density 17.727927000000001
#
# number of rings (size 3 to 8) (size 9 to 14) (size 15 to 20)
#    0.000    3.143    0.000    3.429    0.000    2.857 
#    0.000    7.143    0.000    5.143    0.000    0.000 
#    0.000    0.000    0.000    0.000    0.000    0.000 
#
# Total GULP energy -346872.937733 kJ/mol
# GULP energy per Si atom -12388.319205 kJ/mol
# Density = 1.768758 g / cm^3
# Si number density = 17.727927 Si / 1000 Ang^3
#
#
#
# Elastic Constant Matrix: (Units=GPa)
#
#
# Indices 1 2 3 4 5 6 
#
# 1 115.2604 43.9919 67.5141 0.0000 -24.1224 0.0000
# 2 43.9919 50.2123 49.3751 0.0000 -6.6833 0.0000
# 3 67.5141 49.3751 128.4384 0.0000 -23.1641 0.0000
# 4 0.0000 0.0000 0.0000 29.8843 0.0000 -0.9732
# 5 -24.1224 -6.6833 -23.1641 0.0000 29.9756 0.0000
# 6 0.0000 0.0000 0.0000 -0.9732 0.0000 27.7361
#
#
#
# Elastic Compliance Matrix: (Units=1/GPa)
#
#
# Indices 1 2 3 4 5 6 
#
# 1 0.015993 -0.009824 -0.003142 0.000000 0.008252 0.000000
# 2 -0.009824 0.038251 -0.010955 0.000000 -0.007843 0.000000
# 3 -0.003142 -0.010955 0.014818 0.000000 0.006479 0.000000
# 4 0.000000 0.000000 0.000000 0.033501 0.000000 0.001176
# 5 0.008252 -0.007843 0.006479 0.000000 0.043259 0.000000
# 6 0.000000 0.000000 0.000000 0.001176 0.000000 0.036095
#
#
# Mechanical properties :
#
#
# Convention : Reuss Voigt Hill
#
# Bulk Modulus (GPa) = 47.12695 68.40814 57.76755
# Shear Modulus (GPa) = 21.11201 26.38785 23.74993
#
# Velocity S-wave (km/s) = 3.45467 3.86228 3.66415
# Velocity P-wave (km/s) = 6.52336 7.65253 7.11039
#
# Compressibility (1/GPa) = 0.02121928
#
# Stress axis : x y z
#
# Youngs Moduli (GPa) = 62.52778 26.14312 67.48770
#
# Poissons Ratio (x) = 0.25682 0.21205
# Poissons Ratio (y) = 0.61426 0.73935
# Poissons Ratio (z) = 0.19646 0.28641
#
# Static dielectric constant tensor:
#      x y z
#    x 3.548270 0.000000 -0.584590 
#    y 0.000000 3.078960 0.000000 
#    z -0.584590 0.000000 3.492370 
# 
# 
# High freq. dielectric constant tensor:
#      x y z
#    x 1.676160 0.000000 -0.033850 
#    y 0.000000 1.661950 0.000000 
#    z -0.033850 0.000000 1.684100 
# 
# From -- ./inp_files/28990.got.cif
#   From: 2010.06.25/outbox.cif.g09.slc.cpg/sg11_15_cif.got.tgz:28990.got - 2010.06.27 23:14:04.
