data_PCOD8070530
_publ_section_title
;
Structure prediction by ZEFSAII (Michael W. Deem and Ramdas Pophale) SiO2 
 PCOD8070530
Probable space group: P 21/M
;
_chemical_formula_sum "Si O2"
_cell_formula_units_Z 32
_cell_length_a 30.719170
_cell_length_b 8.862538
_cell_length_c 15.057494
_cell_angle_alpha 90.000000
_cell_angle_beta 151.546598
_cell_angle_gamma 90.000000
_cell_volume 1953.133957
_symmetry_space_group_name_H-M "P 21/M"
_symmetry_group_IT_number 11
_symmetry_cell_setting 'monoclinic'
loop_
_space_group_symop_operation_xyz
x,y,z
-x,1/2+y,-z
-x,-y,-z
x,1/2-y,z
loop_
_atom_site_type_symbol
_atom_site_label
_atom_site_fract_x
_atom_site_fract_y
_atom_site_fract_z
Si Si1 0.611932 0.422571 0.631566
Si Si2 0.388977 0.071568 0.651569
Si Si3 0.105147 0.425783 0.277266
Si Si4 0.431052 0.924948 0.251427
Si Si5 0.078503 0.424645 0.023372
Si Si6 0.749039 0.075571 0.728533
Si Si7 0.419545 0.071482 0.053288
Si Si8 0.696302 0.928943 0.319144
O O1 0.577147 0.250000 0.560264
O O2 0.624513 0.463506 0.758119
O O3 0.536694 0.528787 0.451727
O O4 0.707728 0.446101 0.753265
O O5 0.403081 0.250000 0.671505
O O6 0.364671 0.016263 0.707283
O O7 0.306278 0.025371 0.439965
O O8 0.480044 0.989640 0.784694
O O9 0.090237 0.250000 0.270551
O O10 0.107112 0.456275 0.175866
O O11 0.199945 0.489159 0.487553
O O12 0.023889 0.517556 0.178169
O O13 0.427493 0.750000 0.221185
O O14 0.385146 0.015132 0.087729
O O15 0.084290 0.250000 0.008862
O O16 0.147048 0.517249 0.082968
O O17 0.744984 0.250000 0.692100
O O18 0.423344 0.250000 0.058759
O O19 0.349494 0.009846 0.853244
O O20 0.700418 0.750000 0.328587
#
# Coordination Sequence:
#
# PCOD8070530 Si02
#       8
#     4   4   4   4   4   4   4   4
#     4   9  19  33  49  69  95 124 160 200 242 290
#     4  11  20  33  48  68  97 131 168 204 235 274
#     4   9  17  33  50  67  93 127 163 198 237 282
#     4  10  19  32  49  69  94 126 160 201 245 283
#     4  10  19  31  49  72  98 124 156 198 241 287
#     4  11  20  31  49  73  98 128 160 194 239 293
#     4  11  21  33  48  69  97 132 168 201 237 284
#     4   9  19  34  50  67  95 132 168 202 237 279
#
# _framework density 16.383925000000001
#
# number of rings (size 3 to 8) (size 9 to 14) (size 15 to 20)
#    0.000    2.000    2.500    2.250    0.000    1.500 
#    0.000    3.125    0.000    0.000    0.000    0.875 
#    0.000    0.000    0.000    0.000    0.000    0.000 
#
# Total GULP energy -396829.994498 kJ/mol
# GULP energy per Si atom -12400.937328 kJ/mol
# Density = 1.634663 g / cm^3
# Si number density = 16.383925 Si / 1000 Ang^3
#
#
#
# Elastic Constant Matrix: (Units=GPa)
#
#
# Indices 1 2 3 4 5 6 
#
# 1 109.0750 36.4093 44.7369 0.0000 -3.2807 0.0000
# 2 36.4093 56.5080 17.7988 0.0000 -1.2543 0.0000
# 3 44.7369 17.7988 61.0816 0.0000 -2.7107 0.0000
# 4 0.0000 0.0000 0.0000 20.0396 0.0000 1.0867
# 5 -3.2807 -1.2543 -2.7107 0.0000 25.3960 0.0000
# 6 0.0000 0.0000 0.0000 1.0867 0.0000 23.6290
#
#
#
# Elastic Compliance Matrix: (Units=1/GPa)
#
#
# Indices 1 2 3 4 5 6 
#
# 1 0.015240 -0.006935 -0.009112 0.000000 0.000654 0.000000
# 2 -0.006935 0.022644 -0.001516 0.000000 0.000061 0.000000
# 3 -0.009112 -0.001516 0.023543 0.000000 0.001261 0.000000
# 4 0.000000 0.000000 0.000000 0.050026 0.000000 -0.002301
# 5 0.000654 0.000061 0.001261 0.000000 0.039598 0.000000
# 6 0.000000 0.000000 0.000000 -0.002301 0.000000 0.042427
#
#
# Mechanical properties :
#
#
# Convention : Reuss Voigt Hill
#
# Bulk Modulus (GPa) = 38.02252 47.17274 42.59763
# Shear Modulus (GPa) = 21.06408 22.32756 21.69582
#
# Velocity S-wave (km/s) = 3.58949 3.69558 3.64292
# Velocity P-wave (km/s) = 6.35900 6.86035 6.61442
#
# Compressibility (1/GPa) = 0.02630021
#
# Stress axis : x y z
#
# Youngs Moduli (GPa) = 65.61783 44.16225 42.47518
#
# Poissons Ratio (x) = 0.30625 0.38704
# Poissons Ratio (y) = 0.45504 0.06441
# Poissons Ratio (z) = 0.59791 0.06697
#
# Static dielectric constant tensor:
#      x y z
#    x 3.235040 0.000000 -0.024390 
#    y 0.000000 3.080960 0.000000 
#    z -0.024390 0.000000 3.072500 
# 
# 
# High freq. dielectric constant tensor:
#      x y z
#    x 1.626200 0.000000 0.006560 
#    y 0.000000 1.633850 0.000000 
#    z 0.006560 0.000000 1.603210 
# 
# From -- ./inp_files/56467.got.cif
#   From: 2010.06.25/outbox.cif.g09.slc.cpg/sg11_29_cif.got.tgz:56467.got - 2010.06.27 23:14:04.
