data_PCOD8070707
_publ_section_title
;
Structure prediction by ZEFSAII (Michael W. Deem and Ramdas Pophale) SiO2 
 PCOD8070707
Probable space group: P 21/M
;
_chemical_formula_sum "Si O2"
_cell_formula_units_Z 32
_cell_length_a 27.651523
_cell_length_b 8.693567
_cell_length_c 19.893421
_cell_angle_alpha 90.000000
_cell_angle_beta 159.002758
_cell_angle_gamma 90.000000
_cell_volume 1713.567566
_symmetry_space_group_name_H-M "P 21/M"
_symmetry_group_IT_number 11
_symmetry_cell_setting 'monoclinic'
loop_
_space_group_symop_operation_xyz
x,y,z
-x,1/2+y,-z
-x,-y,-z
x,1/2-y,z
loop_
_atom_site_type_symbol
_atom_site_label
_atom_site_fract_x
_atom_site_fract_y
_atom_site_fract_z
Si Si1 0.871229 0.077882 0.194736
Si Si2 0.584578 0.931056 0.049069
Si Si3 0.397319 0.932576 0.313639
Si Si4 0.899611 0.419772 0.072567
Si Si5 0.566962 0.929963 0.271774
Si Si6 0.405681 0.431813 0.177911
Si Si7 0.832731 0.073612 0.572014
Si Si8 0.146136 0.570893 0.557970
O O1 0.856447 0.250000 0.205269
O O2 0.885471 0.084667 0.133831
O O3 0.003502 0.997765 0.397420
O O4 0.738736 0.979908 0.041013
O O5 0.583059 0.750000 0.055422
O O6 0.737472 0.990727 0.247964
O O7 0.500000 0.000000 0.000000
O O8 0.518291 0.975867 0.893020
O O9 0.414407 0.750000 0.326655
O O10 0.500000 0.000000 0.500000
O O11 0.424150 0.014667 0.278042
O O12 0.246334 0.972226 0.145041
O O13 0.937206 0.250000 0.094448
O O14 0.018314 0.536138 0.205262
O O15 0.541427 0.750000 0.229025
O O16 0.522958 0.985130 0.288198
O O17 0.725205 0.965868 0.469227
O O18 0.421714 0.250000 0.194043
O O19 0.798751 0.250000 0.543104
O O20 0.827511 0.037635 0.486180
O O21 0.146193 0.750000 0.573821
#
# Coordination Sequence:
#
# PCOD8070707 Si02
#       8
#     4   4   4   4   4   4   4   4
#     4   9  17  32  53  77 106 141 182 226 275 327
#     4  12  23  36  53  77 108 143 186 235 283 330
#     4  10  20  36  60  90 119 147 182 221 269 321
#     4   8  16  30  50  78 111 142 178 221 264 315
#     4  12  24  38  56  77 108 148 187 229 280 333
#     4  11  22  38  58  82 113 146 184 226 273 330
#     4  10  19  31  51  78 108 141 184 229 272 322
#     4  10  19  32  52  78 107 140 183 233 282 327
#
# _framework density 18.674491
#
# number of rings (size 3 to 8) (size 9 to 14) (size 15 to 20)
#    0.000    1.750    1.250    5.625    0.000    4.500 
#    0.000    0.625    0.000    0.750    0.000    0.000 
#    0.000    0.000    0.000    0.000    0.000    0.000 
#
# Total GULP energy -396846.782487 kJ/mol
# GULP energy per Si atom -12401.461953 kJ/mol
# Density = 1.863199 g / cm^3
# Si number density = 18.674491 Si / 1000 Ang^3
#
#
#
# Elastic Constant Matrix: (Units=GPa)
#
#
# Indices 1 2 3 4 5 6 
#
# 1 42.8116 11.6565 25.9082 0.0000 7.6218 0.0000
# 2 11.6565 94.1962 37.2679 0.0000 8.3076 0.0000
# 3 25.9082 37.2679 127.4078 0.0000 2.2939 0.0000
# 4 0.0000 0.0000 0.0000 36.1716 0.0000 2.7319
# 5 7.6218 8.3076 2.2939 0.0000 18.1820 0.0000
# 6 0.0000 0.0000 0.0000 2.7319 0.0000 25.2411
#
#
#
# Elastic Compliance Matrix: (Units=1/GPa)
#
#
# Indices 1 2 3 4 5 6 
#
# 1 0.028813 -0.000384 -0.005545 0.000000 -0.011203 0.000000
# 2 -0.000384 0.012493 -0.003484 0.000000 -0.005108 0.000000
# 3 -0.005545 -0.003484 0.009948 0.000000 0.002662 0.000000
# 4 0.000000 0.000000 0.000000 0.027874 0.000000 -0.003017
# 5 -0.011203 -0.005108 0.002662 0.000000 0.061694 0.000000
# 6 0.000000 0.000000 0.000000 -0.003017 0.000000 0.039944
#
#
# Mechanical properties :
#
#
# Convention : Reuss Voigt Hill
#
# Bulk Modulus (GPa) = 30.83824 46.00900 38.42362
# Shear Modulus (GPa) = 23.76421 28.55780 26.16101
#
# Velocity S-wave (km/s) = 3.57115 3.91479 3.74691
# Velocity P-wave (km/s) = 5.79254 6.71751 6.27210
#
# Compressibility (1/GPa) = 0.03242727
#
# Stress axis : x y z
#
# Youngs Moduli (GPa) = 34.70663 80.04746 100.52598
#
# Poissons Ratio (x) = 0.03070 0.55744
# Poissons Ratio (y) = 0.01331 0.35026
# Poissons Ratio (z) = 0.19245 0.27890
#
# Static dielectric constant tensor:
#      x y z
#    x 3.118750 0.000000 0.181790 
#    y 0.000000 3.569740 0.000000 
#    z 0.181790 0.000000 3.704290 
# 
# 
# High freq. dielectric constant tensor:
#      x y z
#    x 1.681390 0.000000 0.017150 
#    y 0.000000 1.741940 0.000000 
#    z 0.017150 0.000000 1.734190 
# 
# From -- ./inp_files/67140.got.cif
#   From: 2010.06.25/outbox.cif.g09.slc.cpg/sg11_34_cif.got.tgz:67140.got - 2010.06.27 23:14:04.
