data_PCOD8070192
_publ_section_title
;
Structure prediction by ZEFSAII (Michael W. Deem and Ramdas Pophale) SiO2 
 PCOD8070192
Probable space group: P 21/M
;
_chemical_formula_sum "Si O2"
_cell_formula_units_Z 28
_cell_length_a 11.411787
_cell_length_b 8.980681
_cell_length_c 16.022708
_cell_angle_alpha 90.000000
_cell_angle_beta 82.212447
_cell_angle_gamma 90.000000
_cell_volume 1626.952573
_symmetry_space_group_name_H-M "P 21/M"
_symmetry_group_IT_number 11
_symmetry_cell_setting 'monoclinic'
loop_
_space_group_symop_operation_xyz
x,y,z
-x,1/2+y,-z
-x,-y,-z
x,1/2-y,z
loop_
_atom_site_type_symbol
_atom_site_label
_atom_site_fract_x
_atom_site_fract_y
_atom_site_fract_z
Si Si1 0.259054 0.072993 0.741402
Si Si2 0.403258 0.077997 0.065839
Si Si3 0.159075 0.923603 0.049547
Si Si4 0.072973 0.576621 0.873671
Si Si5 0.406124 0.585103 0.400383
Si Si6 0.501048 0.420956 0.240047
Si Si7 0.330292 0.414370 0.556581
O O1 0.259613 0.250000 0.752978
O O2 0.255679 0.028328 0.643576
O O3 0.143855 0.001781 0.792964
O O4 0.376611 0.010816 0.774025
O O5 0.392394 0.250000 0.040415
O O6 0.438388 0.061300 0.158115
O O7 0.280148 0.996719 0.065247
O O8 0.500000 0.000000 0.000000
O O9 0.159442 0.750000 0.071763
O O10 0.142965 0.949895 0.952704
O O11 0.055283 0.002379 0.110914
O O12 0.058116 0.750000 0.855204
O O13 0.362813 0.750000 0.379551
O O14 0.409842 0.483299 0.317774
O O15 0.314309 0.519999 0.477733
O O16 0.534265 0.591868 0.428762
O O17 0.530182 0.250000 0.258285
O O18 0.287630 0.250000 0.534444
#
# Coordination Sequence:
#
# PCOD8070192 Si02
#       7
#     4   4   4   4   4   4   4
#     4  10  19  30  47  72  99 128 162 198 238 283
#     4  11  23  36  51  72  98 129 163 199 239 283
#     4  10  21  36  53  72  95 126 162 199 240 283
#     4  10  20  34  52  73  97 125 158 198 242 285
#     4   9  16  26  42  64  90 123 160 195 234 281
#     4  10  20  32  46  67  97 131 163 196 239 287
#     4   8  15  26  40  62  93 125 155 191 235 281
#
# _framework density 17.210090000000001
#
# number of rings (size 3 to 8) (size 9 to 14) (size 15 to 20)
#    0.000    2.286    0.000    4.286    0.000   11.429 
#    0.000    0.000    0.000    0.000    0.000    1.000 
#    0.000    0.000    0.000    0.000    0.000    0.000 
#
# Total GULP energy -347201.558061 kJ/mol
# GULP energy per Si atom -12400.055645 kJ/mol
# Density = 1.717092 g / cm^3
# Si number density = 17.210090 Si / 1000 Ang^3
#
#
#
# Elastic Constant Matrix: (Units=GPa)
#
#
# Indices 1 2 3 4 5 6 
#
# 1 84.0882 56.9048 51.4303 0.0000 -19.3686 0.0000
# 2 56.9048 135.0649 71.7649 0.0000 -17.2676 0.0000
# 3 51.4303 71.7649 115.2166 0.0000 -29.7838 0.0000
# 4 0.0000 0.0000 0.0000 32.8610 0.0000 -5.5658
# 5 -19.3686 -17.2676 -29.7838 0.0000 24.8204 0.0000
# 6 0.0000 0.0000 0.0000 -5.5658 0.0000 28.1581
#
#
#
# Elastic Compliance Matrix: (Units=1/GPa)
#
#
# Indices 1 2 3 4 5 6 
#
# 1 0.019279 -0.005409 -0.003364 0.000000 0.007245 0.000000
# 2 -0.005409 0.012596 -0.006171 0.000000 -0.002863 0.000000
# 3 -0.003364 -0.006171 0.017739 0.000000 0.014368 0.000000
# 4 0.000000 0.000000 0.000000 0.031485 0.000000 0.006223
# 5 0.007245 -0.002863 0.014368 0.000000 0.061192 0.000000
# 6 0.000000 0.000000 0.000000 0.006223 0.000000 0.036744
#
#
# Mechanical properties :
#
#
# Convention : Reuss Voigt Hill
#
# Bulk Modulus (GPa) = 50.69614 77.17440 63.93527
# Shear Modulus (GPa) = 23.20218 27.45255 25.32736
#
# Velocity S-wave (km/s) = 3.67573 3.99826 3.84038
# Velocity P-wave (km/s) = 6.89462 8.13969 7.54289
#
# Compressibility (1/GPa) = 0.01972537
#
# Stress axis : x y z
#
# Youngs Moduli (GPa) = 51.87066 79.39290 56.37360
#
# Poissons Ratio (x) = 0.42943 0.18963
# Poissons Ratio (y) = 0.28056 0.34789
# Poissons Ratio (z) = 0.17448 0.48995
#
# Static dielectric constant tensor:
#      x y z
#    x 2.824710 0.000000 -0.185150 
#    y 0.000000 3.551220 0.000000 
#    z -0.185150 0.000000 3.403850 
# 
# 
# High freq. dielectric constant tensor:
#      x y z
#    x 1.619190 0.000000 -0.019540 
#    y 0.000000 1.685440 0.000000 
#    z -0.019540 0.000000 1.670660 
# 
# From -- ./inp_files/48731.got.cif
#   From: 2010.06.25/outbox.cif.g09.slc.cpg/sg11_25_cif.got.tgz:48731.got - 2010.06.27 23:14:04.
