data_PCOD8070261
_publ_section_title
;
Structure prediction by ZEFSAII (Michael W. Deem and Ramdas Pophale) SiO2 
 PCOD8070261
Probable space group: P 21/M
;
_chemical_formula_sum "Si O2"
_cell_formula_units_Z 32
_cell_length_a 12.222359
_cell_length_b 9.061789
_cell_length_c 21.389592
_cell_angle_alpha 90.000000
_cell_angle_beta 128.934319
_cell_angle_gamma 90.000000
_cell_volume 1842.793866
_symmetry_space_group_name_H-M "P 21/M"
_symmetry_group_IT_number 11
_symmetry_cell_setting 'monoclinic'
loop_
_space_group_symop_operation_xyz
x,y,z
-x,1/2+y,-z
-x,-y,-z
x,1/2-y,z
loop_
_atom_site_type_symbol
_atom_site_label
_atom_site_fract_x
_atom_site_fract_y
_atom_site_fract_z
Si Si1 0.538340 0.918852 0.799605
Si Si2 0.227631 0.577589 0.662529
Si Si3 0.132968 0.076275 0.263528
Si Si4 0.008534 0.576981 0.099970
Si Si5 0.277380 0.074890 0.550869
Si Si6 0.789656 0.077888 0.941431
Si Si7 0.949038 0.575311 0.629907
Si Si8 0.557782 0.579679 0.662686
O O1 0.576700 0.750000 0.828343
O O2 0.373298 0.950816 0.751825
O O3 0.576918 0.958018 0.742306
O O4 0.629451 0.022137 0.877805
O O5 0.212813 0.750000 0.640283
O O6 0.223091 0.488480 0.596746
O O7 0.101235 0.520805 0.660804
O O8 0.107854 0.250000 0.244609
O O9 0.076448 0.016038 0.309403
O O10 0.298681 0.039676 0.320978
O O11 0.048448 0.990098 0.180597
O O12 0.985848 0.750000 0.098891
O O13 0.129973 0.538704 0.093852
O O14 0.862509 0.505046 0.025268
O O15 0.279730 0.250000 0.556184
O O16 0.171958 0.016441 0.459655
O O17 0.432878 0.018086 0.589013
O O18 0.790872 0.250000 0.956573
O O19 0.942983 0.750000 0.629164
O O20 0.515560 0.750000 0.639135
#
# Coordination Sequence:
#
# PCOD8070261 Si02
#       8
#     4   4   4   4   4   4   4   4
#     4   9  16  28  48  73  99 127 159 202 248 292
#     4   9  18  34  53  73  98 130 168 209 255 296
#     4  10  19  34  53  70  98 137 171 201 242 301
#     4  10  20  32  48  74 105 132 159 197 243 292
#     4  10  19  31  50  75 100 127 166 215 256 290
#     4  10  19  30  49  75 102 130 160 196 241 292
#     4   9  19  34  52  73  97 131 172 210 249 296
#     4   9  18  31  48  71 100 134 166 199 249 302
#
# _framework density 17.364937000000001
#
# number of rings (size 3 to 8) (size 9 to 14) (size 15 to 20)
#    0.000    2.500    1.250    2.250    0.000    4.000 
#    0.000    2.500    0.000    0.750    0.000    0.000 
#    0.000    0.000    0.000    0.000    0.000    0.000 
#
# Total GULP energy -396831.417625 kJ/mol
# GULP energy per Si atom -12400.981801 kJ/mol
# Density = 1.732541 g / cm^3
# Si number density = 17.364937 Si / 1000 Ang^3
#
#
#
# Elastic Constant Matrix: (Units=GPa)
#
#
# Indices 1 2 3 4 5 6 
#
# 1 100.6074 38.1331 70.7600 0.0000 1.0808 0.0000
# 2 38.1331 65.1206 58.8870 0.0000 6.2849 0.0000
# 3 70.7600 58.8870 136.4054 0.0000 13.7935 0.0000
# 4 0.0000 0.0000 0.0000 31.5240 0.0000 3.7303
# 5 1.0808 6.2849 13.7935 0.0000 20.5680 0.0000
# 6 0.0000 0.0000 0.0000 3.7303 0.0000 18.2536
#
#
#
# Elastic Compliance Matrix: (Units=1/GPa)
#
#
# Indices 1 2 3 4 5 6 
#
# 1 0.016533 -0.003203 -0.007729 0.000000 0.005293 0.000000
# 2 -0.003203 0.025814 -0.009335 0.000000 -0.001459 0.000000
# 3 -0.007729 -0.009335 0.016135 0.000000 -0.007562 0.000000
# 4 0.000000 0.000000 0.000000 0.032508 0.000000 -0.006643
# 5 0.005293 -0.001459 -0.007562 0.000000 0.053858 0.000000
# 6 0.000000 0.000000 0.000000 -0.006643 0.000000 0.056141
#
#
# Mechanical properties :
#
#
# Convention : Reuss Voigt Hill
#
# Bulk Modulus (GPa) = 55.71600 70.85483 63.28541
# Shear Modulus (GPa) = 20.20159 23.02600 21.61379
#
# Velocity S-wave (km/s) = 3.41450 3.64539 3.53183
# Velocity P-wave (km/s) = 6.90652 7.65574 7.29076
#
# Compressibility (1/GPa) = 0.01794817
#
# Stress axis : x y z
#
# Youngs Moduli (GPa) = 60.48634 38.73885 61.97716
#
# Poissons Ratio (x) = 0.12408 0.47901
# Poissons Ratio (y) = 0.19374 0.57855
# Poissons Ratio (z) = 0.46748 0.36162
#
# Static dielectric constant tensor:
#      x y z
#    x 3.281700 0.000000 0.141330 
#    y 0.000000 3.092140 0.000000 
#    z 0.141330 0.000000 3.231640 
# 
# 
# High freq. dielectric constant tensor:
#      x y z
#    x 1.651460 0.000000 0.017760 
#    y 0.000000 1.661910 0.000000 
#    z 0.017760 0.000000 1.671090 
# 
# From -- ./inp_files/42413.got.cif
#   From: 2010.06.25/outbox.cif.g09.slc.cpg/sg11_22_cif.got.tgz:42413.got - 2010.06.27 23:14:04.
