data_PCOD8070766
_publ_section_title
;
Structure prediction by ZEFSAII (Michael W. Deem and Ramdas Pophale) SiO2 
 PCOD8070766
Probable space group: P 21/M
;
_chemical_formula_sum "Si O2"
_cell_formula_units_Z 32
_cell_length_a 8.830398
_cell_length_b 17.676458
_cell_length_c 13.634753
_cell_angle_alpha 90.000000
_cell_angle_beta 131.137668
_cell_angle_gamma 90.000000
_cell_volume 1602.851738
_symmetry_space_group_name_H-M "P 21/M"
_symmetry_group_IT_number 11
_symmetry_cell_setting 'monoclinic'
loop_
_space_group_symop_operation_xyz
x,y,z
-x,1/2+y,-z
-x,-y,-z
x,1/2-y,z
loop_
_atom_site_type_symbol
_atom_site_label
_atom_site_fract_x
_atom_site_fract_y
_atom_site_fract_z
Si Si1 0.974182 0.920506 0.883693
Si Si2 0.555055 0.916302 0.632111
Si Si3 0.464027 0.903299 0.380679
Si Si4 0.950997 0.404117 0.873862
Si Si5 0.755266 0.424210 0.337842
Si Si6 0.616428 0.079338 0.060847
Si Si7 0.822586 0.899726 0.397616
Si Si8 0.758737 0.836829 0.159403
O O1 0.179755 0.916405 0.912754
O O2 0.782454 0.886205 0.745161
O O3 0.916841 0.007343 0.875270
O O4 0.990722 0.874054 0.993199
O O5 0.484380 0.876653 0.501635
O O6 0.407457 0.890587 0.656125
O O7 0.539179 0.006400 0.619909
O O8 0.645712 0.870507 0.392973
O O9 0.259012 0.867871 0.250646
O O10 0.119737 0.388546 0.865194
O O11 0.674201 0.401844 0.196781
O O12 0.781575 0.513984 0.351844
O O13 0.970026 0.387294 0.455211
O O14 0.475404 0.144428 0.955953
O O15 0.500000 0.000000 0.000000
O O16 0.828323 0.852626 0.299811
O O17 0.799811 0.750000 0.151913
#
# Coordination Sequence:
#
# PCOD8070766 Si02
#       8
#     4   4   4   4   4   4   4   4
#     4  10  19  31  56  83 113 146 197 249 298 335
#     4   9  17  28  47  84 119 145 176 241 302 343
#     4   9  17  29  50  77 115 146 184 235 292 347
#     4  10  19  33  53  80 112 152 193 244 294 353
#     4  10  19  32  60  89 119 148 197 249 300 342
#     4  12  21  36  60  89 118 157 201 256 299 353
#     4  10  19  35  57  88 117 154 194 246 298 355
#     4  12  25  40  57  85 125 164 199 245 313 378
#
# _framework density 19.964416
#
# number of rings (size 3 to 8) (size 9 to 14) (size 15 to 20)
#    0.000    1.750    2.500    3.000    3.500    4.000 
#    0.000    3.125    0.000    0.000    0.000    1.750 
#    0.000    0.000    0.000    0.000    0.000    0.000 
#
# Total GULP energy -396729.015823 kJ/mol
# GULP energy per Si atom -12397.781744 kJ/mol
# Density = 1.991898 g / cm^3
# Si number density = 19.964416 Si / 1000 Ang^3
#
#
#
# Elastic Constant Matrix: (Units=GPa)
#
#
# Indices 1 2 3 4 5 6 
#
# 1 155.5403 0.8491 70.4672 0.0000 1.6806 0.0000
# 2 0.8491 24.1667 18.0612 0.0000 0.1378 0.0000
# 3 70.4672 18.0612 181.5459 0.0000 -2.9618 0.0000
# 4 0.0000 0.0000 0.0000 10.9556 0.0000 1.1829
# 5 1.6806 0.1378 -2.9618 0.0000 48.4756 0.0000
# 6 0.0000 0.0000 0.0000 1.1829 0.0000 5.1045
#
#
#
# Elastic Compliance Matrix: (Units=1/GPa)
#
#
# Indices 1 2 3 4 5 6 
#
# 1 0.007917 0.002190 -0.003299 0.000000 -0.000482 0.000000
# 2 0.002190 0.045316 -0.005367 0.000000 -0.000533 0.000000
# 3 -0.003299 -0.005367 0.007332 0.000000 0.000578 0.000000
# 4 0.000000 0.000000 0.000000 0.093619 0.000000 -0.021694
# 5 -0.000482 -0.000533 0.000578 0.000000 0.020682 0.000000
# 6 0.000000 0.000000 0.000000 -0.021694 0.000000 0.200932
#
#
# Mechanical properties :
#
#
# Convention : Reuss Voigt Hill
#
# Bulk Modulus (GPa) = 21.00236 60.00088 40.50162
# Shear Modulus (GPa) = 12.35720 31.03219 21.69469
#
# Velocity S-wave (km/s) = 2.49059 3.94683 3.30004
# Velocity P-wave (km/s) = 4.33745 7.13366 5.90350
#
# Compressibility (1/GPa) = 0.04761369
#
# Stress axis : x y z
#
# Youngs Moduli (GPa) = 126.31174 22.06706 136.38846
#
# Poissons Ratio (x) = -0.04832 0.44990
# Poissons Ratio (y) = -0.27661 0.73200
# Poissons Ratio (z) = 0.41666 0.11843
#
# Static dielectric constant tensor:
#      x y z
#    x 3.744360 0.000000 0.050660 
#    y 0.000000 2.971000 0.000000 
#    z 0.050660 0.000000 4.071120 
# 
# 
# High freq. dielectric constant tensor:
#      x y z
#    x 1.796080 0.000000 0.002250 
#    y 0.000000 1.698910 0.000000 
#    z 0.002250 0.000000 1.805280 
# 
# From -- ./inp_files/32863.got.cif
#   From: 2010.06.25/outbox.cif.g09.slc.cpg/sg11_17_cif.got.tgz:32863.got - 2010.06.27 23:14:04.
