data_PCOD8070751
_publ_section_title
;
Structure prediction by ZEFSAII (Michael W. Deem and Ramdas Pophale) SiO2 
 PCOD8070751
Probable space group: P 21/M
;
_chemical_formula_sum "Si O2"
_cell_formula_units_Z 32
_cell_length_a 20.924749
_cell_length_b 9.004554
_cell_length_c 26.839584
_cell_angle_alpha 90.000000
_cell_angle_beta 160.423270
_cell_angle_gamma 90.000000
_cell_volume 1694.464255
_symmetry_space_group_name_H-M "P 21/M"
_symmetry_group_IT_number 11
_symmetry_cell_setting 'monoclinic'
loop_
_space_group_symop_operation_xyz
x,y,z
-x,1/2+y,-z
-x,-y,-z
x,1/2-y,z
loop_
_atom_site_type_symbol
_atom_site_label
_atom_site_fract_x
_atom_site_fract_y
_atom_site_fract_z
Si Si1 0.106993 0.925296 0.816654
Si Si2 0.859808 0.924332 0.054687
Si Si3 0.201343 0.421291 0.269207
Si Si4 0.506123 0.076096 0.951496
Si Si5 0.245120 0.578991 0.484583
Si Si6 0.204320 0.074837 0.647959
Si Si7 0.439847 0.920017 0.526422
Si Si8 0.425761 0.576693 0.722241
O O1 0.101168 0.750000 0.820310
O O2 0.076110 0.005230 0.846225
O O3 0.307517 0.978324 0.941152
O O4 0.939682 0.975901 0.656780
O O5 0.884300 0.750000 0.076800
O O6 0.646409 0.970311 0.883795
O O7 0.004528 0.986850 0.118958
O O8 0.147535 0.250000 0.235170
O O9 0.336411 0.450872 0.320500
O O10 0.310874 0.470505 0.399544
O O11 0.515317 0.250000 0.967557
O O12 0.320445 0.031432 0.783074
O O13 0.500000 0.000000 0.000000
O O14 0.178458 0.750000 0.435595
O O15 0.400570 0.549517 0.555587
O O16 0.343065 0.534983 0.608001
O O17 0.178127 0.250000 0.624557
O O18 0.317828 0.019749 0.683524
O O19 0.000000 0.000000 0.500000
O O20 0.389344 0.750000 0.474662
O O21 0.400001 0.750000 0.716049
#
# Coordination Sequence:
#
# PCOD8070751 Si02
#       8
#     4   4   4   4   4   4   4   4
#     4  11  22  38  59  87 116 146 192 243 288 335
#     4  11  21  36  58  84 113 153 196 236 286 342
#     4  10  19  31  53  83 115 149 191 242 289 340
#     4  10  24  42  61  87 119 150 188 237 286 339
#     4  10  21  38  59  85 116 151 192 238 288 342
#     4  11  24  43  63  87 118 154 192 234 285 344
#     4   9  18  33  53  81 115 151 190 237 292 341
#     4  10  23  41  61  85 115 154 196 236 283 343
#
# _framework density 18.885024000000001
#
# number of rings (size 3 to 8) (size 9 to 14) (size 15 to 20)
#    0.000    1.750    2.500    1.500    1.750    3.500 
#    0.000    0.625    0.000    0.000    0.000    0.000 
#    0.000    0.000    0.000    0.000    0.000    0.000 
#
# Total GULP energy -396893.679019 kJ/mol
# GULP energy per Si atom -12402.927469 kJ/mol
# Density = 1.884204 g / cm^3
# Si number density = 18.885024 Si / 1000 Ang^3
#
#
#
# Elastic Constant Matrix: (Units=GPa)
#
#
# Indices 1 2 3 4 5 6 
#
# 1 94.0884 50.9459 68.0271 0.0000 5.4959 0.0000
# 2 50.9459 76.8909 60.3504 0.0000 10.4065 0.0000
# 3 68.0271 60.3504 150.7647 0.0000 16.1151 0.0000
# 4 0.0000 0.0000 0.0000 30.5600 0.0000 7.0194
# 5 5.4959 10.4065 16.1151 0.0000 36.0307 0.0000
# 6 0.0000 0.0000 0.0000 7.0194 0.0000 29.7133
#
#
#
# Elastic Compliance Matrix: (Units=1/GPa)
#
#
# Indices 1 2 3 4 5 6 
#
# 1 0.019100 -0.008739 -0.005333 0.000000 0.001996 0.000000
# 2 -0.008739 0.023128 -0.004981 0.000000 -0.003119 0.000000
# 3 -0.005333 -0.004981 0.011334 0.000000 -0.002817 0.000000
# 4 0.000000 0.000000 0.000000 0.034600 0.000000 -0.008174
# 5 0.001996 -0.003119 -0.002817 0.000000 0.029610 0.000000
# 6 0.000000 0.000000 0.000000 -0.008174 0.000000 0.035586
#
#
# Mechanical properties :
#
#
# Convention : Reuss Voigt Hill
#
# Bulk Modulus (GPa) = 64.70631 75.59899 70.15265
# Shear Modulus (GPa) = 25.43021 28.75551 27.09286
#
# Velocity S-wave (km/s) = 3.67356 3.90636 3.79175
# Velocity P-wave (km/s) = 7.23402 7.77588 7.50984
#
# Compressibility (1/GPa) = 0.01545444
#
# Stress axis : x y z
#
# Youngs Moduli (GPa) = 52.35705 43.23835 88.22757
#
# Poissons Ratio (x) = 0.37787 0.47053
# Poissons Ratio (y) = 0.45756 0.43948
# Poissons Ratio (z) = 0.27923 0.21538
#
# Static dielectric constant tensor:
#      x y z
#    x 3.552100 0.000000 0.229410 
#    y 0.000000 3.635800 0.000000 
#    z 0.229410 0.000000 3.567950 
# 
# 
# High freq. dielectric constant tensor:
#      x y z
#    x 1.734520 0.000000 0.018970 
#    y 0.000000 1.737200 0.000000 
#    z 0.018970 0.000000 1.735490 
# 
# From -- ./inp_files/72225.got.cif
#   From: 2010.06.25/outbox.cif.g09.slc.cpg/sg11_37_cif.got.tgz:72225.got - 2010.06.27 23:14:04.
