data_PCOD8070758
_publ_section_title
;
Structure prediction by ZEFSAII (Michael W. Deem and Ramdas Pophale) SiO2 
 PCOD8070758
Probable space group: P 21/M
;
_chemical_formula_sum "Si O2"
_cell_formula_units_Z 28
_cell_length_a 9.761729
_cell_length_b 22.523670
_cell_length_c 7.593956
_cell_angle_alpha 90.000000
_cell_angle_beta 79.559755
_cell_angle_gamma 90.000000
_cell_volume 1642.040271
_symmetry_space_group_name_H-M "P 21/M"
_symmetry_group_IT_number 11
_symmetry_cell_setting 'monoclinic'
loop_
_space_group_symop_operation_xyz
x,y,z
-x,1/2+y,-z
-x,-y,-z
x,1/2-y,z
loop_
_atom_site_type_symbol
_atom_site_label
_atom_site_fract_x
_atom_site_fract_y
_atom_site_fract_z
Si Si1 0.432588 0.317359 0.881590
Si Si2 0.396207 0.961945 0.820176
Si Si3 0.405252 0.933023 0.210284
Si Si4 0.185976 0.541139 0.562300
Si Si5 0.098904 0.414909 0.461791
Si Si6 0.364049 0.132221 0.264978
Si Si7 0.765203 0.683606 0.385451
O O1 0.489630 0.250000 0.845702
O O2 0.553586 0.363728 0.803162
O O3 0.298097 0.327923 0.791555
O O4 0.382389 0.326528 0.092191
O O5 0.262530 0.951665 0.730134
O O6 0.511892 0.914110 0.741217
O O7 0.458577 0.027761 0.772429
O O8 0.348819 0.954370 0.033294
O O9 0.285155 0.941879 0.378586
O O10 0.129611 0.474813 0.560113
O O11 0.053159 0.585142 0.591376
O O12 0.217699 0.404413 0.284606
O O13 0.107771 0.361660 0.604491
O O14 0.358342 0.173168 0.441132
O O15 0.824188 0.750000 0.388123
#
# Coordination Sequence:
#
# PCOD8070758 Si02
#       7
#     4   4   4   4   4   4   4
#     4  10  19  31  54  78  99 130 173 218 251 289
#     4  10  19  31  56  77 102 136 165 204 262 305
#     4  10  19  32  52  77 104 131 171 208 256 304
#     4  11  19  36  50  76 111 133 163 210 258 305
#     4   9  21  34  50  77 105 137 168 206 254 302
#     4   9  18  34  50  80 100 127 170 211 250 297
#     4   9  17  32  51  74  97 132 173 207 249 292
#
# _framework density 17.051957000000002
#
# number of rings (size 3 to 8) (size 9 to 14) (size 15 to 20)
#    0.857    1.429    1.429    2.571    0.000    0.000 
#    2.571    2.143    0.000    4.286    0.000    0.000 
#    0.000    0.000    0.000    0.000    0.000    0.000 
#
# Total GULP energy -347063.588299 kJ/mol
# GULP energy per Si atom -12395.128154 kJ/mol
# Density = 1.701315 g / cm^3
# Si number density = 17.051957 Si / 1000 Ang^3
#
#
#
# Elastic Constant Matrix: (Units=GPa)
#
#
# Indices 1 2 3 4 5 6 
#
# 1 89.4356 36.4820 37.8688 0.0000 25.0763 0.0000
# 2 36.4820 103.1480 24.1052 0.0000 15.0489 0.0000
# 3 37.8688 24.1052 58.7313 0.0000 19.1478 0.0000
# 4 0.0000 0.0000 0.0000 22.3865 0.0000 1.9551
# 5 25.0763 15.0489 19.1478 0.0000 17.2815 0.0000
# 6 0.0000 0.0000 0.0000 1.9551 0.0000 21.1382
#
#
#
# Elastic Compliance Matrix: (Units=1/GPa)
#
#
# Indices 1 2 3 4 5 6 
#
# 1 0.020605 -0.002942 -0.004956 0.000000 -0.021845 0.000000
# 2 -0.002942 0.011711 -0.001529 0.000000 -0.004234 0.000000
# 3 -0.004956 -0.001529 0.028291 0.000000 -0.022823 0.000000
# 4 0.000000 0.000000 0.000000 0.045033 0.000000 -0.004165
# 5 -0.021845 -0.004234 -0.022823 0.000000 0.118539 0.000000
# 6 0.000000 0.000000 0.000000 -0.004165 0.000000 0.047693
#
#
# Mechanical properties :
#
#
# Convention : Reuss Voigt Hill
#
# Bulk Modulus (GPa) = 23.95099 49.80298 36.87698
# Shear Modulus (GPa) = 16.41267 22.35184 19.38225
#
# Velocity S-wave (km/s) = 3.10580 3.62444 3.37509
# Velocity P-wave (km/s) = 5.19015 6.83998 6.07137
#
# Compressibility (1/GPa) = 0.04175193
#
# Stress axis : x y z
#
# Youngs Moduli (GPa) = 48.53195 85.39342 35.34754
#
# Poissons Ratio (x) = 0.25126 0.17518
# Poissons Ratio (y) = 0.14280 0.05404
# Poissons Ratio (z) = 0.24052 0.13054
#
# Static dielectric constant tensor:
#      x y z
#    x 2.980300 0.000000 0.092140 
#    y 0.000000 3.241010 0.000000 
#    z 0.092140 0.000000 3.186880 
# 
# 
# High freq. dielectric constant tensor:
#      x y z
#    x 1.628140 0.000000 0.009340 
#    y 0.000000 1.662750 0.000000 
#    z 0.009340 0.000000 1.659130 
# 
# From -- ./inp_files/14663.got.cif
#   From: 2010.06.25/outbox.cif.g09.slc.cpg/sg11_8_cif.got.tgz:14663.got - 2010.06.27 23:14:04.
