data_PCOD8070354
_publ_section_title
;
Structure prediction by ZEFSAII (Michael W. Deem and Ramdas Pophale) SiO2 
 PCOD8070354
Probable space group: P 21/M
;
_chemical_formula_sum "Si O2"
_cell_formula_units_Z 28
_cell_length_a 31.605098
_cell_length_b 8.467423
_cell_length_c 31.605099
_cell_angle_alpha 90.000000
_cell_angle_beta 9.452434
_cell_angle_gamma 90.000000
_cell_volume 1389.039970
_symmetry_space_group_name_H-M "P 21/M"
_symmetry_group_IT_number 11
_symmetry_cell_setting 'monoclinic'
loop_
_space_group_symop_operation_xyz
x,y,z
-x,1/2+y,-z
-x,-y,-z
x,1/2-y,z
loop_
_atom_site_type_symbol
_atom_site_label
_atom_site_fract_x
_atom_site_fract_y
_atom_site_fract_z
Si Si1 0.452092 0.062015 0.952090
Si Si2 0.308479 0.563485 0.808479
Si Si3 0.119784 0.562403 0.619785
Si Si4 0.023625 0.562601 0.523626
Si Si5 0.168317 0.561872 0.668317
Si Si6 0.738612 0.564266 0.238612
Si Si7 0.404162 0.438535 0.904161
O O1 0.451756 0.250000 0.951755
O O2 0.714501 0.996986 0.713889
O O3 0.428144 0.996012 0.928141
O O4 0.213891 0.996985 0.214499
O O5 0.305812 0.750000 0.805813
O O6 0.570272 0.507762 0.571554
O O7 0.285688 0.484156 0.785687
O O8 0.071551 0.507763 0.070274
O O9 0.118802 0.750000 0.618804
O O10 0.143993 0.505307 0.643998
O O11 0.857449 0.494949 0.858418
O O12 0.358419 0.494949 0.357448
O O13 0.023266 0.750000 0.523269
O O14 0.000000 0.500000 0.500000
O O15 0.170460 0.750000 0.670459
O O16 0.500000 0.500000 0.500000
O O17 0.740495 0.750000 0.240496
O O18 0.000000 0.500000 0.000000
O O19 0.404091 0.250000 0.904089
#
# Coordination Sequence:
#
# PCOD8070354 Si02
#       7
#     4   4   4   4   4   4   4
#     4   9  17  28  45  69  99 128 163 209 263 316
#     4  12  25  42  62  89 122 161 203 243 288 345
#     4   9  17  28  48  77 108 136 171 218 273 326
#     4  10  19  31  46  68  95 128 165 208 256 312
#     4  11  22  39  61  89 121 155 194 242 293 346
#     4  12  25  44  67  94 125 160 199 246 298 351
#     4   9  15  26  44  72 105 134 163 212 272 324
#
# _framework density 20.157809
#
# number of rings (size 3 to 8) (size 9 to 14) (size 15 to 20)
#    0.000    1.714    0.000    6.000    0.000    5.714 
#    0.000    0.000    0.000    0.000    0.000   20.000 
#    0.000    0.000    0.000    0.000    0.000    0.000 
#
# Total GULP energy -347280.661896 kJ/mol
# GULP energy per Si atom -12402.880782 kJ/mol
# Density = 2.011193 g / cm^3
# Si number density = 20.157809 Si / 1000 Ang^3
#
#
#
# Elastic Constant Matrix: (Units=GPa)
#
#
# Indices 1 2 3 4 5 6 
#
# 1 204.6640 30.5548 118.0746 0.0000 -1.7174 0.0000
# 2 30.5548 76.7537 36.3172 0.0000 -0.5080 0.0000
# 3 118.0746 36.3172 232.5496 0.0000 -0.7411 0.0000
# 4 0.0000 0.0000 0.0000 23.4012 0.0000 0.1433
# 5 -1.7174 -0.5080 -0.7411 0.0000 52.9487 0.0000
# 6 0.0000 0.0000 0.0000 0.1433 0.0000 25.0249
#
#
#
# Elastic Compliance Matrix: (Units=1/GPa)
#
#
# Indices 1 2 3 4 5 6 
#
# 1 0.007012 -0.001194 -0.003373 0.000000 0.000169 0.000000
# 2 -0.001194 0.014272 -0.001622 0.000000 0.000076 0.000000
# 3 -0.003373 -0.001622 0.006266 0.000000 -0.000037 0.000000
# 4 0.000000 0.000000 0.000000 0.042734 0.000000 -0.000245
# 5 0.000169 0.000076 -0.000037 0.000000 0.018892 0.000000
# 6 0.000000 0.000000 0.000000 -0.000245 0.000000 0.039962
#
#
# Mechanical properties :
#
#
# Convention : Reuss Voigt Hill
#
# Bulk Modulus (GPa) = 65.91595 98.20672 82.06134
# Shear Modulus (GPa) = 34.11248 42.20968 38.16108
#
# Velocity S-wave (km/s) = 4.11819 4.58095 4.35572
# Velocity P-wave (km/s) = 7.44201 8.76384 8.12983
#
# Compressibility (1/GPa) = 0.01517084
#
# Stress axis : x y z
#
# Youngs Moduli (GPa) = 142.61728 70.06629 159.58977
#
# Poissons Ratio (x) = 0.08367 0.53832
# Poissons Ratio (y) = 0.17031 0.25891
# Poissons Ratio (z) = 0.48107 0.11367
#
# Static dielectric constant tensor:
#      x y z
#    x 3.939110 0.000000 -0.009970 
#    y 0.000000 3.331040 0.000000 
#    z -0.009970 0.000000 4.052180 
# 
# 
# High freq. dielectric constant tensor:
#      x y z
#    x 1.810080 0.000000 -0.000190 
#    y 0.000000 1.748200 0.000000 
#    z -0.000190 0.000000 1.812230 
# 
# From -- ./inp_files/73839.got.cif
#   From: 2010.06.25/outbox.cif.g09.slc.cpg/sg11_37_cif.got.tgz:73839.got - 2010.06.27 23:14:04.
