data_PCOD8070872
_publ_section_title
;
Structure prediction by ZEFSAII (Michael W. Deem and Ramdas Pophale) SiO2 
 PCOD8070872
Probable space group: P 21/M
;
_chemical_formula_sum "Si O2"
_cell_formula_units_Z 32
_cell_length_a 11.669052
_cell_length_b 8.943079
_cell_length_c 29.893330
_cell_angle_alpha 90.000000
_cell_angle_beta 34.756803
_cell_angle_gamma 90.000000
_cell_volume 1778.458151
_symmetry_space_group_name_H-M "P 21/M"
_symmetry_group_IT_number 11
_symmetry_cell_setting 'monoclinic'
loop_
_space_group_symop_operation_xyz
x,y,z
-x,1/2+y,-z
-x,-y,-z
x,1/2-y,z
loop_
_atom_site_type_symbol
_atom_site_label
_atom_site_fract_x
_atom_site_fract_y
_atom_site_fract_z
Si Si1 0.070821 0.077826 0.276988
Si Si2 0.813449 0.926828 0.034893
Si Si3 0.086936 0.578233 0.085821
Si Si4 0.676551 0.580640 0.311994
Si Si5 0.349698 0.420263 0.581146
Si Si6 0.609475 0.581941 0.237932
Si Si7 0.919955 0.578595 0.824233
Si Si8 0.531894 0.923289 0.800077
O O1 0.002353 0.250000 0.299755
O O2 0.169297 0.041355 0.196442
O O3 0.238647 0.043868 0.260217
O O4 0.876486 0.980298 0.350317
O O5 0.838490 0.750000 0.028749
O O6 0.610463 0.973414 0.124593
O O7 0.803332 0.981712 0.987175
O O8 0.000000 0.000000 0.000000
O O9 0.146695 0.750000 0.060015
O O10 0.171807 0.523514 0.106812
O O11 0.848329 0.552456 0.159279
O O12 0.771177 0.750000 0.278756
O O13 0.563770 0.562473 0.395711
O O14 0.535317 0.559207 0.313393
O O15 0.844018 0.453610 0.256218
O O16 0.500000 0.500000 0.500000
O O17 0.341871 0.250000 0.568716
O O18 0.562243 0.750000 0.236581
O O19 0.493140 0.465411 0.244013
O O20 0.885181 0.750000 0.848879
O O21 0.475887 0.750000 0.825289
#
# Coordination Sequence:
#
# PCOD8070872 Si02
#       8
#     4   4   4   4   4   4   4   4
#     4   9  20  37  54  76 107 140 174 212 254 309
#     4  12  23  35  51  73 101 135 177 222 266 311
#     4  10  19  32  50  73 101 131 170 221 269 308
#     4   8  16  30  48  73 104 134 167 206 253 302
#     4  10  19  33  57  85 110 137 167 208 256 307
#     4   9  17  30  49  72 100 133 172 214 255 303
#     4   9  16  29  50  73  98 130 170 214 258 305
#     4  11  22  35  52  74 104 140 175 215 264 311
#
# _framework density 17.993113999999998
#
# number of rings (size 3 to 8) (size 9 to 14) (size 15 to 20)
#    0.000    2.250    1.250    3.375    0.000    4.000 
#    0.000    0.625    0.000    0.750    0.000    0.000 
#    0.000    0.000    0.000    0.000    0.000    0.000 
#
# Total GULP energy -396643.586360 kJ/mol
# GULP energy per Si atom -12395.112074 kJ/mol
# Density = 1.795216 g / cm^3
# Si number density = 17.993114 Si / 1000 Ang^3
#
#
#
# Elastic Constant Matrix: (Units=GPa)
#
#
# Indices 1 2 3 4 5 6 
#
# 1 103.6414 50.0279 44.5768 0.0000 17.2965 0.0000
# 2 50.0279 112.5760 45.4679 0.0000 7.8216 0.0000
# 3 44.5768 45.4679 78.4082 0.0000 18.9664 0.0000
# 4 0.0000 0.0000 0.0000 27.9439 0.0000 5.7636
# 5 17.2965 7.8216 18.9664 0.0000 24.3056 0.0000
# 6 0.0000 0.0000 0.0000 5.7636 0.0000 27.5742
#
#
#
# Elastic Compliance Matrix: (Units=1/GPa)
#
#
# Indices 1 2 3 4 5 6 
#
# 1 0.014552 -0.004284 -0.004459 0.000000 -0.005497 0.000000
# 2 -0.004284 0.012930 -0.005909 0.000000 0.003498 0.000000
# 3 -0.004459 -0.005909 0.021557 0.000000 -0.011747 0.000000
# 4 0.000000 0.000000 0.000000 0.037398 0.000000 -0.007817
# 5 -0.005497 0.003498 -0.011747 0.000000 0.053095 0.000000
# 6 0.000000 0.000000 0.000000 -0.007817 0.000000 0.037900
#
#
# Mechanical properties :
#
#
# Convention : Reuss Voigt Hill
#
# Bulk Modulus (GPa) = 50.67095 63.86344 57.26719
# Shear Modulus (GPa) = 23.43971 26.26827 24.85399
#
# Velocity S-wave (km/s) = 3.61322 3.82502 3.72062
# Velocity P-wave (km/s) = 6.75496 7.42146 7.09604
#
# Compressibility (1/GPa) = 0.01973517
#
# Stress axis : x y z
#
# Youngs Moduli (GPa) = 68.72012 77.33988 46.38933
#
# Poissons Ratio (x) = 0.33131 0.20686
# Poissons Ratio (y) = 0.29438 0.27410
# Poissons Ratio (z) = 0.30643 0.45698
#
# Static dielectric constant tensor:
#      x y z
#    x 3.598840 0.000000 0.382090 
#    y 0.000000 3.586970 0.000000 
#    z 0.382090 0.000000 3.064550 
# 
# 
# High freq. dielectric constant tensor:
#      x y z
#    x 1.696360 0.000000 0.034230 
#    y 0.000000 1.708630 0.000000 
#    z 0.034230 0.000000 1.654840 
# 
# From -- ./inp_files/73057.got.cif
#   From: 2010.06.25/outbox.cif.g09.slc.cpg/sg11_37_cif.got.tgz:73057.got - 2010.06.27 23:14:04.
