data_PCOD8070003
_publ_section_title
;
Structure prediction by ZEFSAII (Michael W. Deem and Ramdas Pophale) SiO2 
 PCOD8070003
Probable space group: P 21/M
;
_chemical_formula_sum "Si O2"
_cell_formula_units_Z 32
_cell_length_a 31.103225
_cell_length_b 9.111140
_cell_length_c 12.218374
_cell_angle_alpha 90.000000
_cell_angle_beta 30.014723
_cell_angle_gamma 90.000000
_cell_volume 1732.027558
_symmetry_space_group_name_H-M "P 21/M"
_symmetry_group_IT_number 11
_symmetry_cell_setting 'monoclinic'
loop_
_space_group_symop_operation_xyz
x,y,z
-x,1/2+y,-z
-x,-y,-z
x,1/2-y,z
loop_
_atom_site_type_symbol
_atom_site_label
_atom_site_fract_x
_atom_site_fract_y
_atom_site_fract_z
Si Si1 0.066280 0.091712 0.789606
Si Si2 0.248244 0.077378 0.456483
Si Si3 0.017606 0.586795 0.254224
Si Si4 0.858452 0.077966 0.675138
Si Si5 0.294237 0.576631 0.149592
Si Si6 0.257078 0.416520 0.906541
Si Si7 0.588788 0.921662 0.281174
Si Si8 0.806475 0.919547 0.185646
O O1 0.068159 0.250000 0.843264
O O2 0.159236 0.023642 0.599841
O O3 0.041972 0.104373 0.718842
O O4 0.000000 0.000000 0.000000
O O5 0.268884 0.250000 0.397999
O O6 0.245735 0.029285 0.590095
O O7 0.309352 0.983518 0.241005
O O8 0.036454 0.750000 0.261359
O O9 0.954281 0.492094 0.470337
O O10 0.106527 0.509321 0.026956
O O11 0.872377 0.250000 0.650481
O O12 0.798655 0.037362 0.701509
O O13 0.811729 0.025088 0.888199
O O14 0.309939 0.750000 0.113833
O O15 0.367988 0.497277 0.918172
O O16 0.228573 0.250000 0.997290
O O17 0.352334 0.446451 0.741240
O O18 0.257670 0.443309 0.774687
O O19 0.574659 0.750000 0.287971
O O20 0.500000 0.000000 0.500000
O O21 0.833275 0.750000 0.140920
#
# Coordination Sequence:
#
# PCOD8070003 Si02
#       8
#     4   4   4   4   4   4   4   4
#     4  10  19  29  44  67  97 135 180 228 269 301
#     4  10  19  32  50  73 104 141 177 217 263 308
#     4  11  21  31  46  70 101 139 184 228 269 307
#     4  10  20  33  51  73 100 137 180 227 270 308
#     4  10  20  33  53  82 111 137 171 215 262 308
#     4   9  20  38  57  77 104 137 171 211 259 314
#     4  10  20  37  63  90 112 132 160 203 258 315
#     4  10  21  36  52  72 102 143 185 218 257 309
#
# _framework density 18.475456999999999
#
# number of rings (size 3 to 8) (size 9 to 14) (size 15 to 20)
#    0.000    2.000    2.500    1.500    0.000    4.000 
#    0.000    0.000    0.000    0.750    0.000    0.000 
#    0.000    0.000    0.000    0.000    0.000    0.000 
#
# Total GULP energy -396519.987280 kJ/mol
# GULP energy per Si atom -12391.249603 kJ/mol
# Density = 1.843341 g / cm^3
# Si number density = 18.475457 Si / 1000 Ang^3
#
#
#
# Elastic Constant Matrix: (Units=GPa)
#
#
# Indices 1 2 3 4 5 6 
#
# 1 96.3431 38.7216 53.5144 0.0000 21.1395 0.0000
# 2 38.7216 97.0895 65.2149 0.0000 8.4941 0.0000
# 3 53.5144 65.2149 111.4122 0.0000 9.9357 0.0000
# 4 0.0000 0.0000 0.0000 35.4003 0.0000 3.1419
# 5 21.1395 8.4941 9.9357 0.0000 21.0220 0.0000
# 6 0.0000 0.0000 0.0000 3.1419 0.0000 19.5642
#
#
#
# Elastic Compliance Matrix: (Units=1/GPa)
#
#
# Indices 1 2 3 4 5 6 
#
# 1 0.017584 -0.001567 -0.006273 0.000000 -0.014084 0.000000
# 2 -0.001567 0.017216 -0.009234 0.000000 -0.001016 0.000000
# 3 -0.006273 -0.009234 0.017224 0.000000 0.001898 0.000000
# 4 0.000000 0.000000 0.000000 0.028657 0.000000 -0.004602
# 5 -0.014084 -0.001016 0.001898 0.000000 0.061246 0.000000
# 6 0.000000 0.000000 0.000000 -0.004602 0.000000 0.051853
#
#
# Mechanical properties :
#
#
# Convention : Reuss Voigt Hill
#
# Bulk Modulus (GPa) = 55.93887 68.86071 62.39979
# Shear Modulus (GPa) = 21.37786 25.02358 23.20072
#
# Velocity S-wave (km/s) = 3.40530 3.68424 3.54751
# Velocity P-wave (km/s) = 6.76791 7.44651 7.11530
#
# Compressibility (1/GPa) = 0.01787666
#
# Stress axis : x y z
#
# Youngs Moduli (GPa) = 56.86972 58.08467 58.05717
#
# Poissons Ratio (x) = 0.09105 0.36417
# Poissons Ratio (y) = 0.08914 0.53610
# Poissons Ratio (z) = 0.35672 0.53635
#
# Static dielectric constant tensor:
#      x y z
#    x 3.393970 0.000000 0.173050 
#    y 0.000000 3.549330 0.000000 
#    z 0.173050 0.000000 3.241220 
# 
# 
# High freq. dielectric constant tensor:
#      x y z
#    x 1.703940 0.000000 0.020600 
#    y 0.000000 1.723810 0.000000 
#    z 0.020600 0.000000 1.696050 
# 
# From -- ./inp_files/45230.got.cif
#   From: 2010.06.25/outbox.cif.g09.slc.cpg/sg11_23_cif.got.tgz:45230.got - 2010.06.27 23:14:04.
