data_PCOD8070925
_publ_section_title
;
Structure prediction by ZEFSAII (Michael W. Deem and Ramdas Pophale) SiO2 
 PCOD8070925
Probable space group: P 21/M
;
_chemical_formula_sum "Si O2"
_cell_formula_units_Z 24
_cell_length_a 10.204045
_cell_length_b 9.393706
_cell_length_c 22.876433
_cell_angle_alpha 90.000000
_cell_angle_beta 139.295890
_cell_angle_gamma 90.000000
_cell_volume 1430.036066
_symmetry_space_group_name_H-M "P 21/M"
_symmetry_group_IT_number 11
_symmetry_cell_setting 'monoclinic'
loop_
_space_group_symop_operation_xyz
x,y,z
-x,1/2+y,-z
-x,-y,-z
x,1/2-y,z
loop_
_atom_site_type_symbol
_atom_site_label
_atom_site_fract_x
_atom_site_fract_y
_atom_site_fract_z
Si Si1 0.351515 0.418675 0.286443
Si Si2 0.003888 0.906695 0.914218
Si Si3 0.032651 0.415117 0.452230
Si Si4 0.464509 0.419423 0.547883
Si Si5 0.613102 0.416878 0.267509
Si Si6 0.289625 0.091962 0.074941
O O1 0.372443 0.250000 0.307490
O O2 0.130398 0.455650 0.186426
O O3 0.379637 0.513613 0.353465
O O4 0.519395 0.472106 0.296854
O O5 0.088768 0.750000 0.930726
O O6 0.866201 0.905549 0.924704
O O7 0.199273 0.004783 0.989920
O O8 0.026190 0.250000 0.467015
O O9 0.849769 0.452635 0.345759
O O10 0.000000 0.500000 0.500000
O O11 0.238195 0.456819 0.490564
O O12 0.500000 0.500000 0.500000
O O13 0.498936 0.250000 0.553437
O O14 0.566067 0.250000 0.249779
O O15 0.496273 0.479003 0.170823
O O16 0.328922 0.250000 0.063972
#
# Coordination Sequence:
#
# PCOD8070925 Si02
#       6
#     4   4   4   4   4   4
#     4   9  16  29  48  66  91 127 158 192 240 283
#     4   8  14  23  37  60  89 121 152 183 228 278
#     4  10  19  32  51  73  95 124 162 199 239 287
#     4  11  23  35  49  71  97 128 165 201 240 284
#     4   8  14  26  45  67  93 123 153 189 236 284
#     4   8  13  22  37  59  88 122 151 179 224 277
#
# _framework density 16.782792000000001
#
# number of rings (size 3 to 8) (size 9 to 14) (size 15 to 20)
#    0.000    3.000    1.667    2.500    0.000    1.333 
#    0.000    3.333    0.000    0.000    0.000    1.167 
#    0.000    0.000    0.000    0.000    0.000    0.000 
#
# Total GULP energy -297390.892896 kJ/mol
# GULP energy per Si atom -12391.287204 kJ/mol
# Density = 1.674459 g / cm^3
# Si number density = 16.782792 Si / 1000 Ang^3
#
#
#
# Elastic Constant Matrix: (Units=GPa)
#
#
# Indices 1 2 3 4 5 6 
#
# 1 56.1220 36.8851 49.3069 0.0000 -2.0938 0.0000
# 2 36.8851 74.2304 69.5446 0.0000 -2.6636 0.0000
# 3 49.3069 69.5446 167.6991 0.0000 2.2558 0.0000
# 4 0.0000 0.0000 0.0000 31.7331 0.0000 -3.1678
# 5 -2.0938 -2.6636 2.2558 0.0000 16.2110 0.0000
# 6 0.0000 0.0000 0.0000 -3.1678 0.0000 15.7801
#
#
#
# Elastic Compliance Matrix: (Units=1/GPa)
#
#
# Indices 1 2 3 4 5 6 
#
# 1 0.028138 -0.009986 -0.004167 0.000000 0.002573 0.000000
# 2 -0.009986 0.025970 -0.007889 0.000000 0.004075 0.000000
# 3 -0.004167 -0.007889 0.010504 0.000000 -0.003296 0.000000
# 4 0.000000 0.000000 0.000000 0.032157 0.000000 0.006455
# 5 0.002573 0.004075 -0.003296 0.000000 0.063147 0.000000
# 6 0.000000 0.000000 0.000000 0.006455 0.000000 0.064667
#
#
# Mechanical properties :
#
#
# Convention : Reuss Voigt Hill
#
# Bulk Modulus (GPa) = 48.70909 67.72499 58.21704
# Shear Modulus (GPa) = 18.14821 22.23250 20.19035
#
# Velocity S-wave (km/s) = 3.29197 3.64362 3.47225
# Velocity P-wave (km/s) = 6.59816 7.62514 7.13016
#
# Compressibility (1/GPa) = 0.02053005
#
# Stress axis : x y z
#
# Youngs Moduli (GPa) = 35.53920 38.50528 95.20246
#
# Poissons Ratio (x) = 0.38450 0.39668
# Poissons Ratio (y) = 0.35489 0.75103
# Poissons Ratio (z) = 0.14808 0.30376
#
# Static dielectric constant tensor:
#      x y z
#    x 2.703600 0.000000 0.224250 
#    y 0.000000 3.139440 0.000000 
#    z 0.224250 0.000000 3.656420 
# 
# 
# High freq. dielectric constant tensor:
#      x y z
#    x 1.584710 0.000000 0.011750 
#    y 0.000000 1.631900 0.000000 
#    z 0.011750 0.000000 1.669440 
# 
# From -- ./inp_files/36883.got.cif
#   From: 2010.06.25/outbox.cif.g09.slc.cpg/sg11_19_cif.got.tgz:36883.got - 2010.06.27 23:14:04.
