data_PCOD8070631
_publ_section_title
;
Structure prediction by ZEFSAII (Michael W. Deem and Ramdas Pophale) SiO2 
 PCOD8070631
Probable space group: P 21/M
;
_chemical_formula_sum "Si O2"
_cell_formula_units_Z 32
_cell_length_a 19.373921
_cell_length_b 9.655254
_cell_length_c 24.848084
_cell_angle_alpha 90.000000
_cell_angle_beta 23.022782
_cell_angle_gamma 90.000000
_cell_volume 1817.852913
_symmetry_space_group_name_H-M "P 21/M"
_symmetry_group_IT_number 11
_symmetry_cell_setting 'monoclinic'
loop_
_space_group_symop_operation_xyz
x,y,z
-x,1/2+y,-z
-x,-y,-z
x,1/2-y,z
loop_
_atom_site_type_symbol
_atom_site_label
_atom_site_fract_x
_atom_site_fract_y
_atom_site_fract_z
Si Si1 0.156181 0.593459 0.143356
Si Si2 0.005894 0.411163 0.338293
Si Si3 0.634630 0.409814 0.436851
Si Si4 0.523412 0.595470 0.827032
Si Si5 0.029686 0.407318 0.140554
Si Si6 0.613834 0.911400 0.169022
Si Si7 0.631960 0.412609 0.561158
Si Si8 0.116401 0.091305 0.379306
O O1 0.082865 0.750000 0.201745
O O2 0.137894 0.507271 0.210643
O O3 0.048117 0.516054 0.174785
O O4 0.360512 0.593449 0.983834
O O5 0.033293 0.250000 0.303824
O O6 0.060049 0.443944 0.359710
O O7 0.805691 0.459881 0.469304
O O8 0.500000 0.500000 0.500000
O O9 0.573163 0.250000 0.480701
O O10 0.634400 0.470901 0.498320
O O11 0.825356 0.422647 0.269958
O O12 0.550103 0.750000 0.783661
O O13 0.497670 0.490728 0.796222
O O14 0.682696 0.551194 0.751524
O O15 0.062222 0.250000 0.138279
O O16 0.174095 0.440114 0.989600
O O17 0.571309 0.750000 0.191399
O O18 0.542056 0.959482 0.279474
O O19 0.634465 0.250000 0.553463
O O20 0.078295 0.250000 0.419854
O O21 0.000000 0.000000 0.500000
#
# Coordination Sequence:
#
# PCOD8070631 Si02
#       8
#     4   4   4   4   4   4   4   4
#     4  10  19  31  50  75 102 133 169 210 257 305
#     4  10  19  33  52  72  98 135 175 213 255 301
#     4  10  20  35  54  76 105 136 164 206 256 303
#     4   9  19  34  48  71 108 138 163 210 269 304
#     4   9  17  33  55  77 103 133 170 209 249 298
#     4   9  17  31  56  81  97 132 181 213 242 299
#     4   9  17  32  53  76 102 128 167 215 254 293
#     4  10  21  35  51  70  99 137 174 215 263 310
#
# _framework density 17.603183999999999
#
# number of rings (size 3 to 8) (size 9 to 14) (size 15 to 20)
#    0.000    2.500    1.250    1.125    0.000    3.500 
#    0.000    1.875    0.000    0.000    0.000    0.000 
#    0.000    0.000    0.000    0.000    0.000    0.000 
#
# Total GULP energy -396573.029202 kJ/mol
# GULP energy per Si atom -12392.907163 kJ/mol
# Density = 1.756312 g / cm^3
# Si number density = 17.603184 Si / 1000 Ang^3
#
#
#
# Elastic Constant Matrix: (Units=GPa)
#
#
# Indices 1 2 3 4 5 6 
#
# 1 100.3987 37.7863 67.2598 0.0000 -6.1680 0.0000
# 2 37.7863 57.7778 36.7502 0.0000 0.0351 0.0000
# 3 67.2598 36.7502 102.7038 0.0000 0.2285 0.0000
# 4 0.0000 0.0000 0.0000 23.5882 0.0000 -0.1308
# 5 -6.1680 0.0351 0.2285 0.0000 28.9360 0.0000
# 6 0.0000 0.0000 0.0000 -0.1308 0.0000 28.7305
#
#
#
# Elastic Compliance Matrix: (Units=1/GPa)
#
#
# Indices 1 2 3 4 5 6 
#
# 1 0.019700 -0.006052 -0.010746 0.000000 0.004291 0.000000
# 2 -0.006052 0.024267 -0.004717 0.000000 -0.001282 0.000000
# 3 -0.010746 -0.004717 0.018467 0.000000 -0.002431 0.000000
# 4 0.000000 0.000000 0.000000 0.042395 0.000000 0.000193
# 5 0.004291 -0.001282 -0.002431 0.000000 0.035495 0.000000
# 6 0.000000 0.000000 0.000000 0.000193 0.000000 0.034807
#
#
# Mechanical properties :
#
#
# Convention : Reuss Voigt Hill
#
# Bulk Modulus (GPa) = 51.53252 60.49700 56.01476
# Shear Modulus (GPa) = 22.25895 24.18988 23.22441
#
# Velocity S-wave (km/s) = 3.55982 3.71101 3.63620
# Velocity P-wave (km/s) = 6.79959 7.26662 7.03698
#
# Compressibility (1/GPa) = 0.01940522
#
# Stress axis : x y z
#
# Youngs Moduli (GPa) = 50.76042 41.20887 54.14944
#
# Poissons Ratio (x) = 0.24938 0.58188
# Poissons Ratio (y) = 0.30718 0.25544
# Poissons Ratio (z) = 0.54546 0.19439
#
# Static dielectric constant tensor:
#      x y z
#    x 3.128990 0.000000 0.153450 
#    y 0.000000 2.804460 0.000000 
#    z 0.153450 0.000000 3.353210 
# 
# 
# High freq. dielectric constant tensor:
#      x y z
#    x 1.658010 0.000000 0.003760 
#    y 0.000000 1.672580 0.000000 
#    z 0.003760 0.000000 1.692190 
# 
# From -- ./inp_files/72062.got.cif
#   From: 2010.06.25/outbox.cif.g09.slc.cpg/sg11_37_cif.got.tgz:72062.got - 2010.06.27 23:14:04.
