data_PCOD8070794
_publ_section_title
;
Structure prediction by ZEFSAII (Michael W. Deem and Ramdas Pophale) SiO2 
 PCOD8070794
Probable space group: P 21/M
;
_chemical_formula_sum "Si O2"
_cell_formula_units_Z 24
_cell_length_a 18.317225
_cell_length_b 9.359864
_cell_length_c 12.134340
_cell_angle_alpha 90.000000
_cell_angle_beta 41.511396
_cell_angle_gamma 90.000000
_cell_volume 1378.819972
_symmetry_space_group_name_H-M "P 21/M"
_symmetry_group_IT_number 11
_symmetry_cell_setting 'monoclinic'
loop_
_space_group_symop_operation_xyz
x,y,z
-x,1/2+y,-z
-x,-y,-z
x,1/2-y,z
loop_
_atom_site_type_symbol
_atom_site_label
_atom_site_fract_x
_atom_site_fract_y
_atom_site_fract_z
Si Si1 0.998923 0.413231 0.720368
Si Si2 0.239552 0.913614 0.075244
Si Si3 0.136250 0.911386 0.417450
Si Si4 0.640183 0.416232 0.429065
Si Si5 0.389689 0.416447 0.753461
Si Si6 0.825750 0.090158 0.385757
O O1 0.036782 0.250000 0.676922
O O2 0.032630 0.484324 0.563493
O O3 0.063161 0.492992 0.748154
O O4 0.867816 0.428351 0.882119
O O5 0.281291 0.750000 0.028792
O O6 0.208993 0.965907 0.233051
O O7 0.335499 0.015490 0.923105
O O8 0.093403 0.750000 0.439449
O O9 0.212654 0.910398 0.442078
O O10 0.654975 0.250000 0.382298
O O11 0.519695 0.444909 0.614870
O O12 0.660793 0.507641 0.296645
O O13 0.727815 0.469564 0.420711
O O14 0.361112 0.250000 0.779832
O O15 0.857240 0.250000 0.312144
#
# Coordination Sequence:
#
# PCOD8070794 Si02
#       6
#     4   4   4   4   4   4
#     4   9  17  28  47  75 102 129 159 196 237 279
#     4  10  19  32  48  72 105 133 159 193 237 287
#     4   8  16  30  49  72  98 133 163 188 234 290
#     4   9  18  37  56  70  93 125 162 202 247 290
#     4  10  21  33  52  76  95 122 162 207 243 282
#     4   8  16  31  52  72  94 129 163 193 236 292
#
# _framework density 17.406189000000001
#
# number of rings (size 3 to 8) (size 9 to 14) (size 15 to 20)
#    1.000    2.000    0.000    1.000    0.000    3.333 
#    0.000    1.667    0.000    0.000    0.000    0.000 
#    0.000    0.000    0.000    0.000    0.000    0.000 
#
# Total GULP energy -297385.681807 kJ/mol
# GULP energy per Si atom -12391.070075 kJ/mol
# Density = 1.736657 g / cm^3
# Si number density = 17.406189 Si / 1000 Ang^3
#
#
#
# Elastic Constant Matrix: (Units=GPa)
#
#
# Indices 1 2 3 4 5 6 
#
# 1 45.9025 4.5460 -20.1894 0.0000 -1.1550 0.0000
# 2 4.5460 64.2768 16.8533 0.0000 -1.3565 0.0000
# 3 -20.1894 16.8533 43.7207 0.0000 1.9901 0.0000
# 4 0.0000 0.0000 0.0000 31.5406 0.0000 -0.2045
# 5 -1.1550 -1.3565 1.9901 0.0000 8.9431 0.0000
# 6 0.0000 0.0000 0.0000 -0.2045 0.0000 23.5085
#
#
#
# Elastic Compliance Matrix: (Units=1/GPa)
#
#
# Indices 1 2 3 4 5 6 
#
# 1 0.029461 -0.006313 0.016071 0.000000 -0.000729 0.000000
# 2 -0.006313 0.018814 -0.010365 0.000000 0.004345 0.000000
# 3 0.016071 -0.010365 0.034617 0.000000 -0.007200 0.000000
# 4 0.000000 0.000000 0.000000 0.031707 0.000000 0.000276
# 5 -0.000729 0.004345 -0.007200 0.000000 0.113985 0.000000
# 6 0.000000 0.000000 0.000000 0.000276 0.000000 0.042540
#
#
# Mechanical properties :
#
#
# Convention : Reuss Voigt Hill
#
# Bulk Modulus (GPa) = 12.24329 17.36889 14.80609
# Shear Modulus (GPa) = 16.69097 22.97777 19.83437
#
# Velocity S-wave (km/s) = 3.09999 3.63725 3.37931
# Velocity P-wave (km/s) = 4.45672 5.25734 4.87350
#
# Compressibility (1/GPa) = 0.08167738
#
# Stress axis : x y z
#
# Youngs Moduli (GPa) = 33.94352 53.15295 28.88756
#
# Poissons Ratio (x) = 0.33555 -0.46425
# Poissons Ratio (y) = 0.21428 0.29942
# Poissons Ratio (z) = -0.54551 0.55094
#
# Static dielectric constant tensor:
#      x y z
#    x 3.159810 0.000000 0.047190 
#    y 0.000000 3.249040 0.000000 
#    z 0.047190 0.000000 2.965020 
# 
# 
# High freq. dielectric constant tensor:
#      x y z
#    x 1.662300 0.000000 0.005970 
#    y 0.000000 1.676220 0.000000 
#    z 0.005970 0.000000 1.646780 
# 
# From -- ./inp_files/42265.got.cif
#   From: 2010.06.25/outbox.cif.g09.slc.cpg/sg11_22_cif.got.tgz:42265.got - 2010.06.27 23:14:04.
