data_PCOD8070884
_publ_section_title
;
Structure prediction by ZEFSAII (Michael W. Deem and Ramdas Pophale) SiO2 
 PCOD8070884
Probable space group: P 21/M
;
_chemical_formula_sum "Si O2"
_cell_formula_units_Z 32
_cell_length_a 14.205805
_cell_length_b 8.939102
_cell_length_c 20.756209
_cell_angle_alpha 90.000000
_cell_angle_beta 136.255346
_cell_angle_gamma 90.000000
_cell_volume 1822.492824
_symmetry_space_group_name_H-M "P 21/M"
_symmetry_group_IT_number 11
_symmetry_cell_setting 'monoclinic'
loop_
_space_group_symop_operation_xyz
x,y,z
-x,1/2+y,-z
-x,-y,-z
x,1/2-y,z
loop_
_atom_site_type_symbol
_atom_site_label
_atom_site_fract_x
_atom_site_fract_y
_atom_site_fract_z
Si Si1 0.578002 0.077306 0.726015
Si Si2 0.861066 0.072747 0.048723
Si Si3 0.136155 0.922511 0.193590
Si Si4 0.146814 0.574097 0.808944
Si Si5 0.149816 0.424186 0.333712
Si Si6 0.600373 0.573244 0.866540
Si Si7 0.428961 0.927449 0.903972
Si Si8 0.568672 0.576282 0.473331
O O1 0.541301 0.250000 0.720412
O O2 0.737995 0.056881 0.792198
O O3 0.490044 0.012622 0.622647
O O4 0.536347 0.981578 0.767728
O O5 0.856545 0.250000 0.038431
O O6 0.833871 0.017104 0.108272
O O7 0.009779 0.014053 0.101395
O O8 0.747643 0.001273 0.947218
O O9 0.094522 0.750000 0.180179
O O10 0.182646 0.983187 0.285995
O O11 0.155349 0.750000 0.814463
O O12 0.270761 0.515582 0.825637
O O13 0.996955 0.524227 0.709307
O O14 0.142616 0.250000 0.309936
O O15 0.268340 0.452416 0.444450
O O16 0.616577 0.750000 0.874509
O O17 0.499228 0.518052 0.873057
O O18 0.439409 0.750000 0.916392
O O19 0.500000 0.000000 0.000000
O O20 0.500000 0.500000 0.500000
O O21 0.531765 0.750000 0.459905
#
# Coordination Sequence:
#
# PCOD8070884 Si02
#       8
#     4   4   4   4   4   4   4   4
#     4  10  22  37  51  71 104 144 176 209 260 310
#     4  10  19  33  53  74 102 140 173 207 255 309
#     4  10  19  32  50  74 105 137 172 212 251 301
#     4   8  15  29  50  76 102 129 161 201 254 308
#     4   9  17  30  52  79 104 131 167 209 258 311
#     4  11  23  35  51  76 103 136 177 219 259 303
#     4  10  19  33  53  77 103 131 169 213 260 308
#     4  10  19  33  54  79 103 133 174 216 257 305
#
# _framework density 17.558368000000002
#
# number of rings (size 3 to 8) (size 9 to 14) (size 15 to 20)
#    0.000    2.250    2.500    1.875    0.000    2.500 
#    0.000    0.000    0.000    0.750    0.000    0.000 
#    0.000    0.000    0.000    0.000    0.000    0.125 
#
# Total GULP energy -396707.521098 kJ/mol
# GULP energy per Si atom -12397.110034 kJ/mol
# Density = 1.751840 g / cm^3
# Si number density = 17.558368 Si / 1000 Ang^3
#
#
#
# Elastic Constant Matrix: (Units=GPa)
#
#
# Indices 1 2 3 4 5 6 
#
# 1 100.9285 34.6217 64.8457 0.0000 -1.3134 0.0000
# 2 34.6217 55.0371 34.0963 0.0000 -4.7873 0.0000
# 3 64.8457 34.0963 124.8102 0.0000 -1.2146 0.0000
# 4 0.0000 0.0000 0.0000 24.9106 0.0000 -2.1054
# 5 -1.3134 -4.7873 -1.2146 0.0000 24.7499 0.0000
# 6 0.0000 0.0000 0.0000 -2.1054 0.0000 19.8010
#
#
#
# Elastic Compliance Matrix: (Units=1/GPa)
#
#
# Indices 1 2 3 4 5 6 
#
# 1 0.016408 -0.006131 -0.006856 0.000000 -0.000652 0.000000
# 2 -0.006131 0.024552 -0.003481 0.000000 0.004253 0.000000
# 3 -0.006856 -0.003481 0.012521 0.000000 -0.000423 0.000000
# 4 0.000000 0.000000 0.000000 0.040508 0.000000 0.004307
# 5 -0.000652 0.004253 -0.000423 0.000000 0.041171 0.000000
# 6 0.000000 0.000000 0.000000 0.004307 0.000000 0.050960
#
#
# Mechanical properties :
#
#
# Convention : Reuss Voigt Hill
#
# Bulk Modulus (GPa) = 48.67126 60.87814 54.77470
# Shear Modulus (GPa) = 22.13327 23.70644 22.91985
#
# Velocity S-wave (km/s) = 3.55428 3.67843 3.61689
# Velocity P-wave (km/s) = 6.68010 7.26555 6.97897
#
# Compressibility (1/GPa) = 0.02054601
#
# Stress axis : x y z
#
# Youngs Moduli (GPa) = 60.94770 40.72919 79.86502
#
# Poissons Ratio (x) = 0.24969 0.54757
# Poissons Ratio (y) = 0.37364 0.27800
# Poissons Ratio (z) = 0.41787 0.14177
#
# Static dielectric constant tensor:
#      x y z
#    x 3.526240 0.000000 0.331600 
#    y 0.000000 3.177440 0.000000 
#    z 0.331600 0.000000 3.429190 
# 
# 
# High freq. dielectric constant tensor:
#      x y z
#    x 1.665710 0.000000 0.017720 
#    y 0.000000 1.670380 0.000000 
#    z 0.017720 0.000000 1.673090 
# 
# From -- ./inp_files/54366.got.cif
#   From: 2010.06.25/outbox.cif.g09.slc.cpg/sg11_28_cif.got.tgz:54366.got - 2010.06.27 23:14:04.
