data_PCOD8070882
_publ_section_title
;
Structure prediction by ZEFSAII (Michael W. Deem and Ramdas Pophale) SiO2 
 PCOD8070882
Probable space group: P 21/M
;
_chemical_formula_sum "Si O2"
_cell_formula_units_Z 32
_cell_length_a 21.260426
_cell_length_b 8.765497
_cell_length_c 21.126964
_cell_angle_alpha 90.000000
_cell_angle_beta 152.896187
_cell_angle_gamma 90.000000
_cell_volume 1793.796907
_symmetry_space_group_name_H-M "P 21/M"
_symmetry_group_IT_number 11
_symmetry_cell_setting 'monoclinic'
loop_
_space_group_symop_operation_xyz
x,y,z
-x,1/2+y,-z
-x,-y,-z
x,1/2-y,z
loop_
_atom_site_type_symbol
_atom_site_label
_atom_site_fract_x
_atom_site_fract_y
_atom_site_fract_z
Si Si1 0.695965 0.070039 0.504793
Si Si2 0.449051 0.428859 0.743302
Si Si3 0.613073 0.423553 0.189494
Si Si4 0.379480 0.429255 0.432822
Si Si5 0.074350 0.426878 0.125485
Si Si6 0.244140 0.926194 0.946672
Si Si7 0.016967 0.432096 0.213570
Si Si8 0.658737 0.073974 0.096594
O O1 0.705379 0.250000 0.519931
O O2 0.605952 0.025647 0.363931
O O3 0.618633 0.002834 0.496381
O O4 0.848449 0.001785 0.632848
O O5 0.437925 0.250000 0.719033
O O6 0.357878 0.467227 0.724551
O O7 0.606209 0.485686 0.896263
O O8 0.624392 0.250000 0.223454
O O9 0.714282 0.451792 0.218698
O O10 0.461884 0.454371 0.025694
O O11 0.500000 0.500000 0.500000
O O12 0.401578 0.250000 0.460617
O O13 0.236303 0.466837 0.269124
O O14 0.048345 0.250000 0.096145
O O15 0.009393 0.485203 0.133550
O O16 0.000000 0.500000 0.000000
O O17 0.237504 0.750000 0.957864
O O18 0.225209 0.954235 0.853821
O O19 0.117103 0.002047 0.870893
O O20 0.030223 0.250000 0.230510
O O21 0.605087 0.250000 0.041290
#
# Coordination Sequence:
#
# PCOD8070882 Si02
#       8
#     4   4   4   4   4   4   4   4
#     4  11  22  36  53  75 102 134 169 205 247 296
#     4  10  19  32  50  74 102 133 169 209 252 298
#     4   9  15  24  41  67  98 129 162 204 251 299
#     4  10  21  38  57  79 104 133 168 205 246 294
#     4   9  19  33  51  75 101 129 164 203 245 294
#     4   8  15  29  51  75  97 125 165 208 250 298
#     4   9  18  35  54  72  97 131 167 202 245 299
#     4   8  14  25  42  66  96 129 163 202 252 304
#
# _framework density 17.839254
#
# number of rings (size 3 to 8) (size 9 to 14) (size 15 to 20)
#    0.000    2.750    0.000    3.750    0.000    4.000 
#    0.000    4.375    0.000    0.750    0.000    0.000 
#    0.000    0.000    0.000    0.000    0.000    0.000 
#
# Total GULP energy -396531.035619 kJ/mol
# GULP energy per Si atom -12391.594863 kJ/mol
# Density = 1.779865 g / cm^3
# Si number density = 17.839254 Si / 1000 Ang^3
#
#
#
# Elastic Constant Matrix: (Units=GPa)
#
#
# Indices 1 2 3 4 5 6 
#
# 1 144.3994 43.5496 68.9827 0.0000 6.4219 0.0000
# 2 43.5496 56.7163 30.9677 0.0000 -2.9548 0.0000
# 3 68.9827 30.9677 73.6528 0.0000 -2.6577 0.0000
# 4 0.0000 0.0000 0.0000 25.7122 0.0000 -5.8939
# 5 6.4219 -2.9548 -2.6577 0.0000 20.7085 0.0000
# 6 0.0000 0.0000 0.0000 -5.8939 0.0000 27.6498
#
#
#
# Elastic Compliance Matrix: (Units=1/GPa)
#
#
# Indices 1 2 3 4 5 6 
#
# 1 0.014178 -0.004996 -0.011415 0.000000 -0.006574 0.000000
# 2 -0.004996 0.024732 -0.005562 0.000000 0.004364 0.000000
# 3 -0.011415 -0.005562 0.026831 0.000000 0.006190 0.000000
# 4 0.000000 0.000000 0.000000 0.040890 0.000000 0.008716
# 5 -0.006574 0.004364 0.006190 0.000000 0.051745 0.000000
# 6 0.000000 0.000000 0.000000 0.008716 0.000000 0.038025
#
#
# Mechanical properties :
#
#
# Convention : Reuss Voigt Hill
#
# Bulk Modulus (GPa) = 45.88489 62.41874 54.15181
# Shear Modulus (GPa) = 20.19286 23.56532 21.87909
#
# Velocity S-wave (km/s) = 3.36807 3.63847 3.50588
# Velocity P-wave (km/s) = 6.39550 7.26064 6.84175
#
# Compressibility (1/GPa) = 0.02179367
#
# Stress axis : x y z
#
# Youngs Moduli (GPa) = 70.53289 40.43333 37.27051
#
# Poissons Ratio (x) = 0.20200 0.42546
# Poissons Ratio (y) = 0.35238 0.20730
# Poissons Ratio (z) = 0.80517 0.22489
#
# Static dielectric constant tensor:
#      x y z
#    x 2.541900 0.000000 0.355590 
#    y 0.000000 3.227020 0.000000 
#    z 0.355590 0.000000 2.953060 
# 
# 
# High freq. dielectric constant tensor:
#      x y z
#    x 1.708190 0.000000 -0.014660 
#    y 0.000000 1.683690 0.000000 
#    z -0.014660 0.000000 1.652540 
# 
# From -- ./inp_files/66474.got.cif
#   From: 2010.06.25/outbox.cif.g09.slc.cpg/sg11_34_cif.got.tgz:66474.got - 2010.06.27 23:14:04.
