data_PCOD8070786
_publ_section_title
;
Structure prediction by ZEFSAII (Michael W. Deem and Ramdas Pophale) SiO2 
 PCOD8070786
Probable space group: P 21/M
;
_chemical_formula_sum "Si O2"
_cell_formula_units_Z 32
_cell_length_a 15.684859
_cell_length_b 8.812343
_cell_length_c 14.277474
_cell_angle_alpha 90.000000
_cell_angle_beta 88.515447
_cell_angle_gamma 90.000000
_cell_volume 1972.775167
_symmetry_space_group_name_H-M "P 21/M"
_symmetry_group_IT_number 11
_symmetry_cell_setting 'monoclinic'
loop_
_space_group_symop_operation_xyz
x,y,z
-x,1/2+y,-z
-x,-y,-z
x,1/2-y,z
loop_
_atom_site_type_symbol
_atom_site_label
_atom_site_fract_x
_atom_site_fract_y
_atom_site_fract_z
Si Si1 0.666840 0.429956 0.281263
Si Si2 0.348811 0.569929 0.290045
Si Si3 0.998963 0.927691 0.398753
Si Si4 0.599167 0.073362 0.087524
Si Si5 0.815271 0.427543 0.596709
Si Si6 0.169060 0.569737 0.615357
Si Si7 0.400792 0.074274 0.104364
Si Si8 0.496418 0.930516 0.601992
O O1 0.664399 0.250000 0.285097
O O2 0.655093 0.483018 0.174220
O O3 0.756264 0.491637 0.319002
O O4 0.589910 0.491468 0.347314
O O5 0.358474 0.750000 0.299933
O O6 0.261169 0.506789 0.338346
O O7 0.348621 0.523345 0.181352
O O8 0.424967 0.486391 0.339577
O O9 0.982138 0.750000 0.406606
O O10 0.093706 0.961782 0.354402
O O11 0.921201 0.003692 0.343284
O O12 0.000000 0.000000 0.500000
O O13 0.612991 0.250000 0.064755
O O14 0.500811 0.041085 0.114789
O O15 0.629458 0.976928 0.997623
O O16 0.801363 0.250000 0.587122
O O17 0.812946 0.492743 0.490436
O O18 0.163321 0.750000 0.617343
O O19 0.379397 0.250000 0.119229
O O20 0.498301 0.750000 0.595908
O O21 0.500000 0.000000 0.500000
#
# Coordination Sequence:
#
# PCOD8070786 Si02
#       8
#     4   4   4   4   4   4   4   4
#     4   9  17  31  49  66  92 126 158 188 227 279
#     4  11  20  32  49  69  91 124 162 193 228 278
#     4   9  16  29  46  65  90 119 152 192 231 270
#     4   9  17  32  50  67  88 122 160 192 231 281
#     4   8  16  29  45  65  92 125 157 184 224 278
#     4   9  16  29  48  68  91 122 155 189 227 271
#     4  10  19  32  48  69  94 119 152 199 243 275
#     4  11  21  34  46  64  94 130 162 192 225 267
#
# _framework density 16.220804999999999
#
# number of rings (size 3 to 8) (size 9 to 14) (size 15 to 20)
#    0.000    2.500    1.250    3.000    0.000    2.500 
#    0.000   10.625    0.000    0.000    0.000    0.875 
#    0.000    0.000    0.000    0.000    0.000    0.000 
#
# Total GULP energy -396649.106779 kJ/mol
# GULP energy per Si atom -12395.284587 kJ/mol
# Density = 1.618389 g / cm^3
# Si number density = 16.220805 Si / 1000 Ang^3
#
#
#
# Elastic Constant Matrix: (Units=GPa)
#
#
# Indices 1 2 3 4 5 6 
#
# 1 131.3880 31.0563 57.9838 0.0000 17.5727 0.0000
# 2 31.0563 45.0049 23.2407 0.0000 1.3296 0.0000
# 3 57.9838 23.2407 98.5376 0.0000 11.4399 0.0000
# 4 0.0000 0.0000 0.0000 23.9726 0.0000 1.4790
# 5 17.5727 1.3296 11.4399 0.0000 14.4080 0.0000
# 6 0.0000 0.0000 0.0000 1.4790 0.0000 23.2430
#
#
#
# Elastic Compliance Matrix: (Units=1/GPa)
#
#
# Indices 1 2 3 4 5 6 
#
# 1 0.012566 -0.005908 -0.004720 0.000000 -0.011034 0.000000
# 2 -0.005908 0.028171 -0.004078 0.000000 0.007845 0.000000
# 3 -0.004720 -0.004078 0.014514 0.000000 -0.005391 0.000000
# 4 0.000000 0.000000 0.000000 0.041879 0.000000 -0.002665
# 5 -0.011034 0.007845 -0.005391 0.000000 0.086419 0.000000
# 6 0.000000 0.000000 0.000000 -0.002665 0.000000 0.043193
#
#
# Mechanical properties :
#
#
# Convention : Reuss Voigt Hill
#
# Bulk Modulus (GPa) = 38.70306 55.49911 47.10109
# Shear Modulus (GPa) = 18.88440 23.16801 21.02620
#
# Velocity S-wave (km/s) = 3.41575 3.78337 3.60425
# Velocity P-wave (km/s) = 6.28239 7.30577 6.81332
#
# Compressibility (1/GPa) = 0.02583775
#
# Stress axis : x y z
#
# Youngs Moduli (GPa) = 79.57765 35.49725 68.90033
#
# Poissons Ratio (x) = 0.20972 0.32522
# Poissons Ratio (y) = 0.47015 0.28101
# Poissons Ratio (z) = 0.37562 0.14477
#
# Static dielectric constant tensor:
#      x y z
#    x 3.443390 0.000000 -0.002200 
#    y 0.000000 3.020610 0.000000 
#    z -0.002200 0.000000 3.006110 
# 
# 
# High freq. dielectric constant tensor:
#      x y z
#    x 1.617900 0.000000 0.004140 
#    y 0.000000 1.613040 0.000000 
#    z 0.004140 0.000000 1.604330 
# 
# From -- ./inp_files/51347.got.cif
#   From: 2010.06.25/outbox.cif.g09.slc.cpg/sg11_26_cif.got.tgz:51347.got - 2010.06.27 23:14:04.
