data_PCOD8070515
_publ_section_title
;
Structure prediction by ZEFSAII (Michael W. Deem and Ramdas Pophale) SiO2 
 PCOD8070515
Probable space group: P 21/M
;
_chemical_formula_sum "Si O2"
_cell_formula_units_Z 32
_cell_length_a 30.578441
_cell_length_b 8.890378
_cell_length_c 14.912503
_cell_angle_alpha 90.000000
_cell_angle_beta 151.366575
_cell_angle_gamma 90.000000
_cell_volume 1942.703482
_symmetry_space_group_name_H-M "P 21/M"
_symmetry_group_IT_number 11
_symmetry_cell_setting 'monoclinic'
loop_
_space_group_symop_operation_xyz
x,y,z
-x,1/2+y,-z
-x,-y,-z
x,1/2-y,z
loop_
_atom_site_type_symbol
_atom_site_label
_atom_site_fract_x
_atom_site_fract_y
_atom_site_fract_z
Si Si1 0.875328 0.074474 0.124311
Si Si2 0.868213 0.424053 0.824103
Si Si3 0.750574 0.572699 0.749879
Si Si4 0.047108 0.578173 0.205769
Si Si5 0.612872 0.924645 0.782050
Si Si6 0.064990 0.576550 0.439267
Si Si7 0.591658 0.075410 0.556009
Si Si8 0.215210 0.924838 0.849741
O O1 0.867763 0.250000 0.088628
O O2 0.835249 0.035019 0.148973
O O3 0.980107 0.025699 0.313367
O O4 0.820342 0.984239 0.950590
O O5 0.849623 0.250000 0.809304
O O6 0.783678 0.517680 0.711691
O O7 0.877757 0.459591 0.735192
O O8 0.960889 0.469262 0.041880
O O9 0.748062 0.750000 0.747640
O O10 0.648783 0.510388 0.582854
O O11 0.012604 0.750000 0.131302
O O12 0.091979 0.554106 0.383662
O O13 0.623845 0.750000 0.777843
O O14 0.515289 0.955892 0.652900
O O15 0.622851 0.018667 0.709234
O O16 0.691609 0.979652 0.991008
O O17 0.040200 0.750000 0.415423
O O18 0.151464 0.524429 0.652882
O O19 0.616175 0.250000 0.595321
O O20 0.240144 0.750000 0.888452
#
# Coordination Sequence:
#
# PCOD8070515 Si02
#       8
#     4   4   4   4   4   4   4   4
#     4  11  21  32  46  69  99 135 170 203 238 281
#     4  10  19  31  49  71  97 128 161 203 250 293
#     4  12  22  32  49  73  99 132 164 199 245 296
#     4   9  18  32  49  70  97 128 164 204 246 291
#     4  10  20  33  51  73  97 128 163 201 244 289
#     4  10  20  34  50  70  97 134 172 206 240 283
#     4  10  20  34  51  72  98 126 161 203 246 293
#     4  10  21  34  49  69 100 136 170 204 239 282
#
# _framework density 16.471890999999999
#
# number of rings (size 3 to 8) (size 9 to 14) (size 15 to 20)
#    0.000    1.750    2.500    3.000    0.000    3.000 
#    0.000    0.000    0.000    0.000    0.000    0.875 
#    0.000    0.000    0.000    0.000    0.000    0.000 
#
# Total GULP energy -396888.572317 kJ/mol
# GULP energy per Si atom -12402.767885 kJ/mol
# Density = 1.643440 g / cm^3
# Si number density = 16.471891 Si / 1000 Ang^3
#
#
#
# Elastic Constant Matrix: (Units=GPa)
#
#
# Indices 1 2 3 4 5 6 
#
# 1 106.4561 54.1535 54.1873 0.0000 14.3103 0.0000
# 2 54.1535 93.8822 40.7534 0.0000 12.4469 0.0000
# 3 54.1873 40.7534 92.7506 0.0000 9.8609 0.0000
# 4 0.0000 0.0000 0.0000 25.8391 0.0000 5.2973
# 5 14.3103 12.4469 9.8609 0.0000 22.0491 0.0000
# 6 0.0000 0.0000 0.0000 5.2973 0.0000 23.8914
#
#
#
# Elastic Compliance Matrix: (Units=1/GPa)
#
#
# Indices 1 2 3 4 5 6 
#
# 1 0.016319 -0.006058 -0.006415 0.000000 -0.004303 0.000000
# 2 -0.006058 0.015978 -0.003087 0.000000 -0.003707 0.000000
# 3 -0.006415 -0.003087 0.016019 0.000000 -0.001258 0.000000
# 4 0.000000 0.000000 0.000000 0.040544 0.000000 -0.008990
# 5 -0.004303 -0.003707 -0.001258 0.000000 0.050801 0.000000
# 6 0.000000 0.000000 0.000000 -0.008990 0.000000 0.043849
#
#
# Mechanical properties :
#
#
# Convention : Reuss Voigt Hill
#
# Bulk Modulus (GPa) = 58.15138 65.69746 61.92442
# Shear Modulus (GPa) = 22.69002 23.95559 23.32280
#
# Velocity S-wave (km/s) = 3.71549 3.81771 3.76695
# Velocity P-wave (km/s) = 7.33393 7.70742 7.52300
#
# Compressibility (1/GPa) = 0.01719650
#
# Stress axis : x y z
#
# Youngs Moduli (GPa) = 61.27951 62.58772 62.42478
#
# Poissons Ratio (x) = 0.37916 0.40043
# Poissons Ratio (y) = 0.37124 0.19270
# Poissons Ratio (z) = 0.39308 0.19320
#
# Static dielectric constant tensor:
#      x y z
#    x 3.273400 0.000000 0.096520 
#    y 0.000000 3.182930 0.000000 
#    z 0.096520 0.000000 2.990940 
# 
# 
# High freq. dielectric constant tensor:
#      x y z
#    x 1.629190 0.000000 0.010710 
#    y 0.000000 1.646630 0.000000 
#    z 0.010710 0.000000 1.606340 
# 
# From -- ./inp_files/51238.got.cif
#   From: 2010.06.25/outbox.cif.g09.slc.cpg/sg11_26_cif.got.tgz:51238.got - 2010.06.27 23:14:04.
