data_PCOD8070161
_publ_section_title
;
Structure prediction by ZEFSAII (Michael W. Deem and Ramdas Pophale) SiO2 
 PCOD8070161
Probable space group: P 21/M
;
_chemical_formula_sum "Si O2"
_cell_formula_units_Z 32
_cell_length_a 32.692155
_cell_length_b 8.983056
_cell_length_c 21.313755
_cell_angle_alpha 90.000000
_cell_angle_beta 161.635620
_cell_angle_gamma 90.000000
_cell_volume 1972.057693
_symmetry_space_group_name_H-M "P 21/M"
_symmetry_group_IT_number 11
_symmetry_cell_setting 'monoclinic'
loop_
_space_group_symop_operation_xyz
x,y,z
-x,1/2+y,-z
-x,-y,-z
x,1/2-y,z
loop_
_atom_site_type_symbol
_atom_site_label
_atom_site_fract_x
_atom_site_fract_y
_atom_site_fract_z
Si Si1 0.894322 0.579896 0.386026
Si Si2 0.991927 0.422763 0.895367
Si Si3 0.382406 0.574029 0.364906
Si Si4 0.947011 0.074531 0.271113
Si Si5 0.725903 0.575471 0.031757
Si Si6 0.565100 0.075464 0.416194
Si Si7 0.798554 0.575658 0.697110
Si Si8 0.115293 0.425154 0.944167
O O1 0.930453 0.750000 0.431721
O O2 0.756004 0.547507 0.150575
O O3 0.000000 0.500000 0.500000
O O4 0.918299 0.537747 0.494183
O O5 0.960945 0.250000 0.859464
O O6 0.026050 0.463083 0.873833
O O7 0.864093 0.513889 0.729021
O O8 0.113240 0.470693 0.115112
O O9 0.500000 0.500000 0.500000
O O10 0.387264 0.750000 0.361924
O O11 0.392005 0.530140 0.451643
O O12 0.250975 0.510012 0.145090
O O13 0.931362 0.250000 0.234933
O O14 0.821436 0.018211 0.126598
O O15 0.961768 0.984571 0.228230
O O16 0.740712 0.750000 0.036061
O O17 0.580866 0.518993 0.808135
O O18 0.576255 0.250000 0.421016
O O19 0.657325 0.995301 0.500373
O O20 0.781742 0.750000 0.666068
O O21 0.143049 0.250000 0.979579
#
# Coordination Sequence:
#
# PCOD8070161 Si02
#       8
#     4   4   4   4   4   4   4   4
#     4   8  15  28  46  67  93 122 157 196 237 279
#     4   9  19  34  50  68  90 119 155 196 238 281
#     4  11  22  33  46  66  96 132 164 195 228 270
#     4  10  19  30  46  71  98 126 159 200 241 279
#     4   9  17  31  49  69  95 130 163 194 232 281
#     4  10  20  32  47  68  94 125 159 191 230 278
#     4  10  19  32  51  71  91 118 152 195 240 280
#     4  11  21  34  49  67  93 127 163 196 233 280
#
# _framework density 16.226706
#
# number of rings (size 3 to 8) (size 9 to 14) (size 15 to 20)
#    0.000    2.250    1.250    2.250    0.000    4.000 
#    0.000    0.000    0.000    0.000    0.000    0.875 
#    0.000    0.000    0.000    0.000    0.000    0.000 
#
# Total GULP energy -396646.589729 kJ/mol
# GULP energy per Si atom -12395.205929 kJ/mol
# Density = 1.618977 g / cm^3
# Si number density = 16.226706 Si / 1000 Ang^3
#
#
#
# Elastic Constant Matrix: (Units=GPa)
#
#
# Indices 1 2 3 4 5 6 
#
# 1 103.5922 40.8023 43.1961 0.0000 -3.7113 0.0000
# 2 40.8023 53.4329 22.9375 0.0000 2.2113 0.0000
# 3 43.1961 22.9375 38.2718 0.0000 -6.3586 0.0000
# 4 0.0000 0.0000 0.0000 21.4227 0.0000 3.1955
# 5 -3.7113 2.2113 -6.3586 0.0000 28.6914 0.0000
# 6 0.0000 0.0000 0.0000 3.1955 0.0000 26.5943
#
#
#
# Elastic Compliance Matrix: (Units=1/GPa)
#
#
# Indices 1 2 3 4 5 6 
#
# 1 0.020334 -0.007502 -0.018605 0.000000 -0.000915 0.000000
# 2 -0.007502 0.028828 -0.009697 0.000000 -0.005341 0.000000
# 3 -0.018605 -0.009697 0.054678 0.000000 0.010458 0.000000
# 4 0.000000 0.000000 0.000000 0.047531 0.000000 -0.005711
# 5 -0.000915 -0.005341 0.010458 0.000000 0.037465 0.000000
# 6 0.000000 0.000000 0.000000 -0.005711 0.000000 0.038288
#
#
# Mechanical properties :
#
#
# Convention : Reuss Voigt Hill
#
# Bulk Modulus (GPa) = 31.02786 45.46318 38.24552
# Shear Modulus (GPa) = 16.15631 21.23241 18.69436
#
# Velocity S-wave (km/s) = 3.15883 3.62122 3.39790
# Velocity P-wave (km/s) = 5.69801 6.75001 6.24620
#
# Compressibility (1/GPa) = 0.03222910
#
# Stress axis : x y z
#
# Youngs Moduli (GPa) = 49.17980 34.68871 18.28898
#
# Poissons Ratio (x) = 0.26025 0.34027
# Poissons Ratio (y) = 0.36896 0.17735
# Poissons Ratio (z) = 0.91501 0.33638
#
# Static dielectric constant tensor:
#      x y z
#    x 3.220750 0.000000 -0.221530 
#    y 0.000000 3.104710 0.000000 
#    z -0.221530 0.000000 3.660160 
# 
# 
# High freq. dielectric constant tensor:
#      x y z
#    x 1.612260 0.000000 -0.011930 
#    y 0.000000 1.634320 0.000000 
#    z -0.011930 0.000000 1.606140 
# 
# From -- ./inp_files/51180.got.cif
#   From: 2010.06.25/outbox.cif.g09.slc.cpg/sg11_26_cif.got.tgz:51180.got - 2010.06.27 23:14:04.
