data_PCOD8070850
_publ_section_title
;
Structure prediction by ZEFSAII (Michael W. Deem and Ramdas Pophale) SiO2 
 PCOD8070850
Probable space group: P 21/M
;
_chemical_formula_sum "Si O2"
_cell_formula_units_Z 32
_cell_length_a 22.814860
_cell_length_b 9.059527
_cell_length_c 28.264075
_cell_angle_alpha 90.000000
_cell_angle_beta 162.192846
_cell_angle_gamma 90.000000
_cell_volume 1786.552309
_symmetry_space_group_name_H-M "P 21/M"
_symmetry_group_IT_number 11
_symmetry_cell_setting 'monoclinic'
loop_
_space_group_symop_operation_xyz
x,y,z
-x,1/2+y,-z
-x,-y,-z
x,1/2-y,z
loop_
_atom_site_type_symbol
_atom_site_label
_atom_site_fract_x
_atom_site_fract_y
_atom_site_fract_z
Si Si1 0.790729 0.586006 0.730156
Si Si2 0.222466 0.425702 0.426875
Si Si3 0.706572 0.584220 0.272867
Si Si4 0.475249 0.419099 0.167809
Si Si5 0.193330 0.923164 0.504800
Si Si6 0.460364 0.913096 0.398841
Si Si7 0.037442 0.077445 0.848530
Si Si8 0.946334 0.416772 0.387233
O O1 0.871679 0.750000 0.801860
O O2 0.714885 0.520050 0.721742
O O3 0.615872 0.592234 0.559740
O O4 0.958073 0.484588 0.837220
O O5 0.195188 0.250000 0.406675
O O6 0.214538 0.491971 0.472412
O O7 0.429944 0.468323 0.564008
O O8 0.052904 0.494315 0.265471
O O9 0.655337 0.750000 0.217790
O O10 0.523357 0.514895 0.158402
O O11 0.757784 0.490096 0.265514
O O12 0.884923 0.582842 0.445143
O O13 0.501566 0.250000 0.172837
O O14 0.615688 0.457863 0.318872
O O15 0.262661 0.454241 0.021619
O O16 0.163044 0.750000 0.472724
O O17 0.007771 0.986857 0.389196
O O18 0.374297 0.750000 0.324833
O O19 0.988310 0.250000 0.807228
O O20 0.897655 0.250000 0.333930
#
# Coordination Sequence:
#
# PCOD8070850 Si02
#       8
#     4   4   4   4   4   4   4   4
#     4   9  16  26  43  68  94 119 153 197 239 278
#     4  10  20  33  49  72  99 126 159 197 238 284
#     4   9  16  26  44  69  94 122 157 197 238 277
#     4   9  19  33  49  71  98 128 161 196 235 282
#     4  10  19  32  50  72  98 127 160 197 237 282
#     4   8  15  27  43  64  91 121 153 192 236 280
#     4  10  19  32  50  71  97 129 161 194 236 283
#     4   9  16  27  44  67  95 124 156 196 237 277
#
# _framework density 17.911594000000001
#
# number of rings (size 3 to 8) (size 9 to 14) (size 15 to 20)
#    0.000    2.750    0.000    3.000    0.000    8.000 
#    0.000    0.000    0.000    1.500    0.000    0.000 
#    0.000    0.000    0.000    0.000    0.000    0.000 
#
# Total GULP energy -396738.101632 kJ/mol
# GULP energy per Si atom -12398.065676 kJ/mol
# Density = 1.787083 g / cm^3
# Si number density = 17.911594 Si / 1000 Ang^3
#
#
#
# Elastic Constant Matrix: (Units=GPa)
#
#
# Indices 1 2 3 4 5 6 
#
# 1 1426.3548 982.2855 870.6377 0.0000 488.4530 0.0000
# 2 982.2855 773.4772 626.3464 0.0000 344.7173 0.0000
# 3 870.6377 626.3464 580.6872 0.0000 314.3430 0.0000
# 4 0.0000 0.0000 0.0000 18.7969 0.0000 8.9628
# 5 488.4530 344.7173 314.3430 0.0000 186.0070 0.0000
# 6 0.0000 0.0000 0.0000 8.9628 0.0000 35.7701
#
#
#
# Elastic Compliance Matrix: (Units=1/GPa)
#
#
# Indices 1 2 3 4 5 6 
#
# 1 0.011352 -0.004389 -0.006482 0.000000 -0.010722 0.000000
# 2 -0.004389 0.012129 -0.006729 0.000000 0.000421 0.000000
# 3 -0.006482 -0.006729 0.032095 0.000000 -0.024747 0.000000
# 4 0.000000 0.000000 0.000000 0.060419 0.000000 -0.015139
# 5 -0.010722 0.000421 -0.024747 0.000000 0.074572 0.000000
# 6 0.000000 0.000000 0.000000 -0.015139 0.000000 0.031750
#
#
# Mechanical properties :
#
#
# Convention : Reuss Voigt Hill
#
# Bulk Modulus (GPa) = 49.07987 859.89536 454.48762
# Shear Modulus (GPa) = 18.91721 68.19811 43.55766
#
# Velocity S-wave (km/s) = 3.25336 6.17718 4.93669
# Velocity P-wave (km/s) = 6.44772 23.06505 16.93472
#
# Compressibility (1/GPa) = 0.02037495
#
# Stress axis : x y z
#
# Youngs Moduli (GPa) = 88.08940 82.44747 31.15725
#
# Poissons Ratio (x) = 0.36189 0.20196
# Poissons Ratio (y) = 0.38666 0.20966
# Poissons Ratio (z) = 0.57100 0.55481
#
# Static dielectric constant tensor:
#      x y z
#    x 3.423290 0.000000 0.326980 
#    y 0.000000 3.569370 0.000000 
#    z 0.326980 0.000000 2.921630 
# 
# 
# High freq. dielectric constant tensor:
#      x y z
#    x 1.694830 0.000000 0.033690 
#    y 0.000000 1.710150 0.000000 
#    z 0.033690 0.000000 1.641530 
# 
# From -- ./inp_files/64241.got.cif
#   From: 2010.06.25/outbox.cif.g09.slc.cpg/sg11_33_cif.got.tgz:64241.got - 2010.06.27 23:14:04.
