data_PCOD8070920
_publ_section_title
;
Structure prediction by ZEFSAII (Michael W. Deem and Ramdas Pophale) SiO2 
 PCOD8070920
Probable space group: P 21/M
;
_chemical_formula_sum "Si O2"
_cell_formula_units_Z 32
_cell_length_a 19.503069
_cell_length_b 8.950021
_cell_length_c 11.469574
_cell_angle_alpha 90.000000
_cell_angle_beta 64.793077
_cell_angle_gamma 90.000000
_cell_volume 1811.403402
_symmetry_space_group_name_H-M "P 21/M"
_symmetry_group_IT_number 11
_symmetry_cell_setting 'monoclinic'
loop_
_space_group_symop_operation_xyz
x,y,z
-x,1/2+y,-z
-x,-y,-z
x,1/2-y,z
loop_
_atom_site_type_symbol
_atom_site_label
_atom_site_fract_x
_atom_site_fract_y
_atom_site_fract_z
Si Si1 0.800148 0.917474 0.616406
Si Si2 0.218175 0.574478 0.906260
Si Si3 0.861500 0.082482 0.366812
Si Si4 0.637859 0.586494 0.614944
Si Si5 0.724932 0.075089 0.876800
Si Si6 0.424093 0.429135 0.102622
Si Si7 0.076278 0.071876 0.898986
Si Si8 0.697625 0.413098 0.372858
O O1 0.828558 0.750000 0.625930
O O2 0.722463 0.907319 0.602212
O O3 0.862838 0.001183 0.491813
O O4 0.787990 0.010733 0.743410
O O5 0.201130 0.750000 0.894962
O O6 0.142822 0.480370 0.937194
O O7 0.284425 0.519435 0.768512
O O8 0.245234 0.543595 0.016086
O O9 0.895431 0.250000 0.353810
O O10 0.775820 0.092742 0.385853
O O11 0.910961 0.985519 0.241691
O O12 0.607275 0.750000 0.607655
O O13 0.585399 0.517241 0.755475
O O14 0.635073 0.501016 0.493726
O O15 0.712980 0.250000 0.860569
O O16 0.645500 0.990082 0.922776
O O17 0.425049 0.250000 0.093524
O O18 0.500000 0.500000 0.000000
O O19 0.070973 0.250000 0.902396
O O20 0.000000 0.000000 0.000000
O O21 0.662107 0.250000 0.383403
#
# Coordination Sequence:
#
# PCOD8070920 Si02
#       8
#     4   4   4   4   4   4   4   4
#     4   9  16  27  44  69  98 125 160 203 242 284
#     4   9  19  34  50  72 101 131 165 202 242 292
#     4   9  16  28  46  69  96 125 161 202 244 288
#     4   8  15  26  41  64  92 119 150 194 239 279
#     4  10  19  32  51  73 100 133 164 200 247 293
#     4  10  20  33  49  71  99 128 162 203 246 296
#     4  11  21  33  51  74 101 132 165 203 247 293
#     4   8  14  25  43  66  91 119 153 195 235 276
#
# _framework density 17.665861
#
# number of rings (size 3 to 8) (size 9 to 14) (size 15 to 20)
#    0.000    2.750    0.000    4.125    0.000    7.500 
#    0.000    0.000    0.000    1.500    0.000    0.000 
#    0.000    0.000    0.000    0.000    0.000    0.000 
#
# Total GULP energy -396599.516205 kJ/mol
# GULP energy per Si atom -12393.734881 kJ/mol
# Density = 1.762565 g / cm^3
# Si number density = 17.665861 Si / 1000 Ang^3
#
#
#
# Elastic Constant Matrix: (Units=GPa)
#
#
# Indices 1 2 3 4 5 6 
#
# 1 41.8731 40.2473 57.8785 0.0000 -0.9024 0.0000
# 2 40.2473 127.9881 81.0971 0.0000 -1.6715 0.0000
# 3 57.8785 81.0971 175.7288 0.0000 0.3380 0.0000
# 4 0.0000 0.0000 0.0000 35.5435 0.0000 -2.0547
# 5 -0.9024 -1.6715 0.3380 0.0000 23.4151 0.0000
# 6 0.0000 0.0000 0.0000 -2.0547 0.0000 18.4118
#
#
#
# Elastic Compliance Matrix: (Units=1/GPa)
#
#
# Indices 1 2 3 4 5 6 
#
# 1 0.048162 -0.007168 -0.012558 0.000000 0.001526 0.000000
# 2 -0.007168 0.012126 -0.003236 0.000000 0.000636 0.000000
# 3 -0.012558 -0.003236 0.011322 0.000000 -0.000878 0.000000
# 4 0.000000 0.000000 0.000000 0.028317 0.000000 0.003160
# 5 0.001526 0.000636 -0.000878 0.000000 0.042824 0.000000
# 6 0.000000 0.000000 0.000000 0.003160 0.000000 0.054666
#
#
# Mechanical properties :
#
#
# Convention : Reuss Voigt Hill
#
# Bulk Modulus (GPa) = 38.93230 78.22622 58.57926
# Shear Modulus (GPa) = 19.84880 26.56522 23.20701
#
# Velocity S-wave (km/s) = 3.35560 3.88204 3.62838
# Velocity P-wave (km/s) = 6.09093 8.02937 7.12637
#
# Compressibility (1/GPa) = 0.02568561
#
# Stress axis : x y z
#
# Youngs Moduli (GPa) = 20.76319 82.46460 88.32448
#
# Poissons Ratio (x) = 0.59113 1.10915
# Poissons Ratio (y) = 0.14884 0.28586
# Poissons Ratio (z) = 0.26074 0.26689
#
# Static dielectric constant tensor:
#      x y z
#    x 2.704000 0.000000 0.025010 
#    y 0.000000 3.541190 0.000000 
#    z 0.025010 0.000000 3.689010 
# 
# 
# High freq. dielectric constant tensor:
#      x y z
#    x 1.615040 0.000000 0.002040 
#    y 0.000000 1.694120 0.000000 
#    z 0.002040 0.000000 1.705590 
# 
# From -- ./inp_files/42421.got.cif
#   From: 2010.06.25/outbox.cif.g09.slc.cpg/sg11_22_cif.got.tgz:42421.got - 2010.06.27 23:14:04.
