data_PCOD8070453
_publ_section_title
;
Structure prediction by ZEFSAII (Michael W. Deem and Ramdas Pophale) SiO2 
 PCOD8070453
Probable space group: P 21/M
;
_chemical_formula_sum "Si O2"
_cell_formula_units_Z 32
_cell_length_a 13.377970
_cell_length_b 12.606287
_cell_length_c 26.339571
_cell_angle_alpha 90.000000
_cell_angle_beta 154.430882
_cell_angle_gamma 90.000000
_cell_volume 1917.198779
_symmetry_space_group_name_H-M "P 21/M"
_symmetry_group_IT_number 11
_symmetry_cell_setting 'monoclinic'
loop_
_space_group_symop_operation_xyz
x,y,z
-x,1/2+y,-z
-x,-y,-z
x,1/2-y,z
loop_
_atom_site_type_symbol
_atom_site_label
_atom_site_fract_x
_atom_site_fract_y
_atom_site_fract_z
Si Si1 0.616758 0.624203 0.705017
Si Si2 0.039490 0.004451 0.859041
Si Si3 0.299456 0.128377 0.724221
Si Si4 0.943489 0.625096 0.031483
Si Si5 0.482597 0.630741 0.067883
Si Si6 0.165342 0.624226 0.439631
Si Si7 0.366855 0.497359 0.185174
Si Si8 0.976735 0.626319 0.248426
O O1 0.625939 0.750000 0.713592
O O2 0.409545 0.585273 0.573462
O O3 0.570173 0.577192 0.738974
O O4 0.857832 0.584591 0.792816
O O5 0.066841 0.093676 0.914425
O O6 0.949265 0.060357 0.766856
O O7 0.283671 0.949422 0.959967
O O8 0.284311 0.250000 0.698709
O O9 0.468183 0.119507 0.849859
O O10 0.045608 0.082409 0.621972
O O11 0.400249 0.056920 0.725217
O O12 0.930075 0.750000 0.019985
O O13 0.179684 0.586141 0.113903
O O14 0.724987 0.574933 0.902687
O O15 0.399354 0.750000 0.017899
O O16 0.709575 0.604591 0.139271
O O17 0.141623 0.750000 0.428037
O O18 0.135514 0.584776 0.367944
O O19 0.020140 0.750000 0.257582
#
# Coordination Sequence:
#
# PCOD8070453 Si02
#       8
#     4   4   4   4   4   4   4   4
#     4  10  21  34  48  69  97 127 164 203 239 280
#     4  11  19  30  49  73  98 127 158 191 241 292
#     4   9  16  30  52  73  96 126 162 199 233 277
#     4  10  20  31  43  68 104 129 153 192 239 291
#     4   9  17  30  48  73 100 124 156 196 234 284
#     4   8  17  34  51  70  95 124 161 204 238 273
#     4  10  19  31  48  71  94 129 165 193 238 284
#     4   9  18  32  51  72  95 123 158 199 239 282
#
# _framework density 16.691018
#
# number of rings (size 3 to 8) (size 9 to 14) (size 15 to 20)
#    0.000    2.500    1.250    3.375    0.000    1.000 
#    0.000    0.000    0.000    0.000    0.000    5.250 
#    0.000    0.000    0.000    0.000    0.000    0.000 
#
# Total GULP energy -396814.298061 kJ/mol
# GULP energy per Si atom -12400.446814 kJ/mol
# Density = 1.665303 g / cm^3
# Si number density = 16.691018 Si / 1000 Ang^3
#
#
#
# Elastic Constant Matrix: (Units=GPa)
#
#
# Indices 1 2 3 4 5 6 
#
# 1 86.7542 36.9521 26.0446 0.0000 -17.5539 0.0000
# 2 36.9521 74.1831 23.3839 0.0000 -4.5347 0.0000
# 3 26.0446 23.3839 70.9296 0.0000 -10.3897 0.0000
# 4 0.0000 0.0000 0.0000 18.4282 0.0000 -2.4381
# 5 -17.5539 -4.5347 -10.3897 0.0000 14.4284 0.0000
# 6 0.0000 0.0000 0.0000 -2.4381 0.0000 22.5278
#
#
#
# Elastic Compliance Matrix: (Units=1/GPa)
#
#
# Indices 1 2 3 4 5 6 
#
# 1 0.019443 -0.007963 -0.001583 0.000000 0.020012 0.000000
# 2 -0.007963 0.018326 -0.004129 0.000000 -0.006901 0.000000
# 3 -0.001583 -0.004129 0.017404 0.000000 0.009309 0.000000
# 4 0.000000 0.000000 0.000000 0.055053 0.000000 0.005958
# 5 0.020012 -0.006901 0.009309 0.000000 0.098190 0.000000
# 6 0.000000 0.000000 0.000000 0.005958 0.000000 0.045034
#
#
# Mechanical properties :
#
#
# Convention : Reuss Voigt Hill
#
# Bulk Modulus (GPa) = 35.93863 44.95867 40.44865
# Shear Modulus (GPa) = 17.23698 20.77597 19.00648
#
# Velocity S-wave (km/s) = 3.21707 3.53191 3.37816
# Velocity P-wave (km/s) = 5.94793 6.60506 6.28509
#
# Compressibility (1/GPa) = 0.02782521
#
# Stress axis : x y z
#
# Youngs Moduli (GPa) = 51.43258 54.56687 57.45665
#
# Poissons Ratio (x) = 0.43450 0.09094
# Poissons Ratio (y) = 0.40954 0.23722
# Poissons Ratio (z) = 0.08140 0.22529
#
# Static dielectric constant tensor:
#      x y z
#    x 3.093470 0.000000 -0.060340 
#    y 0.000000 2.921190 0.000000 
#    z -0.060340 0.000000 3.158710 
# 
# 
# High freq. dielectric constant tensor:
#      x y z
#    x 1.645350 0.000000 -0.001800 
#    y 0.000000 1.629170 0.000000 
#    z -0.001800 0.000000 1.636370 
# 
# From -- ./inp_files/35037.got.cif
#   From: 2010.06.25/outbox.cif.g09.slc.cpg/sg11_18_cif.got.tgz:35037.got - 2010.06.27 23:14:04.
