data_PCOD8070045
_publ_section_title
;
Structure prediction by ZEFSAII (Michael W. Deem and Ramdas Pophale) SiO2 
 PCOD8070045
Probable space group: P 21/M
;
_chemical_formula_sum "Si O2"
_cell_formula_units_Z 32
_cell_length_a 11.472038
_cell_length_b 22.564626
_cell_length_c 6.608112
_cell_angle_alpha 90.000000
_cell_angle_beta 66.188052
_cell_angle_gamma 90.000000
_cell_volume 1564.977533
_symmetry_space_group_name_H-M "P 21/M"
_symmetry_group_IT_number 11
_symmetry_cell_setting 'monoclinic'
loop_
_space_group_symop_operation_xyz
x,y,z
-x,1/2+y,-z
-x,-y,-z
x,1/2-y,z
loop_
_atom_site_type_symbol
_atom_site_label
_atom_site_fract_x
_atom_site_fract_y
_atom_site_fract_z
Si Si1 0.553524 0.314057 0.418620
Si Si2 0.215561 0.685345 0.044149
Si Si3 0.943867 0.923984 0.338156
Si Si4 0.410216 0.181659 0.150529
Si Si5 0.831250 0.037087 0.553322
Si Si6 0.034110 0.613644 0.882441
Si Si7 0.373646 0.877305 0.242290
Si Si8 0.118208 0.318754 0.337687
O O1 0.541487 0.250000 0.537574
O O2 0.655313 0.310455 0.169934
O O3 0.423617 0.328626 0.385192
O O4 0.593082 0.362658 0.550636
O O5 0.153605 0.750000 0.117408
O O6 0.119706 0.643809 0.994063
O O7 0.253954 0.660943 0.239983
O O8 0.925938 0.857866 0.440397
O O9 0.078476 0.951471 0.317284
O O10 0.831650 0.967187 0.499146
O O11 0.938804 0.923722 0.095419
O O12 0.449480 0.250000 0.068940
O O13 0.266217 0.169933 0.186702
O O14 0.497875 0.132946 0.974577
O O15 0.684951 0.055947 0.709784
O O16 0.883371 0.072641 0.321351
O O17 0.958149 0.662689 0.809237
O O18 0.091006 0.250000 0.406911
#
# Coordination Sequence:
#
# PCOD8070045 Si02
#       8
#     4   4   4   4   4   4   4   4
#     4   9  17  30  50  77 111 145 180 228 285 337
#     4  10  19  29  47  84 120 141 176 226 285 343
#     4  10  22  40  59  82 116 158 190 236 287 341
#     4   9  20  37  55  81 114 152 195 236 283 341
#     4  10  21  37  59  87 116 148 198 235 285 350
#     4  11  20  37  57  87 115 153 188 232 291 344
#     4  11  18  33  56  84 111 145 185 235 289 337
#     4  10  23  41  59  83 116 153 198 237 278 347
#
# _framework density 20.447579000000001
#
# number of rings (size 3 to 8) (size 9 to 14) (size 15 to 20)
#    0.000    2.000    2.500    2.625    0.000    2.000 
#    0.000    3.125    0.000    1.500    0.000    0.000 
#    0.000    0.000    0.000    0.000    0.000    0.000 
#
# Total GULP energy -396544.895810 kJ/mol
# GULP energy per Si atom -12392.027994 kJ/mol
# Density = 2.040104 g / cm^3
# Si number density = 20.447579 Si / 1000 Ang^3
#
#
#
# Elastic Constant Matrix: (Units=GPa)
#
#
# Indices 1 2 3 4 5 6 
#
# 1 68.2704 17.6329 20.5817 0.0000 7.6061 0.0000
# 2 17.6329 75.4543 14.7469 0.0000 8.3132 0.0000
# 3 20.5817 14.7469 73.0843 0.0000 17.4904 0.0000
# 4 0.0000 0.0000 0.0000 21.1953 0.0000 -3.1594
# 5 7.6061 8.3132 17.4904 0.0000 21.8388 0.0000
# 6 0.0000 0.0000 0.0000 -3.1594 0.0000 21.3791
#
#
#
# Elastic Compliance Matrix: (Units=1/GPa)
#
#
# Indices 1 2 3 4 5 6 
#
# 1 0.016727 -0.002997 -0.003692 0.000000 -0.001728 0.000000
# 2 -0.002997 0.014585 -0.001262 0.000000 -0.003498 0.000000
# 3 -0.003692 -0.001262 0.018006 0.000000 -0.012654 0.000000
# 4 0.000000 0.000000 0.000000 0.048243 0.000000 0.007129
# 5 -0.001728 -0.003498 -0.012654 0.000000 0.057858 0.000000
# 6 0.000000 0.000000 0.000000 0.007129 0.000000 0.047828
#
#
# Mechanical properties :
#
#
# Convention : Reuss Voigt Hill
#
# Bulk Modulus (GPa) = 29.92625 35.85912 32.89268
# Shear Modulus (GPa) = 21.71190 23.80583 22.75886
#
# Velocity S-wave (km/s) = 3.26211 3.41579 3.33984
# Velocity P-wave (km/s) = 5.37177 5.75604 5.56722
#
# Compressibility (1/GPa) = 0.03341548
#
# Stress axis : x y z
#
# Youngs Moduli (GPa) = 59.78230 68.56166 55.53808
#
# Poissons Ratio (x) = 0.20548 0.20507
# Poissons Ratio (y) = 0.17917 0.07009
# Poissons Ratio (z) = 0.22074 0.08653
#
# Static dielectric constant tensor:
#      x y z
#    x 3.702160 0.000000 0.131580 
#    y 0.000000 3.755110 0.000000 
#    z 0.131580 0.000000 3.604570 
# 
# 
# High freq. dielectric constant tensor:
#      x y z
#    x 1.790670 0.000000 0.016430 
#    y 0.000000 1.782520 0.000000 
#    z 0.016430 0.000000 1.794210 
# 
# From -- ./inp_files/5468.got.cif
#   From: 2010.06.25/outbox.cif.g09.slc.cpg/sg11_3_cif.got.tgz:5468.got - 2010.06.27 23:14:04.
