data_PCOD8070302
_publ_section_title
;
Structure prediction by ZEFSAII (Michael W. Deem and Ramdas Pophale) SiO2 
 PCOD8070302
Probable space group: P 21/M
;
_chemical_formula_sum "Si O2"
_cell_formula_units_Z 32
_cell_length_a 23.220079
_cell_length_b 8.582081
_cell_length_c 12.468406
_cell_angle_alpha 90.000000
_cell_angle_beta 42.866862
_cell_angle_gamma 90.000000
_cell_volume 1690.307981
_symmetry_space_group_name_H-M "P 21/M"
_symmetry_group_IT_number 11
_symmetry_cell_setting 'monoclinic'
loop_
_space_group_symop_operation_xyz
x,y,z
-x,1/2+y,-z
-x,-y,-z
x,1/2-y,z
loop_
_atom_site_type_symbol
_atom_site_label
_atom_site_fract_x
_atom_site_fract_y
_atom_site_fract_z
Si Si1 0.416181 0.932571 0.495351
Si Si2 0.014246 0.425594 0.866987
Si Si3 0.605995 0.933156 0.246090
Si Si4 0.739842 0.066901 0.425957
Si Si5 0.175126 0.575566 0.898908
Si Si6 0.850927 0.069161 0.461453
Si Si7 0.232030 0.565568 0.043855
Si Si8 0.093732 0.432044 0.392649
O O1 0.414181 0.750000 0.522799
O O2 0.511543 0.987709 0.340095
O O3 0.357264 0.973919 0.472311
O O4 0.378434 0.015945 0.651897
O O5 0.052914 0.250000 0.819279
O O6 0.922955 0.419284 0.937515
O O7 0.069641 0.545886 0.724495
O O8 0.000000 0.500000 0.000000
O O9 0.617001 0.750000 0.221171
O O10 0.670205 0.013501 0.072424
O O11 0.756159 0.250000 0.410595
O O12 0.768954 0.005625 0.504363
O O13 0.800371 0.994706 0.248460
O O14 0.212990 0.750000 0.839454
O O15 0.216418 0.495200 0.946050
O O16 0.842372 0.250000 0.505931
O O17 0.867285 0.969173 0.544526
O O18 0.221767 0.750000 0.067394
O O19 0.164000 0.490770 0.214756
O O20 0.082883 0.250000 0.395257
O O21 0.000000 0.500000 0.500000
#
# Coordination Sequence:
#
# PCOD8070302 Si02
#       8
#     4   4   4   4   4   4   4   4
#     4   9  17  32  53  78 115 158 193 232 288 347
#     4  11  20  32  49  74 108 145 183 229 281 339
#     4  10  19  30  50  84 119 151 191 239 288 342
#     4   9  16  31  54  80 110 147 186 226 276 340
#     4   9  17  30  50  76 106 142 183 224 271 330
#     4  11  22  38  59  82 109 146 193 237 287 346
#     4  11  21  37  61  83 111 152 195 236 285 340
#     4  12  26  45  64  85 114 148 193 241 286 334
#
# _framework density 18.931462
#
# number of rings (size 3 to 8) (size 9 to 14) (size 15 to 20)
#    0.000    1.750    2.500    3.375    0.000    1.500 
#    0.000    4.375    0.000    0.750    0.000    0.000 
#    0.000    0.000    0.000    0.000    0.000    0.000 
#
# Total GULP energy -396483.608941 kJ/mol
# GULP energy per Si atom -12390.112779 kJ/mol
# Density = 1.888837 g / cm^3
# Si number density = 18.931462 Si / 1000 Ang^3
#
#
#
# Elastic Constant Matrix: (Units=GPa)
#
#
# Indices 1 2 3 4 5 6 
#
# 1 133.2119 29.4210 62.5853 0.0000 -1.6578 0.0000
# 2 29.4210 70.8099 34.9813 0.0000 -4.3122 0.0000
# 3 62.5853 34.9813 116.4246 0.0000 -10.9373 0.0000
# 4 0.0000 0.0000 0.0000 29.4286 0.0000 -0.7449
# 5 -1.6578 -4.3122 -10.9373 0.0000 30.3132 0.0000
# 6 0.0000 0.0000 0.0000 -0.7449 0.0000 21.2159
#
#
#
# Elastic Compliance Matrix: (Units=1/GPa)
#
#
# Indices 1 2 3 4 5 6 
#
# 1 0.010305 -0.001841 -0.005132 0.000000 -0.001550 0.000000
# 2 -0.001841 0.016923 -0.004014 0.000000 0.000858 0.000000
# 3 -0.005132 -0.004014 0.012912 0.000000 0.003807 0.000000
# 4 0.000000 0.000000 0.000000 0.034011 0.000000 0.001194
# 5 -0.001550 0.000858 0.003807 0.000000 0.034400 0.000000
# 6 0.000000 0.000000 0.000000 0.001194 0.000000 0.047176
#
#
# Mechanical properties :
#
#
# Convention : Reuss Voigt Hill
#
# Bulk Modulus (GPa) = 55.05115 63.82462 59.43789
# Shear Modulus (GPa) = 27.20987 29.08881 28.14934
#
# Velocity S-wave (km/s) = 3.79526 3.92412 3.86023
# Velocity P-wave (km/s) = 6.95325 7.37009 7.16470
#
# Compressibility (1/GPa) = 0.01816492
#
# Stress axis : x y z
#
# Youngs Moduli (GPa) = 97.03720 59.09253 77.44730
#
# Poissons Ratio (x) = 0.10877 0.39748
# Poissons Ratio (y) = 0.17862 0.31091
# Poissons Ratio (z) = 0.49802 0.23723
#
# Static dielectric constant tensor:
#      x y z
#    x 3.876510 0.000000 -0.242640 
#    y 0.000000 3.248840 0.000000 
#    z -0.242640 0.000000 2.635110 
# 
# 
# High freq. dielectric constant tensor:
#      x y z
#    x 1.743270 0.000000 -0.014130 
#    y 0.000000 1.720250 0.000000 
#    z -0.014130 0.000000 1.715050 
# 
# From -- ./inp_files/43782.got.cif
#   From: 2010.06.25/outbox.cif.g09.slc.cpg/sg11_22_cif.got.tgz:43782.got - 2010.06.27 23:14:04.
