data_PCOD8070613
_publ_section_title
;
Structure prediction by ZEFSAII (Michael W. Deem and Ramdas Pophale) SiO2 
 PCOD8070613
Probable space group: P 21/M
;
_chemical_formula_sum "Si O2"
_cell_formula_units_Z 32
_cell_length_a 16.468031
_cell_length_b 9.503295
_cell_length_c 22.658296
_cell_angle_alpha 90.000000
_cell_angle_beta 32.225423
_cell_angle_gamma 90.000000
_cell_volume 1890.929664
_symmetry_space_group_name_H-M "P 21/M"
_symmetry_group_IT_number 11
_symmetry_cell_setting 'monoclinic'
loop_
_space_group_symop_operation_xyz
x,y,z
-x,1/2+y,-z
-x,-y,-z
x,1/2-y,z
loop_
_atom_site_type_symbol
_atom_site_label
_atom_site_fract_x
_atom_site_fract_y
_atom_site_fract_z
Si Si1 0.817610 0.916772 0.176023
Si Si2 0.052151 0.909136 0.607269
Si Si3 0.052629 0.088631 0.722122
Si Si4 0.317312 0.586610 0.355295
Si Si5 0.866822 0.912277 0.611214
Si Si6 0.116586 0.915770 0.055658
Si Si7 0.331859 0.086084 0.851373
Si Si8 0.645459 0.912590 0.394705
O O1 0.810501 0.750000 0.182376
O O2 0.759109 0.973929 0.149420
O O3 0.705359 0.973077 0.295756
O O4 0.989426 0.964168 0.085719
O O5 0.079567 0.750000 0.611420
O O6 0.202839 0.959362 0.478458
O O7 0.898721 0.919276 0.661698
O O8 0.019349 0.001041 0.684410
O O9 0.022506 0.250000 0.724974
O O10 0.226395 0.065287 0.634512
O O11 0.939217 0.042274 0.844575
O O12 0.288623 0.750000 0.356700
O O13 0.287377 0.490595 0.315290
O O14 0.489856 0.558932 0.268967
O O15 0.865937 0.750000 0.590334
O O16 0.000000 0.000000 0.500000
O O17 0.147833 0.750000 0.032531
O O18 0.270779 0.000247 0.945614
O O19 0.299080 0.250000 0.882168
O O20 0.599597 0.750000 0.417862
O O21 0.500000 0.000000 0.500000
#
# Coordination Sequence:
#
# PCOD8070613 Si02
#       8
#     4   4   4   4   4   4   4   4
#     4   8  16  31  49  66  91 129 164 197 241 284
#     4   9  18  31  50  75  98 124 159 194 231 287
#     4   9  19  33  48  69  96 127 162 198 239 286
#     4   9  19  32  47  74 105 128 156 194 243 294
#     4   9  17  31  50  72  99 129 159 192 237 290
#     4   9  18  34  50  67  94 128 166 204 242 281
#     4  10  19  31  50  73  96 126 163 202 242 287
#     4   9  18  31  46  65  94 130 161 193 237 284
#
# _framework density 16.922892000000001
#
# number of rings (size 3 to 8) (size 9 to 14) (size 15 to 20)
#    0.000    3.000    0.000    3.000    1.750    4.000 
#    0.000    2.500    0.000    0.750    0.000    0.000 
#    0.000    0.000    0.000    0.000    0.000    0.000 
#
# Total GULP energy -396613.208951 kJ/mol
# GULP energy per Si atom -12394.162780 kJ/mol
# Density = 1.688437 g / cm^3
# Si number density = 16.922892 Si / 1000 Ang^3
#
#
#
# Elastic Constant Matrix: (Units=GPa)
#
#
# Indices 1 2 3 4 5 6 
#
# 1 91.8842 48.5078 42.0186 0.0000 12.2554 0.0000
# 2 48.5078 64.4554 33.4087 0.0000 8.0615 0.0000
# 3 42.0186 33.4087 73.8737 0.0000 7.5448 0.0000
# 4 0.0000 0.0000 0.0000 30.8727 0.0000 1.1389
# 5 12.2554 8.0615 7.5448 0.0000 16.1271 0.0000
# 6 0.0000 0.0000 0.0000 1.1389 0.0000 29.6155
#
#
#
# Elastic Compliance Matrix: (Units=1/GPa)
#
#
# Indices 1 2 3 4 5 6 
#
# 1 0.020601 -0.011643 -0.005721 0.000000 -0.007159 0.000000
# 2 -0.011643 0.027440 -0.005555 0.000000 -0.002270 0.000000
# 3 -0.005721 -0.005555 0.019507 0.000000 -0.002002 0.000000
# 4 0.000000 0.000000 0.000000 0.032437 0.000000 -0.001247
# 5 -0.007159 -0.002270 -0.002002 0.000000 0.069519 0.000000
# 6 0.000000 0.000000 0.000000 -0.001247 0.000000 0.033814
#
#
# Mechanical properties :
#
#
# Convention : Reuss Voigt Hill
#
# Bulk Modulus (GPa) = 46.06220 53.12040 49.59130
# Shear Modulus (GPa) = 19.50122 22.40826 20.95474
#
# Velocity S-wave (km/s) = 3.39832 3.64282 3.52269
# Velocity P-wave (km/s) = 6.53269 7.01080 6.77597
#
# Compressibility (1/GPa) = 0.02170977
#
# Stress axis : x y z
#
# Youngs Moduli (GPa) = 48.54129 36.44264 51.26252
#
# Poissons Ratio (x) = 0.42431 0.29327
# Poissons Ratio (y) = 0.56518 0.28478
# Poissons Ratio (z) = 0.27770 0.20245
#
# Static dielectric constant tensor:
#      x y z
#    x 3.477780 0.000000 -0.030710 
#    y 0.000000 3.347690 0.000000 
#    z -0.030710 0.000000 3.019790 
# 
# 
# High freq. dielectric constant tensor:
#      x y z
#    x 1.647380 0.000000 0.000610 
#    y 0.000000 1.643960 0.000000 
#    z 0.000610 0.000000 1.635470 
# 
# From -- ./inp_files/68293.got.cif
#   From: 2010.06.25/outbox.cif.g09.slc.cpg/sg11_35_cif.got.tgz:68293.got - 2010.06.27 23:14:04.
