data_PCOD8070158
_publ_section_title
;
Structure prediction by ZEFSAII (Michael W. Deem and Ramdas Pophale) SiO2 
 PCOD8070158
Probable space group: P 21/M
;
_chemical_formula_sum "Si O2"
_cell_formula_units_Z 32
_cell_length_a 22.972981
_cell_length_b 9.114926
_cell_length_c 13.401664
_cell_angle_alpha 90.000000
_cell_angle_beta 147.374979
_cell_angle_gamma 90.000000
_cell_volume 1512.967775
_symmetry_space_group_name_H-M "P 21/M"
_symmetry_group_IT_number 11
_symmetry_cell_setting 'monoclinic'
loop_
_space_group_symop_operation_xyz
x,y,z
-x,1/2+y,-z
-x,-y,-z
x,1/2-y,z
loop_
_atom_site_type_symbol
_atom_site_label
_atom_site_fract_x
_atom_site_fract_y
_atom_site_fract_z
Si Si1 0.448526 0.576781 0.117237
Si Si2 0.124207 0.918092 0.900849
Si Si3 0.290332 0.422652 0.749876
Si Si4 0.404373 0.090241 0.405215
Si Si5 0.702698 0.589309 0.952304
Si Si6 0.229843 0.922988 0.256590
Si Si7 0.299826 0.420788 0.537471
Si Si8 0.937277 0.582335 0.495632
O O1 0.429045 0.750000 0.090321
O O2 0.391496 0.503357 0.130897
O O3 0.574798 0.537012 0.300610
O O4 0.393850 0.510035 0.939266
O O5 0.163468 0.750000 0.952933
O O6 0.998316 0.936579 0.691114
O O7 0.146686 0.972148 0.048033
O O8 0.185718 0.000432 0.898098
O O9 0.314179 0.250000 0.790546
O O10 0.269313 0.467353 0.605557
O O11 0.186698 0.469191 0.668005
O O12 0.438655 0.250000 0.501338
O O13 0.323958 0.121056 0.199959
O O14 0.500000 0.000000 0.500000
O O15 0.348483 0.988240 0.405985
O O16 0.718773 0.750000 0.028763
O O17 0.233906 0.750000 0.273850
O O18 0.211917 0.994645 0.339888
O O19 0.280918 0.250000 0.491203
O O20 0.938629 0.750000 0.464976
O O21 0.000000 0.500000 0.500000
#
# Coordination Sequence:
#
# PCOD8070158 Si02
#       8
#     4   4   4   4   4   4   4   4
#     4  11  22  35  54  80 111 147 184 227 278 329
#     4   9  19  36  56  81 114 148 183 228 279 327
#     4  10  22  40  60  82 109 143 184 229 277 331
#     4  10  19  30  46  71 104 141 182 226 270 319
#     4  10  20  32  49  76 108 142 180 221 267 322
#     4  10  20  34  54  78 107 146 188 229 274 325
#     4  10  22  39  57  79 110 148 187 228 276 328
#     4  10  21  38  61  87 114 143 177 222 277 333
#
# _framework density 21.150483999999999
#
# number of rings (size 3 to 8) (size 9 to 14) (size 15 to 20)
#    0.000    2.000    0.000    3.375    0.000    8.500 
#    0.000    0.625    0.000    0.000    0.000    0.000 
#    0.000    0.000    0.000    0.000    0.000    0.000 
#
# Total GULP energy -396483.043628 kJ/mol
# GULP energy per Si atom -12390.095113 kJ/mol
# Density = 2.110234 g / cm^3
# Si number density = 21.150484 Si / 1000 Ang^3
#
#
#
# Elastic Constant Matrix: (Units=GPa)
#
#
# Indices 1 2 3 4 5 6 
#
# 1 76.6126 27.3781 19.2852 0.0000 -22.2469 0.0000
# 2 27.3781 80.7534 30.4033 0.0000 -9.3241 0.0000
# 3 19.2852 30.4033 77.6921 0.0000 -13.3370 0.0000
# 4 0.0000 0.0000 0.0000 22.6141 0.0000 -6.5441
# 5 -22.2469 -9.3241 -13.3370 0.0000 31.9861 0.0000
# 6 0.0000 0.0000 0.0000 -6.5441 0.0000 31.5207
#
#
#
# Elastic Compliance Matrix: (Units=1/GPa)
#
#
# Indices 1 2 3 4 5 6 
#
# 1 0.018047 -0.004549 -0.000832 0.000000 0.010879 0.000000
# 2 -0.004549 0.015791 -0.005173 0.000000 -0.000718 0.000000
# 3 -0.000832 -0.005173 0.015881 0.000000 0.004535 0.000000
# 4 0.000000 0.000000 0.000000 0.047047 0.000000 0.009768
# 5 0.010879 -0.000718 0.004535 0.000000 0.040512 0.000000
# 6 0.000000 0.000000 0.000000 0.009768 0.000000 0.033753
#
#
# Mechanical properties :
#
#
# Convention : Reuss Voigt Hill
#
# Bulk Modulus (GPa) = 34.95370 43.24349 39.09860
# Shear Modulus (GPa) = 24.79237 27.75694 26.27465
#
# Velocity S-wave (km/s) = 3.42744 3.62657 3.52841
# Velocity P-wave (km/s) = 5.67672 6.16653 5.92669
#
# Compressibility (1/GPa) = 0.02860927
#
# Stress axis : x y z
#
# Youngs Moduli (GPa) = 55.41149 63.32921 62.96902
#
# Poissons Ratio (x) = 0.28809 0.05239
# Poissons Ratio (y) = 0.25207 0.32576
# Poissons Ratio (z) = 0.04610 0.32762
#
# Static dielectric constant tensor:
#      x y z
#    x 3.969980 0.000000 -0.657540 
#    y 0.000000 3.862620 0.000000 
#    z -0.657540 0.000000 4.736450 
# 
# 
# High freq. dielectric constant tensor:
#      x y z
#    x 1.818010 0.000000 -0.026820 
#    y 0.000000 1.826360 0.000000 
#    z -0.026820 0.000000 1.832420 
# 
# From -- ./inp_files/55669.got.cif
#   From: 2010.06.25/outbox.cif.g09.slc.cpg/sg11_28_cif.got.tgz:55669.got - 2010.06.27 23:14:04.
