data_PCOD8070253
_publ_section_title
;
Structure prediction by ZEFSAII (Michael W. Deem and Ramdas Pophale) SiO2 
 PCOD8070253
Probable space group: P 21/M
;
_chemical_formula_sum "Si O2"
_cell_formula_units_Z 28
_cell_length_a 14.151695
_cell_length_b 9.615112
_cell_length_c 28.077976
_cell_angle_alpha 90.000000
_cell_angle_beta 25.399892
_cell_angle_gamma 90.000000
_cell_volume 1638.771875
_symmetry_space_group_name_H-M "P 21/M"
_symmetry_group_IT_number 11
_symmetry_cell_setting 'monoclinic'
loop_
_space_group_symop_operation_xyz
x,y,z
-x,1/2+y,-z
-x,-y,-z
x,1/2-y,z
loop_
_atom_site_type_symbol
_atom_site_label
_atom_site_fract_x
_atom_site_fract_y
_atom_site_fract_z
Si Si1 0.342950 0.089043 0.634193
Si Si2 0.854465 0.593748 0.599351
Si Si3 0.815138 0.087822 0.379086
Si Si4 0.848020 0.912418 0.178180
Si Si5 0.653287 0.092695 0.182939
Si Si6 0.679893 0.412902 0.065186
Si Si7 0.202981 0.084740 0.268355
O O1 0.281822 0.250000 0.653692
O O2 0.603039 0.062836 0.509290
O O3 0.273706 0.040113 0.718367
O O4 0.203842 0.997778 0.660744
O O5 0.948858 0.750000 0.554811
O O6 0.607907 0.590569 0.692200
O O7 0.868257 0.534549 0.646759
O O8 0.000000 0.500000 0.500000
O O9 0.838320 0.250000 0.355550
O O10 0.029907 0.027379 0.308423
O O11 0.809711 0.750000 0.185764
O O12 0.754652 0.995055 0.176479
O O13 0.110001 0.945896 0.063558
O O14 0.743188 0.250000 0.148753
O O15 0.718526 0.029959 0.101316
O O16 0.639944 0.250000 0.090578
O O17 0.453228 0.471277 0.144502
O O18 0.194391 0.250000 0.270375
#
# Coordination Sequence:
#
# PCOD8070253 Si02
#       7
#     4   4   4   4   4   4   4
#     4   9  19  32  46  70  96 116 148 197 242 276
#     4   9  18  30  45  68  97 125 154 191 228 270
#     4   9  17  32  52  68  86 120 159 189 230 284
#     4  10  19  30  49  72  94 123 158 195 234 272
#     4   9  18  31  46  68  98 129 158 188 228 273
#     4   8  15  30  48  69  95 124 158 191 226 274
#     4   8  15  29  50  68  88 123 159 188 224 277
#
# _framework density 17.085967
#
# number of rings (size 3 to 8) (size 9 to 14) (size 15 to 20)
#    0.000    3.143    0.000    2.143    2.000    1.143 
#    0.000    1.429    0.000    2.571    0.000    0.000 
#    0.000    0.000    0.000    0.000    0.000    0.000 
#
# Total GULP energy -347055.640424 kJ/mol
# GULP energy per Si atom -12394.844301 kJ/mol
# Density = 1.704708 g / cm^3
# Si number density = 17.085967 Si / 1000 Ang^3
#
#
#
# Elastic Constant Matrix: (Units=GPa)
#
#
# Indices 1 2 3 4 5 6 
#
# 1 119.7511 33.5736 51.1510 0.0000 -17.3250 0.0000
# 2 33.5736 36.6831 27.3737 0.0000 -3.1485 0.0000
# 3 51.1510 27.3737 82.6337 0.0000 2.4092 0.0000
# 4 0.0000 0.0000 0.0000 18.1916 0.0000 0.6396
# 5 -17.3250 -3.1485 2.4092 0.0000 19.7261 0.0000
# 6 0.0000 0.0000 0.0000 0.6396 0.0000 26.9247
#
#
#
# Elastic Compliance Matrix: (Units=1/GPa)
#
#
# Indices 1 2 3 4 5 6 
#
# 1 0.015645 -0.007496 -0.007594 0.000000 0.013472 0.000000
# 2 -0.007496 0.040873 -0.008930 0.000000 0.001031 0.000000
# 3 -0.007594 -0.008930 0.020068 0.000000 -0.010546 0.000000
# 4 0.000000 0.000000 0.000000 0.055016 0.000000 -0.001307
# 5 0.013472 0.001031 -0.010546 0.000000 0.063979 0.000000
# 6 0.000000 0.000000 0.000000 -0.001307 0.000000 0.037172
#
#
# Mechanical properties :
#
#
# Convention : Reuss Voigt Hill
#
# Bulk Modulus (GPa) = 35.03048 51.47385 43.25216
# Shear Modulus (GPa) = 17.22310 21.43312 19.32811
#
# Velocity S-wave (km/s) = 3.17839 3.54563 3.36702
# Velocity P-wave (km/s) = 5.83237 6.85229 6.36280
#
# Compressibility (1/GPa) = 0.02854657
#
# Stress axis : x y z
#
# Youngs Moduli (GPa) = 63.91856 24.46597 49.83041
#
# Poissons Ratio (x) = 0.18339 0.37841
# Poissons Ratio (y) = 0.47911 0.44499
# Poissons Ratio (z) = 0.48540 0.21848
#
# Static dielectric constant tensor:
#      x y z
#    x 3.252690 0.000000 -0.164500 
#    y 0.000000 2.965470 0.000000 
#    z -0.164500 0.000000 3.345410 
# 
# 
# High freq. dielectric constant tensor:
#      x y z
#    x 1.652390 0.000000 -0.007760 
#    y 0.000000 1.627870 0.000000 
#    z -0.007760 0.000000 1.664090 
# 
# From -- ./inp_files/34317.got.cif
#   From: 2010.06.25/outbox.cif.g09.slc.cpg/sg11_18_cif.got.tgz:34317.got - 2010.06.27 23:14:04.
