data_PCOD8070777
_publ_section_title
;
Structure prediction by ZEFSAII (Michael W. Deem and Ramdas Pophale) SiO2 
 PCOD8070777
Probable space group: P 21/M
;
_chemical_formula_sum "Si O2"
_cell_formula_units_Z 28
_cell_length_a 13.611704
_cell_length_b 8.857798
_cell_length_c 14.259222
_cell_angle_alpha 90.000000
_cell_angle_beta 76.579324
_cell_angle_gamma 90.000000
_cell_volume 1672.282041
_symmetry_space_group_name_H-M "P 21/M"
_symmetry_group_IT_number 11
_symmetry_cell_setting 'monoclinic'
loop_
_space_group_symop_operation_xyz
x,y,z
-x,1/2+y,-z
-x,-y,-z
x,1/2-y,z
loop_
_atom_site_type_symbol
_atom_site_label
_atom_site_fract_x
_atom_site_fract_y
_atom_site_fract_z
Si Si1 0.254191 0.073369 0.289998
Si Si2 0.587724 0.078520 0.618794
Si Si3 0.271747 0.922447 0.577838
Si Si4 0.366792 0.925468 0.111090
Si Si5 0.575394 0.425914 0.107987
Si Si6 0.362813 0.076217 0.724272
Si Si7 0.108181 0.571589 0.462289
O O1 0.233225 0.250000 0.292679
O O2 0.354964 0.037048 0.326286
O O3 0.273388 0.013139 0.180004
O O4 0.157091 0.992046 0.356113
O O5 0.614132 0.250000 0.644938
O O6 0.625412 0.054463 0.504281
O O7 0.469507 0.046016 0.650206
O O8 0.258838 0.750000 0.612037
O O9 0.176971 0.975004 0.535911
O O10 0.276808 0.022341 0.670765
O O11 0.356640 0.750000 0.136060
O O12 0.472317 0.979910 0.132157
O O13 0.363189 0.958674 0.001048
O O14 0.548451 0.250000 0.123149
O O15 0.645041 0.480429 0.178385
O O16 0.345048 0.250000 0.753001
O O17 0.099531 0.750000 0.454825
O O18 0.000000 0.500000 0.500000
#
# Coordination Sequence:
#
# PCOD8070777 Si02
#       7
#     4   4   4   4   4   4   4
#     4  11  20  30  50  75  99 132 168 202 246 298
#     4   9  18  31  44  64  96 133 167 204 241 279
#     4   9  19  33  48  67  96 129 163 200 242 292
#     4  10  19  32  47  67  97 131 170 211 247 286
#     4  10  20  31  46  67  95 134 173 208 246 287
#     4  11  20  29  45  68  98 134 169 204 242 285
#     4  10  21  38  57  77 101 127 159 205 252 296
#
# _framework density 16.743587000000002
#
# number of rings (size 3 to 8) (size 9 to 14) (size 15 to 20)
#    0.000    2.000    1.429    4.286    0.000    5.143 
#    0.000    0.000    0.000    0.000    0.000    1.000 
#    0.000    0.000    0.000    0.000    0.000    0.000 
#
# Total GULP energy -347229.502639 kJ/mol
# GULP energy per Si atom -12401.053666 kJ/mol
# Density = 1.670548 g / cm^3
# Si number density = 16.743587 Si / 1000 Ang^3
#
#
#
# Elastic Constant Matrix: (Units=GPa)
#
#
# Indices 1 2 3 4 5 6 
#
# 1 67.4636 38.2799 47.8082 0.0000 -5.8473 0.0000
# 2 38.2799 92.2790 49.8174 0.0000 -3.8914 0.0000
# 3 47.8082 49.8174 113.1002 0.0000 1.3510 0.0000
# 4 0.0000 0.0000 0.0000 29.5987 0.0000 0.1833
# 5 -5.8473 -3.8914 1.3510 0.0000 19.5373 0.0000
# 6 0.0000 0.0000 0.0000 0.1833 0.0000 24.1104
#
#
#
# Elastic Compliance Matrix: (Units=1/GPa)
#
#
# Indices 1 2 3 4 5 6 
#
# 1 0.024058 -0.005466 -0.007841 0.000000 0.006654 0.000000
# 2 -0.005466 0.015671 -0.004614 0.000000 0.001804 0.000000
# 3 -0.007841 -0.004614 0.014239 0.000000 -0.004250 0.000000
# 4 0.000000 0.000000 0.000000 0.033787 0.000000 -0.000257
# 5 0.006654 0.001804 -0.004250 0.000000 0.053829 0.000000
# 6 0.000000 0.000000 0.000000 -0.000257 0.000000 0.041478
#
#
# Mechanical properties :
#
#
# Convention : Reuss Voigt Hill
#
# Bulk Modulus (GPa) = 55.16913 60.51707 57.84310
# Shear Modulus (GPa) = 22.22764 23.77844 23.00304
#
# Velocity S-wave (km/s) = 3.64748 3.77258 3.71056
# Velocity P-wave (km/s) = 7.12459 7.42956 7.27867
#
# Compressibility (1/GPa) = 0.01812608
#
# Stress axis : x y z
#
# Youngs Moduli (GPa) = 41.56664 63.81231 70.22878
#
# Poissons Ratio (x) = 0.34881 0.55068
# Poissons Ratio (y) = 0.22721 0.32401
# Poissons Ratio (z) = 0.32593 0.29440
#
# Static dielectric constant tensor:
#      x y z
#    x 2.780900 0.000000 -0.045530 
#    y 0.000000 3.185060 0.000000 
#    z -0.045530 0.000000 3.271720 
# 
# 
# High freq. dielectric constant tensor:
#      x y z
#    x 1.594060 0.000000 0.001570 
#    y 0.000000 1.658470 0.000000 
#    z 0.001570 0.000000 1.649000 
# 
# From -- ./inp_files/50989.got.cif
#   From: 2010.06.25/outbox.cif.g09.slc.cpg/sg11_26_cif.got.tgz:50989.got - 2010.06.27 23:14:04.
