data_PCOD8070966
_publ_section_title
;
Structure prediction by ZEFSAII (Michael W. Deem and Ramdas Pophale) SiO2 
 PCOD8070966
Probable space group: P 21/M
;
_chemical_formula_sum "Si O2"
_cell_formula_units_Z 32
_cell_length_a 22.809141
_cell_length_b 18.619657
_cell_length_c 10.331195
_cell_angle_alpha 90.000000
_cell_angle_beta 25.052686
_cell_angle_gamma 90.000000
_cell_volume 1857.953383
_symmetry_space_group_name_H-M "P 21/M"
_symmetry_group_IT_number 11
_symmetry_cell_setting 'monoclinic'
loop_
_space_group_symop_operation_xyz
x,y,z
-x,1/2+y,-z
-x,-y,-z
x,1/2-y,z
loop_
_atom_site_type_symbol
_atom_site_label
_atom_site_fract_x
_atom_site_fract_y
_atom_site_fract_z
Si Si1 0.160695 0.668052 0.399599
Si Si2 0.157959 0.667744 0.702870
Si Si3 0.839261 0.831950 0.042553
Si Si4 0.158039 0.332244 0.665073
Si Si5 0.661397 0.957466 0.306294
Si Si6 0.339286 0.951612 0.443531
Si Si7 0.661404 0.042536 0.048112
Si Si8 0.660681 0.548393 0.800740
O O1 0.189061 0.750000 0.300098
O O2 0.204608 0.657605 0.461019
O O3 0.999972 0.648872 0.702213
O O4 0.252684 0.616336 0.126375
O O5 0.175115 0.750000 0.710648
O O6 0.253520 0.621747 0.606962
O O7 0.999972 0.642662 0.035547
O O8 0.810902 0.750000 0.056450
O O9 0.795327 0.842391 0.279644
O O10 0.747271 0.883647 0.137244
O O11 0.175122 0.250000 0.588771
O O12 0.253555 0.378253 0.378797
O O13 0.499999 0.937308 0.634776
O O14 0.705187 0.007148 0.338501
O O15 0.700009 0.999971 0.099957
O O16 0.299854 0.000006 0.400298
O O17 0.499979 0.931108 0.123453
O O18 0.705156 0.992870 0.840783
#
# Coordination Sequence:
#
# PCOD8070966 Si02
#       8
#     4   4   4   4   4   4   4   4
#     4   9  18  33  53  77 103 131 168 211 251 298
#     4   9  18  32  51  77 105 132 166 209 256 302
#     4   9  18  33  53  77 103 131 168 211 251 298
#     4   9  18  32  51  77 105 132 166 209 256 302
#     4  10  21  36  52  74 105 137 169 208 253 301
#     4  10  19  32  51  76 101 128 168 210 248 295
#     4  10  21  36  52  74 105 137 169 208 253 301
#     4  10  19  32  51  76 101 128 168 210 248 295
#
# _framework density 17.223253
#
# number of rings (size 3 to 8) (size 9 to 14) (size 15 to 20)
#    0.000    2.500    2.500    1.500    0.000    3.000 
#    0.000    3.750    0.000    7.500    0.000    0.000 
#    0.000    0.000    0.000    0.000    0.000    0.000 
#
# Total GULP energy -396876.430216 kJ/mol
# GULP energy per Si atom -12402.388444 kJ/mol
# Density = 1.718405 g / cm^3
# Si number density = 17.223253 Si / 1000 Ang^3
#
#
#
# Elastic Constant Matrix: (Units=GPa)
#
#
# Indices 1 2 3 4 5 6 
#
# 1 92.0479 57.4011 40.1171 0.0000 7.6011 0.0000
# 2 57.4011 118.9587 66.5848 0.0000 -5.0714 0.0000
# 3 40.1171 66.5848 71.1431 0.0000 3.7941 0.0000
# 4 0.0000 0.0000 0.0000 35.7342 0.0000 -4.4679
# 5 7.6011 -5.0714 3.7941 0.0000 21.0671 0.0000
# 6 0.0000 0.0000 0.0000 -4.4679 0.0000 27.6405
#
#
#
# Elastic Compliance Matrix: (Units=1/GPa)
#
#
# Indices 1 2 3 4 5 6 
#
# 1 0.017011 -0.007087 -0.002566 0.000000 -0.007381 0.000000
# 2 -0.007087 0.021793 -0.016980 0.000000 0.010861 0.000000
# 3 -0.002566 -0.016980 0.031870 0.000000 -0.008901 0.000000
# 4 0.000000 0.000000 0.000000 0.028562 0.000000 0.004617
# 5 -0.007381 0.010861 -0.008901 0.000000 0.054348 0.000000
# 6 0.000000 0.000000 0.000000 0.004617 0.000000 0.036925
#
#
# Mechanical properties :
#
#
# Convention : Reuss Voigt Hill
#
# Bulk Modulus (GPa) = 57.44274 67.81730 62.63002
# Shear Modulus (GPa) = 20.03395 24.75814 22.39605
#
# Velocity S-wave (km/s) = 3.41426 3.79553 3.60993
# Velocity P-wave (km/s) = 6.99765 7.65957 7.33608
#
# Compressibility (1/GPa) = 0.01740864
#
# Stress axis : x y z
#
# Youngs Moduli (GPa) = 58.78507 45.88664 31.37788
#
# Poissons Ratio (x) = 0.32518 0.08052
# Poissons Ratio (y) = 0.41659 0.53278
# Poissons Ratio (z) = 0.15085 0.77914
#
# Static dielectric constant tensor:
#      x y z
#    x 3.052210 0.000000 -0.025490 
#    y 0.000000 3.147300 0.000000 
#    z -0.025490 0.000000 3.097560 
# 
# 
# High freq. dielectric constant tensor:
#      x y z
#    x 1.645800 0.000000 -0.008000 
#    y 0.000000 1.668480 0.000000 
#    z -0.008000 0.000000 1.660260 
# 
# From -- ./inp_files/44862.got.cif
#   From: 2010.06.25/outbox.cif.g09.slc.cpg/sg11_23_cif.got.tgz:44862.got - 2010.06.27 23:14:04.
