data_PCOD8070703
_publ_section_title
;
Structure prediction by ZEFSAII (Michael W. Deem and Ramdas Pophale) SiO2 
 PCOD8070703
Probable space group: P 21/M
;
_chemical_formula_sum "Si O2"
_cell_formula_units_Z 32
_cell_length_a 22.343759
_cell_length_b 16.054187
_cell_length_c 24.378360
_cell_angle_alpha 90.000000
_cell_angle_beta 11.505924
_cell_angle_gamma 90.000000
_cell_volume 1744.315335
_symmetry_space_group_name_H-M "P 21/M"
_symmetry_group_IT_number 11
_symmetry_cell_setting 'monoclinic'
loop_
_space_group_symop_operation_xyz
x,y,z
-x,1/2+y,-z
-x,-y,-z
x,1/2-y,z
loop_
_atom_site_type_symbol
_atom_site_label
_atom_site_fract_x
_atom_site_fract_y
_atom_site_fract_z
Si Si1 0.539718 0.058784 0.334964
Si Si2 0.455449 0.430469 0.585011
Si Si3 0.040716 0.847561 0.799334
Si Si4 0.529285 0.154256 0.892669
Si Si5 0.902474 0.068422 0.465014
Si Si6 0.186110 0.543629 0.286415
Si Si7 0.877639 0.846252 0.205677
Si Si8 0.388157 0.925770 0.391532
O O1 0.292611 0.100711 0.595563
O O2 0.690695 0.979117 0.231618
O O3 0.384432 0.018400 0.421218
O O4 0.777170 0.127077 0.103191
O O5 0.500000 0.500000 0.500000
O O6 0.764707 0.386675 0.325829
O O7 0.242112 0.360947 0.749124
O O8 0.997105 0.750000 0.849531
O O9 0.207258 0.860812 0.591868
O O10 0.722716 0.892515 0.082821
O O11 0.550448 0.250000 0.858814
O O12 0.645402 0.102494 0.736134
O O13 0.738053 0.137009 0.759948
O O14 0.185754 0.130187 0.213027
O O15 0.774811 0.063240 0.519315
O O16 0.004442 0.973850 0.392749
O O17 0.000000 0.500000 0.500000
O O18 0.500000 0.500000 0.000000
O O19 0.848983 0.750000 0.246364
#
# Coordination Sequence:
#
# PCOD8070703 Si02
#       8
#     4   4   4   4   4   4   4   4
#     4  10  21  37  53  76 105 136 170 210 258 313
#     4   9  19  36  55  75 100 133 171 209 256 317
#     4  11  23  36  51  76 108 137 168 214 264 308
#     4  10  19  31  51  78 107 131 161 210 256 288
#     4  10  20  33  52  75 100 137 177 202 236 298
#     4   8  16  31  48  71  99 128 162 200 238 281
#     4  11  21  35  57  80 100 127 169 223 271 310
#     4  11  22  37  54  73 103 145 178 206 248 307
#
# _framework density 18.345306999999998
#
# number of rings (size 3 to 8) (size 9 to 14) (size 15 to 20)
#    0.000    2.000    0.000    4.875    0.000    6.000 
#    0.000    6.250    0.000    1.500    0.000    0.000 
#    0.000    0.000    0.000    0.000    0.000    0.000 
#
# Total GULP energy -396483.006527 kJ/mol
# GULP energy per Si atom -12390.093954 kJ/mol
# Density = 1.830355 g / cm^3
# Si number density = 18.345307 Si / 1000 Ang^3
#
#
#
# Elastic Constant Matrix: (Units=GPa)
#
#
# Indices 1 2 3 4 5 6 
#
# 1 93.5771 42.0490 18.5679 0.0000 -18.8591 0.0000
# 2 42.0490 75.4042 13.5367 0.0000 -17.6297 0.0000
# 3 18.5679 13.5367 73.7513 0.0000 7.2246 0.0000
# 4 0.0000 0.0000 0.0000 22.5238 0.0000 3.8368
# 5 -18.8591 -17.6297 7.2246 0.0000 31.1166 0.0000
# 6 0.0000 0.0000 0.0000 3.8368 0.0000 17.7835
#
#
#
# Elastic Compliance Matrix: (Units=1/GPa)
#
#
# Indices 1 2 3 4 5 6 
#
# 1 0.015628 -0.006586 -0.003364 0.000000 0.006521 0.000000
# 2 -0.006586 0.019141 -0.002585 0.000000 0.007453 0.000000
# 3 -0.003364 -0.002585 0.015578 0.000000 -0.007121 0.000000
# 4 0.000000 0.000000 0.000000 0.046092 0.000000 -0.009944
# 5 0.006521 0.007453 -0.007121 0.000000 0.041966 0.000000
# 6 0.000000 0.000000 0.000000 -0.009944 0.000000 0.058377
#
#
# Mechanical properties :
#
#
# Convention : Reuss Voigt Hill
#
# Bulk Modulus (GPa) = 39.56390 43.44886 41.50638
# Shear Modulus (GPa) = 21.71282 25.52337 23.61810
#
# Velocity S-wave (km/s) = 3.44403 3.73403 3.59195
# Velocity P-wave (km/s) = 6.11785 6.50584 6.31483
#
# Compressibility (1/GPa) = 0.02527556
#
# Stress axis : x y z
#
# Youngs Moduli (GPa) = 63.98896 52.24307 64.19233
#
# Poissons Ratio (x) = 0.34408 0.21597
# Poissons Ratio (y) = 0.42143 0.16596
# Poissons Ratio (z) = 0.21529 0.13506
#
# Static dielectric constant tensor:
#      x y z
#    x 3.718710 0.000000 -0.028140 
#    y 0.000000 3.496650 0.000000 
#    z -0.028140 0.000000 3.482810 
# 
# 
# High freq. dielectric constant tensor:
#      x y z
#    x 1.707190 0.000000 0.011740 
#    y 0.000000 1.694880 0.000000 
#    z 0.011740 0.000000 1.721970 
# 
# From -- ./inp_files/72338.got.cif
#   From: 2010.06.25/outbox.cif.g09.slc.cpg/sg11_37_cif.got.tgz:72338.got - 2010.06.27 23:14:04.
