data_PCOD8070929
_publ_section_title
;
Structure prediction by ZEFSAII (Michael W. Deem and Ramdas Pophale) SiO2 
 PCOD8070929
Probable space group: P 21/M
;
_chemical_formula_sum "Si O2"
_cell_formula_units_Z 24
_cell_length_a 16.332355
_cell_length_b 16.485604
_cell_length_c 10.152788
_cell_angle_alpha 90.000000
_cell_angle_beta 29.727097
_cell_angle_gamma 90.000000
_cell_volume 1355.521205
_symmetry_space_group_name_H-M "P 21/M"
_symmetry_group_IT_number 11
_symmetry_cell_setting 'monoclinic'
loop_
_space_group_symop_operation_xyz
x,y,z
-x,1/2+y,-z
-x,-y,-z
x,1/2-y,z
loop_
_atom_site_type_symbol
_atom_site_label
_atom_site_fract_x
_atom_site_fract_y
_atom_site_fract_z
Si Si1 0.002431 0.507428 0.841499
Si Si2 0.285731 0.080037 0.311197
Si Si3 0.617343 0.419964 0.979585
Si Si4 0.093767 0.659203 0.557933
Si Si5 0.653636 0.992571 0.190293
Si Si6 0.754510 0.659203 0.897202
O O1 0.115702 0.435184 0.626258
O O2 0.079930 0.595189 0.696623
O O3 0.000000 0.500000 0.000000
O O4 0.819778 0.496759 0.040662
O O5 0.428190 0.105237 0.215429
O O6 0.263832 0.150694 0.234421
O O7 0.335336 0.000003 0.164656
O O8 0.642331 0.435182 0.099635
O O9 0.737920 0.349309 0.760338
O O10 0.086830 0.750000 0.627360
O O11 0.945476 0.642996 0.663554
O O12 0.500000 0.000000 0.500000
O O13 0.643499 0.904815 0.133057
O O14 0.698957 0.750000 0.015238
#
# Coordination Sequence:
#
# PCOD8070929 Si02
#       6
#     4   4   4   4   4   4
#     4  10  19  32  51  73  99 132 167 204 247 296
#     4   9  17  30  49  72  96 124 160 198 237 288
#     4   9  17  30  49  72  96 124 160 198 237 288
#     4   9  18  33  52  73  97 126 162 205 251 295
#     4  10  19  32  51  73  99 132 167 204 247 296
#     4   9  18  33  52  73  97 126 162 205 251 295
#
# _framework density 17.705366999999999
#
# number of rings (size 3 to 8) (size 9 to 14) (size 15 to 20)
#    0.000    2.667    0.000    2.000    0.000    6.000 
#    0.000    1.667    0.000    6.000    0.000    0.000 
#    0.000    0.000    0.000    0.000    0.000    0.000 
#
# Total GULP energy -297571.299490 kJ/mol
# GULP energy per Si atom -12398.804145 kJ/mol
# Density = 1.766507 g / cm^3
# Si number density = 17.705367 Si / 1000 Ang^3
#
#
#
# Elastic Constant Matrix: (Units=GPa)
#
#
# Indices 1 2 3 4 5 6 
#
# 1 127.3929 38.2725 60.6822 0.0000 10.1660 0.0000
# 2 38.2725 76.4502 42.1314 0.0000 3.9301 0.0000
# 3 60.6822 42.1314 138.9980 0.0000 1.6382 0.0000
# 4 0.0000 0.0000 0.0000 19.0508 0.0000 -0.4801
# 5 10.1660 3.9301 1.6382 0.0000 29.6779 0.0000
# 6 0.0000 0.0000 0.0000 -0.4801 0.0000 19.5260
#
#
#
# Elastic Compliance Matrix: (Units=1/GPa)
#
#
# Indices 1 2 3 4 5 6 
#
# 1 0.010833 -0.003216 -0.003718 0.000000 -0.003080 0.000000
# 2 -0.003216 0.016757 -0.003664 0.000000 -0.000915 0.000000
# 3 -0.003718 -0.003664 0.009914 0.000000 0.001212 0.000000
# 4 0.000000 0.000000 0.000000 0.052524 0.000000 0.001292
# 5 -0.003080 -0.000915 0.001212 0.000000 0.034804 0.000000
# 6 0.000000 0.000000 0.000000 0.001292 0.000000 0.051245
#
#
# Mechanical properties :
#
#
# Convention : Reuss Voigt Hill
#
# Bulk Modulus (GPa) = 61.32405 69.44591 65.38498
# Shear Modulus (GPa) = 24.66584 27.10126 25.88355
#
# Velocity S-wave (km/s) = 3.73651 3.91664 3.82763
# Velocity P-wave (km/s) = 7.30249 7.73056 7.51958
#
# Compressibility (1/GPa) = 0.01630682
#
# Stress axis : x y z
#
# Youngs Moduli (GPa) = 92.31310 59.67740 100.86681
#
# Poissons Ratio (x) = 0.19190 0.37505
# Poissons Ratio (y) = 0.29685 0.36962
# Poissons Ratio (z) = 0.34324 0.21869
#
# Static dielectric constant tensor:
#      x y z
#    x 3.423760 0.000000 -0.134720 
#    y 0.000000 3.180800 0.000000 
#    z -0.134720 0.000000 3.290810 
# 
# 
# High freq. dielectric constant tensor:
#      x y z
#    x 1.690380 0.000000 -0.011440 
#    y 0.000000 1.662860 0.000000 
#    z -0.011440 0.000000 1.679120 
# 
# From -- ./inp_files/13280.got.cif
#   From: 2010.06.25/outbox.cif.g09.slc.cpg/sg11_7_cif.got.tgz:13280.got - 2010.06.27 23:14:04.
