data_PCOD8070279
_publ_section_title
;
Structure prediction by ZEFSAII (Michael W. Deem and Ramdas Pophale) SiO2 
 PCOD8070279
Probable space group: P 21/M
;
_chemical_formula_sum "Si O2"
_cell_formula_units_Z 28
_cell_length_a 13.877155
_cell_length_b 8.908080
_cell_length_c 12.119544
_cell_angle_alpha 90.000000
_cell_angle_beta 71.121153
_cell_angle_gamma 90.000000
_cell_volume 1417.607531
_symmetry_space_group_name_H-M "P 21/M"
_symmetry_group_IT_number 11
_symmetry_cell_setting 'monoclinic'
loop_
_space_group_symop_operation_xyz
x,y,z
-x,1/2+y,-z
-x,-y,-z
x,1/2-y,z
loop_
_atom_site_type_symbol
_atom_site_label
_atom_site_fract_x
_atom_site_fract_y
_atom_site_fract_z
Si Si1 0.989412 0.917020 0.116546
Si Si2 0.185702 0.073279 0.669119
Si Si3 0.487118 0.572587 0.125883
Si Si4 0.689289 0.925648 0.177494
Si Si5 0.784671 0.081397 0.949323
Si Si6 0.714581 0.925912 0.767867
Si Si7 0.112529 0.428526 0.464298
O O1 0.950467 0.750000 0.104352
O O2 0.909902 0.995850 0.228159
O O3 0.099129 0.915030 0.133705
O O4 0.000000 0.000000 0.000000
O O5 0.173380 0.250000 0.663444
O O6 0.289449 0.033765 0.699996
O O7 0.175761 0.011126 0.548341
O O8 0.480189 0.750000 0.112587
O O9 0.578584 0.526345 0.174933
O O10 0.388518 0.511701 0.229009
O O11 0.500000 0.500000 0.000000
O O12 0.707922 0.750000 0.152003
O O13 0.773941 0.016983 0.076860
O O14 0.738404 0.250000 0.959519
O O15 0.725371 0.967801 0.892128
O O16 0.696979 0.750000 0.759827
O O17 0.814380 0.979585 0.663413
O O18 0.097556 0.250000 0.470281
O O19 0.000000 0.500000 0.500000
#
# Coordination Sequence:
#
# PCOD8070279 Si02
#       7
#     4   4   4   4   4   4   4
#     4  10  19  30  49  78 110 144 180 224 283 347
#     4   9  18  36  58  79 111 153 191 234 289 349
#     4  11  22  36  58  88 119 153 194 245 297 350
#     4  10  20  35  57  82 112 149 188 233 292 355
#     4  11  21  32  52  83 116 149 188 239 291 343
#     4  11  23  38  58  84 115 156 199 240 292 351
#     4  10  22  41  64  87 115 154 200 243 289 346
#
# _framework density 19.751588999999999
#
# number of rings (size 3 to 8) (size 9 to 14) (size 15 to 20)
#    0.000    1.714    2.857    2.143    0.000    3.429 
#    0.000    2.143    0.000    0.000    0.000    0.000 
#    0.000    0.000    0.000    0.000    0.000    0.000 
#
# Total GULP energy -346946.110997 kJ/mol
# GULP energy per Si atom -12390.932536 kJ/mol
# Density = 1.970663 g / cm^3
# Si number density = 19.751589 Si / 1000 Ang^3
#
#
#
# Elastic Constant Matrix: (Units=GPa)
#
#
# Indices 1 2 3 4 5 6 
#
# 1 131.0080 31.0943 43.2124 0.0000 8.4307 0.0000
# 2 31.0943 57.7976 26.8351 0.0000 -1.4872 0.0000
# 3 43.2124 26.8351 88.9083 0.0000 10.8205 0.0000
# 4 0.0000 0.0000 0.0000 21.6335 0.0000 -3.3287
# 5 8.4307 -1.4872 10.8205 0.0000 39.2363 0.0000
# 6 0.0000 0.0000 0.0000 -3.3287 0.0000 28.3554
#
#
#
# Elastic Compliance Matrix: (Units=1/GPa)
#
#
# Indices 1 2 3 4 5 6 
#
# 1 0.009727 -0.003655 -0.003470 0.000000 -0.001272 0.000000
# 2 -0.003655 0.021739 -0.005154 0.000000 0.003031 0.000000
# 3 -0.003470 -0.005154 0.014923 0.000000 -0.003565 0.000000
# 4 0.000000 0.000000 0.000000 0.047075 0.000000 0.005526
# 5 -0.001272 0.003031 -0.003565 0.000000 0.026858 0.000000
# 6 0.000000 0.000000 0.000000 0.005526 0.000000 0.035915
#
#
# Mechanical properties :
#
#
# Convention : Reuss Voigt Hill
#
# Bulk Modulus (GPa) = 45.80329 53.33304 49.56816
# Shear Modulus (GPa) = 26.58560 29.61651 28.10105
#
# Velocity S-wave (km/s) = 3.67276 3.87647 3.77599
# Velocity P-wave (km/s) = 6.42072 6.86269 6.64538
#
# Compressibility (1/GPa) = 0.02183249
#
# Stress axis : x y z
#
# Youngs Moduli (GPa) = 102.80823 46.00056 67.00854
#
# Poissons Ratio (x) = 0.16812 0.23250
# Poissons Ratio (y) = 0.37573 0.34536
# Poissons Ratio (z) = 0.35672 0.23709
#
# Static dielectric constant tensor:
#      x y z
#    x 4.026050 0.000000 -0.004330 
#    y 0.000000 3.400430 0.000000 
#    z -0.004330 0.000000 3.681100 
# 
# 
# High freq. dielectric constant tensor:
#      x y z
#    x 1.784630 0.000000 0.006410 
#    y 0.000000 1.751970 0.000000 
#    z 0.006410 0.000000 1.750860 
# 
# From -- ./inp_files/37428.got.cif
#   From: 2010.06.25/outbox.cif.g09.slc.cpg/sg11_19_cif.got.tgz:37428.got - 2010.06.27 23:14:04.
