data_PCOD8070093
_publ_section_title
;
Structure prediction by ZEFSAII (Michael W. Deem and Ramdas Pophale) SiO2 
 PCOD8070093
Probable space group: P 21/M
;
_chemical_formula_sum "Si O2"
_cell_formula_units_Z 32
_cell_length_a 17.007278
_cell_length_b 9.187308
_cell_length_c 12.832233
_cell_angle_alpha 90.000000
_cell_angle_beta 88.687542
_cell_angle_gamma 90.000000
_cell_volume 2004.524518
_symmetry_space_group_name_H-M "P 21/M"
_symmetry_group_IT_number 11
_symmetry_cell_setting 'monoclinic'
loop_
_space_group_symop_operation_xyz
x,y,z
-x,1/2+y,-z
-x,-y,-z
x,1/2-y,z
loop_
_atom_site_type_symbol
_atom_site_label
_atom_site_fract_x
_atom_site_fract_y
_atom_site_fract_z
Si Si1 0.657512 0.080313 0.379704
Si Si2 0.171937 0.582160 0.699640
Si Si3 0.912223 0.919987 0.113794
Si Si4 0.182179 0.923145 0.293992
Si Si5 0.081908 0.579622 0.492176
Si Si6 0.093655 0.579503 0.094963
Si Si7 0.509597 0.579631 0.390664
Si Si8 0.661740 0.080690 0.614806
O O1 0.635537 0.250000 0.383160
O O2 0.734899 0.051541 0.309396
O O3 0.669421 0.018362 0.496905
O O4 0.583875 0.993475 0.329212
O O5 0.155352 0.750000 0.728387
O O6 0.136427 0.479962 0.788241
O O7 0.133726 0.541037 0.590850
O O8 0.896258 0.750000 0.104111
O O9 0.003903 0.954718 0.129280
O O10 0.881567 0.995811 0.009848
O O11 0.180065 0.750000 0.290028
O O12 0.127531 0.978901 0.389550
O O13 0.148980 0.982401 0.185497
O O14 0.270816 0.984831 0.311341
O O15 0.065715 0.750000 0.484288
O O16 0.000000 0.500000 0.500000
O O17 0.106004 0.750000 0.074612
O O18 0.500000 0.500000 0.500000
O O19 0.525364 0.750000 0.406615
O O20 0.425671 0.554381 0.334133
O O21 0.680687 0.250000 0.603572
#
# Coordination Sequence:
#
# PCOD8070093 Si02
#       8
#     4   4   4   4   4   4   4   4
#     4   9  16  28  44  64  91 122 154 185 220 267
#     4  10  19  31  48  68  92 125 158 187 225 275
#     4  10  20  33  48  67  91 118 152 199 241 269
#     4   9  15  27  47  67  88 118 154 186 219 266
#     4  10  19  30  45  65  93 125 153 183 223 272
#     4   9  18  32  50  68  86 116 157 195 230 272
#     4   9  16  25  41  63  89 122 154 184 222 266
#     4   8  13  24  42  64  89 117 150 182 215 263
#
# _framework density 15.963884999999999
#
# number of rings (size 3 to 8) (size 9 to 14) (size 15 to 20)
#    0.000    2.750    1.250    2.250    0.000    2.500 
#    0.000    0.625    0.000    3.750    0.000    0.875 
#    0.000    0.000    0.000    0.000    0.000    0.000 
#
# Total GULP energy -396613.908275 kJ/mol
# GULP energy per Si atom -12394.184634 kJ/mol
# Density = 1.592755 g / cm^3
# Si number density = 15.963885 Si / 1000 Ang^3
#
#
#
# Elastic Constant Matrix: (Units=GPa)
#
#
# Indices 1 2 3 4 5 6 
#
# 1 105.0499 41.7442 36.2710 0.0000 16.8591 0.0000
# 2 41.7442 51.3047 32.9491 0.0000 0.6190 0.0000
# 3 36.2710 32.9491 78.6686 0.0000 13.6763 0.0000
# 4 0.0000 0.0000 0.0000 16.1203 0.0000 -6.6883
# 5 16.8591 0.6190 13.6763 0.0000 17.2168 0.0000
# 6 0.0000 0.0000 0.0000 -6.6883 0.0000 25.0235
#
#
#
# Elastic Compliance Matrix: (Units=1/GPa)
#
#
# Indices 1 2 3 4 5 6 
#
# 1 0.018074 -0.015263 0.001208 0.000000 -0.018109 0.000000
# 2 -0.015263 0.040865 -0.014412 0.000000 0.024924 0.000000
# 3 0.001208 -0.014412 0.021239 0.000000 -0.017536 0.000000
# 4 0.000000 0.000000 0.000000 0.069771 0.000000 0.018649
# 5 -0.018109 0.024924 -0.017536 0.000000 0.088849 0.000000
# 6 0.000000 0.000000 0.000000 0.018649 0.000000 0.044947
#
#
# Mechanical properties :
#
#
# Convention : Reuss Voigt Hill
#
# Bulk Modulus (GPa) = 43.02093 50.77243 46.89668
# Shear Modulus (GPa) = 14.35024 19.94270 17.14647
#
# Velocity S-wave (km/s) = 3.00145 3.53829 3.28087
# Velocity P-wave (km/s) = 6.24652 6.96895 6.61760
#
# Compressibility (1/GPa) = 0.02324450
#
# Stress axis : x y z
#
# Youngs Moduli (GPa) = 55.32958 24.47098 47.08225
#
# Poissons Ratio (x) = 0.37349 -0.05686
# Poissons Ratio (y) = 0.84448 0.67853
# Poissons Ratio (z) = -0.06682 0.35267
#
# Static dielectric constant tensor:
#      x y z
#    x 4.171940 0.000000 -0.004390 
#    y 0.000000 2.918600 0.000000 
#    z -0.004390 0.000000 2.931160 
# 
# 
# High freq. dielectric constant tensor:
#      x y z
#    x 1.623290 0.000000 0.003440 
#    y 0.000000 1.594710 0.000000 
#    z 0.003440 0.000000 1.579360 
# 
# From -- ./inp_files/40625.got.cif
#   From: 2010.06.25/outbox.cif.g09.slc.cpg/sg11_21_cif.got.tgz:40625.got - 2010.06.27 23:14:04.
