data_PCOD8070280
_publ_section_title
;
Structure prediction by ZEFSAII (Michael W. Deem and Ramdas Pophale) SiO2 
 PCOD8070280
Probable space group: P 21/M
;
_chemical_formula_sum "Si O2"
_cell_formula_units_Z 28
_cell_length_a 14.965903
_cell_length_b 8.666017
_cell_length_c 16.886747
_cell_angle_alpha 90.000000
_cell_angle_beta 133.608741
_cell_angle_gamma 90.000000
_cell_volume 1585.794843
_symmetry_space_group_name_H-M "P 21/M"
_symmetry_group_IT_number 11
_symmetry_cell_setting 'monoclinic'
loop_
_space_group_symop_operation_xyz
x,y,z
-x,1/2+y,-z
-x,-y,-z
x,1/2-y,z
loop_
_atom_site_type_symbol
_atom_site_label
_atom_site_fract_x
_atom_site_fract_y
_atom_site_fract_z
Si Si1 0.239272 0.066753 0.631972
Si Si2 0.611929 0.067138 0.018539
Si Si3 0.455141 0.571166 0.360330
Si Si4 0.102307 0.068939 0.392187
Si Si5 0.515279 0.068990 0.795268
Si Si6 0.158091 0.068238 0.753717
Si Si7 0.309022 0.927784 0.420784
O O1 0.243136 0.250000 0.629424
O O2 0.160728 0.004008 0.509653
O O3 0.377373 0.997006 0.712175
O O4 0.176603 0.009531 0.674927
O O5 0.607749 0.250000 0.022223
O O6 0.742331 0.007878 0.128277
O O7 0.595974 0.007315 0.918079
O O8 0.500000 0.000000 0.000000
O O9 0.496647 0.750000 0.392500
O O10 0.417910 0.529088 0.247242
O O11 0.570858 0.466973 0.454446
O O12 0.338886 0.538181 0.346438
O O13 0.076620 0.250000 0.380471
O O14 0.194168 0.032724 0.375897
O O15 0.975611 0.981194 0.297861
O O16 0.499537 0.250000 0.796297
O O17 0.174799 0.250000 0.769133
O O18 0.274641 0.750000 0.413488
#
# Coordination Sequence:
#
# PCOD8070280 Si02
#       7
#     4   4   4   4   4   4   4
#     4   9  17  31  52  76 104 139 172 206 252 304
#     4  11  21  35  55  77 103 137 178 216 255 300
#     4   9  17  32  53  75 103 138 172 208 255 307
#     4  11  21  35  54  75 104 142 177 208 253 313
#     4   9  16  31  54  77 102 136 173 210 252 302
#     4  11  22  37  53  74 106 139 176 218 257 301
#     4  10  19  30  49  79 108 134 167 211 260 306
#
# _framework density 17.656760999999999
#
# number of rings (size 3 to 8) (size 9 to 14) (size 15 to 20)
#    0.000    2.000    2.857    2.143    0.000    0.571 
#    0.000    5.000    0.000    0.857    0.000    0.000 
#    0.000    0.000    0.000    0.000    0.000    0.000 
#
# Total GULP energy -347181.238501 kJ/mol
# GULP energy per Si atom -12399.329946 kJ/mol
# Density = 1.761657 g / cm^3
# Si number density = 17.656761 Si / 1000 Ang^3
#
#
#
# Elastic Constant Matrix: (Units=GPa)
#
#
# Indices 1 2 3 4 5 6 
#
# 1 122.2487 21.7985 66.4818 0.0000 -13.1002 0.0000
# 2 21.7985 43.0140 27.1279 0.0000 -5.9826 0.0000
# 3 66.4818 27.1279 127.6671 0.0000 -4.9121 0.0000
# 4 0.0000 0.0000 0.0000 23.2084 0.0000 4.1421
# 5 -13.1002 -5.9826 -4.9121 0.0000 29.3371 0.0000
# 6 0.0000 0.0000 0.0000 4.1421 0.0000 25.4104
#
#
#
# Elastic Compliance Matrix: (Units=1/GPa)
#
#
# Indices 1 2 3 4 5 6 
#
# 1 0.012068 -0.001951 -0.005715 0.000000 0.004034 0.000000
# 2 -0.001951 0.027778 -0.004733 0.000000 0.004001 0.000000
# 3 -0.005715 -0.004733 0.011755 0.000000 -0.001549 0.000000
# 4 0.000000 0.000000 0.000000 0.044379 0.000000 -0.007234
# 5 0.004034 0.004001 -0.001549 0.000000 0.036445 0.000000
# 6 0.000000 0.000000 0.000000 -0.007234 0.000000 0.040533
#
#
# Mechanical properties :
#
#
# Convention : Reuss Voigt Hill
#
# Bulk Modulus (GPa) = 37.30674 58.19402 47.75038
# Shear Modulus (GPa) = 24.19098 27.42595 25.80847
#
# Velocity S-wave (km/s) = 3.70546 3.94545 3.82733
# Velocity P-wave (km/s) = 6.28347 7.33386 6.82889
#
# Compressibility (1/GPa) = 0.02680481
#
# Stress axis : x y z
#
# Youngs Moduli (GPa) = 82.86453 35.99949 85.07167
#
# Poissons Ratio (x) = 0.07022 0.48615
# Poissons Ratio (y) = 0.16164 0.40263
# Poissons Ratio (z) = 0.47354 0.17038
#
# Static dielectric constant tensor:
#      x y z
#    x 3.413290 0.000000 -0.208750 
#    y 0.000000 3.120710 0.000000 
#    z -0.208750 0.000000 3.316670 
# 
# 
# High freq. dielectric constant tensor:
#      x y z
#    x 1.685800 0.000000 -0.009450 
#    y 0.000000 1.668330 0.000000 
#    z -0.009450 0.000000 1.665550 
# 
# From -- ./inp_files/37478.got.cif
#   From: 2010.06.25/outbox.cif.g09.slc.cpg/sg11_19_cif.got.tgz:37478.got - 2010.06.27 23:14:04.
