data_PCOD8070858
_publ_section_title
;
Structure prediction by ZEFSAII (Michael W. Deem and Ramdas Pophale) SiO2 
 PCOD8070858
Probable space group: P 21/M
;
_chemical_formula_sum "Si O2"
_cell_formula_units_Z 28
_cell_length_a 14.819657
_cell_length_b 8.619049
_cell_length_c 18.909785
_cell_angle_alpha 90.000000
_cell_angle_beta 141.360099
_cell_angle_gamma 90.000000
_cell_volume 1508.215746
_symmetry_space_group_name_H-M "P 21/M"
_symmetry_group_IT_number 11
_symmetry_cell_setting 'monoclinic'
loop_
_space_group_symop_operation_xyz
x,y,z
-x,1/2+y,-z
-x,-y,-z
x,1/2-y,z
loop_
_atom_site_type_symbol
_atom_site_label
_atom_site_fract_x
_atom_site_fract_y
_atom_site_fract_z
Si Si1 0.326624 0.065144 0.795932
Si Si2 0.623154 0.932926 0.925335
Si Si3 0.790238 0.918647 0.415104
Si Si4 0.465638 0.578442 0.268738
Si Si5 0.136467 0.433913 0.393355
Si Si6 0.180870 0.568586 0.842739
Si Si7 0.566488 0.432949 0.470132
O O1 0.345627 0.250000 0.799242
O O2 0.215799 0.000124 0.666200
O O3 0.481671 0.986429 0.881418
O O4 0.264570 0.024704 0.833680
O O5 0.637522 0.750000 0.939674
O O6 0.626099 0.982702 0.845072
O O7 0.761337 0.013344 0.046309
O O8 0.861934 0.750000 0.448696
O O9 0.625627 0.903885 0.337989
O O10 0.873460 0.002429 0.531263
O O11 0.397344 0.750000 0.237015
O O12 0.467868 0.490241 0.344681
O O13 0.167805 0.250000 0.416848
O O14 0.267304 0.513213 0.432284
O O15 0.988773 0.472470 0.262929
O O16 0.207584 0.750000 0.847193
O O17 0.500000 0.500000 0.500000
O O18 0.561478 0.250000 0.468900
#
# Coordination Sequence:
#
# PCOD8070858 Si02
#       7
#     4   4   4   4   4   4   4
#     4  10  19  32  50  72 100 136 181 229 271 308
#     4  11  21  34  52  74 102 138 183 225 262 308
#     4   7  13  28  49  70  95 129 166 210 259 303
#     4   9  17  33  55  79 106 134 169 212 259 307
#     4   9  19  36  54  74 104 140 176 214 262 317
#     4  11  22  34  49  71 103 143 182 222 267 310
#     4  11  21  35  59  88 113 136 166 205 253 308
#
# _framework density 18.564983999999999
#
# number of rings (size 3 to 8) (size 9 to 14) (size 15 to 20)
#    0.000    2.286    0.000    6.000    0.000    1.714 
#    0.000    0.714    0.000    0.857    0.000    0.000 
#    0.000    0.000    0.000    0.000    0.000    0.000 
#
# Total GULP energy -347001.601609 kJ/mol
# GULP energy per Si atom -12392.914343 kJ/mol
# Density = 1.852273 g / cm^3
# Si number density = 18.564984 Si / 1000 Ang^3
#
#
#
# Elastic Constant Matrix: (Units=GPa)
#
#
# Indices 1 2 3 4 5 6 
#
# 1 58.5313 21.0318 63.4690 0.0000 -17.4753 0.0000
# 2 21.0318 81.0007 38.4825 0.0000 -1.5718 0.0000
# 3 63.4690 38.4825 138.7261 0.0000 -15.3172 0.0000
# 4 0.0000 0.0000 0.0000 25.5453 0.0000 -4.1353
# 5 -17.4753 -1.5718 -15.3172 0.0000 23.8577 0.0000
# 6 0.0000 0.0000 0.0000 -4.1353 0.0000 25.0390
#
#
#
# Elastic Compliance Matrix: (Units=1/GPa)
#
#
# Indices 1 2 3 4 5 6 
#
# 1 0.041260 -0.002764 -0.015922 0.000000 0.019818 0.000000
# 2 -0.002764 0.014470 -0.003087 0.000000 -0.003053 0.000000
# 3 -0.015922 -0.003087 0.015110 0.000000 -0.002165 0.000000
# 4 0.000000 0.000000 0.000000 0.040222 0.000000 0.006643
# 5 0.019818 -0.003053 -0.002165 0.000000 0.054840 0.000000
# 6 0.000000 0.000000 0.000000 0.006643 0.000000 0.041035
#
#
# Mechanical properties :
#
#
# Convention : Reuss Voigt Hill
#
# Bulk Modulus (GPa) = 36.63651 58.24717 47.44184
# Shear Modulus (GPa) = 19.26176 25.24006 22.25091
#
# Velocity S-wave (km/s) = 3.22457 3.69121 3.46575
# Velocity P-wave (km/s) = 5.80007 7.04341 6.45176
#
# Compressibility (1/GPa) = 0.02729518
#
# Stress axis : x y z
#
# Youngs Moduli (GPa) = 24.23632 69.10647 66.18039
#
# Poissons Ratio (x) = 0.19102 1.05374
# Poissons Ratio (y) = 0.06699 0.20427
# Poissons Ratio (z) = 0.38590 0.21330
#
# Static dielectric constant tensor:
#      x y z
#    x 3.091550 0.000000 -0.294930 
#    y 0.000000 3.394550 0.000000 
#    z -0.294930 0.000000 3.827780 
# 
# 
# High freq. dielectric constant tensor:
#      x y z
#    x 1.681450 0.000000 -0.023300 
#    y 0.000000 1.718700 0.000000 
#    z -0.023300 0.000000 1.731920 
# 
# From -- ./inp_files/60156.got.cif
#   From: 2010.06.25/outbox.cif.g09.slc.cpg/sg11_31_cif.got.tgz:60156.got - 2010.06.27 23:14:04.
