data_PCOD8070273
_publ_section_title
;
Structure prediction by ZEFSAII (Michael W. Deem and Ramdas Pophale) SiO2 
 PCOD8070273
Probable space group: P 21/M
;
_chemical_formula_sum "Si O2"
_cell_formula_units_Z 28
_cell_length_a 15.723440
_cell_length_b 9.335980
_cell_length_c 16.984501
_cell_angle_alpha 90.000000
_cell_angle_beta 144.961862
_cell_angle_gamma 90.000000
_cell_volume 1431.410280
_symmetry_space_group_name_H-M "P 21/M"
_symmetry_group_IT_number 11
_symmetry_cell_setting 'monoclinic'
loop_
_space_group_symop_operation_xyz
x,y,z
-x,1/2+y,-z
-x,-y,-z
x,1/2-y,z
loop_
_atom_site_type_symbol
_atom_site_label
_atom_site_fract_x
_atom_site_fract_y
_atom_site_fract_z
Si Si1 0.181257 0.916023 0.937944
Si Si2 0.462167 0.916695 0.246696
Si Si3 0.927370 0.909249 0.560228
Si Si4 0.431962 0.917050 0.521141
Si Si5 0.662326 0.586965 0.254287
Si Si6 0.900080 0.415174 0.692056
Si Si7 0.735795 0.410578 0.170360
O O1 0.137718 0.750000 0.893651
O O2 0.262264 0.967617 0.918337
O O3 0.289233 0.938505 0.093819
O O4 0.030284 0.003514 0.838193
O O5 0.495379 0.750000 0.291503
O O6 0.557733 0.969950 0.244779
O O7 0.501222 0.015535 0.349328
O O8 0.890861 0.750000 0.565972
O O9 0.832500 0.935105 0.409648
O O10 0.099020 0.920573 0.669080
O O11 0.880299 0.023810 0.589686
O O12 0.475922 0.750000 0.551884
O O13 0.255004 0.935583 0.380774
O O14 0.500000 0.000000 0.500000
O O15 0.621383 0.750000 0.205124
O O16 0.632432 0.504248 0.149767
O O17 0.945050 0.250000 0.719825
O O18 0.673396 0.250000 0.125386
#
# Coordination Sequence:
#
# PCOD8070273 Si02
#       7
#     4   4   4   4   4   4   4
#     4   9  20  38  58  81 114 157 196 230 278 334
#     4  10  21  39  61  84 114 151 191 235 283 337
#     4   9  17  31  50  74 108 150 191 233 283 334
#     4  11  24  41  64  93 118 142 179 227 282 342
#     4  10  19  30  49  77 110 150 193 235 283 330
#     4  10  20  35  58  87 114 144 185 232 278 332
#     4   9  18  30  46  73 111 153 195 236 274 323
#
# _framework density 19.561129000000001
#
# number of rings (size 3 to 8) (size 9 to 14) (size 15 to 20)
#    0.000    2.286    1.429    2.143    0.000    6.286 
#    0.000    0.714    0.000    0.000    0.000    0.000 
#    0.000    0.000    0.000    0.000    0.000    0.000 
#
# Total GULP energy -347146.366821 kJ/mol
# GULP energy per Si atom -12398.084529 kJ/mol
# Density = 1.951661 g / cm^3
# Si number density = 19.561129 Si / 1000 Ang^3
#
#
#
# Elastic Constant Matrix: (Units=GPa)
#
#
# Indices 1 2 3 4 5 6 
#
# 1 101.0633 66.3990 34.8234 0.0000 -4.7138 0.0000
# 2 66.3990 111.8744 47.3517 0.0000 -1.7468 0.0000
# 3 34.8234 47.3517 89.4208 0.0000 -10.7217 0.0000
# 4 0.0000 0.0000 0.0000 20.5738 0.0000 -0.6443
# 5 -4.7138 -1.7468 -10.7217 0.0000 6.5142 0.0000
# 6 0.0000 0.0000 0.0000 -0.6443 0.0000 35.5475
#
#
#
# Elastic Compliance Matrix: (Units=1/GPa)
#
#
# Indices 1 2 3 4 5 6 
#
# 1 0.016793 -0.009686 -0.000330 0.000000 0.009011 0.000000
# 2 -0.009686 0.017514 -0.007200 0.000000 -0.014164 0.000000
# 3 -0.000330 -0.007200 0.018519 0.000000 0.028311 0.000000
# 4 0.000000 0.000000 0.000000 0.048633 0.000000 0.000881
# 5 0.009011 -0.014164 0.028311 0.000000 0.202829 0.000000
# 6 0.000000 0.000000 0.000000 0.000881 0.000000 0.028147
#
#
# Mechanical properties :
#
#
# Convention : Reuss Voigt Hill
#
# Bulk Modulus (GPa) = 54.37050 66.61185 60.49117
# Shear Modulus (GPa) = 13.40483 22.77940 18.09211
#
# Velocity S-wave (km/s) = 2.62062 3.41621 3.04452
# Velocity P-wave (km/s) = 6.08378 7.04896 6.58408
#
# Compressibility (1/GPa) = 0.01839233
#
# Stress axis : x y z
#
# Youngs Moduli (GPa) = 59.54941 57.09687 53.99876
#
# Poissons Ratio (x) = 0.55306 0.01781
# Poissons Ratio (y) = 0.57682 0.38881
# Poissons Ratio (z) = 0.01964 0.41112
#
# Static dielectric constant tensor:
#      x y z
#    x 3.304840 0.000000 0.079530 
#    y 0.000000 3.557860 0.000000 
#    z 0.079530 0.000000 3.679010 
# 
# 
# High freq. dielectric constant tensor:
#      x y z
#    x 1.735590 0.000000 0.007760 
#    y 0.000000 1.757730 0.000000 
#    z 0.007760 0.000000 1.770890 
# 
# From -- ./inp_files/60128.got.cif
#   From: 2010.06.25/outbox.cif.g09.slc.cpg/sg11_31_cif.got.tgz:60128.got - 2010.06.27 23:14:04.
