data_PCOD8070658
_publ_section_title
;
Structure prediction by ZEFSAII (Michael W. Deem and Ramdas Pophale) SiO2 
 PCOD8070658
Probable space group: P 21/M
;
_chemical_formula_sum "Si O2"
_cell_formula_units_Z 28
_cell_length_a 11.847442
_cell_length_b 8.894438
_cell_length_c 16.570508
_cell_angle_alpha 90.000000
_cell_angle_beta 88.843262
_cell_angle_gamma 90.000000
_cell_volume 1745.783614
_symmetry_space_group_name_H-M "P 21/M"
_symmetry_group_IT_number 11
_symmetry_cell_setting 'monoclinic'
loop_
_space_group_symop_operation_xyz
x,y,z
-x,1/2+y,-z
-x,-y,-z
x,1/2-y,z
loop_
_atom_site_type_symbol
_atom_site_label
_atom_site_fract_x
_atom_site_fract_y
_atom_site_fract_z
Si Si1 0.598871 0.079248 0.761211
Si Si2 0.989224 0.425808 0.587088
Si Si3 0.768795 0.575323 0.346595
Si Si4 0.232577 0.427697 0.349380
Si Si5 0.376792 0.927844 0.776693
Si Si6 0.378623 0.073104 0.500485
Si Si7 0.524636 0.920234 0.082886
O O1 0.601941 0.250000 0.728214
O O2 0.588755 0.077292 0.859437
O O3 0.710746 0.990301 0.733231
O O4 0.486487 0.995859 0.727683
O O5 0.968361 0.250000 0.574418
O O6 0.101161 0.456623 0.636875
O O7 0.000000 0.500000 0.500000
O O8 0.889055 0.497988 0.639697
O O9 0.746410 0.750000 0.329854
O O10 0.735483 0.481086 0.267738
O O11 0.694314 0.517478 0.422616
O O12 0.217378 0.250000 0.344474
O O13 0.311974 0.478349 0.421862
O O14 0.384310 0.750000 0.778700
O O15 0.376619 0.992428 0.868752
O O16 0.393608 0.250000 0.501304
O O17 0.500000 0.000000 0.500000
O O18 0.564367 0.750000 0.065864
O O19 0.500000 0.000000 0.000000
#
# Coordination Sequence:
#
# PCOD8070658 Si02
#       7
#     4   4   4   4   4   4   4
#     4   9  19  33  50  75 106 137 166 204 252 303
#     4  11  22  37  54  70  94 134 181 226 266 304
#     4  10  20  36  50  66  97 135 175 217 258 303
#     4  11  21  35  51  72  99 132 176 220 259 305
#     4  10  19  31  50  77 106 134 167 207 253 303
#     4  10  21  33  46  67  95 129 168 210 256 302
#     4   9  18  32  53  79 109 138 165 200 248 310
#
# _framework density 16.038643
#
# number of rings (size 3 to 8) (size 9 to 14) (size 15 to 20)
#    0.857    1.143    1.429    3.429    0.000    5.143 
#    0.000    0.000    0.000    0.000    0.000    1.000 
#    0.000    0.000    0.000    0.000    0.000    0.000 
#
# Total GULP energy -347106.563650 kJ/mol
# GULP energy per Si atom -12396.662987 kJ/mol
# Density = 1.600214 g / cm^3
# Si number density = 16.038643 Si / 1000 Ang^3
#
#
#
# Elastic Constant Matrix: (Units=GPa)
#
#
# Indices 1 2 3 4 5 6 
#
# 1 99.7419 56.0538 41.4492 0.0000 1.2784 0.0000
# 2 56.0538 117.4652 51.7371 0.0000 9.8778 0.0000
# 3 41.4492 51.7371 89.8560 0.0000 9.3311 0.0000
# 4 0.0000 0.0000 0.0000 28.3020 0.0000 0.6341
# 5 1.2784 9.8778 9.3311 0.0000 13.3004 0.0000
# 6 0.0000 0.0000 0.0000 0.6341 0.0000 28.7299
#
#
#
# Elastic Compliance Matrix: (Units=1/GPa)
#
#
# Indices 1 2 3 4 5 6 
#
# 1 0.014927 -0.005777 -0.004159 0.000000 0.005773 0.000000
# 2 -0.005777 0.013859 -0.004642 0.000000 -0.006481 0.000000
# 3 -0.004159 -0.004642 0.016525 0.000000 -0.007746 0.000000
# 4 0.000000 0.000000 0.000000 0.035351 0.000000 -0.000780
# 5 0.005773 -0.006481 -0.007746 0.000000 0.084878 0.000000
# 6 0.000000 0.000000 0.000000 -0.000780 0.000000 0.034824
#
#
# Mechanical properties :
#
#
# Convention : Reuss Voigt Hill
#
# Bulk Modulus (GPa) = 61.90001 67.28260 64.59130
# Shear Modulus (GPa) = 21.28530 24.58799 22.93664
#
# Velocity S-wave (km/s) = 3.64693 3.91966 3.78575
# Velocity P-wave (km/s) = 7.51076 7.90736 7.71161
#
# Compressibility (1/GPa) = 0.01615509
#
# Stress axis : x y z
#
# Youngs Moduli (GPa) = 66.99479 72.15338 60.51581
#
# Poissons Ratio (x) = 0.41680 0.25168
# Poissons Ratio (y) = 0.38700 0.28093
# Poissons Ratio (z) = 0.27862 0.33496
#
# Static dielectric constant tensor:
#      x y z
#    x 3.029160 0.000000 0.007190 
#    y 0.000000 2.927380 0.000000 
#    z 0.007190 0.000000 2.867260 
# 
# 
# High freq. dielectric constant tensor:
#      x y z
#    x 1.598170 0.000000 0.002140 
#    y 0.000000 1.632260 0.000000 
#    z 0.002140 0.000000 1.596210 
# 
# From -- ./inp_files/58544.got.cif
#   From: 2010.06.25/outbox.cif.g09.slc.cpg/sg11_30_cif.got.tgz:58544.got - 2010.06.27 23:14:04.
