data_PCOD8070589
_publ_section_title
;
Structure prediction by ZEFSAII (Michael W. Deem and Ramdas Pophale) SiO2 
 PCOD8070589
Probable space group: P 21/M
;
_chemical_formula_sum "Si O2"
_cell_formula_units_Z 32
_cell_length_a 30.863090
_cell_length_b 9.071679
_cell_length_c 11.212896
_cell_angle_alpha 90.000000
_cell_angle_beta 32.888683
_cell_angle_gamma 90.000000
_cell_volume 1704.714207
_symmetry_space_group_name_H-M "P 21/M"
_symmetry_group_IT_number 11
_symmetry_cell_setting 'monoclinic'
loop_
_space_group_symop_operation_xyz
x,y,z
-x,1/2+y,-z
-x,-y,-z
x,1/2-y,z
loop_
_atom_site_type_symbol
_atom_site_label
_atom_site_fract_x
_atom_site_fract_y
_atom_site_fract_z
Si Si1 0.337543 0.921812 0.388149
Si Si2 0.194989 0.424116 0.833635
Si Si3 0.602571 0.919077 0.979296
Si Si4 0.245357 0.419491 0.216679
Si Si5 0.899758 0.078437 0.334448
Si Si6 0.575284 0.419497 0.571965
Si Si7 0.284457 0.077805 0.864460
Si Si8 0.054961 0.578151 0.039730
O O1 0.315672 0.750000 0.429953
O O2 0.398662 0.956268 0.353279
O O3 0.255932 0.011587 0.595279
O O4 0.378439 0.973615 0.173027
O O5 0.188647 0.250000 0.830151
O O6 0.223925 0.468335 0.899161
O O7 0.108973 0.497601 0.013399
O O8 0.600285 0.750000 0.938395
O O9 0.666050 0.939897 0.937340
O O10 0.516806 0.965072 0.230774
O O11 0.217137 0.250000 0.293115
O O12 0.186493 0.522846 0.426537
O O13 0.246188 0.473141 0.077678
O O14 0.909400 0.250000 0.341207
O O15 0.907765 0.046995 0.175862
O O16 0.966739 0.989601 0.252489
O O17 0.589329 0.250000 0.510114
O O18 0.628736 0.507262 0.354181
O O19 0.299785 0.250000 0.830046
O O20 0.050061 0.750000 0.081045
#
# Coordination Sequence:
#
# PCOD8070589 Si02
#       8
#     4   4   4   4   4   4   4   4
#     4  10  19  31  49  75 107 137 169 212 260 310
#     4  10  19  33  54  77 103 136 174 212 253 304
#     4  10  20  33  51  75 103 136 173 214 262 312
#     4  10  21  37  54  73 102 138 175 215 258 302
#     4  10  21  36  55  81 110 137 166 203 251 305
#     4   9  19  34  51  74 103 135 172 216 263 307
#     4   9  20  37  54  73 100 137 177 216 257 301
#     4  10  20  35  57  84 111 135 164 204 251 304
#
# _framework density 18.771477000000001
#
# number of rings (size 3 to 8) (size 9 to 14) (size 15 to 20)
#    0.000    2.250    0.000    2.625    0.000    6.500 
#    0.000    0.625    0.000    0.000    0.000    0.000 
#    0.000    0.000    0.000    0.000    0.000    0.000 
#
# Total GULP energy -396936.324168 kJ/mol
# GULP energy per Si atom -12404.260130 kJ/mol
# Density = 1.872875 g / cm^3
# Si number density = 18.771477 Si / 1000 Ang^3
#
#
#
# Elastic Constant Matrix: (Units=GPa)
#
#
# Indices 1 2 3 4 5 6 
#
# 1 69.1549 36.6326 40.5281 0.0000 -12.2292 0.0000
# 2 36.6326 74.5228 32.3661 0.0000 -6.0510 0.0000
# 3 40.5281 32.3661 65.9479 0.0000 -13.0155 0.0000
# 4 0.0000 0.0000 0.0000 35.0134 0.0000 -4.5148
# 5 -12.2292 -6.0510 -13.0155 0.0000 33.6298 0.0000
# 6 0.0000 0.0000 0.0000 -4.5148 0.0000 24.0936
#
#
#
# Elastic Compliance Matrix: (Units=1/GPa)
#
#
# Indices 1 2 3 4 5 6 
#
# 1 0.025730 -0.007367 -0.011489 0.000000 0.003584 0.000000
# 2 -0.007367 0.019164 -0.005117 0.000000 -0.001211 0.000000
# 3 -0.011489 -0.005117 0.025692 0.000000 0.004845 0.000000
# 4 0.000000 0.000000 0.000000 0.029268 0.000000 0.005484
# 5 0.003584 -0.001211 0.004845 0.000000 0.032696 0.000000
# 6 0.000000 0.000000 0.000000 0.005484 0.000000 0.042533
#
#
# Mechanical properties :
#
#
# Convention : Reuss Voigt Hill
#
# Bulk Modulus (GPa) = 44.17148 47.63104 45.90126
# Shear Modulus (GPa) = 21.68499 25.22062 23.45280
#
# Velocity S-wave (km/s) = 3.40252 3.66944 3.53850
# Velocity P-wave (km/s) = 6.24648 6.58652 6.41875
#
# Compressibility (1/GPa) = 0.02263904
#
# Stress axis : x y z
#
# Youngs Moduli (GPa) = 38.86567 52.18091 38.92316
#
# Poissons Ratio (x) = 0.38441 0.44719
# Poissons Ratio (y) = 0.28632 0.19918
# Poissons Ratio (z) = 0.44653 0.26702
#
# Static dielectric constant tensor:
#      x y z
#    x 3.507610 0.000000 -0.123520 
#    y 0.000000 3.448790 0.000000 
#    z -0.123520 0.000000 3.361420 
# 
# 
# High freq. dielectric constant tensor:
#      x y z
#    x 1.724960 0.000000 -0.013440 
#    y 0.000000 1.732670 0.000000 
#    z -0.013440 0.000000 1.721970 
# 
# From -- ./inp_files/45114.got.cif
#   From: 2010.06.25/outbox.cif.g09.slc.cpg/sg11_23_cif.got.tgz:45114.got - 2010.06.27 23:14:04.
