data_PCOD8070021
_publ_section_title
;
Structure prediction by ZEFSAII (Michael W. Deem and Ramdas Pophale) SiO2 
 PCOD8070021
Probable space group: P 21/M
;
_chemical_formula_sum "Si O2"
_cell_formula_units_Z 32
_cell_length_a 9.491849
_cell_length_b 14.019489
_cell_length_c 20.372765
_cell_angle_alpha 90.000000
_cell_angle_beta 141.644741
_cell_angle_gamma 90.000000
_cell_volume 1682.285486
_symmetry_space_group_name_H-M "P 21/M"
_symmetry_group_IT_number 11
_symmetry_cell_setting 'monoclinic'
loop_
_space_group_symop_operation_xyz
x,y,z
-x,1/2+y,-z
-x,-y,-z
x,1/2-y,z
loop_
_atom_site_type_symbol
_atom_site_label
_atom_site_fract_x
_atom_site_fract_y
_atom_site_fract_z
Si Si1 0.449711 0.859613 0.712998
Si Si2 0.181922 0.638941 0.081251
Si Si3 0.445414 0.643285 0.865521
Si Si4 0.514514 0.357884 0.686323
Si Si5 0.775783 0.525718 0.738249
Si Si6 0.922193 0.859654 0.672979
Si Si7 0.953789 0.861560 0.539435
Si Si8 0.827066 0.513357 0.027828
O O1 0.476413 0.750000 0.701695
O O2 0.488739 0.874116 0.804270
O O3 0.638984 0.918684 0.744507
O O4 0.196792 0.900675 0.602273
O O5 0.129132 0.750000 0.047491
O O6 0.401941 0.627760 0.208602
O O7 0.965129 0.590264 0.035187
O O8 0.232319 0.584368 0.032080
O O9 0.521593 0.750000 0.912656
O O10 0.184126 0.628983 0.788565
O O11 0.592747 0.566888 0.960626
O O12 0.553614 0.250000 0.676458
O O13 0.657041 0.422611 0.687667
O O14 0.245867 0.383349 0.585366
O O15 0.767901 0.578985 0.666099
O O16 0.035523 0.513782 0.856620
O O17 0.843433 0.750000 0.649917
O O18 0.884660 0.901781 0.586039
O O19 0.997816 0.750000 0.567728
#
# Coordination Sequence:
#
# PCOD8070021 Si02
#       8
#     4   4   4   4   4   4   4   4
#     4   9  17  30  50  75  98 121 155 199 242 281
#     4   9  17  29  46  71 100 127 156 195 240 280
#     4   9  17  32  52  69  91 127 164 195 232 283
#     4   9  18  32  49  69  95 129 166 195 228 283
#     4  11  21  30  47  75 102 126 155 199 243 278
#     4   9  19  34  51  72  96 122 155 198 246 288
#     4   8  16  33  53  70  94 127 159 194 235 284
#     4  10  19  29  45  69  98 129 161 194 233 281
#
# _framework density 19.021742
#
# number of rings (size 3 to 8) (size 9 to 14) (size 15 to 20)
#    0.000    2.750    0.000    4.500    0.000    4.000 
#    0.000    0.000    0.000    0.750    0.000    2.625 
#    0.000    0.000    0.000    0.000    0.000    0.000 
#
# Total GULP energy -396685.002057 kJ/mol
# GULP energy per Si atom -12396.406314 kJ/mol
# Density = 1.897845 g / cm^3
# Si number density = 19.021742 Si / 1000 Ang^3
#
#
#
# Elastic Constant Matrix: (Units=GPa)
#
#
# Indices 1 2 3 4 5 6 
#
# 1 39.0264 16.8284 -0.1889 0.0000 2.1297 0.0000
# 2 16.8284 88.3319 26.8886 0.0000 1.9890 0.0000
# 3 -0.1889 26.8886 92.9161 0.0000 13.6007 0.0000
# 4 0.0000 0.0000 0.0000 20.8134 0.0000 2.5417
# 5 2.1297 1.9890 13.6007 0.0000 13.1183 0.0000
# 6 0.0000 0.0000 0.0000 2.5417 0.0000 24.1832
#
#
#
# Elastic Compliance Matrix: (Units=1/GPa)
#
#
# Indices 1 2 3 4 5 6 
#
# 1 0.028659 -0.006167 0.002814 0.000000 -0.006635 0.000000
# 2 -0.006167 0.013794 -0.004533 0.000000 0.003609 0.000000
# 3 0.002814 -0.004533 0.014201 0.000000 -0.014493 0.000000
# 4 0.000000 0.000000 0.000000 0.048671 0.000000 -0.005115
# 5 -0.006635 0.003609 -0.014493 0.000000 0.091785 0.000000
# 6 0.000000 0.000000 0.000000 -0.005115 0.000000 0.041889
#
#
# Mechanical properties :
#
#
# Convention : Reuss Voigt Hill
#
# Bulk Modulus (GPa) = 24.46000 34.14783 29.30391
# Shear Modulus (GPa) = 18.62906 23.40606 21.01756
#
# Velocity S-wave (km/s) = 3.13286 3.51164 3.32764
# Velocity P-wave (km/s) = 5.09640 5.86797 5.49575
#
# Compressibility (1/GPa) = 0.04088307
#
# Stress axis : x y z
#
# Youngs Moduli (GPa) = 34.89342 72.49337 70.41631
#
# Poissons Ratio (x) = 0.44707 -0.19817
# Poissons Ratio (y) = 0.21519 0.31918
# Poissons Ratio (z) = -0.09820 0.32859
#
# Static dielectric constant tensor:
#      x y z
#    x 3.041370 0.000000 0.159680 
#    y 0.000000 3.573500 0.000000 
#    z 0.159680 0.000000 3.545130 
# 
# 
# High freq. dielectric constant tensor:
#      x y z
#    x 1.696660 0.000000 0.014210 
#    y 0.000000 1.741070 0.000000 
#    z 0.014210 0.000000 1.743790 
# 
# From -- ./inp_files/63825.got.cif
#   From: 2010.06.25/outbox.cif.g09.slc.cpg/sg11_32_cif.got.tgz:63825.got - 2010.06.27 23:14:04.
