data_PCOD8070632
_publ_section_title
;
Structure prediction by ZEFSAII (Michael W. Deem and Ramdas Pophale) SiO2 
 PCOD8070632
Probable space group: P 21/M
;
_chemical_formula_sum "Si O2"
_cell_formula_units_Z 32
_cell_length_a 32.658284
_cell_length_b 9.665600
_cell_length_c 5.267290
_cell_angle_alpha 90.000000
_cell_angle_beta 85.349325
_cell_angle_gamma 90.000000
_cell_volume 1657.208533
_symmetry_space_group_name_H-M "P 21/M"
_symmetry_group_IT_number 11
_symmetry_cell_setting 'monoclinic'
loop_
_space_group_symop_operation_xyz
x,y,z
-x,1/2+y,-z
-x,-y,-z
x,1/2-y,z
loop_
_atom_site_type_symbol
_atom_site_label
_atom_site_fract_x
_atom_site_fract_y
_atom_site_fract_z
Si Si1 0.357788 0.088884 0.294998
Si Si2 0.562120 0.600083 0.480767
Si Si3 0.092077 0.589850 0.447880
Si Si4 0.826137 0.914700 0.585083
Si Si5 0.685802 0.584545 0.180409
Si Si6 0.519837 0.099063 0.189825
Si Si7 0.221855 0.086346 0.891006
Si Si8 0.959620 0.090539 0.025650
O O1 0.348064 0.250000 0.287198
O O2 0.406715 0.059856 0.306861
O O3 0.341148 0.023905 0.041126
O O4 0.333949 0.026106 0.550297
O O5 0.577053 0.750000 0.356322
O O6 0.515273 0.622277 0.584489
O O7 0.560963 0.475457 0.277708
O O8 0.106139 0.750000 0.442316
O O9 0.130670 0.490012 0.436179
O O10 0.067386 0.553701 0.205838
O O11 0.064951 0.555102 0.706871
O O12 0.833222 0.750000 0.582583
O O13 0.801136 0.965155 0.844789
O O14 0.801682 0.964761 0.348170
O O15 0.685513 0.750000 0.181092
O O16 0.731999 0.526196 0.133125
O O17 0.532551 0.250000 0.072794
O O18 0.500000 0.000000 0.000000
O O19 0.224121 0.250000 0.889850
O O20 0.973050 0.250000 0.014066
O O21 0.000000 0.000000 0.000000
#
# Coordination Sequence:
#
# PCOD8070632 Si02
#       8
#     4   4   4   4   4   4   4   4
#     4   9  17  27  45  71 100 130 163 203 253 301
#     4   9  19  33  49  72 100 129 166 213 254 303
#     4  10  21  36  52  75 105 134 170 213 254 299
#     4  10  19  31  50  75 102 134 168 209 254 299
#     4   9  16  27  44  70 102 133 160 199 254 307
#     4  10  20  33  51  72  99 132 167 209 257 305
#     4   9  17  29  46  72 106 133 162 205 256 305
#     4  10  21  36  54  75 102 136 172 212 255 300
#
# _framework density 19.309578999999999
#
# number of rings (size 3 to 8) (size 9 to 14) (size 15 to 20)
#    0.000    2.500    0.000    2.250    1.750    4.500 
#    0.000    0.000    0.000    0.000    0.000    5.250 
#    0.000    0.000    0.000    0.000    0.000    0.000 
#
# Total GULP energy -396594.935963 kJ/mol
# GULP energy per Si atom -12393.591749 kJ/mol
# Density = 1.926563 g / cm^3
# Si number density = 19.309579 Si / 1000 Ang^3
#
#
#
# Elastic Constant Matrix: (Units=GPa)
#
#
# Indices 1 2 3 4 5 6 
#
# 1 118.0444 18.0213 57.5541 0.0000 14.6461 0.0000
# 2 18.0213 60.2052 9.1639 0.0000 14.9567 0.0000
# 3 57.5541 9.1639 168.1550 0.0000 11.0841 0.0000
# 4 0.0000 0.0000 0.0000 7.2455 0.0000 7.5990
# 5 14.6461 14.9567 11.0841 0.0000 35.1287 0.0000
# 6 0.0000 0.0000 0.0000 7.5990 0.0000 17.6056
#
#
#
# Elastic Compliance Matrix: (Units=1/GPa)
#
#
# Indices 1 2 3 4 5 6 
#
# 1 0.010761 -0.002075 -0.003403 0.000000 -0.002529 0.000000
# 2 -0.002075 0.019016 0.000154 0.000000 -0.007280 0.000000
# 3 -0.003403 0.000154 0.007163 0.000000 -0.000907 0.000000
# 4 0.000000 0.000000 0.000000 0.252164 0.000000 -0.108839
# 5 -0.002529 -0.007280 -0.000907 0.000000 0.032907 0.000000
# 6 0.000000 0.000000 0.000000 -0.108839 0.000000 0.103777
#
#
# Mechanical properties :
#
#
# Convention : Reuss Voigt Hill
#
# Bulk Modulus (GPa) = 38.03516 57.32034 47.67775
# Shear Modulus (GPa) = 11.23087 29.44033 20.33560
#
# Velocity S-wave (km/s) = 2.41430 3.90891 3.24873
# Velocity P-wave (km/s) = 5.24520 7.07970 6.23034
#
# Compressibility (1/GPa) = 0.02629146
#
# Stress axis : x y z
#
# Youngs Moduli (GPa) = 92.92483 52.58713 139.60273
#
# Poissons Ratio (x) = 0.10911 0.47514
# Poissons Ratio (y) = 0.19280 -0.02146
# Poissons Ratio (z) = 0.31627 -0.00808
#
# Static dielectric constant tensor:
#      x y z
#    x 3.834610 0.000000 -0.079710 
#    y 0.000000 4.223570 0.000000 
#    z -0.079710 0.000000 3.781230 
# 
# 
# High freq. dielectric constant tensor:
#      x y z
#    x 1.754080 0.000000 0.009110 
#    y 0.000000 1.703230 0.000000 
#    z 0.009110 0.000000 1.764800 
# 
# From -- ./inp_files/9688.got.cif
#   From: 2010.06.25/outbox.cif.g09.slc.cpg/sg11_5_cif.got.tgz:9688.got - 2010.06.27 23:14:04.
