data_PCOD8070132
_publ_section_title
;
Structure prediction by ZEFSAII (Michael W. Deem and Ramdas Pophale) SiO2 
 PCOD8070132
Probable space group: P 21/M
;
_chemical_formula_sum "Si O2"
_cell_formula_units_Z 28
_cell_length_a 15.868860
_cell_length_b 8.972577
_cell_length_c 15.837326
_cell_angle_alpha 90.000000
_cell_angle_beta 130.262636
_cell_angle_gamma 90.000000
_cell_volume 1720.760847
_symmetry_space_group_name_H-M "P 21/M"
_symmetry_group_IT_number 11
_symmetry_cell_setting 'monoclinic'
loop_
_space_group_symop_operation_xyz
x,y,z
-x,1/2+y,-z
-x,-y,-z
x,1/2-y,z
loop_
_atom_site_type_symbol
_atom_site_label
_atom_site_fract_x
_atom_site_fract_y
_atom_site_fract_z
Si Si1 0.607603 0.921948 0.104030
Si Si2 0.724085 0.076136 0.042035
Si Si3 0.116982 0.077112 0.978832
Si Si4 0.861422 0.077188 0.834448
Si Si5 0.500823 0.581025 0.202970
Si Si6 0.327139 0.076181 0.381351
Si Si7 0.530069 0.422957 0.394127
O O1 0.607146 0.750000 0.076377
O O2 0.602722 0.936904 0.202724
O O3 0.711901 0.003605 0.127866
O O4 0.500000 0.000000 0.000000
O O5 0.745842 0.250000 0.067216
O O6 0.829466 0.001844 0.066836
O O7 0.615165 0.042472 0.916552
O O8 0.148716 0.250000 0.000511
O O9 0.986634 0.050998 0.887058
O O10 0.164721 0.005244 0.094931
O O11 0.834140 0.250000 0.829910
O O12 0.785574 0.009298 0.712301
O O13 0.497308 0.750000 0.235642
O O14 0.520867 0.466448 0.290851
O O15 0.302016 0.250000 0.373311
O O16 0.414586 0.039962 0.364429
O O17 0.372101 0.016774 0.499649
O O18 0.559586 0.250000 0.421354
#
# Coordination Sequence:
#
# PCOD8070132 Si02
#       7
#     4   4   4   4   4   4   4
#     4   9  17  29  44  64  92 123 154 188 228 274
#     4  10  19  30  46  68  94 124 156 191 229 270
#     4  10  20  32  47  68  93 123 156 188 227 272
#     4  10  20  33  48  67  93 122 154 192 228 267
#     4   9  18  30  44  65  93 123 152 185 226 269
#     4  10  20  33  48  66  91 122 154 189 228 269
#     4  10  20  31  46  68  91 119 154 189 226 269
#
# _framework density 16.271871999999998
#
# number of rings (size 3 to 8) (size 9 to 14) (size 15 to 20)
#    0.000    2.286    0.000    4.286    0.000    9.143 
#    0.000    0.000    0.000    0.000    0.000    1.000 
#    0.000    0.000    0.000    0.000    0.000    0.000 
#
# Total GULP energy -347226.571270 kJ/mol
# GULP energy per Si atom -12400.948974 kJ/mol
# Density = 1.623484 g / cm^3
# Si number density = 16.271872 Si / 1000 Ang^3
#
#
#
# Elastic Constant Matrix: (Units=GPa)
#
#
# Indices 1 2 3 4 5 6 
#
# 1 82.5185 47.3928 18.2797 0.0000 -11.4744 0.0000
# 2 47.3928 108.9366 35.6235 0.0000 -1.8549 0.0000
# 3 18.2797 35.6235 60.5882 0.0000 0.1835 0.0000
# 4 0.0000 0.0000 0.0000 29.4686 0.0000 -2.8705
# 5 -11.4744 -1.8549 0.1835 0.0000 19.5614 0.0000
# 6 0.0000 0.0000 0.0000 -2.8705 0.0000 30.6701
#
#
#
# Elastic Compliance Matrix: (Units=1/GPa)
#
#
# Indices 1 2 3 4 5 6 
#
# 1 0.017901 -0.007236 -0.001176 0.000000 0.009825 0.000000
# 2 -0.007236 0.014315 -0.006225 0.000000 -0.002829 0.000000
# 3 -0.001176 -0.006225 0.020524 0.000000 -0.001473 0.000000
# 4 0.000000 0.000000 0.000000 0.034247 0.000000 0.003205
# 5 0.009825 -0.002829 -0.001473 0.000000 0.056630 0.000000
# 6 0.000000 0.000000 0.000000 0.003205 0.000000 0.032905
#
#
# Mechanical properties :
#
#
# Convention : Reuss Voigt Hill
#
# Bulk Modulus (GPa) = 42.61447 50.51503 46.56475
# Shear Modulus (GPa) = 23.40622 25.98984 24.69803
#
# Velocity S-wave (km/s) = 3.79680 4.00087 3.90017
# Velocity P-wave (km/s) = 6.74291 7.24254 6.99718
#
# Compressibility (1/GPa) = 0.02346621
#
# Stress axis : x y z
#
# Youngs Moduli (GPa) = 55.86257 69.85614 48.72286
#
# Poissons Ratio (x) = 0.50547 0.05730
# Poissons Ratio (y) = 0.40422 0.30330
# Poissons Ratio (z) = 0.06570 0.43486
#
# Static dielectric constant tensor:
#      x y z
#    x 3.200630 0.000000 -0.137350 
#    y 0.000000 3.259380 0.000000 
#    z -0.137350 0.000000 2.834310 
# 
# 
# High freq. dielectric constant tensor:
#      x y z
#    x 1.618860 0.000000 -0.010510 
#    y 0.000000 1.646840 0.000000 
#    z -0.010510 0.000000 1.592520 
# 
# From -- ./inp_files/37403.got.cif
#   From: 2010.06.25/outbox.cif.g09.slc.cpg/sg11_19_cif.got.tgz:37403.got - 2010.06.27 23:14:04.
