data_PCOD8070906
_publ_section_title
;
Structure prediction by ZEFSAII (Michael W. Deem and Ramdas Pophale) SiO2 
 PCOD8070906
Probable space group: P 21/M
;
_chemical_formula_sum "Si O2"
_cell_formula_units_Z 24
_cell_length_a 9.055555
_cell_length_b 8.741102
_cell_length_c 15.540591
_cell_angle_alpha 90.000000
_cell_angle_beta 87.511815
_cell_angle_gamma 90.000000
_cell_volume 1228.963949
_symmetry_space_group_name_H-M "P 21/M"
_symmetry_group_IT_number 11
_symmetry_cell_setting 'monoclinic'
loop_
_space_group_symop_operation_xyz
x,y,z
-x,1/2+y,-z
-x,-y,-z
x,1/2-y,z
loop_
_atom_site_type_symbol
_atom_site_label
_atom_site_fract_x
_atom_site_fract_y
_atom_site_fract_z
Si Si1 0.340175 0.931169 0.017646
Si Si2 0.656658 0.073480 0.489675
Si Si3 0.302199 0.569748 0.327357
Si Si4 0.829168 0.431303 0.146097
Si Si5 0.625156 0.069327 0.304717
Si Si6 0.842707 0.930841 0.827585
O O1 0.352327 0.750000 0.018589
O O2 0.277446 0.989928 0.108995
O O3 0.233990 0.988577 0.943369
O O4 0.500000 0.000000 0.000000
O O5 0.626758 0.250000 0.500454
O O6 0.749119 0.024502 0.572787
O O7 0.717357 0.036379 0.391976
O O8 0.500000 0.000000 0.500000
O O9 0.287522 0.750000 0.309537
O O10 0.470892 0.519862 0.305948
O O11 0.191491 0.477176 0.269267
O O12 0.830946 0.250000 0.151809
O O13 0.726175 0.495091 0.225293
O O14 0.995122 0.494244 0.152290
O O15 0.592231 0.250000 0.295427
O O16 0.831694 0.750000 0.839152
#
# Coordination Sequence:
#
# PCOD8070906 Si02
#       6
#     4   4   4   4   4   4
#     4  11  22  38  59  84 108 134 169 214 261 311
#     4   8  15  27  48  75 104 134 170 215 264 309
#     4  10  19  32  50  78 109 138 174 220 265 310
#     4   9  20  36  55  77 104 136 174 214 259 312
#     4   9  16  32  56  79 102 136 177 219 263 314
#     4  11  22  37  54  75 104 142 179 214 256 308
#
# _framework density 19.528642999999999
#
# number of rings (size 3 to 8) (size 9 to 14) (size 15 to 20)
#    0.000    2.333    0.000    3.000    0.000    2.000 
#    0.000    5.833    0.000    0.000    0.000    0.000 
#    0.000    0.000    0.000    0.000    0.000    0.000 
#
# Total GULP energy -297414.275039 kJ/mol
# GULP energy per Si atom -12392.261460 kJ/mol
# Density = 1.948420 g / cm^3
# Si number density = 19.528643 Si / 1000 Ang^3
#
#
#
# Elastic Constant Matrix: (Units=GPa)
#
#
# Indices 1 2 3 4 5 6 
#
# 1 73.8524 20.9176 23.1198 0.0000 25.2963 0.0000
# 2 20.9176 45.2964 28.3328 0.0000 7.6886 0.0000
# 3 23.1198 28.3328 123.0795 0.0000 26.6296 0.0000
# 4 0.0000 0.0000 0.0000 25.2230 0.0000 2.1089
# 5 25.2963 7.6886 26.6296 0.0000 28.9105 0.0000
# 6 0.0000 0.0000 0.0000 2.1089 0.0000 21.5466
#
#
#
# Elastic Compliance Matrix: (Units=1/GPa)
#
#
# Indices 1 2 3 4 5 6 
#
# 1 0.021514 -0.007916 0.001746 0.000000 -0.018328 0.000000
# 2 -0.007916 0.028773 -0.006219 0.000000 0.005003 0.000000
# 3 0.001746 -0.006219 0.011491 0.000000 -0.010459 0.000000
# 4 0.000000 0.000000 0.000000 0.039973 0.000000 -0.003913
# 5 -0.018328 0.005003 -0.010459 0.000000 0.058929 0.000000
# 6 0.000000 0.000000 0.000000 -0.003913 0.000000 0.046794
#
#
# Mechanical properties :
#
#
# Convention : Reuss Voigt Hill
#
# Bulk Modulus (GPa) = 27.02667 42.99653 35.01160
# Shear Modulus (GPa) = 20.44270 26.45988 23.45129
#
# Velocity S-wave (km/s) = 3.23895 3.68493 3.46911
# Velocity P-wave (km/s) = 5.27800 6.33797 5.83211
#
# Compressibility (1/GPa) = 0.03700049
#
# Stress axis : x y z
#
# Youngs Moduli (GPa) = 46.48223 34.75443 87.02259
#
# Poissons Ratio (x) = 0.27513 -0.15198
# Poissons Ratio (y) = 0.36797 0.54119
# Poissons Ratio (z) = -0.08118 0.21614
#
# Static dielectric constant tensor:
#      x y z
#    x 3.366940 0.000000 0.054050 
#    y 0.000000 3.313020 0.000000 
#    z 0.054050 0.000000 4.365390 
# 
# 
# High freq. dielectric constant tensor:
#      x y z
#    x 1.731760 0.000000 0.005110 
#    y 0.000000 1.747950 0.000000 
#    z 0.005110 0.000000 1.790930 
# 
# From -- ./inp_files/20640.got.cif
#   From: 2010.06.25/outbox.cif.g09.slc.cpg/sg11_11_cif.got.tgz:20640.got - 2010.06.27 23:14:04.
