data_PCOD8070360
_publ_section_title
;
Structure prediction by ZEFSAII (Michael W. Deem and Ramdas Pophale) SiO2 
 PCOD8070360
Probable space group: P 21/M
;
_chemical_formula_sum "Si O2"
_cell_formula_units_Z 28
_cell_length_a 14.019973
_cell_length_b 9.045626
_cell_length_c 14.101817
_cell_angle_alpha 90.000000
_cell_angle_beta 119.913264
_cell_angle_gamma 90.000000
_cell_volume 1550.138224
_symmetry_space_group_name_H-M "P 21/M"
_symmetry_group_IT_number 11
_symmetry_cell_setting 'monoclinic'
loop_
_space_group_symop_operation_xyz
x,y,z
-x,1/2+y,-z
-x,-y,-z
x,1/2-y,z
loop_
_atom_site_type_symbol
_atom_site_label
_atom_site_fract_x
_atom_site_fract_y
_atom_site_fract_z
Si Si1 0.142032 0.080393 0.756191
Si Si2 0.931760 0.420751 0.546304
Si Si3 0.106976 0.425631 0.942173
Si Si4 0.644416 0.421059 0.638963
Si Si5 0.561270 0.077622 0.391095
Si Si6 0.859911 0.077760 0.855106
Si Si7 0.739460 0.926270 0.372256
O O1 0.176337 0.250000 0.772330
O O2 0.163549 0.014912 0.872147
O O3 0.215395 0.010486 0.707212
O O4 0.009142 0.065804 0.677027
O O5 0.907900 0.250000 0.510028
O O6 0.816222 0.507354 0.495051
O O7 0.000000 0.500000 0.500000
O O8 0.115382 0.250000 0.951779
O O9 0.979151 0.476767 0.879083
O O10 0.171587 0.495716 0.062463
O O11 0.616836 0.250000 0.645195
O O12 0.563005 0.520138 0.661688
O O13 0.628491 0.457502 0.520567
O O14 0.769273 0.460487 0.730286
O O15 0.559940 0.250000 0.366169
O O16 0.618129 0.989431 0.332287
O O17 0.860978 0.250000 0.878436
O O18 0.741373 0.750000 0.378013
#
# Coordination Sequence:
#
# PCOD8070360 Si02
#       7
#     4   4   4   4   4   4   4
#     4   8  16  29  47  68  95 132 165 194 238 291
#     4   9  16  27  43  64  94 129 166 198 235 286
#     4   9  17  31  51  73  98 129 165 199 235 288
#     4   9  19  35  53  72  98 131 162 199 248 298
#     4  10  20  33  52  76  98 127 165 203 245 293
#     4   9  18  32  51  73  98 128 161 199 246 290
#     4  10  19  31  46  69 100 132 165 201 242 293
#
# _framework density 18.062905000000001
#
# number of rings (size 3 to 8) (size 9 to 14) (size 15 to 20)
#    0.000    2.857    0.000    2.143    2.000    1.143 
#    0.000    4.286    0.000    0.857    0.000    0.000 
#    0.000    0.000    0.000    0.000    0.000    0.000 
#
# Total GULP energy -346945.862889 kJ/mol
# GULP energy per Si atom -12390.923675 kJ/mol
# Density = 1.802179 g / cm^3
# Si number density = 18.062905 Si / 1000 Ang^3
#
#
#
# Elastic Constant Matrix: (Units=GPa)
#
#
# Indices 1 2 3 4 5 6 
#
# 1 76.6910 25.9489 19.5980 0.0000 -11.2542 0.0000
# 2 25.9489 56.7573 14.5298 0.0000 -4.0222 0.0000
# 3 19.5980 14.5298 59.7362 0.0000 -6.4274 0.0000
# 4 0.0000 0.0000 0.0000 23.5782 0.0000 1.9037
# 5 -11.2542 -4.0222 -6.4274 0.0000 26.1623 0.0000
# 6 0.0000 0.0000 0.0000 1.9037 0.0000 28.3351
#
#
#
# Elastic Compliance Matrix: (Units=1/GPa)
#
#
# Indices 1 2 3 4 5 6 
#
# 1 0.016892 -0.006471 -0.003382 0.000000 0.005440 0.000000
# 2 -0.006471 0.021352 -0.003099 0.000000 -0.000262 0.000000
# 3 -0.003382 -0.003099 0.018895 0.000000 0.002711 0.000000
# 4 0.000000 0.000000 0.000000 0.042643 0.000000 -0.002865
# 5 0.005440 -0.000262 0.002711 0.000000 0.041189 0.000000
# 6 0.000000 0.000000 0.000000 -0.002865 0.000000 0.035484
#
#
# Mechanical properties :
#
#
# Convention : Reuss Voigt Hill
#
# Bulk Modulus (GPa) = 32.01593 34.81533 33.41563
# Shear Modulus (GPa) = 23.49935 24.48897 23.99416
#
# Velocity S-wave (km/s) = 3.61081 3.68606 3.64863
# Velocity P-wave (km/s) = 5.92850 6.11820 6.02410
#
# Compressibility (1/GPa) = 0.03123445
#
# Stress axis : x y z
#
# Youngs Moduli (GPa) = 59.20089 46.83370 52.92322
#
# Poissons Ratio (x) = 0.30307 0.17901
# Poissons Ratio (y) = 0.38311 0.16399
# Poissons Ratio (z) = 0.20024 0.14512
#
# Static dielectric constant tensor:
#      x y z
#    x 3.396190 0.000000 -0.012300 
#    y 0.000000 3.252890 0.000000 
#    z -0.012300 0.000000 3.450330 
# 
# 
# High freq. dielectric constant tensor:
#      x y z
#    x 1.691790 0.000000 -0.010350 
#    y 0.000000 1.688600 0.000000 
#    z -0.010350 0.000000 1.674890 
# 
# From -- ./inp_files/51105.got.cif
#   From: 2010.06.25/outbox.cif.g09.slc.cpg/sg11_26_cif.got.tgz:51105.got - 2010.06.27 23:14:04.
