data_PCOD8070701
_publ_section_title
;
Structure prediction by ZEFSAII (Michael W. Deem and Ramdas Pophale) SiO2 
 PCOD8070701
Probable space group: P 21/M
;
_chemical_formula_sum "Si O2"
_cell_formula_units_Z 24
_cell_length_a 9.825520
_cell_length_b 12.307185
_cell_length_c 11.434977
_cell_angle_alpha 90.000000
_cell_angle_beta 93.071876
_cell_angle_gamma 90.000000
_cell_volume 1380.781881
_symmetry_space_group_name_H-M "P 21/M"
_symmetry_group_IT_number 11
_symmetry_cell_setting 'monoclinic'
loop_
_space_group_symop_operation_xyz
x,y,z
-x,1/2+y,-z
-x,-y,-z
x,1/2-y,z
loop_
_atom_site_type_symbol
_atom_site_label
_atom_site_fract_x
_atom_site_fract_y
_atom_site_fract_z
Si Si1 0.659971 0.624915 0.794926
Si Si2 0.651286 0.374837 0.215065
Si Si3 0.777857 0.996523 0.016519
Si Si4 0.857358 0.123828 0.425888
Si Si5 0.978583 0.123169 0.869447
Si Si6 0.878593 0.514927 0.649571
O O1 0.696657 0.750000 0.819145
O O2 0.503625 0.609313 0.750358
O O3 0.686111 0.559761 0.914720
O O4 0.751301 0.580779 0.693766
O O5 0.681511 0.250000 0.183637
O O6 0.749159 0.413596 0.323689
O O7 0.676682 0.447624 0.102797
O O8 0.874789 0.089028 0.966750
O O9 0.868519 0.905147 0.084150
O O10 0.842106 0.250000 0.454851
O O11 0.009727 0.101351 0.388026
O O12 0.823590 0.056726 0.540446
O O13 0.965697 0.250000 0.845689
O O14 0.946112 0.062192 0.748418
#
# Coordination Sequence:
#
# PCOD8070701 Si02
#       6
#     4   4   4   4   4   4
#     4  10  21  35  54  77 106 141 174 213 257 308
#     4  10  20  35  54  78 107 140 174 209 258 311
#     4  10  19  33  51  78 105 141 172 210 260 305
#     4  10  20  35  56  77 103 136 174 218 260 308
#     4  10  19  31  51  78 106 132 172 219 259 304
#     4  10  20  35  54  79 102 135 175 217 262 303
#
# _framework density 17.381456
#
# number of rings (size 3 to 8) (size 9 to 14) (size 15 to 20)
#    0.000    2.000    1.667    2.500    0.000    0.667 
#    0.000    0.000    0.000    3.000    0.000    0.000 
#    0.000    0.000    0.000    0.000    0.000    0.000 
#
# Total GULP energy -297705.238492 kJ/mol
# GULP energy per Si atom -12404.384937 kJ/mol
# Density = 1.734190 g / cm^3
# Si number density = 17.381456 Si / 1000 Ang^3
#
#
#
# Elastic Constant Matrix: (Units=GPa)
#
#
# Indices 1 2 3 4 5 6 
#
# 1 83.4731 24.4691 42.7833 0.0000 0.3666 0.0000
# 2 24.4691 52.0505 21.5062 0.0000 5.1302 0.0000
# 3 42.7833 21.5062 97.5746 0.0000 1.3497 0.0000
# 4 0.0000 0.0000 0.0000 16.8763 0.0000 7.8081
# 5 0.3666 5.1302 1.3497 0.0000 18.7611 0.0000
# 6 0.0000 0.0000 0.0000 7.8081 0.0000 19.5979
#
#
#
# Elastic Compliance Matrix: (Units=1/GPa)
#
#
# Indices 1 2 3 4 5 6 
#
# 1 0.016733 -0.005484 -0.006150 0.000000 0.001615 0.000000
# 2 -0.005484 0.023506 -0.002692 0.000000 -0.006127 0.000000
# 3 -0.006150 -0.002692 0.013540 0.000000 -0.000118 0.000000
# 4 0.000000 0.000000 0.000000 0.072645 0.000000 -0.028943
# 5 0.001615 -0.006127 -0.000118 0.000000 0.054954 0.000000
# 6 0.000000 0.000000 0.000000 -0.028943 0.000000 0.062557
#
#
# Mechanical properties :
#
#
# Convention : Reuss Voigt Hill
#
# Bulk Modulus (GPa) = 39.79784 45.62393 42.71089
# Shear Modulus (GPa) = 17.79592 20.66972 19.23282
#
# Velocity S-wave (km/s) = 3.20323 3.45219 3.33004
# Velocity P-wave (km/s) = 6.05205 6.49583 6.27786
#
# Compressibility (1/GPa) = 0.02512699
#
# Stress axis : x y z
#
# Youngs Moduli (GPa) = 59.76323 42.54199 73.85424
#
# Poissons Ratio (x) = 0.23330 0.45423
# Poissons Ratio (y) = 0.32775 0.19879
# Poissons Ratio (z) = 0.36756 0.11451
#
# Static dielectric constant tensor:
#      x y z
#    x 3.179120 0.000000 0.038440 
#    y 0.000000 3.173220 0.000000 
#    z 0.038440 0.000000 3.250010 
# 
# 
# High freq. dielectric constant tensor:
#      x y z
#    x 1.671800 0.000000 0.003400 
#    y 0.000000 1.674310 0.000000 
#    z 0.003400 0.000000 1.676490 
# 
# From -- ./inp_files/16897.got.cif
#   From: 2010.06.25/outbox.cif.g09.slc.cpg/sg11_9_cif.got.tgz:16897.got - 2010.06.27 23:14:04.
