data_PCOD8070826
_publ_section_title
;
Structure prediction by ZEFSAII (Michael W. Deem and Ramdas Pophale) SiO2 
 PCOD8070826
Probable space group: P 21/M
;
_chemical_formula_sum "Si O2"
_cell_formula_units_Z 28
_cell_length_a 9.568766
_cell_length_b 8.992258
_cell_length_c 27.586721
_cell_angle_alpha 90.000000
_cell_angle_beta 41.700248
_cell_angle_gamma 90.000000
_cell_volume 1579.061132
_symmetry_space_group_name_H-M "P 21/M"
_symmetry_group_IT_number 11
_symmetry_cell_setting 'monoclinic'
loop_
_space_group_symop_operation_xyz
x,y,z
-x,1/2+y,-z
-x,-y,-z
x,1/2-y,z
loop_
_atom_site_type_symbol
_atom_site_label
_atom_site_fract_x
_atom_site_fract_y
_atom_site_fract_z
Si Si1 0.175931 0.925948 0.487876
Si Si2 0.874629 0.081268 0.098445
Si Si3 0.373695 0.574762 0.643022
Si Si4 0.284174 0.920545 0.562292
Si Si5 0.316258 0.081010 0.938413
Si Si6 0.911876 0.423987 0.197223
Si Si7 0.619159 0.925811 0.924916
O O1 0.170758 0.750000 0.479772
O O2 0.128297 0.965154 0.557834
O O3 0.406274 0.987996 0.415274
O O4 0.000000 0.000000 0.500000
O O5 0.808312 0.250000 0.102415
O O6 0.818570 0.042491 0.168279
O O7 0.749738 0.964682 0.098407
O O8 0.123854 0.063007 0.025766
O O9 0.423881 0.750000 0.635731
O O10 0.222059 0.547379 0.634610
O O11 0.243306 0.508597 0.722163
O O12 0.335330 0.750000 0.541820
O O13 0.500000 0.000000 0.500000
O O14 0.396667 0.250000 0.916654
O O15 0.502118 0.971627 0.905978
O O16 0.930256 0.250000 0.202022
O O17 0.145669 0.490989 0.140367
O O18 0.617339 0.750000 0.933170
O O19 0.500000 0.000000 0.000000
#
# Coordination Sequence:
#
# PCOD8070826 Si02
#       7
#     4   4   4   4   4   4   4
#     4  10  19  32  51  78 108 135 168 207 244 295
#     4   9  17  32  50  70  96 129 166 207 256 309
#     4   9  17  33  55  76  99 131 168 209 256 303
#     4   8  15  28  49  74  98 126 162 200 240 289
#     4  10  19  32  49  72  98 126 167 215 259 307
#     4   9  18  33  53  75 100 129 168 213 257 307
#     4  11  20  33  51  74 100 131 170 216 261 306
#
# _framework density 17.732057000000001
#
# number of rings (size 3 to 8) (size 9 to 14) (size 15 to 20)
#    0.000    2.571    1.429    1.286    0.000    1.143 
#    0.000    3.571    0.000    5.143    0.000    0.000 
#    0.000    0.000    0.000    0.000    0.000    0.000 
#
# Total GULP energy -346911.722130 kJ/mol
# GULP energy per Si atom -12389.704362 kJ/mol
# Density = 1.769170 g / cm^3
# Si number density = 17.732057 Si / 1000 Ang^3
#
#
#
# Elastic Constant Matrix: (Units=GPa)
#
#
# Indices 1 2 3 4 5 6 
#
# 1 119.4355 40.7033 58.5598 0.0000 11.4203 0.0000
# 2 40.7033 56.4037 29.5247 0.0000 2.1504 0.0000
# 3 58.5598 29.5247 103.5898 0.0000 17.5807 0.0000
# 4 0.0000 0.0000 0.0000 18.2807 0.0000 -0.4797
# 5 11.4203 2.1504 17.5807 0.0000 27.6316 0.0000
# 6 0.0000 0.0000 0.0000 -0.4797 0.0000 30.3072
#
#
#
# Elastic Compliance Matrix: (Units=1/GPa)
#
#
# Indices 1 2 3 4 5 6 
#
# 1 0.013519 -0.006861 -0.005414 0.000000 -0.001609 0.000000
# 2 -0.006861 0.024465 -0.003646 0.000000 0.003252 0.000000
# 3 -0.005414 -0.003646 0.014938 0.000000 -0.006983 0.000000
# 4 0.000000 0.000000 0.000000 0.054725 0.000000 0.000866
# 5 -0.001609 0.003252 -0.006983 0.000000 0.041045 0.000000
# 6 0.000000 0.000000 0.000000 0.000866 0.000000 0.033009
#
#
# Mechanical properties :
#
#
# Convention : Reuss Voigt Hill
#
# Bulk Modulus (GPa) = 47.43713 59.66717 53.55215
# Shear Modulus (GPa) = 22.66838 25.28665 23.97751
#
# Velocity S-wave (km/s) = 3.57933 3.78039 3.68123
# Velocity P-wave (km/s) = 6.62513 7.26481 6.95233
#
# Compressibility (1/GPa) = 0.02108053
#
# Stress axis : x y z
#
# Youngs Moduli (GPa) = 73.96896 40.87470 66.94141
#
# Poissons Ratio (x) = 0.28043 0.36242
# Poissons Ratio (y) = 0.50748 0.24409
# Poissons Ratio (z) = 0.40047 0.14904
#
# Static dielectric constant tensor:
#      x y z
#    x 3.664410 0.000000 0.332390 
#    y 0.000000 3.241620 0.000000 
#    z 0.332390 0.000000 3.329280 
# 
# 
# High freq. dielectric constant tensor:
#      x y z
#    x 1.697970 0.000000 0.020620 
#    y 0.000000 1.677500 0.000000 
#    z 0.020620 0.000000 1.655850 
# 
# From -- ./inp_files/25561.got.cif
#   From: 2010.06.25/outbox.cif.g09.slc.cpg/sg11_13_cif.got.tgz:25561.got - 2010.06.27 23:14:04.
