data_PCOD8070879
_publ_section_title
;
Structure prediction by ZEFSAII (Michael W. Deem and Ramdas Pophale) SiO2 
 PCOD8070879
Probable space group: P 21/M
;
_chemical_formula_sum "Si O2"
_cell_formula_units_Z 24
_cell_length_a 16.523681
_cell_length_b 8.735530
_cell_length_c 15.256002
_cell_angle_alpha 90.000000
_cell_angle_beta 142.500394
_cell_angle_gamma 90.000000
_cell_volume 1340.540793
_symmetry_space_group_name_H-M "P 21/M"
_symmetry_group_IT_number 11
_symmetry_cell_setting 'monoclinic'
loop_
_space_group_symop_operation_xyz
x,y,z
-x,1/2+y,-z
-x,-y,-z
x,1/2-y,z
loop_
_atom_site_type_symbol
_atom_site_label
_atom_site_fract_x
_atom_site_fract_y
_atom_site_fract_z
Si Si1 0.672756 0.076252 0.565048
Si Si2 0.364697 0.070874 0.919006
Si Si3 0.603213 0.073741 0.687794
Si Si4 0.857014 0.069786 0.392679
Si Si5 0.410687 0.576778 0.133828
Si Si6 0.720835 0.574975 0.435538
O O1 0.702281 0.250000 0.563055
O O2 0.710483 0.047115 0.700836
O O3 0.515439 0.046173 0.425500
O O4 0.750463 0.969258 0.562681
O O5 0.366629 0.250000 0.902436
O O6 0.241028 0.999277 0.763298
O O7 0.500000 0.000000 0.000000
O O8 0.350737 0.037742 0.010563
O O9 0.548897 0.250000 0.636759
O O10 0.665058 0.048179 0.838234
O O11 0.862489 0.250000 0.385519
O O12 0.809644 0.030081 0.449727
O O13 0.000000 0.000000 0.500000
O O14 0.388549 0.750000 0.081688
O O15 0.567008 0.545096 0.281507
O O16 0.761541 0.750000 0.455605
#
# Coordination Sequence:
#
# PCOD8070879 Si02
#       6
#     4   4   4   4   4   4
#     4   9  15  24  41  66  97 134 173 212 259 312
#     4  12  23  36  55  80 108 142 182 223 267 318
#     4   8  15  26  40  63  99 136 170 212 261 311
#     4  12  25  41  59  79 106 140 179 224 271 322
#     4   9  17  30  49  73 104 139 177 219 264 311
#     4  10  19  32  50  73 104 139 176 217 263 315
#
# _framework density 17.903223000000001
#
# number of rings (size 3 to 8) (size 9 to 14) (size 15 to 20)
#    0.000    2.000    1.667    5.000    0.000    3.333 
#    0.000    0.000    0.000    0.000    0.000    1.167 
#    0.000    0.000    0.000    0.000    0.000    0.000 
#
# Total GULP energy -297454.041029 kJ/mol
# GULP energy per Si atom -12393.918376 kJ/mol
# Density = 1.786247 g / cm^3
# Si number density = 17.903223 Si / 1000 Ang^3
#
#
#
# Elastic Constant Matrix: (Units=GPa)
#
#
# Indices 1 2 3 4 5 6 
#
# 1 118.8245 47.9434 60.9132 0.0000 -32.5620 0.0000
# 2 47.9434 119.5007 45.1984 0.0000 -7.1148 0.0000
# 3 60.9132 45.1984 77.4835 0.0000 -9.2741 0.0000
# 4 0.0000 0.0000 0.0000 22.5536 0.0000 -4.6516
# 5 -32.5620 -7.1148 -9.2741 0.0000 28.1579 0.0000
# 6 0.0000 0.0000 0.0000 -4.6516 0.0000 30.2373
#
#
#
# Elastic Compliance Matrix: (Units=1/GPa)
#
#
# Indices 1 2 3 4 5 6 
#
# 1 0.021707 -0.002524 -0.013184 0.000000 0.020122 0.000000
# 2 -0.002524 0.011043 -0.004656 0.000000 -0.001662 0.000000
# 3 -0.013184 -0.004656 0.025007 0.000000 -0.008186 0.000000
# 4 0.000000 0.000000 0.000000 0.045792 0.000000 0.007044
# 5 0.020122 -0.001662 -0.008186 0.000000 0.055667 0.000000
# 6 0.000000 0.000000 0.000000 0.007044 0.000000 0.034155
#
#
# Mechanical properties :
#
#
# Convention : Reuss Voigt Hill
#
# Bulk Modulus (GPa) = 58.72724 69.32428 64.02576
# Shear Modulus (GPa) = 20.85291 26.97334 23.91312
#
# Velocity S-wave (km/s) = 3.41656 3.88573 3.65867
# Velocity P-wave (km/s) = 6.95971 7.67708 7.32718
#
# Compressibility (1/GPa) = 0.01702787
#
# Stress axis : x y z
#
# Youngs Moduli (GPa) = 46.06878 90.55493 39.98943
#
# Poissons Ratio (x) = 0.22858 0.52721
# Poissons Ratio (y) = 0.11629 0.18620
# Poissons Ratio (z) = 0.60736 0.42165
#
# Static dielectric constant tensor:
#      x y z
#    x 3.641050 0.000000 -0.427610 
#    y 0.000000 3.430700 0.000000 
#    z -0.427610 0.000000 2.899580 
# 
# 
# High freq. dielectric constant tensor:
#      x y z
#    x 1.700940 0.000000 -0.046680 
#    y 0.000000 1.704810 0.000000 
#    z -0.046680 0.000000 1.636590 
# 
# From -- ./inp_files/51822.got.cif
#   From: 2010.06.25/outbox.cif.g09.slc.cpg/sg11_26_cif.got.tgz:51822.got - 2010.06.27 23:14:04.
