data_PCOD8070679
_publ_section_title
;
Structure prediction by ZEFSAII (Michael W. Deem and Ramdas Pophale) SiO2 
 PCOD8070679
Probable space group: P 21/M
;
_chemical_formula_sum "Si O2"
_cell_formula_units_Z 32
_cell_length_a 15.651551
_cell_length_b 8.802459
_cell_length_c 14.520670
_cell_angle_alpha 90.000000
_cell_angle_beta 62.969138
_cell_angle_gamma 90.000000
_cell_volume 1782.008038
_symmetry_space_group_name_H-M "P 21/M"
_symmetry_group_IT_number 11
_symmetry_cell_setting 'monoclinic'
loop_
_space_group_symop_operation_xyz
x,y,z
-x,1/2+y,-z
-x,-y,-z
x,1/2-y,z
loop_
_atom_site_type_symbol
_atom_site_label
_atom_site_fract_x
_atom_site_fract_y
_atom_site_fract_z
Si Si1 0.725599 0.071428 0.855090
Si Si2 0.345329 0.571093 0.916288
Si Si3 0.350080 0.070690 0.725729
Si Si4 0.564081 0.577305 0.818383
Si Si5 0.904239 0.429915 0.654853
Si Si6 0.101486 0.570955 0.551926
Si Si7 0.280631 0.929422 0.584866
Si Si8 0.443381 0.074354 0.387958
O O1 0.731262 0.250000 0.845182
O O2 0.820547 0.001494 0.761130
O O3 0.629860 0.025820 0.849138
O O4 0.720092 0.022388 0.964858
O O5 0.339667 0.750000 0.896989
O O6 0.308736 0.478543 0.845485
O O7 0.454552 0.525017 0.885827
O O8 0.365301 0.250000 0.714927
O O9 0.274669 0.016162 0.685363
O O10 0.448947 0.985149 0.656330
O O11 0.577563 0.750000 0.843653
O O12 0.594459 0.556133 0.697423
O O13 0.909479 0.250000 0.659513
O O14 0.881904 0.482648 0.561395
O O15 0.005036 0.497013 0.639726
O O16 0.090031 0.750000 0.562761
O O17 0.190549 0.514029 0.568882
O O18 0.278315 0.750000 0.602033
O O19 0.378045 0.973688 0.485640
O O20 0.440897 0.250000 0.420479
#
# Coordination Sequence:
#
# PCOD8070679 Si02
#       8
#     4   4   4   4   4   4   4   4
#     4  10  19  31  51  75 100 132 168 207 250 298
#     4   9  19  35  50  69 100 135 170 208 251 293
#     4  11  22  35  51  72  99 133 171 209 249 291
#     4   9  18  30  46  71 103 135 166 202 242 291
#     4   9  18  33  52  76 103 129 160 198 243 295
#     4   9  19  34  52  75 103 133 161 194 243 298
#     4  11  21  34  53  75 100 131 168 207 248 297
#     4  10  20  34  50  73 105 137 169 204 245 292
#
# _framework density 17.957270999999999
#
# number of rings (size 3 to 8) (size 9 to 14) (size 15 to 20)
#    0.000    2.250    0.000    4.125    0.000    5.500 
#    0.000    2.500    0.000    0.750    0.000    0.000 
#    0.000    0.000    0.000    0.000    0.000    0.000 
#
# Total GULP energy -396848.141473 kJ/mol
# GULP energy per Si atom -12401.504421 kJ/mol
# Density = 1.791640 g / cm^3
# Si number density = 17.957271 Si / 1000 Ang^3
#
#
#
# Elastic Constant Matrix: (Units=GPa)
#
#
# Indices 1 2 3 4 5 6 
#
# 1 89.5187 22.6303 52.5726 0.0000 12.1001 0.0000
# 2 22.6303 32.7967 28.2176 0.0000 5.9727 0.0000
# 3 52.5726 28.2176 122.9323 0.0000 1.3397 0.0000
# 4 0.0000 0.0000 0.0000 25.4190 0.0000 1.9052
# 5 12.1001 5.9727 1.3397 0.0000 20.9793 0.0000
# 6 0.0000 0.0000 0.0000 1.9052 0.0000 28.7128
#
#
#
# Elastic Compliance Matrix: (Units=1/GPa)
#
#
# Indices 1 2 3 4 5 6 
#
# 1 0.017106 -0.005140 -0.006048 0.000000 -0.008016 0.000000
# 2 -0.005140 0.041885 -0.007324 0.000000 -0.008492 0.000000
# 3 -0.006048 -0.007324 0.012350 0.000000 0.004785 0.000000
# 4 0.000000 0.000000 0.000000 0.039537 0.000000 -0.002623
# 5 -0.008016 -0.008492 0.004785 0.000000 0.054402 0.000000
# 6 0.000000 0.000000 0.000000 -0.002623 0.000000 0.035002
#
#
# Mechanical properties :
#
#
# Convention : Reuss Voigt Hill
#
# Bulk Modulus (GPa) = 29.13944 50.23207 39.68576
# Shear Modulus (GPa) = 20.10102 24.47738 22.28920
#
# Velocity S-wave (km/s) = 3.34934 3.69601 3.52694
# Velocity P-wave (km/s) = 5.58747 6.80058 6.22365
#
# Compressibility (1/GPa) = 0.03431775
#
# Stress axis : x y z
#
# Youngs Moduli (GPa) = 58.46003 23.87494 80.97134
#
# Poissons Ratio (x) = 0.12271 0.48974
# Poissons Ratio (y) = 0.30046 0.59301
# Poissons Ratio (z) = 0.35358 0.17485
#
# Static dielectric constant tensor:
#      x y z
#    x 3.278610 0.000000 0.114340 
#    y 0.000000 3.207370 0.000000 
#    z 0.114340 0.000000 3.566550 
# 
# 
# High freq. dielectric constant tensor:
#      x y z
#    x 1.677800 0.000000 0.011480 
#    y 0.000000 1.692470 0.000000 
#    z 0.011480 0.000000 1.693040 
# 
# From -- ./inp_files/51607.got.cif
#   From: 2010.06.25/outbox.cif.g09.slc.cpg/sg11_26_cif.got.tgz:51607.got - 2010.06.27 23:14:04.
