data_PCOD8070277
_publ_section_title
;
Structure prediction by ZEFSAII (Michael W. Deem and Ramdas Pophale) SiO2 
 PCOD8070277
Probable space group: P 21/M
;
_chemical_formula_sum "Si O2"
_cell_formula_units_Z 28
_cell_length_a 11.396558
_cell_length_b 8.978570
_cell_length_c 16.559424
_cell_angle_alpha 90.000000
_cell_angle_beta 59.772826
_cell_angle_gamma 90.000000
_cell_volume 1464.057082
_symmetry_space_group_name_H-M "P 21/M"
_symmetry_group_IT_number 11
_symmetry_cell_setting 'monoclinic'
loop_
_space_group_symop_operation_xyz
x,y,z
-x,1/2+y,-z
-x,-y,-z
x,1/2-y,z
loop_
_atom_site_type_symbol
_atom_site_label
_atom_site_fract_x
_atom_site_fract_y
_atom_site_fract_z
Si Si1 0.866118 0.080371 0.857654
Si Si2 0.404273 0.426987 0.794559
Si Si3 0.185704 0.575262 0.586763
Si Si4 0.676483 0.074409 0.621880
Si Si5 0.173556 0.425649 0.756501
Si Si6 0.612728 0.573831 0.016713
Si Si7 0.092197 0.578784 0.341194
O O1 0.839986 0.250000 0.894971
O O2 0.843618 0.066389 0.769935
O O3 0.018373 0.027840 0.828274
O O4 0.763208 0.970823 0.937565
O O5 0.407410 0.250000 0.792610
O O6 0.533411 0.493550 0.701350
O O7 0.266920 0.481911 0.797842
O O8 0.407390 0.485123 0.885092
O O9 0.175718 0.750000 0.604568
O O10 0.299019 0.534263 0.480318
O O11 0.228454 0.498335 0.655184
O O12 0.041675 0.519344 0.603744
O O13 0.673845 0.250000 0.636415
O O14 0.798537 0.011110 0.634561
O O15 0.182104 0.250000 0.739760
O O16 0.595985 0.750000 0.016939
O O17 0.500000 0.500000 0.000000
O O18 0.054096 0.750000 0.373405
#
# Coordination Sequence:
#
# PCOD8070277 Si02
#       7
#     4   4   4   4   4   4   4
#     4   9  18  33  54  78 104 135 171 211 253 299
#     4   9  19  36  55  74  99 136 178 210 245 307
#     4  10  19  30  49  78 107 133 167 217 265 298
#     4   9  17  30  50  75 103 136 173 214 257 300
#     4   9  19  37  57  74  98 137 178 209 246 305
#     4  11  22  36  57  82 106 134 168 208 255 305
#     4   9  17  32  53  75 103 141 177 207 249 310
#
# _framework density 19.124936999999999
#
# number of rings (size 3 to 8) (size 9 to 14) (size 15 to 20)
#    0.000    2.571    0.000    3.000    0.000    5.714 
#    0.000    2.143    0.000    5.143    0.000    0.000 
#    0.000    0.000    0.000    0.000    0.000    0.000 
#
# Total GULP energy -347194.087979 kJ/mol
# GULP energy per Si atom -12399.788856 kJ/mol
# Density = 1.908141 g / cm^3
# Si number density = 19.124937 Si / 1000 Ang^3
#
#
#
# Elastic Constant Matrix: (Units=GPa)
#
#
# Indices 1 2 3 4 5 6 
#
# 1 141.0417 32.1654 81.4003 0.0000 16.1758 0.0000
# 2 32.1654 46.4115 42.1612 0.0000 -0.0801 0.0000
# 3 81.4003 42.1612 140.9014 0.0000 -3.6421 0.0000
# 4 0.0000 0.0000 0.0000 27.5507 0.0000 -2.5396
# 5 16.1758 -0.0801 -3.6421 0.0000 27.7832 0.0000
# 6 0.0000 0.0000 0.0000 -2.5396 0.0000 21.9942
#
#
#
# Elastic Compliance Matrix: (Units=1/GPa)
#
#
# Indices 1 2 3 4 5 6 
#
# 1 0.012432 -0.002630 -0.006605 0.000000 -0.008112 0.000000
# 2 -0.002630 0.030178 -0.007494 0.000000 0.000636 0.000000
# 3 -0.006605 -0.007494 0.013299 0.000000 0.005567 0.000000
# 4 0.000000 0.000000 0.000000 0.036687 0.000000 0.004236
# 5 -0.008112 0.000636 0.005567 0.000000 0.041447 0.000000
# 6 0.000000 0.000000 0.000000 0.004236 0.000000 0.045956
#
#
# Mechanical properties :
#
#
# Convention : Reuss Voigt Hill
#
# Bulk Modulus (GPa) = 44.54101 71.08981 57.81541
# Shear Modulus (GPa) = 22.63043 26.97414 24.80229
#
# Velocity S-wave (km/s) = 3.44364 3.75963 3.60510
# Velocity P-wave (km/s) = 6.25712 7.48988 6.90108
#
# Compressibility (1/GPa) = 0.02245122
#
# Stress axis : x y z
#
# Youngs Moduli (GPa) = 80.43677 33.13664 75.19231
#
# Poissons Ratio (x) = 0.08715 0.49664
# Poissons Ratio (y) = 0.21155 0.56351
# Poissons Ratio (z) = 0.53128 0.24833
#
# Static dielectric constant tensor:
#      x y z
#    x 3.689680 0.000000 0.016050 
#    y 0.000000 3.183780 0.000000 
#    z 0.016050 0.000000 3.601980 
# 
# 
# High freq. dielectric constant tensor:
#      x y z
#    x 1.748330 0.000000 0.000680 
#    y 0.000000 1.711510 0.000000 
#    z 0.000680 0.000000 1.749260 
# 
# From -- ./inp_files/37892.got.cif
#   From: 2010.06.25/outbox.cif.g09.slc.cpg/sg11_19_cif.got.tgz:37892.got - 2010.06.27 23:14:04.
