data_PCOD8070756
_publ_section_title
;
Structure prediction by ZEFSAII (Michael W. Deem and Ramdas Pophale) SiO2 
 PCOD8070756
Probable space group: P 21/M
;
_chemical_formula_sum "Si O2"
_cell_formula_units_Z 32
_cell_length_a 19.905680
_cell_length_b 8.848555
_cell_length_c 12.042211
_cell_angle_alpha 90.000000
_cell_angle_beta 125.255399
_cell_angle_gamma 90.000000
_cell_volume 1732.040951
_symmetry_space_group_name_H-M "P 21/M"
_symmetry_group_IT_number 11
_symmetry_cell_setting 'monoclinic'
loop_
_space_group_symop_operation_xyz
x,y,z
-x,1/2+y,-z
-x,-y,-z
x,1/2-y,z
loop_
_atom_site_type_symbol
_atom_site_label
_atom_site_fract_x
_atom_site_fract_y
_atom_site_fract_z
Si Si1 0.254746 0.923105 0.165862
Si Si2 0.790310 0.425031 0.631513
Si Si3 0.471545 0.572410 0.858448
Si Si4 0.971860 0.424856 0.860395
Si Si5 0.614766 0.077750 0.882450
Si Si6 0.133001 0.424643 0.890639
Si Si7 0.763816 0.075712 0.190470
Si Si8 0.297383 0.427369 0.654241
O O1 0.231931 0.750000 0.112910
O O2 0.260268 0.946270 0.302534
O O3 0.343045 0.962699 0.195223
O O4 0.184115 0.028500 0.048350
O O5 0.788177 0.250000 0.590955
O O6 0.883383 0.484707 0.736058
O O7 0.748426 0.532331 0.502555
O O8 0.466327 0.750000 0.869907
O O9 0.537168 0.531436 0.825341
O O10 0.383417 0.513473 0.737854
O O11 0.500000 0.500000 0.000000
O O12 0.963677 0.250000 0.881192
O O13 0.037114 0.455148 0.824296
O O14 0.000000 0.500000 0.000000
O O15 0.583398 0.250000 0.854939
O O16 0.680254 0.049616 0.042671
O O17 0.150551 0.250000 0.882390
O O18 0.158487 0.520958 0.807532
O O19 0.776653 0.250000 0.233713
O O20 0.759861 0.978952 0.298560
O O21 0.313430 0.250000 0.676632
#
# Coordination Sequence:
#
# PCOD8070756 Si02
#       8
#     4   4   4   4   4   4   4   4
#     4   9  18  34  57  82 114 154 191 229 283 340
#     4  10  21  39  59  82 116 157 195 233 286 348
#     4  12  23  37  59  86 115 150 190 234 283 339
#     4  10  20  34  57  86 117 152 193 241 285 335
#     4   9  18  33  56  86 114 143 187 238 282 330
#     4  10  19  31  53  87 119 146 187 241 286 332
#     4  10  20  36  58  82 113 152 189 231 286 345
#     4  12  25  40  59  84 115 150 190 240 291 344
#
# _framework density 18.475313
#
# number of rings (size 3 to 8) (size 9 to 14) (size 15 to 20)
#    0.000    1.750    2.500    3.750    0.000    3.500 
#    0.000    1.250    0.000    0.000    0.000    0.000 
#    0.000    0.000    0.000    0.000    0.000    0.000 
#
# Total GULP energy -396894.480657 kJ/mol
# GULP energy per Si atom -12402.952521 kJ/mol
# Density = 1.843326 g / cm^3
# Si number density = 18.475313 Si / 1000 Ang^3
#
#
#
# Elastic Constant Matrix: (Units=GPa)
#
#
# Indices 1 2 3 4 5 6 
#
# 1 126.8797 53.8829 56.4950 0.0000 -0.8639 0.0000
# 2 53.8829 107.8090 42.6548 0.0000 2.1854 0.0000
# 3 56.4950 42.6548 92.5578 0.0000 1.2483 0.0000
# 4 0.0000 0.0000 0.0000 28.9285 0.0000 -1.5676
# 5 -0.8639 2.1854 1.2483 0.0000 26.0905 0.0000
# 6 0.0000 0.0000 0.0000 -1.5676 0.0000 30.4576
#
#
#
# Elastic Compliance Matrix: (Units=1/GPa)
#
#
# Indices 1 2 3 4 5 6 
#
# 1 0.011987 -0.003805 -0.005576 0.000000 0.000982 0.000000
# 2 -0.003805 0.012564 -0.003454 0.000000 -0.001013 0.000000
# 3 -0.005576 -0.003454 0.015808 0.000000 -0.000652 0.000000
# 4 0.000000 0.000000 0.000000 0.034665 0.000000 0.001784
# 5 0.000982 -0.001013 -0.000652 0.000000 0.038477 0.000000
# 6 0.000000 0.000000 0.000000 0.001784 0.000000 0.032924
#
#
# Mechanical properties :
#
#
# Convention : Reuss Voigt Hill
#
# Bulk Modulus (GPa) = 68.07797 70.36800 69.22298
# Shear Modulus (GPa) = 28.24976 28.70958 28.47967
#
# Velocity S-wave (km/s) = 3.91455 3.94628 3.93045
# Velocity P-wave (km/s) = 7.57362 7.67688 7.62542
#
# Compressibility (1/GPa) = 0.01468904
#
# Stress axis : x y z
#
# Youngs Moduli (GPa) = 83.42455 79.58944 63.25721
#
# Poissons Ratio (x) = 0.30281 0.35275
# Poissons Ratio (y) = 0.31740 0.21851
# Poissons Ratio (z) = 0.46521 0.27493
#
# Static dielectric constant tensor:
#      x y z
#    x 3.861080 0.000000 0.047620 
#    y 0.000000 3.430110 0.000000 
#    z 0.047620 0.000000 3.161200 
# 
# 
# High freq. dielectric constant tensor:
#      x y z
#    x 1.735610 0.000000 -0.006610 
#    y 0.000000 1.720110 0.000000 
#    z -0.006610 0.000000 1.683980 
# 
# From -- ./inp_files/42936.got.cif
#   From: 2010.06.25/outbox.cif.g09.slc.cpg/sg11_22_cif.got.tgz:42936.got - 2010.06.27 23:14:04.
