data_PCOD8070408
_publ_section_title
;
Structure prediction by ZEFSAII (Michael W. Deem and Ramdas Pophale) SiO2 
 PCOD8070408
Probable space group: P 21/M
;
_chemical_formula_sum "Si O2"
_cell_formula_units_Z 32
_cell_length_a 28.217616
_cell_length_b 8.888868
_cell_length_c 22.819813
_cell_angle_alpha 90.000000
_cell_angle_beta 17.974879
_cell_angle_gamma 90.000000
_cell_volume 1766.341815
_symmetry_space_group_name_H-M "P 21/M"
_symmetry_group_IT_number 11
_symmetry_cell_setting 'monoclinic'
loop_
_space_group_symop_operation_xyz
x,y,z
-x,1/2+y,-z
-x,-y,-z
x,1/2-y,z
loop_
_atom_site_type_symbol
_atom_site_label
_atom_site_fract_x
_atom_site_fract_y
_atom_site_fract_z
Si Si1 0.003514 0.427501 0.856769
Si Si2 0.302867 0.926585 0.558489
Si Si3 0.854310 0.077776 0.145702
Si Si4 0.966970 0.572767 0.424320
Si Si5 0.727875 0.927267 0.891098
Si Si6 0.649260 0.573478 0.852128
Si Si7 0.407225 0.928210 0.840374
Si Si8 0.096893 0.926137 0.149727
O O1 0.046128 0.250000 0.804468
O O2 0.147425 0.522740 0.709526
O O3 0.960242 0.496066 0.844264
O O4 0.854160 0.453886 0.075670
O O5 0.331504 0.750000 0.513824
O O6 0.293005 0.966647 0.640591
O O7 0.438750 0.022804 0.372073
O O8 0.884572 0.250000 0.122509
O O9 0.000000 0.000000 0.000000
O O10 0.987128 0.750000 0.411587
O O11 0.801926 0.513692 0.639655
O O12 0.980359 0.533497 0.339469
O O13 0.100879 0.492218 0.303363
O O14 0.736141 0.750000 0.890729
O O15 0.662880 0.970454 0.903998
O O16 0.607621 0.998397 0.078154
O O17 0.634540 0.750000 0.860423
O O18 0.500000 0.500000 0.000000
O O19 0.403438 0.750000 0.852940
O O20 0.265495 0.987372 0.967686
O O21 0.108180 0.750000 0.126751
#
# Coordination Sequence:
#
# PCOD8070408 Si02
#       8
#     4   4   4   4   4   4   4   4
#     4   9  16  30  51  73  96 129 169 206 246 298
#     4  10  19  31  47  72 102 130 163 208 252 295
#     4   8  15  27  45  67  95 129 164 201 245 293
#     4   9  18  35  55  75  99 133 170 202 241 298
#     4  10  20  35  54  77 101 130 168 210 249 292
#     4  10  22  36  52  77 109 137 167 207 249 289
#     4  10  20  35  53  73  97 131 168 204 248 301
#     4   8  16  31  52  74  96 123 165 210 242 284
#
# _framework density 18.116539
#
# number of rings (size 3 to 8) (size 9 to 14) (size 15 to 20)
#    0.000    2.750    0.000    2.250    0.000    3.000 
#    0.000    5.000    0.000    0.000    0.000    0.000 
#    0.000    0.000    0.000    0.000    0.000    0.000 
#
# Total GULP energy -396520.111908 kJ/mol
# GULP energy per Si atom -12391.253497 kJ/mol
# Density = 1.807530 g / cm^3
# Si number density = 18.116539 Si / 1000 Ang^3
#
#
#
# Elastic Constant Matrix: (Units=GPa)
#
#
# Indices 1 2 3 4 5 6 
#
# 1 74.0222 29.9500 49.7708 0.0000 11.1407 0.0000
# 2 29.9500 43.7334 32.3705 0.0000 5.7516 0.0000
# 3 49.7708 32.3705 136.6991 0.0000 16.2286 0.0000
# 4 0.0000 0.0000 0.0000 20.6462 0.0000 -2.9749
# 5 11.1407 5.7516 16.2286 0.0000 22.4747 0.0000
# 6 0.0000 0.0000 0.0000 -2.9749 0.0000 22.1502
#
#
#
# Elastic Compliance Matrix: (Units=1/GPa)
#
#
# Indices 1 2 3 4 5 6 
#
# 1 0.021805 -0.010740 -0.004855 0.000000 -0.004554 0.000000
# 2 -0.010740 0.033152 -0.003899 0.000000 -0.000345 0.000000
# 3 -0.004855 -0.003899 0.010502 0.000000 -0.004179 0.000000
# 4 0.000000 0.000000 0.000000 0.049391 0.000000 0.006633
# 5 -0.004554 -0.000345 -0.004179 0.000000 0.049858 0.000000
# 6 0.000000 0.000000 0.000000 0.006633 0.000000 0.046037
#
#
# Mechanical properties :
#
#
# Convention : Reuss Voigt Hill
#
# Bulk Modulus (GPa) = 37.77701 53.18191 45.47946
# Shear Modulus (GPa) = 19.33800 22.54510 20.94155
#
# Velocity S-wave (km/s) = 3.27069 3.53150 3.40359
# Velocity P-wave (km/s) = 5.92964 6.78586 6.37215
#
# Compressibility (1/GPa) = 0.02647113
#
# Stress axis : x y z
#
# Youngs Moduli (GPa) = 45.86146 30.16371 95.21569
#
# Poissons Ratio (x) = 0.32396 0.46227
# Poissons Ratio (y) = 0.49256 0.37127
# Poissons Ratio (z) = 0.22266 0.11762
#
# Static dielectric constant tensor:
#      x y z
#    x 3.598480 0.000000 0.389080 
#    y 0.000000 3.158080 0.000000 
#    z 0.389080 0.000000 3.555970 
# 
# 
# High freq. dielectric constant tensor:
#      x y z
#    x 1.697910 0.000000 0.024960 
#    y 0.000000 1.692530 0.000000 
#    z 0.024960 0.000000 1.703200 
# 
# From -- ./inp_files/67116.got.cif
#   From: 2010.06.25/outbox.cif.g09.slc.cpg/sg11_34_cif.got.tgz:67116.got - 2010.06.27 23:14:04.
