data_PCOD8070537
_publ_section_title
;
Structure prediction by ZEFSAII (Michael W. Deem and Ramdas Pophale) SiO2 
 PCOD8070537
Probable space group: P 21/M
;
_chemical_formula_sum "Si O2"
_cell_formula_units_Z 32
_cell_length_a 24.681673
_cell_length_b 9.510226
_cell_length_c 24.681730
_cell_angle_alpha 90.000000
_cell_angle_beta 162.096370
_cell_angle_gamma 90.000000
_cell_volume 1781.019916
_symmetry_space_group_name_H-M "P 21/M"
_symmetry_group_IT_number 11
_symmetry_cell_setting 'monoclinic'
loop_
_space_group_symop_operation_xyz
x,y,z
-x,1/2+y,-z
-x,-y,-z
x,1/2-y,z
loop_
_atom_site_type_symbol
_atom_site_label
_atom_site_fract_x
_atom_site_fract_y
_atom_site_fract_z
Si Si1 0.891023 0.416345 0.722721
Si Si2 0.577236 0.585993 0.023902
Si Si3 0.268355 0.908327 0.318493
Si Si4 0.316880 0.916023 0.683129
Si Si5 0.023901 0.085991 0.577235
Si Si6 0.277277 0.416347 0.108980
Si Si7 0.621908 0.081706 0.378093
Si Si8 0.681519 0.908326 0.731652
O O1 0.864309 0.250000 0.699271
O O2 0.826858 0.475908 0.719635
O O3 0.776045 0.477162 0.563835
O O4 0.094068 0.458551 0.905936
O O5 0.540883 0.750000 0.000526
O O6 0.785323 0.556318 0.214679
O O7 0.500000 0.500000 0.000000
O O8 0.475642 0.534445 0.873375
O O9 0.201048 0.750000 0.243817
O O10 0.474536 0.909795 0.525473
O O11 0.218981 0.999997 0.218983
O O12 0.319430 0.750000 0.680577
O O13 0.347378 0.981669 0.652636
O O14 0.126629 0.965550 0.524362
O O15 0.000529 0.250000 0.540887
O O16 0.000000 0.000000 0.500000
O O17 0.300723 0.250000 0.135687
O O18 0.436172 0.477162 0.223969
O O19 0.280348 0.475905 0.173130
O O20 0.622707 0.250000 0.377283
O O21 0.756195 0.750000 0.798959
#
# Coordination Sequence:
#
# PCOD8070537 Si02
#       8
#     4   4   4   4   4   4   4   4
#     4   9  16  26  42  63  88 120 154 187 228 278
#     4  10  19  31  49  73 100 129 159 191 233 282
#     4   9  16  27  43  64  90 117 148 187 230 276
#     4   9  18  30  45  68  98 126 156 198 236 274
#     4  10  19  31  49  73 100 129 159 191 233 282
#     4   9  16  26  42  63  88 120 154 187 228 278
#     4   9  16  28  43  62  92 124 152 188 234 274
#     4   9  16  27  43  64  90 117 148 187 230 276
#
# _framework density 17.967233
#
# number of rings (size 3 to 8) (size 9 to 14) (size 15 to 20)
#    0.000    2.750    2.500    0.000    0.000    1.500 
#    0.000    5.000    0.000    0.000    0.000    3.500 
#    0.000    0.000    0.000    0.000    0.000    0.000 
#
# Total GULP energy -396679.416288 kJ/mol
# GULP energy per Si atom -12396.231759 kJ/mol
# Density = 1.792634 g / cm^3
# Si number density = 17.967233 Si / 1000 Ang^3
#
#
#
# Elastic Constant Matrix: (Units=GPa)
#
#
# Indices 1 2 3 4 5 6 
#
# 1 180.9098 30.0030 92.7009 0.0000 -10.4385 0.0000
# 2 30.0030 25.3667 21.0113 0.0000 -1.6371 0.0000
# 3 92.7009 21.0113 140.0700 0.0000 2.9891 0.0000
# 4 0.0000 0.0000 0.0000 10.9803 0.0000 -1.5728
# 5 -10.4385 -1.6371 2.9891 0.0000 17.8931 0.0000
# 6 0.0000 0.0000 0.0000 -1.5728 0.0000 19.6191
#
#
#
# Elastic Compliance Matrix: (Units=1/GPa)
#
#
# Indices 1 2 3 4 5 6 
#
# 1 0.009886 -0.006590 -0.005685 0.000000 0.006114 0.000000
# 2 -0.006590 0.049907 -0.003152 0.000000 0.001248 0.000000
# 3 -0.005685 -0.003152 0.011492 0.000000 -0.005525 0.000000
# 4 0.000000 0.000000 0.000000 0.092130 0.000000 0.007386
# 5 0.006114 0.001248 -0.005525 0.000000 0.060492 0.000000
# 6 0.000000 0.000000 0.000000 0.007386 0.000000 0.051563
#
#
# Mechanical properties :
#
#
# Convention : Reuss Voigt Hill
#
# Bulk Modulus (GPa) = 24.73230 70.41967 47.57598
# Shear Modulus (GPa) = 15.63471 23.20724 19.42098
#
# Velocity S-wave (km/s) = 2.95308 3.59784 3.29129
# Velocity P-wave (km/s) = 5.04209 7.51916 6.40158
#
# Compressibility (1/GPa) = 0.04043296
#
# Stress axis : x y z
#
# Youngs Moduli (GPa) = 101.14953 20.03714 87.01442
#
# Poissons Ratio (x) = 0.13204 0.49467
# Poissons Ratio (y) = 0.66656 0.27424
# Poissons Ratio (z) = 0.57503 0.06315
#
# Static dielectric constant tensor:
#      x y z
#    x 3.575230 0.000000 0.011370 
#    y 0.000000 2.811950 0.000000 
#    z 0.011370 0.000000 3.637730 
# 
# 
# High freq. dielectric constant tensor:
#      x y z
#    x 1.698520 0.000000 0.002030 
#    y 0.000000 1.626940 0.000000 
#    z 0.002030 0.000000 1.709660 
# 
# From -- ./inp_files/66569.got.cif
#   From: 2010.06.25/outbox.cif.g09.slc.cpg/sg11_34_cif.got.tgz:66569.got - 2010.06.27 23:14:04.
