data_PCOD8070874
_publ_section_title
;
Structure prediction by ZEFSAII (Michael W. Deem and Ramdas Pophale) SiO2 
 PCOD8070874
Probable space group: P 21/M
;
_chemical_formula_sum "Si O2"
_cell_formula_units_Z 32
_cell_length_a 12.087845
_cell_length_b 8.979973
_cell_length_c 22.057608
_cell_angle_alpha 90.000000
_cell_angle_beta 46.034744
_cell_angle_gamma 90.000000
_cell_volume 1723.338468
_symmetry_space_group_name_H-M "P 21/M"
_symmetry_group_IT_number 11
_symmetry_cell_setting 'monoclinic'
loop_
_space_group_symop_operation_xyz
x,y,z
-x,1/2+y,-z
-x,-y,-z
x,1/2-y,z
loop_
_atom_site_type_symbol
_atom_site_label
_atom_site_fract_x
_atom_site_fract_y
_atom_site_fract_z
Si Si1 0.933031 0.073584 0.252641
Si Si2 0.070746 0.921294 0.529932
Si Si3 0.433043 0.425509 0.235882
Si Si4 0.227201 0.923913 0.927097
Si Si5 0.408650 0.573726 0.589939
Si Si6 0.007353 0.574149 0.903401
Si Si7 0.130212 0.426413 0.285169
Si Si8 0.584113 0.423103 0.628202
O O1 0.938692 0.250000 0.244648
O O2 0.770807 0.028701 0.344895
O O3 0.953867 0.005924 0.177394
O O4 0.073108 0.012756 0.241513
O O5 0.027085 0.750000 0.539584
O O6 0.252041 0.945307 0.466200
O O7 0.990565 0.989319 0.619835
O O8 0.000000 0.000000 0.500000
O O9 0.423096 0.250000 0.254245
O O10 0.594817 0.468576 0.144476
O O11 0.302642 0.476532 0.237279
O O12 0.409499 0.514184 0.306618
O O13 0.204666 0.750000 0.946481
O O14 0.144656 0.974323 0.896171
O O15 0.153958 0.008201 0.012051
O O16 0.500000 0.500000 0.500000
O O17 0.432601 0.750000 0.577029
O O18 0.464561 0.515564 0.633838
O O19 0.989786 0.750000 0.907513
O O20 0.120501 0.250000 0.287228
O O21 0.536977 0.250000 0.647991
#
# Coordination Sequence:
#
# PCOD8070874 Si02
#       8
#     4   4   4   4   4   4   4   4
#     4   9  18  34  55  77 104 139 178 217 258 314
#     4  10  19  32  50  73 102 137 177 218 257 306
#     4  10  19  33  54  78 104 137 176 215 263 320
#     4   9  18  32  51  77 105 130 166 218 268 316
#     4  11  22  37  56  78 109 143 179 222 266 316
#     4   9  17  32  54  76  98 132 173 211 261 318
#     4   9  17  31  52  75 101 136 177 215 256 309
#     4  11  22  34  52  79 110 139 176 225 270 313
#
# _framework density 18.56861
#
# number of rings (size 3 to 8) (size 9 to 14) (size 15 to 20)
#    0.000    2.250    1.250    2.250    0.000    5.000 
#    0.000    4.375    0.000    2.250    0.000    0.000 
#    0.000    0.000    0.000    0.000    0.000    0.000 
#
# Total GULP energy -396745.295295 kJ/mol
# GULP energy per Si atom -12398.290478 kJ/mol
# Density = 1.852635 g / cm^3
# Si number density = 18.568610 Si / 1000 Ang^3
#
#
#
# Elastic Constant Matrix: (Units=GPa)
#
#
# Indices 1 2 3 4 5 6 
#
# 1 141.1177 31.5463 73.5162 0.0000 -0.2387 0.0000
# 2 31.5463 42.2855 31.5155 0.0000 -3.6769 0.0000
# 3 73.5162 31.5155 143.0560 0.0000 -1.4793 0.0000
# 4 0.0000 0.0000 0.0000 28.8392 0.0000 1.0595
# 5 -0.2387 -3.6769 -1.4793 0.0000 33.4537 0.0000
# 6 0.0000 0.0000 0.0000 1.0595 0.0000 19.6596
#
#
#
# Elastic Compliance Matrix: (Units=1/GPa)
#
#
# Indices 1 2 3 4 5 6 
#
# 1 0.010357 -0.004557 -0.004325 0.000000 -0.000618 0.000000
# 2 -0.004557 0.030571 -0.004361 0.000000 0.003135 0.000000
# 3 -0.004325 -0.004361 0.010173 0.000000 -0.000060 0.000000
# 4 0.000000 0.000000 0.000000 0.034744 0.000000 -0.001873
# 5 -0.000618 0.003135 -0.000060 0.000000 0.030229 0.000000
# 6 0.000000 0.000000 0.000000 -0.001873 0.000000 0.050967
#
#
# Mechanical properties :
#
#
# Convention : Reuss Voigt Hill
#
# Bulk Modulus (GPa) = 40.62431 66.62392 53.62412
# Shear Modulus (GPa) = 24.78543 29.04924 26.91733
#
# Velocity S-wave (km/s) = 3.65746 3.95958 3.81151
# Velocity P-wave (km/s) = 6.30567 7.54069 6.95067
#
# Compressibility (1/GPa) = 0.02461580
#
# Stress axis : x y z
#
# Youngs Moduli (GPa) = 96.55256 32.71073 98.30067
#
# Poissons Ratio (x) = 0.14906 0.42514
# Poissons Ratio (y) = 0.44000 0.42865
# Poissons Ratio (z) = 0.41758 0.14264
#
# Static dielectric constant tensor:
#      x y z
#    x 3.624830 0.000000 -0.022620 
#    y 0.000000 3.154280 0.000000 
#    z -0.022620 0.000000 3.584410 
# 
# 
# High freq. dielectric constant tensor:
#      x y z
#    x 1.726790 0.000000 -0.002540 
#    y 0.000000 1.692080 0.000000 
#    z -0.002540 0.000000 1.721340 
# 
# From -- ./inp_files/64364.got.cif
#   From: 2010.06.25/outbox.cif.g09.slc.cpg/sg11_33_cif.got.tgz:64364.got - 2010.06.27 23:14:04.
