data_PCOD8070367
_publ_section_title
;
Structure prediction by ZEFSAII (Michael W. Deem and Ramdas Pophale) SiO2 
 PCOD8070367
Probable space group: P 21/M
;
_chemical_formula_sum "Si O2"
_cell_formula_units_Z 28
_cell_length_a 13.532598
_cell_length_b 9.097756
_cell_length_c 15.806472
_cell_angle_alpha 90.000000
_cell_angle_beta 65.975498
_cell_angle_gamma 90.000000
_cell_volume 1777.451824
_symmetry_space_group_name_H-M "P 21/M"
_symmetry_group_IT_number 11
_symmetry_cell_setting 'monoclinic'
loop_
_space_group_symop_operation_xyz
x,y,z
-x,1/2+y,-z
-x,-y,-z
x,1/2-y,z
loop_
_atom_site_type_symbol
_atom_site_label
_atom_site_fract_x
_atom_site_fract_y
_atom_site_fract_z
Si Si1 0.105360 0.418716 0.994630
Si Si2 0.374045 0.578840 0.454423
Si Si3 0.963476 0.421569 0.638014
Si Si4 0.208703 0.578724 0.820099
Si Si5 0.167302 0.077774 0.454620
Si Si6 0.010539 0.417709 0.199518
Si Si7 0.591510 0.420551 0.364069
O O1 0.098866 0.250000 0.969484
O O2 0.106871 0.433277 0.096210
O O3 0.206995 0.493155 0.910961
O O4 0.000000 0.500000 0.000000
O O5 0.364767 0.750000 0.436379
O O6 0.279983 0.493305 0.440203
O O7 0.487709 0.519050 0.379728
O O8 0.364219 0.547784 0.557576
O O9 0.936953 0.250000 0.642125
O O10 0.080504 0.457843 0.557882
O O11 0.961579 0.472793 0.735075
O O12 0.870944 0.508504 0.620256
O O13 0.207799 0.750000 0.841154
O O14 0.104797 0.536313 0.799873
O O15 0.315994 0.531019 0.733313
O O16 0.183406 0.250000 0.435797
O O17 0.004206 0.250000 0.235185
O O18 0.560033 0.250000 0.365357
#
# Coordination Sequence:
#
# PCOD8070367 Si02
#       7
#     4   4   4   4   4   4   4
#     4   9  17  28  42  62  89 119 150 183 221 265
#     4  10  19  31  47  66  90 119 152 188 220 258
#     4  10  20  31  46  68  89 115 152 186 218 262
#     4   9  17  29  45  65  91 122 152 183 221 264
#     4  10  20  33  47  64  90 120 148 183 225 264
#     4   9  17  29  44  64  92 122 148 180 224 265
#     4   9  18  31  46  66  92 121 151 183 223 265
#
# _framework density 15.752888
#
# number of rings (size 3 to 8) (size 9 to 14) (size 15 to 20)
#    0.000    2.571    0.000    3.429    0.000    6.857 
#    0.000    0.000    0.000    0.000    0.000    1.000 
#    0.000    0.000    0.000    0.000    0.000    0.000 
#
# Total GULP energy -347176.673713 kJ/mol
# GULP energy per Si atom -12399.166918 kJ/mol
# Density = 1.571703 g / cm^3
# Si number density = 15.752888 Si / 1000 Ang^3
#
#
#
# Elastic Constant Matrix: (Units=GPa)
#
#
# Indices 1 2 3 4 5 6 
#
# 1 88.7257 53.4304 47.7706 0.0000 -2.4434 0.0000
# 2 53.4304 90.4898 55.7191 0.0000 -1.2976 0.0000
# 3 47.7706 55.7191 111.8000 0.0000 -9.8198 0.0000
# 4 0.0000 0.0000 0.0000 30.8087 0.0000 0.9294
# 5 -2.4434 -1.2976 -9.8198 0.0000 19.5122 0.0000
# 6 0.0000 0.0000 0.0000 0.9294 0.0000 27.2664
#
#
#
# Elastic Compliance Matrix: (Units=1/GPa)
#
#
# Indices 1 2 3 4 5 6 
#
# 1 0.018408 -0.008691 -0.003539 0.000000 -0.000054 0.000000
# 2 -0.008691 0.020225 -0.006637 0.000000 -0.003084 0.000000
# 3 -0.003539 -0.006637 0.014320 0.000000 0.006322 0.000000
# 4 0.000000 0.000000 0.000000 0.032492 0.000000 -0.001108
# 5 -0.000054 -0.003084 0.006322 0.000000 0.054220 0.000000
# 6 0.000000 0.000000 0.000000 -0.001108 0.000000 0.036713
#
#
# Mechanical properties :
#
#
# Convention : Reuss Voigt Hill
#
# Bulk Modulus (GPa) = 65.70663 67.20621 66.45642
# Shear Modulus (GPa) = 22.81175 24.45715 23.63445
#
# Velocity S-wave (km/s) = 3.80952 3.94452 3.87760
# Velocity P-wave (km/s) = 7.81993 7.96875 7.89469
#
# Compressibility (1/GPa) = 0.01521917
#
# Stress axis : x y z
#
# Youngs Moduli (GPa) = 54.32337 49.44302 69.83320
#
# Poissons Ratio (x) = 0.42971 0.24713
# Poissons Ratio (y) = 0.47213 0.46350
# Poissons Ratio (z) = 0.19224 0.32816
#
# Static dielectric constant tensor:
#      x y z
#    x 2.458610 0.000000 0.724450 
#    y 0.000000 3.123130 0.000000 
#    z 0.724450 0.000000 1.032510 
# 
# 
# High freq. dielectric constant tensor:
#      x y z
#    x 1.571850 0.000000 -0.005030 
#    y 0.000000 1.618290 0.000000 
#    z -0.005030 0.000000 1.602160 
# 
# From -- ./inp_files/37402.got.cif
#   From: 2010.06.25/outbox.cif.g09.slc.cpg/sg11_19_cif.got.tgz:37402.got - 2010.06.27 23:14:04.
