data_PCOD8070817
_publ_section_title
;
Structure prediction by ZEFSAII (Michael W. Deem and Ramdas Pophale) SiO2 
 PCOD8070817
Probable space group: P 21/M
;
_chemical_formula_sum "Si O2"
_cell_formula_units_Z 32
_cell_length_a 16.233917
_cell_length_b 8.994641
_cell_length_c 29.039017
_cell_angle_alpha 90.000000
_cell_angle_beta 24.353730
_cell_angle_gamma 90.000000
_cell_volume 1748.537410
_symmetry_space_group_name_H-M "P 21/M"
_symmetry_group_IT_number 11
_symmetry_cell_setting 'monoclinic'
loop_
_space_group_symop_operation_xyz
x,y,z
-x,1/2+y,-z
-x,-y,-z
x,1/2-y,z
loop_
_atom_site_type_symbol
_atom_site_label
_atom_site_fract_x
_atom_site_fract_y
_atom_site_fract_z
Si Si1 0.515716 0.588966 0.091592
Si Si2 0.702518 0.923753 0.448752
Si Si3 0.930978 0.073420 0.674345
Si Si4 0.148046 0.924024 0.959137
Si Si5 0.901768 0.077751 0.907860
Si Si6 0.915783 0.924109 0.587805
Si Si7 0.299001 0.075065 0.656438
Si Si8 0.477170 0.586955 0.216442
O O1 0.532026 0.750000 0.058123
O O2 0.292786 0.519607 0.195643
O O3 0.545921 0.615522 0.129921
O O4 0.705832 0.487662 0.981002
O O5 0.667789 0.750000 0.472556
O O6 0.733373 0.969521 0.380172
O O7 0.904362 0.973615 0.372091
O O8 0.505198 0.002807 0.569934
O O9 0.920292 0.250000 0.671169
O O10 0.000797 0.997155 0.591249
O O11 0.170229 0.750000 0.937378
O O12 0.347354 0.012633 0.843991
O O13 0.089600 0.951868 0.042010
O O14 0.000000 0.000000 0.000000
O O15 0.889659 0.250000 0.902540
O O16 0.107454 0.011963 0.781838
O O17 0.961203 0.750000 0.565181
O O18 0.683907 0.957475 0.702461
O O19 0.000000 0.000000 0.500000
O O20 0.320255 0.250000 0.652576
O O21 0.413657 0.750000 0.269708
#
# Coordination Sequence:
#
# PCOD8070817 Si02
#       8
#     4   4   4   4   4   4   4   4
#     4   8  15  28  49  72  96 128 162 201 248 303
#     4   9  18  34  56  77 101 136 174 214 260 314
#     4   9  18  34  53  75 103 134 171 213 261 311
#     4  10  19  32  49  71  99 136 175 215 262 312
#     4   9  18  32  50  72 100 133 169 211 259 312
#     4  11  21  34  52  75 102 135 171 210 256 308
#     4   9  18  34  54  76 103 136 173 214 264 313
#     4   9  17  32  51  70  95 130 168 208 253 305
#
# _framework density 18.301010000000002
#
# number of rings (size 3 to 8) (size 9 to 14) (size 15 to 20)
#    0.000    2.750    0.000    2.625    0.000    4.500 
#    2.250    0.625    0.000    0.000    0.000    0.000 
#    0.000    0.000    0.000    0.000    0.000    0.000 
#
# Total GULP energy -396446.756152 kJ/mol
# GULP energy per Si atom -12388.961130 kJ/mol
# Density = 1.825936 g / cm^3
# Si number density = 18.301010 Si / 1000 Ang^3
#
#
#
# Elastic Constant Matrix: (Units=GPa)
#
#
# Indices 1 2 3 4 5 6 
#
# 1 97.1755 37.0919 45.8350 0.0000 -32.3242 0.0000
# 2 37.0919 71.9655 40.6549 0.0000 -9.2966 0.0000
# 3 45.8350 40.6549 96.3067 0.0000 -20.5947 0.0000
# 4 0.0000 0.0000 0.0000 30.0378 0.0000 -5.7811
# 5 -32.3242 -9.2966 -20.5947 0.0000 31.3222 0.0000
# 6 0.0000 0.0000 0.0000 -5.7811 0.0000 23.2648
#
#
#
# Elastic Compliance Matrix: (Units=1/GPa)
#
#
# Indices 1 2 3 4 5 6 
#
# 1 0.019572 -0.006158 -0.003243 0.000000 0.016238 0.000000
# 2 -0.006158 0.020189 -0.006597 0.000000 -0.004700 0.000000
# 3 -0.003243 -0.006597 0.015799 0.000000 0.005083 0.000000
# 4 0.000000 0.000000 0.000000 0.034963 0.000000 0.008688
# 5 0.016238 -0.004700 0.005083 0.000000 0.050631 0.000000
# 6 0.000000 0.000000 0.000000 0.008688 0.000000 0.045142
#
#
# Mechanical properties :
#
#
# Convention : Reuss Voigt Hill
#
# Bulk Modulus (GPa) = 42.43738 56.95682 49.69710
# Shear Modulus (GPa) = 22.10944 26.38269 24.24606
#
# Velocity S-wave (km/s) = 3.47954 3.80096 3.64380
# Velocity P-wave (km/s) = 6.27550 7.10301 6.70204
#
# Compressibility (1/GPa) = 0.02356413
#
# Stress axis : x y z
#
# Youngs Moduli (GPa) = 51.09270 49.53173 63.29613
#
# Poissons Ratio (x) = 0.30502 0.20526
# Poissons Ratio (y) = 0.31463 0.41756
# Poissons Ratio (z) = 0.16569 0.32676
#
# Static dielectric constant tensor:
#      x y z
#    x 3.253820 0.000000 -0.236700 
#    y 0.000000 3.553060 0.000000 
#    z -0.236700 0.000000 3.231120 
# 
# 
# High freq. dielectric constant tensor:
#      x y z
#    x 1.690590 0.000000 -0.021530 
#    y 0.000000 1.708710 0.000000 
#    z -0.021530 0.000000 1.705790 
# 
# From -- ./inp_files/71609.got.cif
#   From: 2010.06.25/outbox.cif.g09.slc.cpg/sg11_36_cif.got.tgz:71609.got - 2010.06.27 23:14:04.
