data_PCOD8070103
_publ_section_title
;
Structure prediction by ZEFSAII (Michael W. Deem and Ramdas Pophale) SiO2 
 PCOD8070103
Probable space group: P 21/M
;
_chemical_formula_sum "Si O2"
_cell_formula_units_Z 32
_cell_length_a 25.882219
_cell_length_b 9.344120
_cell_length_c 14.719221
_cell_angle_alpha 90.000000
_cell_angle_beta 31.454953
_cell_angle_gamma 90.000000
_cell_volume 1857.599794
_symmetry_space_group_name_H-M "P 21/M"
_symmetry_group_IT_number 11
_symmetry_cell_setting 'monoclinic'
loop_
_space_group_symop_operation_xyz
x,y,z
-x,1/2+y,-z
-x,-y,-z
x,1/2-y,z
loop_
_atom_site_type_symbol
_atom_site_label
_atom_site_fract_x
_atom_site_fract_y
_atom_site_fract_z
Si Si1 0.287654 0.416172 0.851440
Si Si2 0.888220 0.415609 0.579595
Si Si3 0.111779 0.415609 0.244257
Si Si4 0.657323 0.586620 0.428413
Si Si5 0.287653 0.916172 0.285601
Si Si6 0.572192 0.918109 0.052284
Si Si7 0.342677 0.913380 0.400382
Si Si8 0.427808 0.581891 0.768861
O O1 0.317799 0.250000 0.821233
O O2 0.280309 0.450899 0.755340
O O3 0.371093 0.517743 0.768025
O O4 0.181196 0.451646 0.054646
O O5 0.883039 0.250000 0.613100
O O6 0.849650 0.500000 0.725525
O O7 0.818804 0.451648 0.598235
O O8 0.000000 0.462160 0.386120
O O9 0.116960 0.250000 0.262219
O O10 0.669496 0.750000 0.437805
O O11 0.699799 0.500000 0.450302
O O12 0.543038 0.549602 0.580372
O O13 0.317797 0.750000 0.225374
O O14 0.280308 0.950898 0.403735
O O15 0.371094 0.017742 0.118696
O O16 0.594754 0.750000 0.028360
O O17 0.456962 0.950399 0.209485
O O18 0.611003 0.999999 0.083495
O O19 0.330505 0.750000 0.446293
O O20 0.405246 0.750000 0.812624
#
# Coordination Sequence:
#
# PCOD8070103 Si02
#       8
#     4   4   4   4   4   4   4   4
#     4  10  19  31  48  69  92 119 154 191 227 269
#     4   9  18  32  49  69  93 119 146 180 224 272
#     4   9  18  32  49  69  93 119 146 180 224 272
#     4   9  19  33  47  65  91 123 156 190 225 265
#     4  10  19  31  48  69  92 119 154 191 227 269
#     4  10  19  30  45  67  95 124 153 185 224 269
#     4   9  19  33  47  65  91 123 156 190 225 265
#     4  10  19  30  45  67  95 124 153 185 224 269
#
# _framework density 17.22653
#
# number of rings (size 3 to 8) (size 9 to 14) (size 15 to 20)
#    0.000    2.500    0.000    2.250    0.000    5.000 
#    0.000    0.000    0.000    0.750    0.000    0.000 
#    0.000    0.000    0.000    0.000    0.000    0.000 
#
# Total GULP energy -396851.014507 kJ/mol
# GULP energy per Si atom -12401.594203 kJ/mol
# Density = 1.718732 g / cm^3
# Si number density = 17.226530 Si / 1000 Ang^3
#
#
#
# Elastic Constant Matrix: (Units=GPa)
#
#
# Indices 1 2 3 4 5 6 
#
# 1 129.0058 56.1009 59.8938 0.0000 16.5972 0.0000
# 2 56.1009 69.9561 44.8917 0.0000 11.3439 0.0000
# 3 59.8938 44.8917 92.1718 0.0000 20.6789 0.0000
# 4 0.0000 0.0000 0.0000 20.6901 0.0000 7.3615
# 5 16.5972 11.3439 20.6789 0.0000 22.2243 0.0000
# 6 0.0000 0.0000 0.0000 7.3615 0.0000 27.9637
#
#
#
# Elastic Compliance Matrix: (Units=1/GPa)
#
#
# Indices 1 2 3 4 5 6 
#
# 1 0.013393 -0.007450 -0.004655 0.000000 -0.001868 0.000000
# 2 -0.007450 0.024978 -0.007219 0.000000 -0.000468 0.000000
# 3 -0.004655 -0.007219 0.019948 0.000000 -0.011399 0.000000
# 4 0.000000 0.000000 0.000000 0.053327 0.000000 -0.014038
# 5 -0.001868 -0.000468 -0.011399 0.000000 0.057236 0.000000
# 6 0.000000 0.000000 0.000000 -0.014038 0.000000 0.039456
#
#
# Mechanical properties :
#
#
# Convention : Reuss Voigt Hill
#
# Bulk Modulus (GPa) = 50.83987 68.10072 59.47029
# Shear Modulus (GPa) = 19.72044 22.85878 21.28961
#
# Velocity S-wave (km/s) = 3.38712 3.64669 3.51930
# Velocity P-wave (km/s) = 6.69876 7.57294 7.14922
#
# Compressibility (1/GPa) = 0.01966960
#
# Stress axis : x y z
#
# Youngs Moduli (GPa) = 74.66516 40.03547 50.13097
#
# Poissons Ratio (x) = 0.29828 0.23338
# Poissons Ratio (y) = 0.55628 0.36189
# Poissons Ratio (z) = 0.34759 0.28901
#
# Static dielectric constant tensor:
#      x y z
#    x 3.234250 0.000000 0.061650 
#    y 0.000000 3.250570 0.000000 
#    z 0.061650 0.000000 3.173340 
# 
# 
# High freq. dielectric constant tensor:
#      x y z
#    x 1.656800 0.000000 0.009890 
#    y 0.000000 1.667990 0.000000 
#    z 0.009890 0.000000 1.647020 
# 
# From -- ./inp_files/51704.got.cif
#   From: 2010.06.25/outbox.cif.g09.slc.cpg/sg11_26_cif.got.tgz:51704.got - 2010.06.27 23:14:04.
