data_PCOD8070194
_publ_section_title
;
Structure prediction by ZEFSAII (Michael W. Deem and Ramdas Pophale) SiO2 
 PCOD8070194
Probable space group: P 21/M
;
_chemical_formula_sum "Si O2"
_cell_formula_units_Z 28
_cell_length_a 14.423507
_cell_length_b 9.165355
_cell_length_c 18.743484
_cell_angle_alpha 90.000000
_cell_angle_beta 38.391552
_cell_angle_gamma 90.000000
_cell_volume 1538.808633
_symmetry_space_group_name_H-M "P 21/M"
_symmetry_group_IT_number 11
_symmetry_cell_setting 'monoclinic'
loop_
_space_group_symop_operation_xyz
x,y,z
-x,1/2+y,-z
-x,-y,-z
x,1/2-y,z
loop_
_atom_site_type_symbol
_atom_site_label
_atom_site_fract_x
_atom_site_fract_y
_atom_site_fract_z
Si Si1 0.877223 0.919527 0.394457
Si Si2 0.797574 0.085966 0.576691
Si Si3 0.607460 0.920320 0.081221
Si Si4 0.146981 0.417417 0.178897
Si Si5 0.538618 0.911186 0.275110
Si Si6 0.693029 0.919742 0.769784
Si Si7 0.544582 0.918554 0.544153
O O1 0.902423 0.750000 0.394031
O O2 0.717613 0.949293 0.455049
O O3 0.896262 0.004196 0.457844
O O4 0.001659 0.980266 0.265440
O O5 0.860276 0.250000 0.548824
O O6 0.628523 0.088706 0.653096
O O7 0.804960 0.999208 0.646803
O O8 0.563819 0.750000 0.098160
O O9 0.639337 0.955482 0.145859
O O10 0.472936 0.016034 0.131974
O O11 0.757136 0.959290 0.948365
O O12 0.094026 0.250000 0.208158
O O13 0.247042 0.447575 0.187578
O O14 0.581575 0.750000 0.277471
O O15 0.556823 0.023754 0.329023
O O16 0.686204 0.750000 0.753522
O O17 0.508544 0.750000 0.556225
O O18 0.500000 0.000000 0.500000
#
# Coordination Sequence:
#
# PCOD8070194 Si02
#       7
#     4   4   4   4   4   4   4
#     4  10  21  35  51  74 101 128 162 203 249 299
#     4   9  17  31  50  69  95 132 168 205 251 298
#     4   9  18  33  51  71  98 135 176 210 243 287
#     4  10  21  34  48  69 100 138 174 207 247 293
#     4   8  15  29  50  74  98 125 158 198 242 285
#     4  10  19  30  47  72  99 130 173 219 253 283
#     4  10  20  34  55  81 103 122 150 192 242 298
#
# _framework density 18.195895
#
# number of rings (size 3 to 8) (size 9 to 14) (size 15 to 20)
#    0.000    2.571    0.000    3.000    0.000    7.429 
#    0.000    0.000    0.000    0.857    0.000    0.000 
#    0.000    0.000    0.000    0.000    0.000    0.000 
#
# Total GULP energy -347206.374756 kJ/mol
# GULP energy per Si atom -12400.227670 kJ/mol
# Density = 1.815448 g / cm^3
# Si number density = 18.195895 Si / 1000 Ang^3
#
#
#
# Elastic Constant Matrix: (Units=GPa)
#
#
# Indices 1 2 3 4 5 6 
#
# 1 50.0927 53.5004 51.9780 0.0000 21.9692 0.0000
# 2 53.5004 129.4089 72.3231 0.0000 14.1540 0.0000
# 3 51.9780 72.3231 139.1862 0.0000 22.2335 0.0000
# 4 0.0000 0.0000 0.0000 31.7151 0.0000 2.1673
# 5 21.9692 14.1540 22.2335 0.0000 24.8040 0.0000
# 6 0.0000 0.0000 0.0000 2.1673 0.0000 27.2461
#
#
#
# Elastic Compliance Matrix: (Units=1/GPa)
#
#
# Indices 1 2 3 4 5 6 
#
# 1 0.065952 -0.017887 -0.008910 0.000000 -0.040221 0.000000
# 2 -0.017887 0.015779 -0.003048 0.000000 0.009571 0.000000
# 3 -0.008910 -0.003048 0.012322 0.000000 -0.001414 0.000000
# 4 0.000000 0.000000 0.000000 0.031703 0.000000 -0.002522
# 5 -0.040221 0.009571 -0.001414 0.000000 0.071746 0.000000
# 6 0.000000 0.000000 0.000000 -0.002522 0.000000 0.036903
#
#
# Mechanical properties :
#
#
# Convention : Reuss Voigt Hill
#
# Bulk Modulus (GPa) = 29.10170 74.92119 52.01145
# Shear Modulus (GPa) = 16.36393 26.14544 21.25468
#
# Velocity S-wave (km/s) = 3.00212 3.79474 3.42146
# Velocity P-wave (km/s) = 5.29578 7.77588 6.65242
#
# Compressibility (1/GPa) = 0.03436225
#
# Stress axis : x y z
#
# Youngs Moduli (GPa) = 15.16246 63.37494 81.15832
#
# Poissons Ratio (x) = 1.13362 0.72312
# Poissons Ratio (y) = 0.27122 0.24737
# Poissons Ratio (z) = 0.13510 0.19317
#
# Static dielectric constant tensor:
#      x y z
#    x 3.019180 0.000000 0.243770 
#    y 0.000000 3.504720 0.000000 
#    z 0.243770 0.000000 3.638060 
# 
# 
# High freq. dielectric constant tensor:
#      x y z
#    x 1.667600 0.000000 0.018380 
#    y 0.000000 1.714160 0.000000 
#    z 0.018380 0.000000 1.709210 
# 
# From -- ./inp_files/42311.got.cif
#   From: 2010.06.25/outbox.cif.g09.slc.cpg/sg11_22_cif.got.tgz:42311.got - 2010.06.27 23:14:04.
