data_PCOD8070949
_publ_section_title
;
Structure prediction by ZEFSAII (Michael W. Deem and Ramdas Pophale) SiO2 
 PCOD8070949
Probable space group: P 21/M
;
_chemical_formula_sum "Si O2"
_cell_formula_units_Z 28
_cell_length_a 6.528464
_cell_length_b 13.953811
_cell_length_c 18.595154
_cell_angle_alpha 90.000000
_cell_angle_beta 56.811132
_cell_angle_gamma 90.000000
_cell_volume 1417.627025
_symmetry_space_group_name_H-M "P 21/M"
_symmetry_group_IT_number 11
_symmetry_cell_setting 'monoclinic'
loop_
_space_group_symop_operation_xyz
x,y,z
-x,1/2+y,-z
-x,-y,-z
x,1/2-y,z
loop_
_atom_site_type_symbol
_atom_site_label
_atom_site_fract_x
_atom_site_fract_y
_atom_site_fract_z
Si Si1 0.065554 0.640081 0.505447
Si Si2 0.616979 0.860603 0.343656
Si Si3 0.107405 0.354617 0.976621
Si Si4 0.597053 0.358260 0.135912
Si Si5 0.218582 0.026950 0.822160
Si Si6 0.714209 0.555424 0.919788
Si Si7 0.779416 0.530367 0.443042
O O1 0.015233 0.750000 0.539206
O O2 0.332558 0.629840 0.418524
O O3 0.059612 0.567280 0.575668
O O4 0.856323 0.607460 0.489418
O O5 0.698869 0.750000 0.327483
O O6 0.643541 0.904969 0.259707
O O7 0.803562 0.917868 0.360998
O O8 0.179069 0.250000 0.934219
O O9 0.234543 0.429889 0.899552
O O10 0.194681 0.365035 0.041695
O O11 0.814495 0.367445 0.035169
O O12 0.566225 0.250000 0.170171
O O13 0.644524 0.424412 0.197257
O O14 0.356274 0.392061 0.140351
O O15 0.934568 0.016173 0.855507
O O16 0.500000 0.500000 0.000000
O O17 0.500000 0.500000 0.500000
#
# Coordination Sequence:
#
# PCOD8070949 Si02
#       7
#     4   4   4   4   4   4   4
#     4   9  18  35  61  89 116 148 185 220 264 321
#     4  10  21  36  55  84 120 151 176 219 280 336
#     4  10  19  32  51  75 100 133 179 228 276 328
#     4  10  20  35  53  70  97 137 185 237 281 322
#     4  11  21  34  53  77 111 143 182 225 280 332
#     4  11  18  34  53  73  99 140 188 235 277 319
#     4   9  18  35  59  84 114 149 185 219 264 318
#
# _framework density 19.751318000000001
#
# number of rings (size 3 to 8) (size 9 to 14) (size 15 to 20)
#    0.000    2.000    2.857    2.143    0.000    2.286 
#    0.000    0.714    0.000    9.429    0.000    0.000 
#    0.000    0.000    0.000    0.000    0.000    0.000 
#
# Total GULP energy -347031.132077 kJ/mol
# GULP energy per Si atom -12393.969003 kJ/mol
# Density = 1.970636 g / cm^3
# Si number density = 19.751318 Si / 1000 Ang^3
#
#
#
# Elastic Constant Matrix: (Units=GPa)
#
#
# Indices 1 2 3 4 5 6 
#
# 1 100.0329 41.6199 16.6599 0.0000 9.6184 0.0000
# 2 41.6199 154.7254 35.6398 0.0000 10.7886 0.0000
# 3 16.6599 35.6398 48.1713 0.0000 11.0802 0.0000
# 4 0.0000 0.0000 0.0000 29.3681 0.0000 4.7386
# 5 9.6184 10.7886 11.0802 0.0000 18.4751 0.0000
# 6 0.0000 0.0000 0.0000 4.7386 0.0000 31.1265
#
#
#
# Elastic Compliance Matrix: (Units=1/GPa)
#
#
# Indices 1 2 3 4 5 6 
#
# 1 0.011643 -0.002580 -0.001241 0.000000 -0.003811 0.000000
# 2 -0.002580 0.008388 -0.005215 0.000000 -0.000427 0.000000
# 3 -0.001241 -0.005215 0.028070 0.000000 -0.013143 0.000000
# 4 0.000000 0.000000 0.000000 0.034908 0.000000 -0.005314
# 5 -0.003811 -0.000427 -0.013143 0.000000 0.064242 0.000000
# 6 0.000000 0.000000 0.000000 -0.005314 0.000000 0.032936
#
#
# Mechanical properties :
#
#
# Convention : Reuss Voigt Hill
#
# Bulk Modulus (GPa) = 33.30243 54.52985 43.91614
# Shear Modulus (GPa) = 24.00709 29.72796 26.86752
#
# Velocity S-wave (km/s) = 3.49014 3.88379 3.69221
# Velocity P-wave (km/s) = 5.75664 6.91230 6.36077
#
# Compressibility (1/GPa) = 0.03002783
#
# Stress axis : x y z
#
# Youngs Moduli (GPa) = 85.88538 119.21390 35.62482
#
# Poissons Ratio (x) = 0.30762 0.04422
# Poissons Ratio (y) = 0.22162 0.18580
# Poissons Ratio (z) = 0.10661 0.62176
#
# Static dielectric constant tensor:
#      x y z
#    x 3.967770 0.000000 0.079400 
#    y 0.000000 3.916830 0.000000 
#    z 0.079400 0.000000 3.123110 
# 
# 
# High freq. dielectric constant tensor:
#      x y z
#    x 1.780380 0.000000 0.006900 
#    y 0.000000 1.786120 0.000000 
#    z 0.006900 0.000000 1.716510 
# 
# From -- ./inp_files/57005.got.cif
#   From: 2010.06.25/outbox.cif.g09.slc.cpg/sg11_29_cif.got.tgz:57005.got - 2010.06.27 23:14:04.
