data_PCOD8070721
_publ_section_title
;
Structure prediction by ZEFSAII (Michael W. Deem and Ramdas Pophale) SiO2 
 PCOD8070721
Probable space group: P 21/M
;
_chemical_formula_sum "Si O2"
_cell_formula_units_Z 28
_cell_length_a 16.300403
_cell_length_b 8.933841
_cell_length_c 11.320292
_cell_angle_alpha 90.000000
_cell_angle_beta 119.375121
_cell_angle_gamma 90.000000
_cell_volume 1436.564555
_symmetry_space_group_name_H-M "P 21/M"
_symmetry_group_IT_number 11
_symmetry_cell_setting 'monoclinic'
loop_
_space_group_symop_operation_xyz
x,y,z
-x,1/2+y,-z
-x,-y,-z
x,1/2-y,z
loop_
_atom_site_type_symbol
_atom_site_label
_atom_site_fract_x
_atom_site_fract_y
_atom_site_fract_z
Si Si1 0.535911 0.425440 0.906554
Si Si2 0.269133 0.426130 0.333917
Si Si3 0.711560 0.927298 0.913549
Si Si4 0.643175 0.924401 0.365695
Si Si5 0.874684 0.076038 0.159721
Si Si6 0.819452 0.424859 0.386035
Si Si7 0.913677 0.925532 0.664450
O O1 0.547961 0.250000 0.937405
O O2 0.635623 0.493745 0.942673
O O3 0.462693 0.460095 0.749212
O O4 0.500000 0.500000 0.000000
O O5 0.266396 0.250000 0.317711
O O6 0.299130 0.491198 0.227901
O O7 0.343629 0.475102 0.488104
O O8 0.164796 0.482237 0.297458
O O9 0.697874 0.750000 0.911873
O O10 0.814917 0.971942 0.030765
O O11 0.667434 0.750000 0.369742
O O12 0.715083 0.011260 0.332476
O O13 0.853928 0.250000 0.118558
O O14 0.849729 0.034970 0.275784
O O15 0.983644 0.035157 0.213012
O O16 0.816775 0.250000 0.407543
O O17 0.896550 0.495659 0.527194
O O18 0.903690 0.750000 0.633217
#
# Coordination Sequence:
#
# PCOD8070721 Si02
#       7
#     4   4   4   4   4   4   4
#     4  11  23  39  60  85 111 141 177 218 267 323
#     4   8  17  36  57  78 105 139 182 224 265 317
#     4  11  23  37  55  79 109 144 180 224 271 317
#     4   9  19  37  59  78 103 143 181 216 266 324
#     4  10  21  35  52  77 110 147 184 225 272 319
#     4  10  19  31  51  82 113 137 172 224 273 320
#     4   9  18  35  57  77 105 146 184 222 270 322
#
# _framework density 19.490943999999999
#
# number of rings (size 3 to 8) (size 9 to 14) (size 15 to 20)
#    0.000    2.286    0.000    3.429    0.000    6.286 
#    0.000    5.714    0.000    0.000    0.000    0.000 
#    0.000    0.000    0.000    0.000    0.000    0.000 
#
# Total GULP energy -347212.863473 kJ/mol
# GULP energy per Si atom -12400.459410 kJ/mol
# Density = 1.944658 g / cm^3
# Si number density = 19.490944 Si / 1000 Ang^3
#
#
#
# Elastic Constant Matrix: (Units=GPa)
#
#
# Indices 1 2 3 4 5 6 
#
# 1 71.7214 25.4036 53.5487 0.0000 -3.7935 0.0000
# 2 25.4036 60.6707 41.6249 0.0000 -1.5116 0.0000
# 3 53.5487 41.6249 114.8930 0.0000 1.7752 0.0000
# 4 0.0000 0.0000 0.0000 27.9433 0.0000 2.8242
# 5 -3.7935 -1.5116 1.7752 0.0000 35.0207 0.0000
# 6 0.0000 0.0000 0.0000 2.8242 0.0000 24.0287
#
#
#
# Elastic Compliance Matrix: (Units=1/GPa)
#
#
# Indices 1 2 3 4 5 6 
#
# 1 0.022010 -0.002769 -0.009297 0.000000 0.002736 0.000000
# 2 -0.002769 0.022347 -0.006821 0.000000 0.001010 0.000000
# 3 -0.009297 -0.006821 0.015541 0.000000 -0.002089 0.000000
# 4 0.000000 0.000000 0.000000 0.036217 0.000000 -0.004257
# 5 0.002736 0.001010 -0.002089 0.000000 0.029000 0.000000
# 6 0.000000 0.000000 0.000000 -0.004257 0.000000 0.042117
#
#
# Mechanical properties :
#
#
# Convention : Reuss Voigt Hill
#
# Bulk Modulus (GPa) = 45.20318 54.27107 49.73712
# Shear Modulus (GPa) = 23.54261 25.84575 24.69418
#
# Velocity S-wave (km/s) = 3.47922 3.64543 3.56329
# Velocity P-wave (km/s) = 6.27552 6.75452 6.51942
#
# Compressibility (1/GPa) = 0.02212234
#
# Stress axis : x y z
#
# Youngs Moduli (GPa) = 45.43407 44.74909 64.34777
#
# Poissons Ratio (x) = 0.12391 0.59827
# Poissons Ratio (y) = 0.12580 0.43893
# Poissons Ratio (z) = 0.42242 0.30524
#
# Static dielectric constant tensor:
#      x y z
#    x 3.644040 0.000000 -0.002960 
#    y 0.000000 3.405320 0.000000 
#    z -0.002960 0.000000 3.800490 
# 
# 
# High freq. dielectric constant tensor:
#      x y z
#    x 1.759140 0.000000 0.003870 
#    y 0.000000 1.745640 0.000000 
#    z 0.003870 0.000000 1.766440 
# 
# From -- ./inp_files/38449.got.cif
#   From: 2010.06.25/outbox.cif.g09.slc.cpg/sg11_20_cif.got.tgz:38449.got - 2010.06.27 23:14:04.
