data_PCOD8070039
_publ_section_title
;
Structure prediction by ZEFSAII (Michael W. Deem and Ramdas Pophale) SiO2 
 PCOD8070039
Probable space group: P 21/M
;
_chemical_formula_sum "Si O2"
_cell_formula_units_Z 24
_cell_length_a 15.215902
_cell_length_b 18.200517
_cell_length_c 5.012000
_cell_angle_alpha 90.000000
_cell_angle_beta 62.828307
_cell_angle_gamma 90.000000
_cell_volume 1234.831823
_symmetry_space_group_name_H-M "P 21/M"
_symmetry_group_IT_number 11
_symmetry_cell_setting 'monoclinic'
loop_
_space_group_symop_operation_xyz
x,y,z
-x,1/2+y,-z
-x,-y,-z
x,1/2-y,z
loop_
_atom_site_type_symbol
_atom_site_label
_atom_site_fract_x
_atom_site_fract_y
_atom_site_fract_z
Si Si1 0.659095 0.333494 0.509280
Si Si2 0.855041 0.564465 0.205679
Si Si3 0.514422 0.551699 0.230423
Si Si4 0.234838 0.611399 0.135409
Si Si5 0.958914 0.058904 0.773305
Si Si6 0.266733 0.057328 0.109827
O O1 0.628982 0.250000 0.611486
O O2 0.560616 0.381178 0.668206
O O3 0.740863 0.361898 0.602796
O O4 0.707485 0.337181 0.150922
O O5 0.766753 0.566412 0.540010
O O6 0.951204 0.603900 0.206904
O O7 0.895139 0.482094 0.092465
O O8 0.809922 0.597418 0.992019
O O9 0.500000 0.500000 0.500000
O O10 0.500000 0.500000 0.000000
O O11 0.623315 0.588816 0.076741
O O12 0.115399 0.615973 0.266568
O O13 0.270989 0.528510 0.031450
O O14 0.000000 0.000000 0.500000
#
# Coordination Sequence:
#
# PCOD8070039 Si02
#       6
#     4   4   4   4   4   4
#     4  12  25  41  56  83 120 159 197 240 293 369
#     4  10  19  29  46  81 119 142 173 225 287 333
#     4  12  22  36  59  85 110 153 199 247 296 344
#     4  11  21  35  58  81 119 153 190 234 300 347
#     4  10  19  29  52  82 120 144 175 222 287 337
#     4  11  19  32  53  80 116 142 188 239 296 331
#
# _framework density 19.435843999999999
#
# number of rings (size 3 to 8) (size 9 to 14) (size 15 to 20)
#    0.000    1.000    6.667    3.500    2.333    0.000 
#    0.000    0.000    0.000    0.000    0.000    7.000 
#    0.000    0.000    0.000    0.000    0.000    0.000 
#
# Total GULP energy -297445.182003 kJ/mol
# GULP energy per Si atom -12393.549250 kJ/mol
# Density = 1.939161 g / cm^3
# Si number density = 19.435844 Si / 1000 Ang^3
#
#
#
# Elastic Constant Matrix: (Units=GPa)
#
#
# Indices 1 2 3 4 5 6 
#
# 1 116.8350 23.5890 26.7624 0.0000 -3.1195 0.0000
# 2 23.5890 59.5517 7.4247 0.0000 -5.7058 0.0000
# 3 26.7624 7.4247 102.2802 0.0000 1.1921 0.0000
# 4 0.0000 0.0000 0.0000 11.3087 0.0000 -0.6046
# 5 -3.1195 -5.7058 1.1921 0.0000 39.9798 0.0000
# 6 0.0000 0.0000 0.0000 -0.6046 0.0000 11.2799
#
#
#
# Elastic Compliance Matrix: (Units=1/GPa)
#
#
# Indices 1 2 3 4 5 6 
#
# 1 0.009818 -0.003569 -0.002314 0.000000 0.000326 0.000000
# 2 -0.003569 0.018488 -0.000436 0.000000 0.002373 0.000000
# 3 -0.002314 -0.000436 0.010421 0.000000 -0.000553 0.000000
# 4 0.000000 0.000000 0.000000 0.088682 0.000000 0.004753
# 5 0.000326 0.002373 -0.000553 0.000000 0.025393 0.000000
# 6 0.000000 0.000000 0.000000 0.004753 0.000000 0.088908
#
#
# Mechanical properties :
#
#
# Convention : Reuss Voigt Hill
#
# Bulk Modulus (GPa) = 38.33067 43.80213 41.06640
# Shear Modulus (GPa) = 19.00824 27.23973 23.12399
#
# Velocity S-wave (km/s) = 3.13069 3.74775 3.45303
# Velocity P-wave (km/s) = 5.72999 6.42754 6.08876
#
# Compressibility (1/GPa) = 0.02608877
#
# Stress axis : x y z
#
# Youngs Moduli (GPa) = 101.84913 54.08990 95.96418
#
# Poissons Ratio (x) = 0.19307 0.22204
# Poissons Ratio (y) = 0.36355 0.04181
# Poissons Ratio (z) = 0.23565 0.02357
#
# Static dielectric constant tensor:
#      x y z
#    x 4.328700 0.000000 0.030320 
#    y 0.000000 2.888750 0.000000 
#    z 0.030320 0.000000 3.604070 
# 
# 
# High freq. dielectric constant tensor:
#      x y z
#    x 1.792250 0.000000 0.005990 
#    y 0.000000 1.661970 0.000000 
#    z 0.005990 0.000000 1.776150 
# 
# From -- ./inp_files/8211.got.cif
#   From: 2010.06.25/outbox.cif.g09.slc.cpg/sg11_5_cif.got.tgz:8211.got - 2010.06.27 23:14:04.
