data_PCOD8070797
_publ_section_title
;
Structure prediction by ZEFSAII (Michael W. Deem and Ramdas Pophale) SiO2 
 PCOD8070797
Probable space group: P 21/M
;
_chemical_formula_sum "Si O2"
_cell_formula_units_Z 28
_cell_length_a 21.801044
_cell_length_b 9.021598
_cell_length_c 11.325708
_cell_angle_alpha 90.000000
_cell_angle_beta 131.954945
_cell_angle_gamma 90.000000
_cell_volume 1656.558724
_symmetry_space_group_name_H-M "P 21/M"
_symmetry_group_IT_number 11
_symmetry_cell_setting 'monoclinic'
loop_
_space_group_symop_operation_xyz
x,y,z
-x,1/2+y,-z
-x,-y,-z
x,1/2-y,z
loop_
_atom_site_type_symbol
_atom_site_label
_atom_site_fract_x
_atom_site_fract_y
_atom_site_fract_z
Si Si1 0.426752 0.077046 0.837527
Si Si2 0.764713 0.426031 0.030766
Si Si3 0.263198 0.425547 0.758581
Si Si4 0.069843 0.414715 0.740118
Si Si5 0.529399 0.579099 0.367372
Si Si6 0.914475 0.586166 0.519493
Si Si7 0.622269 0.577923 0.722922
O O1 0.437633 0.250000 0.871777
O O2 0.339268 0.023228 0.776044
O O3 0.428867 0.035504 0.702445
O O4 0.500000 0.000000 0.000000
O O5 0.765137 0.250000 0.035887
O O6 0.730971 0.488923 0.110721
O O7 0.856435 0.482422 0.118010
O O8 0.704708 0.484062 0.850783
O O9 0.262603 0.250000 0.785167
O O10 0.179361 0.469759 0.580225
O O11 0.079440 0.250000 0.805807
O O12 0.071707 0.409033 0.602232
O O13 0.981254 0.479558 0.667456
O O14 0.500172 0.750000 0.332107
O O15 0.596964 0.549282 0.555112
O O16 0.449854 0.476668 0.282778
O O17 0.926786 0.750000 0.588997
O O18 0.638950 0.750000 0.770796
#
# Coordination Sequence:
#
# PCOD8070797 Si02
#       7
#     4   4   4   4   4   4   4
#     4  10  20  33  48  68  93 121 152 185 222 264
#     4  11  20  29  44  67  94 121 152 188 225 267
#     4   9  18  31  46  65  92 124 154 184 223 271
#     4   9  16  26  41  62  89 119 149 182 223 269
#     4   9  19  34  50  68  90 118 153 189 225 267
#     4   8  14  25  40  60  87 118 149 180 218 267
#     4  10  19  32  49  67  90 119 151 189 230 268
#
# _framework density 16.902508999999998
#
# number of rings (size 3 to 8) (size 9 to 14) (size 15 to 20)
#    0.000    2.571    0.000    3.857    0.000    7.429 
#    0.000    0.000    0.000    0.000    0.000    1.000 
#    0.000    0.000    0.000    0.000    0.000    0.000 
#
# Total GULP energy -347166.581397 kJ/mol
# GULP energy per Si atom -12398.806478 kJ/mol
# Density = 1.686404 g / cm^3
# Si number density = 16.902509 Si / 1000 Ang^3
#
#
#
# Elastic Constant Matrix: (Units=GPa)
#
#
# Indices 1 2 3 4 5 6 
#
# 1 95.7760 38.4749 61.1565 0.0000 22.9832 0.0000
# 2 38.4749 92.8687 53.8278 0.0000 14.6486 0.0000
# 3 61.1565 53.8278 101.7996 0.0000 23.9814 0.0000
# 4 0.0000 0.0000 0.0000 29.3714 0.0000 7.9575
# 5 22.9832 14.6486 23.9814 0.0000 28.0238 0.0000
# 6 0.0000 0.0000 0.0000 7.9575 0.0000 20.6906
#
#
#
# Elastic Compliance Matrix: (Units=1/GPa)
#
#
# Indices 1 2 3 4 5 6 
#
# 1 0.018084 -0.001516 -0.008461 0.000000 -0.006798 0.000000
# 2 -0.001516 0.015695 -0.007200 0.000000 -0.000800 0.000000
# 3 -0.008461 -0.007200 0.020281 0.000000 -0.006652 0.000000
# 4 0.000000 0.000000 0.000000 0.038007 0.000000 -0.014617
# 5 -0.006798 -0.000800 -0.006652 0.000000 0.047370 0.000000
# 6 0.000000 0.000000 0.000000 -0.014617 0.000000 0.053953
#
#
# Mechanical properties :
#
#
# Convention : Reuss Voigt Hill
#
# Bulk Modulus (GPa) = 50.74585 66.37363 58.55974
# Shear Modulus (GPa) = 21.33904 24.74950 23.04427
#
# Velocity S-wave (km/s) = 3.55699 3.83070 3.69638
# Velocity P-wave (km/s) = 6.85255 7.67590 7.27588
#
# Compressibility (1/GPa) = 0.01970605
#
# Stress axis : x y z
#
# Youngs Moduli (GPa) = 55.29742 63.71361 49.30828
#
# Poissons Ratio (x) = 0.09656 0.41720
# Poissons Ratio (y) = 0.08381 0.35503
# Poissons Ratio (z) = 0.46788 0.45875
#
# Static dielectric constant tensor:
#      x y z
#    x 3.123550 0.000000 0.298530 
#    y 0.000000 3.280410 0.000000 
#    z 0.298530 0.000000 3.240580 
# 
# 
# High freq. dielectric constant tensor:
#      x y z
#    x 1.622450 0.000000 0.031780 
#    y 0.000000 1.657360 0.000000 
#    z 0.031780 0.000000 1.642240 
# 
# From -- ./inp_files/42591.got.cif
#   From: 2010.06.25/outbox.cif.g09.slc.cpg/sg11_22_cif.got.tgz:42591.got - 2010.06.27 23:14:04.
