data_PCOD8070885
_publ_section_title
;
Structure prediction by ZEFSAII (Michael W. Deem and Ramdas Pophale) SiO2 
 PCOD8070885
Probable space group: P 21/M
;
_chemical_formula_sum "Si O2"
_cell_formula_units_Z 32
_cell_length_a 14.358938
_cell_length_b 9.001114
_cell_length_c 15.442275
_cell_angle_alpha 90.000000
_cell_angle_beta 63.545344
_cell_angle_gamma 90.000000
_cell_volume 1786.867054
_symmetry_space_group_name_H-M "P 21/M"
_symmetry_group_IT_number 11
_symmetry_cell_setting 'monoclinic'
loop_
_space_group_symop_operation_xyz
x,y,z
-x,1/2+y,-z
-x,-y,-z
x,1/2-y,z
loop_
_atom_site_type_symbol
_atom_site_label
_atom_site_fract_x
_atom_site_fract_y
_atom_site_fract_z
Si Si1 0.738086 0.924253 0.350152
Si Si2 0.895111 0.081598 0.531737
Si Si3 0.341386 0.423793 0.098932
Si Si4 0.583935 0.421824 0.523226
Si Si5 0.148792 0.574723 0.266588
Si Si6 0.427263 0.080622 0.730020
Si Si7 0.926658 0.423342 0.330270
Si Si8 0.445598 0.923139 0.899847
O O1 0.751139 0.750000 0.357594
O O2 0.664899 0.961984 0.298615
O O3 0.690658 0.992577 0.459017
O O4 0.851989 0.999254 0.289563
O O5 0.925340 0.250000 0.532636
O O6 0.821231 0.038134 0.644174
O O7 0.859464 0.054238 0.447887
O O8 0.000000 0.000000 0.500000
O O9 0.319020 0.250000 0.101868
O O10 0.237729 0.505143 0.171564
O O11 0.434758 0.459919 0.126742
O O12 0.369500 0.483869 0.992594
O O13 0.500000 0.500000 0.500000
O O14 0.596573 0.250000 0.491858
O O15 0.542042 0.435691 0.639005
O O16 0.143147 0.750000 0.250834
O O17 0.038257 0.502605 0.286521
O O18 0.412254 0.250000 0.767994
O O19 0.421627 0.968753 0.811847
O O20 0.943282 0.250000 0.301847
O O21 0.421853 0.750000 0.922436
#
# Coordination Sequence:
#
# PCOD8070885 Si02
#       8
#     4   4   4   4   4   4   4   4
#     4  10  20  33  49  73 105 142 180 214 252 298
#     4   8  16  29  45  67  96 130 167 206 246 288
#     4  10  21  37  55  77 104 131 162 205 257 310
#     4   9  17  30  47  69  98 133 171 209 250 293
#     4  10  19  33  53  76 103 136 173 212 254 303
#     4   9  19  34  52  74 103 137 171 211 257 304
#     4  10  19  32  50  74 105 141 178 214 254 298
#     4  10  21  36  56  80 102 128 165 208 255 308
#
# _framework density 17.908439000000001
#
# number of rings (size 3 to 8) (size 9 to 14) (size 15 to 20)
#    0.000    2.500    0.000    3.000    0.000    6.500 
#    0.000    3.750    0.000    0.750    0.000    0.000 
#    0.000    0.000    0.000    0.000    0.000    0.000 
#
# Total GULP energy -396432.245000 kJ/mol
# GULP energy per Si atom -12388.507656 kJ/mol
# Density = 1.786768 g / cm^3
# Si number density = 17.908439 Si / 1000 Ang^3
#
#
#
# Elastic Constant Matrix: (Units=GPa)
#
#
# Indices 1 2 3 4 5 6 
#
# 1 87.1276 51.1939 50.2677 0.0000 -10.3238 0.0000
# 2 51.1939 105.7359 53.1034 0.0000 -7.1751 0.0000
# 3 50.2677 53.1034 90.4052 0.0000 -7.6119 0.0000
# 4 0.0000 0.0000 0.0000 32.0371 0.0000 -3.0406
# 5 -10.3238 -7.1751 -7.6119 0.0000 22.1312 0.0000
# 6 0.0000 0.0000 0.0000 -3.0406 0.0000 29.3070
#
#
#
# Elastic Compliance Matrix: (Units=1/GPa)
#
#
# Indices 1 2 3 4 5 6 
#
# 1 0.019393 -0.005462 -0.007170 0.000000 0.004810 0.000000
# 2 -0.005462 0.015015 -0.005754 0.000000 0.000341 0.000000
# 3 -0.007170 -0.005754 0.018525 0.000000 0.001162 0.000000
# 4 0.000000 0.000000 0.000000 0.031524 0.000000 0.003271
# 5 0.004810 0.000341 0.001162 0.000000 0.047939 0.000000
# 6 0.000000 0.000000 0.000000 0.003271 0.000000 0.034461
#
#
# Mechanical properties :
#
#
# Convention : Reuss Voigt Hill
#
# Bulk Modulus (GPa) = 61.87331 65.82207 63.84769
# Shear Modulus (GPa) = 23.92151 25.27534 24.59842
#
# Velocity S-wave (km/s) = 3.65878 3.76089 3.71019
# Velocity P-wave (km/s) = 7.24387 7.46282 7.35416
#
# Compressibility (1/GPa) = 0.01616206
#
# Stress axis : x y z
#
# Youngs Moduli (GPa) = 51.56387 66.59950 53.98000
#
# Poissons Ratio (x) = 0.36380 0.38702
# Poissons Ratio (y) = 0.28167 0.31059
# Poissons Ratio (z) = 0.36970 0.38320
#
# Static dielectric constant tensor:
#      x y z
#    x 3.169090 0.000000 -0.072650 
#    y 0.000000 3.450960 0.000000 
#    z -0.072650 0.000000 3.304430 
# 
# 
# High freq. dielectric constant tensor:
#      x y z
#    x 1.681800 0.000000 -0.004500 
#    y 0.000000 1.709350 0.000000 
#    z -0.004500 0.000000 1.674370 
# 
# From -- ./inp_files/51635.got.cif
#   From: 2010.06.25/outbox.cif.g09.slc.cpg/sg11_26_cif.got.tgz:51635.got - 2010.06.27 23:14:04.
