data_PCOD8070808
_publ_section_title
;
Structure prediction by ZEFSAII (Michael W. Deem and Ramdas Pophale) SiO2 
 PCOD8070808
Probable space group: P 21/M
;
_chemical_formula_sum "Si O2"
_cell_formula_units_Z 32
_cell_length_a 20.492472
_cell_length_b 8.936425
_cell_length_c 14.002597
_cell_angle_alpha 90.000000
_cell_angle_beta 46.333543
_cell_angle_gamma 90.000000
_cell_volume 1854.932637
_symmetry_space_group_name_H-M "P 21/M"
_symmetry_group_IT_number 11
_symmetry_cell_setting 'monoclinic'
loop_
_space_group_symop_operation_xyz
x,y,z
-x,1/2+y,-z
-x,-y,-z
x,1/2-y,z
loop_
_atom_site_type_symbol
_atom_site_label
_atom_site_fract_x
_atom_site_fract_y
_atom_site_fract_z
Si Si1 0.634305 0.080605 0.143178
Si Si2 0.094168 0.925249 0.426075
Si Si3 0.674411 0.573293 0.493007
Si Si4 0.621992 0.581969 0.838419
Si Si5 0.260806 0.579622 0.137346
Si Si6 0.470560 0.575342 0.227013
Si Si7 0.797984 0.916303 0.530589
Si Si8 0.401787 0.575362 0.606398
O O1 0.595864 0.250000 0.168718
O O2 0.645302 0.046301 0.243753
O O3 0.571078 0.957172 0.159246
O O4 0.729421 0.067174 0.988174
O O5 0.079537 0.750000 0.439099
O O6 0.164626 0.981370 0.272989
O O7 0.130038 0.971587 0.495066
O O8 0.000000 0.000000 0.500000
O O9 0.662712 0.750000 0.492528
O O10 0.590974 0.513141 0.637139
O O11 0.769371 0.535860 0.451271
O O12 0.670135 0.494970 0.394349
O O13 0.587022 0.750000 0.894401
O O14 0.654543 0.509267 0.903997
O O15 0.542957 0.484707 0.867961
O O16 0.705684 0.583315 0.682059
O O17 0.268813 0.750000 0.165001
O O18 0.448422 0.750000 0.253300
O O19 0.840636 0.750000 0.487693
O O20 0.500000 0.500000 0.500000
O O21 0.414757 0.750000 0.571646
#
# Coordination Sequence:
#
# PCOD8070808 Si02
#       8
#     4   4   4   4   4   4   4   4
#     4  10  21  35  48  64  93 129 167 210 250 283
#     4  10  19  32  54  80 104 127 154 190 236 296
#     4  10  19  32  49  69  98 131 166 212 256 290
#     4   9  17  30  47  66  93 127 161 201 245 286
#     4   9  19  35  51  69  94 127 164 199 237 291
#     4  11  20  29  45  67  91 126 170 208 244 289
#     4   8  16  30  48  71  98 127 158 195 241 289
#     4  11  21  32  49  70  95 130 173 218 256 292
#
# _framework density 17.251300000000001
#
# number of rings (size 3 to 8) (size 9 to 14) (size 15 to 20)
#    0.000    2.250    1.250    3.375    0.000    5.500 
#    0.000    0.000    0.000    0.000    0.000    0.875 
#    0.000    0.000    0.000    0.000    0.000    0.000 
#
# Total GULP energy -396626.391526 kJ/mol
# GULP energy per Si atom -12394.574735 kJ/mol
# Density = 1.721204 g / cm^3
# Si number density = 17.251300 Si / 1000 Ang^3
#
#
#
# Elastic Constant Matrix: (Units=GPa)
#
#
# Indices 1 2 3 4 5 6 
#
# 1 115.1133 50.5237 55.4564 0.0000 13.6761 0.0000
# 2 50.5237 88.6394 31.6436 0.0000 5.4464 0.0000
# 3 55.4564 31.6436 68.4613 0.0000 16.7500 0.0000
# 4 0.0000 0.0000 0.0000 14.9954 0.0000 1.5964
# 5 13.6761 5.4464 16.7500 0.0000 25.3040 0.0000
# 6 0.0000 0.0000 0.0000 1.5964 0.0000 33.1123
#
#
#
# Elastic Compliance Matrix: (Units=1/GPa)
#
#
# Indices 1 2 3 4 5 6 
#
# 1 0.016185 -0.005464 -0.010420 0.000000 -0.000674 0.000000
# 2 -0.005464 0.015401 -0.003107 0.000000 0.001695 0.000000
# 3 -0.010420 -0.003107 0.027376 0.000000 -0.011821 0.000000
# 4 0.000000 0.000000 0.000000 0.067031 0.000000 -0.003232
# 5 -0.000674 0.001695 -0.011821 0.000000 0.047344 0.000000
# 6 0.000000 0.000000 0.000000 -0.003232 0.000000 0.030356
#
#
# Mechanical properties :
#
#
# Convention : Reuss Voigt Hill
#
# Bulk Modulus (GPa) = 47.66603 60.82903 54.24753
# Shear Modulus (GPa) = 20.10697 23.65505 21.88101
#
# Velocity S-wave (km/s) = 3.41769 3.70699 3.56528
# Velocity P-wave (km/s) = 6.57758 7.32526 6.96147
#
# Compressibility (1/GPa) = 0.02097930
#
# Stress axis : x y z
#
# Youngs Moduli (GPa) = 61.78376 64.92973 36.52830
#
# Poissons Ratio (x) = 0.35479 0.38064
# Poissons Ratio (y) = 0.33760 0.11350
# Poissons Ratio (z) = 0.64381 0.20175
#
# Static dielectric constant tensor:
#      x y z
#    x 3.397630 0.000000 0.282010 
#    y 0.000000 3.336600 0.000000 
#    z 0.282010 0.000000 3.047250 
# 
# 
# High freq. dielectric constant tensor:
#      x y z
#    x 1.652140 0.000000 0.023350 
#    y 0.000000 1.677150 0.000000 
#    z 0.023350 0.000000 1.632170 
# 
# From -- ./inp_files/51366.got.cif
#   From: 2010.06.25/outbox.cif.g09.slc.cpg/sg11_26_cif.got.tgz:51366.got - 2010.06.27 23:14:04.
