data_PCOD8070357
_publ_section_title
;
Structure prediction by ZEFSAII (Michael W. Deem and Ramdas Pophale) SiO2 
 PCOD8070357
Probable space group: P 21/M
;
_chemical_formula_sum "Si O2"
_cell_formula_units_Z 28
_cell_length_a 28.891817
_cell_length_b 10.384883
_cell_length_c 28.542104
_cell_angle_alpha 90.000000
_cell_angle_beta 169.885178
_cell_angle_gamma 90.000000
_cell_volume 1503.972490
_symmetry_space_group_name_H-M "P 21/M"
_symmetry_group_IT_number 11
_symmetry_cell_setting 'monoclinic'
loop_
_space_group_symop_operation_xyz
x,y,z
-x,1/2+y,-z
-x,-y,-z
x,1/2-y,z
loop_
_atom_site_type_symbol
_atom_site_label
_atom_site_fract_x
_atom_site_fract_y
_atom_site_fract_z
Si Si1 0.020362 0.596233 0.315842
Si Si2 0.450933 0.901148 0.909364
Si Si3 0.470043 0.896694 0.605123
Si Si4 0.470067 0.096796 0.230414
Si Si5 0.969399 0.601774 0.368773
Si Si6 0.986638 0.960745 0.065682
Si Si7 0.289971 0.611809 0.281131
O O1 0.004000 0.750000 0.301328
O O2 0.289075 0.546800 0.560833
O O3 0.994134 0.537180 0.342084
O O4 0.789624 0.541118 0.053025
O O5 0.438017 0.750000 0.913156
O O6 0.182014 0.951963 0.617603
O O7 0.677433 0.919873 0.096728
O O8 0.500000 0.000000 0.000000
O O9 0.362635 0.750000 0.499973
O O10 0.509599 0.955434 0.696354
O O11 0.243804 0.982745 0.354708
O O12 0.750016 0.893320 0.857961
O O13 0.462832 0.250000 0.224921
O O14 0.041190 0.750000 0.434110
O O15 0.079379 0.877138 0.113494
O O16 0.867972 0.091721 0.925141
O O17 0.500000 0.500000 0.500000
O O18 0.435464 0.750000 0.422766
#
# Coordination Sequence:
#
# PCOD8070357 Si02
#       7
#     4   4   4   4   4   4   4
#     4   9  15  26  41  64  95 130 167 206 249 302
#     4  10  19  31  46  68  98 134 171 210 253 302
#     4  11  20  33  51  76 109 143 174 208 261 319
#     4   9  17  26  42  67  99 134 165 202 250 306
#     4   9  17  28  45  66  95 133 171 206 254 307
#     4  11  23  37  54  80 105 143 174 215 256 315
#     4  11  24  41  61  84 110 144 183 222 264 309
#
# _framework density 18.617362
#
# number of rings (size 3 to 8) (size 9 to 14) (size 15 to 20)
#    0.000    2.000    1.429    3.429    0.000    8.571 
#    0.000    0.000    0.000    0.000    0.000    0.000 
#    0.000   22.857    0.000    0.000    0.000    0.000 
#
# Total GULP energy -347001.631235 kJ/mol
# GULP energy per Si atom -12392.915401 kJ/mol
# Density = 1.857499 g / cm^3
# Si number density = 18.617362 Si / 1000 Ang^3
#
#
#
# Elastic Constant Matrix: (Units=GPa)
#
#
# Indices 1 2 3 4 5 6 
#
# 1 113.6594 25.1590 24.8174 0.0000 -13.7025 0.0000
# 2 25.1590 59.3785 19.5637 0.0000 -3.0301 0.0000
# 3 24.8174 19.5637 105.7556 0.0000 -10.8410 0.0000
# 4 0.0000 0.0000 0.0000 31.5937 0.0000 6.3742
# 5 -13.7025 -3.0301 -10.8410 0.0000 38.4875 0.0000
# 6 0.0000 0.0000 0.0000 6.3742 0.0000 23.0224
#
#
#
# Elastic Compliance Matrix: (Units=1/GPa)
#
#
# Indices 1 2 3 4 5 6 
#
# 1 0.010295 -0.003743 -0.001419 0.000000 0.002971 0.000000
# 2 -0.003743 0.019304 -0.002753 0.000000 -0.000588 0.000000
# 3 -0.001419 -0.002753 0.010528 0.000000 0.002244 0.000000
# 4 0.000000 0.000000 0.000000 0.033525 0.000000 -0.009282
# 5 0.002971 -0.000588 0.002244 0.000000 0.027626 0.000000
# 6 0.000000 0.000000 0.000000 -0.009282 0.000000 0.046006
#
#
# Mechanical properties :
#
#
# Convention : Reuss Voigt Hill
#
# Bulk Modulus (GPa) = 41.15704 46.43043 43.79374
# Shear Modulus (GPa) = 29.20368 32.57096 30.88732
#
# Velocity S-wave (km/s) = 3.96489 4.18723 4.07757
# Velocity P-wave (km/s) = 6.56622 6.95490 6.76335
#
# Compressibility (1/GPa) = 0.02429718
#
# Stress axis : x y z
#
# Youngs Moduli (GPa) = 97.13753 51.80275 94.98472
#
# Poissons Ratio (x) = 0.19389 0.13477
# Poissons Ratio (y) = 0.36357 0.26150
# Poissons Ratio (z) = 0.13783 0.14261
#
# Static dielectric constant tensor:
#      x y z
#    x 3.650710 0.000000 -0.110880 
#    y 0.000000 2.860930 0.000000 
#    z -0.110880 0.000000 3.637700 
# 
# 
# High freq. dielectric constant tensor:
#      x y z
#    x 1.734660 0.000000 -0.002070 
#    y 0.000000 1.640700 0.000000 
#    z -0.002070 0.000000 1.745010 
# 
# From -- ./inp_files/72406.got.cif
#   From: 2010.06.25/outbox.cif.g09.slc.cpg/sg11_37_cif.got.tgz:72406.got - 2010.06.27 23:14:04.
