data_PCOD8070572
_publ_section_title
;
Structure prediction by ZEFSAII (Michael W. Deem and Ramdas Pophale) SiO2 
 PCOD8070572
Probable space group: P 21/M
;
_chemical_formula_sum "Si O2"
_cell_formula_units_Z 24
_cell_length_a 19.911088
_cell_length_b 9.148259
_cell_length_c 9.570624
_cell_angle_alpha 90.000000
_cell_angle_beta 49.756536
_cell_angle_gamma 90.000000
_cell_volume 1330.676452
_symmetry_space_group_name_H-M "P 21/M"
_symmetry_group_IT_number 11
_symmetry_cell_setting 'monoclinic'
loop_
_space_group_symop_operation_xyz
x,y,z
-x,1/2+y,-z
-x,-y,-z
x,1/2-y,z
loop_
_atom_site_type_symbol
_atom_site_label
_atom_site_fract_x
_atom_site_fract_y
_atom_site_fract_z
Si Si1 0.773193 0.420779 0.622337
Si Si2 0.709867 0.578370 0.974304
Si Si3 0.744137 0.081032 0.349357
Si Si4 0.860080 0.581406 0.990077
Si Si5 0.973337 0.420540 0.396102
Si Si6 0.590985 0.076864 0.345813
O O1 0.761014 0.250000 0.675113
O O2 0.721067 0.517975 0.803338
O O3 0.732599 0.461740 0.526571
O O4 0.875792 0.464000 0.480644
O O5 0.688006 0.750000 0.999097
O O6 0.798668 0.543901 0.939836
O O7 0.628997 0.492295 0.152845
O O8 0.765544 0.250000 0.305354
O O9 0.655267 0.037979 0.388164
O O10 0.828849 0.002904 0.169375
O O11 0.853548 0.750000 0.037027
O O12 0.959255 0.533550 0.817884
O O13 0.982900 0.250000 0.413877
O O14 0.000000 0.500000 0.500000
O O15 0.578676 0.250000 0.343356
O O16 0.500000 0.000000 0.500000
#
# Coordination Sequence:
#
# PCOD8070572 Si02
#       6
#     4   4   4   4   4   4
#     4  10  20  34  52  76 108 142 175 215 261 305
#     4  10  19  33  54  79 107 138 175 213 257 310
#     4   9  20  36  53  76 106 138 171 212 264 315
#     4   9  18  32  49  73 104 139 179 219 254 297
#     4  10  19  31  49  74 105 140 181 221 254 296
#     4  10  20  37  60  82 104 132 170 213 260 315
#
# _framework density 18.03594
#
# number of rings (size 3 to 8) (size 9 to 14) (size 15 to 20)
#    0.000    2.333    1.667    1.000    0.000    3.333 
#    0.000    0.833    0.000    0.000    0.000    0.000 
#    0.000    0.000    0.000    0.000    0.000    0.000 
#
# Total GULP energy -297641.585109 kJ/mol
# GULP energy per Si atom -12401.732713 kJ/mol
# Density = 1.799489 g / cm^3
# Si number density = 18.035940 Si / 1000 Ang^3
#
#
#
# Elastic Constant Matrix: (Units=GPa)
#
#
# Indices 1 2 3 4 5 6 
#
# 1 71.6474 41.3151 65.6277 0.0000 -1.7787 0.0000
# 2 41.3151 74.5201 69.1329 0.0000 -2.3565 0.0000
# 3 65.6277 69.1329 155.0227 0.0000 -7.5188 0.0000
# 4 0.0000 0.0000 0.0000 39.8629 0.0000 0.2987
# 5 -1.7787 -2.3565 -7.5188 0.0000 31.1981 0.0000
# 6 0.0000 0.0000 0.0000 0.2987 0.0000 21.0278
#
#
#
# Elastic Compliance Matrix: (Units=1/GPa)
#
#
# Indices 1 2 3 4 5 6 
#
# 1 0.024691 -0.006788 -0.007469 0.000000 -0.000905 0.000000
# 2 -0.006788 0.024772 -0.008197 0.000000 -0.000491 0.000000
# 3 -0.007469 -0.008197 0.013374 0.000000 0.002178 0.000000
# 4 0.000000 0.000000 0.000000 0.025089 0.000000 -0.000356
# 5 -0.000905 -0.000491 0.002178 0.000000 0.032489 0.000000
# 6 0.000000 0.000000 0.000000 -0.000356 0.000000 0.047561
#
#
# Mechanical properties :
#
#
# Convention : Reuss Voigt Hill
#
# Bulk Modulus (GPa) = 55.78142 72.59351 64.18746
# Shear Modulus (GPa) = 22.84552 26.75872 24.80212
#
# Velocity S-wave (km/s) = 3.56289 3.85597 3.71232
# Velocity P-wave (km/s) = 6.92247 7.75638 7.35126
#
# Compressibility (1/GPa) = 0.01792712
#
# Stress axis : x y z
#
# Youngs Moduli (GPa) = 40.50047 40.36867 74.77222
#
# Poissons Ratio (x) = 0.27403 0.55851
# Poissons Ratio (y) = 0.27493 0.61291
# Poissons Ratio (z) = 0.30252 0.33091
#
# Static dielectric constant tensor:
#      x y z
#    x 3.427610 0.000000 0.062140 
#    y 0.000000 3.358060 0.000000 
#    z 0.062140 0.000000 3.508110 
# 
# 
# High freq. dielectric constant tensor:
#      x y z
#    x 1.679080 0.000000 -0.000600 
#    y 0.000000 1.700590 0.000000 
#    z -0.000600 0.000000 1.705360 
# 
# From -- ./inp_files/20365.got.cif
#   From: 2010.06.25/outbox.cif.g09.slc.cpg/sg11_11_cif.got.tgz:20365.got - 2010.06.27 23:14:04.
