data_PCOD8070958
_publ_section_title
;
Structure prediction by ZEFSAII (Michael W. Deem and Ramdas Pophale) SiO2 
 PCOD8070958
Probable space group: P 21/M
;
_chemical_formula_sum "Si O2"
_cell_formula_units_Z 32
_cell_length_a 26.255310
_cell_length_b 8.749887
_cell_length_c 14.231278
_cell_angle_alpha 90.000000
_cell_angle_beta 145.112069
_cell_angle_gamma 90.000000
_cell_volume 1869.989217
_symmetry_space_group_name_H-M "P 21/M"
_symmetry_group_IT_number 11
_symmetry_cell_setting 'monoclinic'
loop_
_space_group_symop_operation_xyz
x,y,z
-x,1/2+y,-z
-x,-y,-z
x,1/2-y,z
loop_
_atom_site_type_symbol
_atom_site_label
_atom_site_fract_x
_atom_site_fract_y
_atom_site_fract_z
Si Si1 0.406100 0.570475 0.257313
Si Si2 0.089361 0.569244 0.179679
Si Si3 0.919839 0.929348 0.438444
Si Si4 0.957065 0.569172 0.706605
Si Si5 0.217942 0.571277 0.895680
Si Si6 0.411289 0.928869 0.481608
Si Si7 0.757696 0.922716 0.707076
Si Si8 0.137374 0.077266 0.950471
O O1 0.423892 0.750000 0.275999
O O2 0.489585 0.481189 0.339816
O O3 0.392186 0.523928 0.344789
O O4 0.319620 0.519630 0.066862
O O5 0.077927 0.750000 0.167429
O O6 0.107144 0.499604 0.310509
O O7 0.176599 0.528788 0.252402
O O8 0.000000 0.500000 0.000000
O O9 0.928129 0.750000 0.440422
O O10 0.924299 0.979793 0.553731
O O11 0.823421 0.984574 0.256116
O O12 0.000000 0.000000 0.500000
O O13 0.964413 0.750000 0.728822
O O14 0.051499 0.491437 0.871344
O O15 0.211250 0.750000 0.867224
O O16 0.158795 0.532044 0.896337
O O17 0.400981 0.750000 0.481229
O O18 0.342436 0.011909 0.447507
O O19 0.760140 0.750000 0.670970
O O20 0.783584 0.925477 0.855510
O O21 0.120044 0.250000 0.888143
#
# Coordination Sequence:
#
# PCOD8070958 Si02
#       8
#     4   4   4   4   4   4   4   4
#     4   9  19  33  49  73 105 139 174 213 261 311
#     4  12  24  37  55  77 104 138 178 219 261 312
#     4  11  23  36  53  76 104 139 179 219 262 313
#     4  11  23  38  54  73 104 140 177 223 265 305
#     4  11  21  34  52  75 106 142 179 220 263 309
#     4  10  19  32  51  75 105 138 174 215 260 310
#     4  11  22  35  52  76 106 141 178 215 260 311
#     4  11  21  31  50  75 104 141 180 217 257 308
#
# _framework density 17.112397999999999
#
# number of rings (size 3 to 8) (size 9 to 14) (size 15 to 20)
#    0.000    1.250    3.750    3.375    0.000    4.000 
#    0.000    0.000    0.000    0.000    0.000    0.875 
#    0.000    0.000    0.000    0.000    0.000    0.000 
#
# Total GULP energy -396878.669466 kJ/mol
# GULP energy per Si atom -12402.458421 kJ/mol
# Density = 1.707345 g / cm^3
# Si number density = 17.112398 Si / 1000 Ang^3
#
#
#
# Elastic Constant Matrix: (Units=GPa)
#
#
# Indices 1 2 3 4 5 6 
#
# 1 87.0038 35.7531 45.2713 0.0000 3.3320 0.0000
# 2 35.7531 78.9431 40.9624 0.0000 -1.0534 0.0000
# 3 45.2713 40.9624 94.0619 0.0000 7.4428 0.0000
# 4 0.0000 0.0000 0.0000 27.6404 0.0000 3.2004
# 5 3.3320 -1.0534 7.4428 0.0000 27.3296 0.0000
# 6 0.0000 0.0000 0.0000 3.2004 0.0000 29.6723
#
#
#
# Elastic Compliance Matrix: (Units=1/GPa)
#
#
# Indices 1 2 3 4 5 6 
#
# 1 0.016400 -0.004343 -0.005959 0.000000 -0.000544 0.000000
# 2 -0.004343 0.017702 -0.005841 0.000000 0.002802 0.000000
# 3 -0.005959 -0.005841 0.016356 0.000000 -0.003953 0.000000
# 4 0.000000 0.000000 0.000000 0.036637 0.000000 -0.003952
# 5 -0.000544 0.002802 -0.003953 0.000000 0.037841 0.000000
# 6 0.000000 0.000000 0.000000 -0.003952 0.000000 0.034128
#
#
# Mechanical properties :
#
#
# Convention : Reuss Voigt Hill
#
# Bulk Modulus (GPa) = 55.02650 55.99804 55.51227
# Shear Modulus (GPa) = 25.32864 26.12992 25.72928
#
# Velocity S-wave (km/s) = 3.85142 3.91187 3.88177
# Velocity P-wave (km/s) = 7.21136 7.29372 7.25266
#
# Compressibility (1/GPa) = 0.01817306
#
# Stress axis : x y z
#
# Youngs Moduli (GPa) = 60.97642 56.49020 61.14137
#
# Poissons Ratio (x) = 0.24532 0.36433
# Poissons Ratio (y) = 0.26480 0.35711
# Poissons Ratio (z) = 0.36335 0.32994
#
# Static dielectric constant tensor:
#      x y z
#    x 3.088470 0.000000 0.024700 
#    y 0.000000 3.289720 0.000000 
#    z 0.024700 0.000000 3.277070 
# 
# 
# High freq. dielectric constant tensor:
#      x y z
#    x 1.639530 0.000000 0.009520 
#    y 0.000000 1.677580 0.000000 
#    z 0.009520 0.000000 1.644130 
# 
# From -- ./inp_files/56179.got.cif
#   From: 2010.06.25/outbox.cif.g09.slc.cpg/sg11_29_cif.got.tgz:56179.got - 2010.06.27 23:14:04.
