data_PCOD8070494
_publ_section_title
;
Structure prediction by ZEFSAII (Michael W. Deem and Ramdas Pophale) SiO2 
 PCOD8070494
Probable space group: P 21/M
;
_chemical_formula_sum "Si O2"
_cell_formula_units_Z 28
_cell_length_a 31.720708
_cell_length_b 8.986386
_cell_length_c 9.551935
_cell_angle_alpha 90.000000
_cell_angle_beta 33.897193
_cell_angle_gamma 90.000000
_cell_volume 1518.530103
_symmetry_space_group_name_H-M "P 21/M"
_symmetry_group_IT_number 11
_symmetry_cell_setting 'monoclinic'
loop_
_space_group_symop_operation_xyz
x,y,z
-x,1/2+y,-z
-x,-y,-z
x,1/2-y,z
loop_
_atom_site_type_symbol
_atom_site_label
_atom_site_fract_x
_atom_site_fract_y
_atom_site_fract_z
Si Si1 0.741049 0.423518 0.848864
Si Si2 0.682696 0.573945 0.740794
Si Si3 0.420736 0.573633 0.186838
Si Si4 0.898145 0.920339 0.394968
Si Si5 0.811959 0.924334 0.170709
Si Si6 0.041427 0.079480 0.082375
Si Si7 0.710849 0.421156 0.244644
O O1 0.740708 0.250000 0.809833
O O2 0.692861 0.515866 0.869974
O O3 0.826704 0.478206 0.624063
O O4 0.700852 0.453572 0.108321
O O5 0.669345 0.750000 0.779661
O O6 0.610240 0.493544 0.873101
O O7 0.757148 0.527654 0.448887
O O8 0.429538 0.750000 0.148546
O O9 0.364800 0.526434 0.467298
O O10 0.500000 0.500000 0.000000
O O11 0.879732 0.750000 0.483946
O O12 0.918701 0.938039 0.176789
O O13 0.967928 0.976087 0.297919
O O14 0.808471 0.750000 0.160597
O O15 0.784860 0.996113 0.100507
O O16 0.897479 0.974407 0.970782
O O17 0.017037 0.250000 0.173581
O O18 0.726166 0.250000 0.232672
#
# Coordination Sequence:
#
# PCOD8070494 Si02
#       7
#     4   4   4   4   4   4   4
#     4  11  21  35  53  77 109 144 177 217 265 315
#     4  10  19  34  56  83 109 138 177 220 260 311
#     4  10  20  38  61  86 111 139 173 214 260 311
#     4  10  19  31  48  74 105 138 178 225 270 314
#     4   9  17  32  53  76 103 135 177 224 267 312
#     4   9  17  31  48  73 104 135 176 226 272 314
#     4   9  21  37  54  78 109 140 175 215 261 315
#
# _framework density 18.438883000000001
#
# number of rings (size 3 to 8) (size 9 to 14) (size 15 to 20)
#    0.000    2.286    1.429    1.714    0.000    3.429 
#    0.000    1.429    0.000    0.000    0.000    0.000 
#    0.000    0.000    0.000    0.000    0.000    0.000 
#
# Total GULP energy -347239.936584 kJ/mol
# GULP energy per Si atom -12401.426307 kJ/mol
# Density = 1.839692 g / cm^3
# Si number density = 18.438883 Si / 1000 Ang^3
#
#
#
# Elastic Constant Matrix: (Units=GPa)
#
#
# Indices 1 2 3 4 5 6 
#
# 1 132.1588 53.4189 52.9139 0.0000 -16.7319 0.0000
# 2 53.4189 74.8419 30.1743 0.0000 -6.7276 0.0000
# 3 52.9139 30.1743 55.8635 0.0000 -12.3717 0.0000
# 4 0.0000 0.0000 0.0000 24.0039 0.0000 -4.7887
# 5 -16.7319 -6.7276 -12.3717 0.0000 28.0809 0.0000
# 6 0.0000 0.0000 0.0000 -4.7887 0.0000 37.8745
#
#
#
# Elastic Compliance Matrix: (Units=1/GPa)
#
#
# Indices 1 2 3 4 5 6 
#
# 1 0.014181 -0.006014 -0.009565 0.000000 0.002795 0.000000
# 2 -0.006014 0.019632 -0.005163 0.000000 -0.001155 0.000000
# 3 -0.009565 -0.005163 0.031264 0.000000 0.006838 0.000000
# 4 0.000000 0.000000 0.000000 0.042738 0.000000 0.005404
# 5 0.002795 -0.001155 0.006838 0.000000 0.040013 0.000000
# 6 0.000000 0.000000 0.000000 0.005404 0.000000 0.027086
#
#
# Mechanical properties :
#
#
# Convention : Reuss Voigt Hill
#
# Bulk Modulus (GPa) = 42.38654 59.54204 50.96429
# Shear Modulus (GPa) = 22.29536 26.41566 24.35551
#
# Velocity S-wave (km/s) = 3.48105 3.78909 3.63833
# Velocity P-wave (km/s) = 6.26055 7.17667 6.73420
#
# Compressibility (1/GPa) = 0.02359240
#
# Stress axis : x y z
#
# Youngs Moduli (GPa) = 70.51673 50.93697 31.98605
#
# Poissons Ratio (x) = 0.30635 0.30594
# Poissons Ratio (y) = 0.42411 0.16515
# Poissons Ratio (z) = 0.67447 0.26299
#
# Static dielectric constant tensor:
#      x y z
#    x 3.518190 0.000000 -0.071570 
#    y 0.000000 3.442780 0.000000 
#    z -0.071570 0.000000 3.251530 
# 
# 
# High freq. dielectric constant tensor:
#      x y z
#    x 1.719420 0.000000 -0.008800 
#    y 0.000000 1.721960 0.000000 
#    z -0.008800 0.000000 1.687940 
# 
# From -- ./inp_files/28018.got.cif
#   From: 2010.06.25/outbox.cif.g09.slc.cpg/sg11_15_cif.got.tgz:28018.got - 2010.06.27 23:14:04.
