data_PCOD8070205
_publ_section_title
;
Structure prediction by ZEFSAII (Michael W. Deem and Ramdas Pophale) SiO2 
 PCOD8070205
Probable space group: P 21/M
;
_chemical_formula_sum "Si O2"
_cell_formula_units_Z 32
_cell_length_a 12.496673
_cell_length_b 8.927573
_cell_length_c 23.499841
_cell_angle_alpha 90.000000
_cell_angle_beta 133.844940
_cell_angle_gamma 90.000000
_cell_volume 1890.857362
_symmetry_space_group_name_H-M "P 21/M"
_symmetry_group_IT_number 11
_symmetry_cell_setting 'monoclinic'
loop_
_space_group_symop_operation_xyz
x,y,z
-x,1/2+y,-z
-x,-y,-z
x,1/2-y,z
loop_
_atom_site_type_symbol
_atom_site_label
_atom_site_fract_x
_atom_site_fract_y
_atom_site_fract_z
Si Si1 0.892807 0.576832 0.694155
Si Si2 0.450374 0.424185 0.423575
Si Si3 0.842383 0.575367 0.153479
Si Si4 0.053378 0.427431 0.412399
Si Si5 0.615666 0.077217 0.001745
Si Si6 0.382083 0.421170 0.827566
Si Si7 0.725949 0.426634 0.321371
Si Si8 0.336495 0.071807 0.585525
O O1 0.939602 0.750000 0.712814
O O2 0.723918 0.553863 0.650097
O O3 0.918102 0.509010 0.640311
O O4 0.993537 0.487740 0.775944
O O5 0.500000 0.500000 0.500000
O O6 0.493551 0.250000 0.442109
O O7 0.527728 0.503676 0.399216
O O8 0.851288 0.750000 0.145472
O O9 0.739059 0.535213 0.169354
O O10 0.775177 0.500367 0.071122
O O11 0.059123 0.250000 0.411875
O O12 0.182073 0.486742 0.501449
O O13 0.895326 0.483894 0.377239
O O14 0.628133 0.250000 0.023052
O O15 0.550060 0.058764 0.913720
O O16 0.500000 0.000000 0.000000
O O17 0.356276 0.250000 0.798453
O O18 0.365467 0.532340 0.768655
O O19 0.717840 0.250000 0.328707
O O20 0.651596 0.512553 0.346183
O O21 0.348097 0.250000 0.588534
#
# Coordination Sequence:
#
# PCOD8070205 Si02
#       8
#     4   4   4   4   4   4   4   4
#     4  10  19  34  53  74 101 135 172 211 258 306
#     4  11  22  37  56  76 100 132 174 218 262 308
#     4  10  19  30  47  75 105 133 171 210 253 307
#     4   9  18  33  51  73 100 134 171 208 256 305
#     4   9  17  29  46  69 101 137 171 206 250 304
#     4   9  18  31  46  70 102 136 169 203 248 300
#     4  11  21  33  51  75 102 135 175 211 252 307
#     4  11  22  38  54  71 101 136 175 219 260 302
#
# _framework density 16.923539999999999
#
# number of rings (size 3 to 8) (size 9 to 14) (size 15 to 20)
#    0.000    2.000    2.500    3.000    0.000    3.500 
#    0.000    1.875    0.000    0.000    0.000    0.875 
#    0.000    0.000    0.000    0.000    0.000    0.000 
#
# Total GULP energy -396805.685026 kJ/mol
# GULP energy per Si atom -12400.177657 kJ/mol
# Density = 1.688502 g / cm^3
# Si number density = 16.923540 Si / 1000 Ang^3
#
#
#
# Elastic Constant Matrix: (Units=GPa)
#
#
# Indices 1 2 3 4 5 6 
#
# 1 85.4439 42.7945 38.5386 0.0000 -5.0950 0.0000
# 2 42.7945 95.0250 55.7702 0.0000 5.2774 0.0000
# 3 38.5386 55.7702 111.1437 0.0000 11.9610 0.0000
# 4 0.0000 0.0000 0.0000 30.5483 0.0000 0.0456
# 5 -5.0950 5.2774 11.9610 0.0000 15.5851 0.0000
# 6 0.0000 0.0000 0.0000 0.0456 0.0000 24.2460
#
#
#
# Elastic Compliance Matrix: (Units=1/GPa)
#
#
# Indices 1 2 3 4 5 6 
#
# 1 0.017176 -0.005893 -0.004162 0.000000 0.010805 0.000000
# 2 -0.005893 0.016946 -0.006142 0.000000 -0.002951 0.000000
# 3 -0.004162 -0.006142 0.014656 0.000000 -0.010528 0.000000
# 4 0.000000 0.000000 0.000000 0.032735 0.000000 -0.000062
# 5 0.010805 -0.002951 -0.010528 0.000000 0.076775 0.000000
# 6 0.000000 0.000000 0.000000 -0.000062 0.000000 0.041244
#
#
# Mechanical properties :
#
#
# Convention : Reuss Voigt Hill
#
# Bulk Modulus (GPa) = 61.03445 62.86878 61.95161
# Shear Modulus (GPa) = 21.06254 24.37650 22.71952
#
# Velocity S-wave (km/s) = 3.53167 3.79936 3.66796
# Velocity P-wave (km/s) = 7.26453 7.51507 7.39086
#
# Compressibility (1/GPa) = 0.01638419
#
# Stress axis : x y z
#
# Youngs Moduli (GPa) = 58.21949 59.00974 68.23341
#
# Poissons Ratio (x) = 0.34774 0.28396
# Poissons Ratio (y) = 0.34309 0.41912
# Poissons Ratio (z) = 0.24228 0.36247
#
# Static dielectric constant tensor:
#      x y z
#    x 3.476060 0.000000 0.052720 
#    y 0.000000 3.209960 0.000000 
#    z 0.052720 0.000000 3.443640 
# 
# 
# High freq. dielectric constant tensor:
#      x y z
#    x 1.614410 0.000000 0.008780 
#    y 0.000000 1.657020 0.000000 
#    z 0.008780 0.000000 1.658860 
# 
# From -- ./inp_files/42740.got.cif
#   From: 2010.06.25/outbox.cif.g09.slc.cpg/sg11_22_cif.got.tgz:42740.got - 2010.06.27 23:14:04.
