data_PCOD8070972
_publ_section_title
;
Structure prediction by ZEFSAII (Michael W. Deem and Ramdas Pophale) SiO2 
 PCOD8070972
Probable space group: P 21/M
;
_chemical_formula_sum "Si O2"
_cell_formula_units_Z 32
_cell_length_a 24.170635
_cell_length_b 9.519536
_cell_length_c 24.170621
_cell_angle_alpha 90.000000
_cell_angle_beta 18.448655
_cell_angle_gamma 90.000000
_cell_volume 1759.961624
_symmetry_space_group_name_H-M "P 21/M"
_symmetry_group_IT_number 11
_symmetry_cell_setting 'monoclinic'
loop_
_space_group_symop_operation_xyz
x,y,z
-x,1/2+y,-z
-x,-y,-z
x,1/2-y,z
loop_
_atom_site_type_symbol
_atom_site_label
_atom_site_fract_x
_atom_site_fract_y
_atom_site_fract_z
Si Si1 0.021870 0.092645 0.925545
Si Si2 0.425545 0.407355 0.521869
Si Si3 0.276718 0.087863 0.168771
Si Si4 0.526606 0.915868 0.645164
Si Si5 0.145161 0.915868 0.026609
Si Si6 0.931030 0.413528 0.431023
Si Si7 0.125743 0.082216 0.625740
Si Si8 0.331214 0.587862 0.223294
O O1 0.955669 0.250000 0.002299
O O2 0.911669 0.024778 0.979540
O O3 0.218793 0.096346 0.718793
O O4 0.000000 0.000000 0.000000
O O5 0.500000 0.500000 0.500000
O O6 0.502300 0.250000 0.455668
O O7 0.479542 0.475222 0.411668
O O8 0.264298 0.250000 0.197780
O O9 0.120480 0.047501 0.275898
O O10 0.253790 0.999997 0.246207
O O11 0.462851 0.054278 0.962836
O O12 0.549383 0.750000 0.618190
O O13 0.689391 0.973870 0.525808
O O14 0.346750 0.957964 0.846753
O O15 0.118189 0.750000 0.049385
O O16 0.025804 0.973871 0.189395
O O17 0.922461 0.250000 0.422477
O O18 0.904170 0.510876 0.404174
O O19 0.775922 0.452509 0.620462
O O20 0.121994 0.250000 0.621993
O O21 0.302203 0.750000 0.235720
#
# Coordination Sequence:
#
# PCOD8070972 Si02
#       8
#     4   4   4   4   4   4   4   4
#     4  10  19  32  51  76 104 131 164 207 256 314
#     4  10  19  32  51  76 104 131 164 207 256 314
#     4   9  18  33  53  77 106 138 171 208 252 301
#     4   9  17  32  53  73  97 129 164 208 259 301
#     4   9  17  32  53  73  97 129 164 208 259 301
#     4  10  21  35  51  74 106 140 170 206 260 306
#     4  10  20  35  53  74  97 130 178 218 246 298
#     4   9  18  33  53  77 106 138 171 208 252 301
#
# _framework density 18.182214999999999
#
# number of rings (size 3 to 8) (size 9 to 14) (size 15 to 20)
#    0.000    2.500    1.250    1.125    0.000    3.500 
#    0.000    1.250    0.000    1.500    0.000    0.000 
#    0.000    0.000    0.000    0.000    0.000    0.000 
#
# Total GULP energy -396750.251852 kJ/mol
# GULP energy per Si atom -12398.445370 kJ/mol
# Density = 1.814083 g / cm^3
# Si number density = 18.182215 Si / 1000 Ang^3
#
#
#
# Elastic Constant Matrix: (Units=GPa)
#
#
# Indices 1 2 3 4 5 6 
#
# 1 156.0030 55.8358 83.9276 0.0000 2.9209 0.0000
# 2 55.8358 47.7786 35.7886 0.0000 3.6474 0.0000
# 3 83.9276 35.7886 139.7738 0.0000 0.0249 0.0000
# 4 0.0000 0.0000 0.0000 16.3886 0.0000 3.2482
# 5 2.9209 3.6474 0.0249 0.0000 28.5289 0.0000
# 6 0.0000 0.0000 0.0000 3.2482 0.0000 34.2410
#
#
#
# Elastic Compliance Matrix: (Units=1/GPa)
#
#
# Indices 1 2 3 4 5 6 
#
# 1 0.013324 -0.011866 -0.004962 0.000000 0.000157 0.000000
# 2 -0.011866 0.036779 -0.002292 0.000000 -0.003485 0.000000
# 3 -0.004962 -0.002292 0.010721 0.000000 0.000792 0.000000
# 4 0.000000 0.000000 0.000000 0.062187 0.000000 -0.005899
# 5 0.000157 -0.003485 0.000792 0.000000 0.035481 0.000000
# 6 0.000000 0.000000 0.000000 -0.005899 0.000000 0.029764
#
#
# Mechanical properties :
#
#
# Convention : Reuss Voigt Hill
#
# Bulk Modulus (GPa) = 44.27839 77.18438 60.73139
# Shear Modulus (GPa) = 21.36541 27.03192 24.19866
#
# Velocity S-wave (km/s) = 3.43165 3.85999 3.65210
# Velocity P-wave (km/s) = 6.33302 7.89991 7.15946
#
# Compressibility (1/GPa) = 0.02258438
#
# Stress axis : x y z
#
# Youngs Moduli (GPa) = 75.05481 27.18928 93.27846
#
# Poissons Ratio (x) = 0.32262 0.46286
# Poissons Ratio (y) = 0.89057 0.21378
# Poissons Ratio (z) = 0.37243 0.06231
#
# Static dielectric constant tensor:
#      x y z
#    x 2.345970 0.000000 -0.234260 
#    y 0.000000 3.030070 0.000000 
#    z -0.234260 0.000000 3.633360 
# 
# 
# High freq. dielectric constant tensor:
#      x y z
#    x 1.700410 0.000000 -0.004470 
#    y 0.000000 1.669210 0.000000 
#    z -0.004470 0.000000 1.725000 
# 
# From -- ./inp_files/69985.got.cif
#   From: 2010.06.25/outbox.cif.g09.slc.cpg/sg11_35_cif.got.tgz:69985.got - 2010.06.27 23:14:04.
