data_PCOD8070312
_publ_section_title
;
Structure prediction by ZEFSAII (Michael W. Deem and Ramdas Pophale) SiO2 
 PCOD8070312
Probable space group: P 21/M
;
_chemical_formula_sum "Si O2"
_cell_formula_units_Z 28
_cell_length_a 20.309598
_cell_length_b 10.493996
_cell_length_c 12.360963
_cell_angle_alpha 90.000000
_cell_angle_beta 34.657239
_cell_angle_gamma 90.000000
_cell_volume 1498.137326
_symmetry_space_group_name_H-M "P 21/M"
_symmetry_group_IT_number 11
_symmetry_cell_setting 'monoclinic'
loop_
_space_group_symop_operation_xyz
x,y,z
-x,1/2+y,-z
-x,-y,-z
x,1/2-y,z
loop_
_atom_site_type_symbol
_atom_site_label
_atom_site_fract_x
_atom_site_fract_y
_atom_site_fract_z
Si Si1 0.005381 0.999741 0.804014
Si Si2 0.884654 0.114990 0.153189
Si Si3 0.231716 0.394148 0.400359
Si Si4 0.352204 0.101131 0.016127
Si Si5 0.779299 0.896398 0.017421
Si Si6 0.286825 0.393523 0.657531
Si Si7 0.449818 0.103552 0.252541
O O1 0.030902 0.887273 0.856385
O O2 0.903448 0.963658 0.858911
O O3 0.119001 0.024275 0.580112
O O4 0.960154 0.115308 0.940744
O O5 0.816503 0.250000 0.246963
O O6 0.799958 0.994740 0.278118
O O7 0.199012 0.250000 0.470958
O O8 0.259814 0.413368 0.236539
O O9 0.341651 0.433703 0.323454
O O10 0.394788 0.250000 0.950482
O O11 0.292145 0.050812 0.987717
O O12 0.455614 0.003302 0.900790
O O13 0.805009 0.750000 0.961433
O O14 0.701548 0.919561 0.230090
O O15 0.238617 0.250000 0.702202
O O16 0.410825 0.407572 0.431088
O O17 0.492112 0.250000 0.171025
#
# Coordination Sequence:
#
# PCOD8070312 Si02
#       7
#     4   4   4   4   4   4   4
#     4  10  19  32  53  79 112 146 174 211 271 331
#     4  10  19  30  51  85 113 134 172 225 267 313
#     4  10  20  36  57  80 107 144 182 221 272 322
#     4  10  22  39  57  77 107 146 188 227 261 311
#     4   9  19  36  54  78 112 148 179 214 268 325
#     4   9  18  34  57  79 108 146 174 211 276 333
#     4  10  20  37  58  80 105 140 183 227 277 322
#
# _framework density 18.689874
#
# number of rings (size 3 to 8) (size 9 to 14) (size 15 to 20)
#    0.000    2.286    1.429    1.286    0.000    5.143 
#    0.000    5.000    0.000    0.000    0.000    0.000 
#    0.000    0.000    0.000    0.000    0.000    0.000 
#
# Total GULP energy -346969.823155 kJ/mol
# GULP energy per Si atom -12391.779398 kJ/mol
# Density = 1.864734 g / cm^3
# Si number density = 18.689874 Si / 1000 Ang^3
#
#
#
# Elastic Constant Matrix: (Units=GPa)
#
#
# Indices 1 2 3 4 5 6 
#
# 1 67.9591 13.6198 17.9922 0.0000 10.6633 0.0000
# 2 13.6198 83.4416 25.1988 0.0000 -6.7852 0.0000
# 3 17.9922 25.1988 70.1854 0.0000 2.5073 0.0000
# 4 0.0000 0.0000 0.0000 14.4424 0.0000 -12.7132
# 5 10.6633 -6.7852 2.5073 0.0000 22.4842 0.0000
# 6 0.0000 0.0000 0.0000 -12.7132 0.0000 8.4867
#
#
#
# Elastic Compliance Matrix: (Units=1/GPa)
#
#
# Indices 1 2 3 4 5 6 
#
# 1 0.017453 -0.002578 -0.003238 0.000000 -0.008694 0.000000
# 2 -0.002578 0.014317 -0.004696 0.000000 0.006067 0.000000
# 3 -0.003238 -0.004696 0.016827 0.000000 -0.001758 0.000000
# 4 0.000000 0.000000 0.000000 -0.217293 0.000000 -0.325507
# 5 -0.008694 0.006067 -0.001758 0.000000 0.050626 0.000000
# 6 0.000000 0.000000 0.000000 -0.325507 0.000000 -0.369781
#
#
# Mechanical properties :
#
#
# Convention : Reuss Voigt Hill
#
# Bulk Modulus (GPa) = 36.26786 37.24532 36.75659
# Shear Modulus (GPa) = -10.92567 20.06769 4.57101
#
# Velocity S-wave (km/s) = -2.42043 3.28032 1.56558
# Velocity P-wave (km/s) = 3.41115 5.85821 4.79346
#
# Compressibility (1/GPa) = 0.02757262
#
# Stress axis : x y z
#
# Youngs Moduli (GPa) = 57.29753 69.84855 59.42883
#
# Poissons Ratio (x) = 0.18006 0.19243
# Poissons Ratio (y) = 0.14771 0.27908
# Poissons Ratio (z) = 0.18553 0.32801
#
# Static dielectric constant tensor:
#      x y z
#    x 3.411260 0.000000 0.218880 
#    y 0.000000 3.379840 0.000000 
#    z 0.218880 0.000000 3.361570 
# 
# 
# High freq. dielectric constant tensor:
#      x y z
#    x 1.713810 0.000000 0.015630 
#    y 0.000000 1.717670 0.000000 
#    z 0.015630 0.000000 1.718920 
# 
# From -- ./inp_files/43218.got.cif
#   From: 2010.06.25/outbox.cif.g09.slc.cpg/sg11_22_cif.got.tgz:43218.got - 2010.06.27 23:14:04.
