data_PCOD8070328
_publ_section_title
;
Structure prediction by ZEFSAII (Michael W. Deem and Ramdas Pophale) SiO2 
 PCOD8070328
Probable space group: P 21/M
;
_chemical_formula_sum "Si O2"
_cell_formula_units_Z 28
_cell_length_a 11.884971
_cell_length_b 9.867300
_cell_length_c 16.567954
_cell_angle_alpha 90.000000
_cell_angle_beta 105.395425
_cell_angle_gamma 90.000000
_cell_volume 1873.246380
_symmetry_space_group_name_H-M "P 21/M"
_symmetry_group_IT_number 11
_symmetry_cell_setting 'monoclinic'
loop_
_space_group_symop_operation_xyz
x,y,z
-x,1/2+y,-z
-x,-y,-z
x,1/2-y,z
loop_
_atom_site_type_symbol
_atom_site_label
_atom_site_fract_x
_atom_site_fract_y
_atom_site_fract_z
Si Si1 0.426153 0.901331 0.092568
Si Si2 0.670027 0.901568 0.045520
Si Si3 0.429457 0.091534 0.547789
Si Si4 0.558393 0.910520 0.269596
Si Si5 0.021494 0.405934 0.621963
Si Si6 0.216615 0.410803 0.775007
Si Si7 0.842610 0.596448 0.515957
O O1 0.372828 0.750000 0.082246
O O2 0.547241 0.901690 0.067834
O O3 0.451821 0.951085 0.189292
O O4 0.332750 0.000567 0.032680
O O5 0.699318 0.750000 0.020626
O O6 0.767970 0.954448 0.128116
O O7 0.458968 0.250000 0.540379
O O8 0.466485 0.040739 0.644269
O O9 0.293344 0.063301 0.508813
O O10 0.500000 0.000000 0.500000
O O11 0.573288 0.750000 0.272645
O O12 0.679423 0.975024 0.259538
O O13 0.981423 0.250000 0.620742
O O14 0.906744 0.497429 0.591202
O O15 0.090933 0.454511 0.715581
O O16 0.109846 0.427804 0.564747
O O17 0.228663 0.250000 0.772039
O O18 0.866948 0.750000 0.548215
#
# Coordination Sequence:
#
# PCOD8070328 Si02
#       7
#     4   4   4   4   4   4   4
#     4   8  13  21  34  50  70  99 132 158 184 226
#     4   8  13  20  32  51  75 100 126 156 188 223
#     4  10  19  31  45  59  79 107 140 174 205 237
#     4   8  13  24  40  54  72 104 139 163 190 235
#     4   9  15  25  43  61  78 103 137 168 192 234
#     4   8  12  21  38  57  76 104 137 159 184 233
#     4   9  17  28  41  58  80 105 132 166 208 240
#
# _framework density 14.947312
#
# number of rings (size 3 to 8) (size 9 to 14) (size 15 to 20)
#    0.000    3.429    1.429    1.714    0.000    0.571 
#    0.000    1.429    0.000    1.714    0.000    0.000 
#    0.000    1.143    0.000    2.571    0.000    4.571 
#
# Total GULP energy -346945.923682 kJ/mol
# GULP energy per Si atom -12390.925846 kJ/mol
# Density = 1.491329 g / cm^3
# Si number density = 14.947312 Si / 1000 Ang^3
#
#
#
# Elastic Constant Matrix: (Units=GPa)
#
#
# Indices 1 2 3 4 5 6 
#
# 1 42.5539 31.7738 41.3755 0.0000 6.1120 0.0000
# 2 31.7738 63.0614 61.8096 0.0000 12.1531 0.0000
# 3 41.3755 61.8096 146.3137 0.0000 23.6616 0.0000
# 4 0.0000 0.0000 0.0000 24.9731 0.0000 3.4127
# 5 6.1120 12.1531 23.6616 0.0000 18.6963 0.0000
# 6 0.0000 0.0000 0.0000 3.4127 0.0000 18.2338
#
#
#
# Elastic Compliance Matrix: (Units=1/GPa)
#
#
# Indices 1 2 3 4 5 6 
#
# 1 0.039702 -0.015582 -0.005260 0.000000 0.003807 0.000000
# 2 -0.015582 0.033410 -0.008826 0.000000 -0.005454 0.000000
# 3 -0.005260 -0.008826 0.013635 0.000000 -0.009800 0.000000
# 4 0.000000 0.000000 0.000000 0.041094 0.000000 -0.007691
# 5 0.003807 -0.005454 -0.009800 0.000000 0.068190 0.000000
# 6 0.000000 0.000000 0.000000 -0.007691 0.000000 0.056283
#
#
# Mechanical properties :
#
#
# Convention : Reuss Voigt Hill
#
# Bulk Modulus (GPa) = 36.48045 57.98297 47.23171
# Shear Modulus (GPa) = 15.58669 20.17866 17.88268
#
# Velocity S-wave (km/s) = 3.23271 3.67820 3.46263
# Velocity P-wave (km/s) = 6.19620 7.54418 6.90317
#
# Compressibility (1/GPa) = 0.02741194
#
# Stress axis : x y z
#
# Youngs Moduli (GPa) = 25.18772 29.93126 73.33871
#
# Poissons Ratio (x) = 0.46638 0.38579
# Poissons Ratio (y) = 0.39247 0.64726
# Poissons Ratio (z) = 0.13250 0.26416
#
# Static dielectric constant tensor:
#      x y z
#    x 2.463760 0.000000 0.245490 
#    y 0.000000 2.776810 0.000000 
#    z 0.245490 0.000000 3.317590 
# 
# 
# High freq. dielectric constant tensor:
#      x y z
#    x 1.514770 0.000000 0.024730 
#    y 0.000000 1.548610 0.000000 
#    z 0.024730 0.000000 1.581320 
# 
# From -- ./inp_files/38697.got.cif
#   From: 2010.06.25/outbox.cif.g09.slc.cpg/sg11_20_cif.got.tgz:38697.got - 2010.06.27 23:14:04.
