data_PCOD8070753
_publ_section_title
;
Structure prediction by ZEFSAII (Michael W. Deem and Ramdas Pophale) SiO2 
 PCOD8070753
Probable space group: P 21/M
;
_chemical_formula_sum "Si O2"
_cell_formula_units_Z 32
_cell_length_a 25.173633
_cell_length_b 9.022709
_cell_length_c 20.053840
_cell_angle_alpha 90.000000
_cell_angle_beta 156.779783
_cell_angle_gamma 90.000000
_cell_volume 1795.849530
_symmetry_space_group_name_H-M "P 21/M"
_symmetry_group_IT_number 11
_symmetry_cell_setting 'monoclinic'
loop_
_space_group_symop_operation_xyz
x,y,z
-x,1/2+y,-z
-x,-y,-z
x,1/2-y,z
loop_
_atom_site_type_symbol
_atom_site_label
_atom_site_fract_x
_atom_site_fract_y
_atom_site_fract_z
Si Si1 0.161152 0.418524 0.739772
Si Si2 0.104602 0.423864 0.032672
Si Si3 0.851014 0.925109 0.060516
Si Si4 0.650761 0.577138 0.422397
Si Si5 0.166486 0.421327 0.247744
Si Si6 0.897575 0.921547 0.475240
Si Si7 0.368789 0.078379 0.089629
Si Si8 0.854360 0.425899 0.556872
O O1 0.108746 0.250000 0.690164
O O2 0.182837 0.450818 0.686470
O O3 0.051764 0.527702 0.644999
O O4 0.302441 0.441504 0.940261
O O5 0.082436 0.250000 0.003833
O O6 0.179547 0.475450 0.051245
O O7 0.189054 0.470568 0.196242
O O8 0.956217 0.490935 0.861787
O O9 0.853371 0.750000 0.071494
O O10 0.733665 0.986499 0.972750
O O11 0.997664 0.985125 0.251445
O O12 0.656795 0.750000 0.411820
O O13 0.700372 0.546591 0.555550
O O14 0.499890 0.521032 0.243142
O O15 0.743743 0.490033 0.478599
O O16 0.125907 0.250000 0.203365
O O17 0.896377 0.750000 0.493928
O O18 0.823290 0.015176 0.446769
O O19 0.405546 0.250000 0.145644
O O20 0.843710 0.250000 0.546023
#
# Coordination Sequence:
#
# PCOD8070753 Si02
#       8
#     4   4   4   4   4   4   4   4
#     4   9  18  34  54  78 110 143 180 218 260 317
#     4   9  16  30  53  79 103 134 175 217 260 311
#     4   9  17  31  55  81 103 131 178 224 255 301
#     4  11  23  37  51  77 112 144 176 219 273 323
#     4   9  18  31  49  75 109 139 168 214 268 314
#     4  10  19  31  53  84 112 138 170 221 275 316
#     4  10  20  37  56  76 104 143 183 219 258 312
#     4  11  20  35  57  81 106 139 181 224 264 315
#
# _framework density 17.818866
#
# number of rings (size 3 to 8) (size 9 to 14) (size 15 to 20)
#    0.000    2.250    2.500    1.125    0.000    1.500 
#    0.000    1.875    0.000    0.000    0.000    0.000 
#    0.000    0.000    0.000    0.000    0.000    0.000 
#
# Total GULP energy -396720.562816 kJ/mol
# GULP energy per Si atom -12397.517588 kJ/mol
# Density = 1.777831 g / cm^3
# Si number density = 17.818866 Si / 1000 Ang^3
#
#
#
# Elastic Constant Matrix: (Units=GPa)
#
#
# Indices 1 2 3 4 5 6 
#
# 1 136.5119 44.5000 67.2257 0.0000 -9.6669 0.0000
# 2 44.5000 62.0815 40.5886 0.0000 -3.9034 0.0000
# 3 67.2257 40.5886 105.2708 0.0000 -5.8264 0.0000
# 4 0.0000 0.0000 0.0000 24.1438 0.0000 1.7780
# 5 -9.6669 -3.9034 -5.8264 0.0000 28.3843 0.0000
# 6 0.0000 0.0000 0.0000 1.7780 0.0000 25.7780
#
#
#
# Elastic Compliance Matrix: (Units=1/GPa)
#
#
# Indices 1 2 3 4 5 6 
#
# 1 0.011744 -0.004620 -0.005596 0.000000 0.002216 0.000000
# 2 -0.004620 0.023400 -0.006049 0.000000 0.000403 0.000000
# 3 -0.005596 -0.006049 0.015429 0.000000 0.000429 0.000000
# 4 0.000000 0.000000 0.000000 0.041630 0.000000 -0.002871
# 5 0.002216 0.000403 0.000429 0.000000 0.036129 0.000000
# 6 0.000000 0.000000 0.000000 -0.002871 0.000000 0.038991
#
#
# Mechanical properties :
#
#
# Convention : Reuss Voigt Hill
#
# Bulk Modulus (GPa) = 55.42560 67.61030 61.51795
# Shear Modulus (GPa) = 24.28750 25.76457 25.02604
#
# Velocity S-wave (km/s) = 3.69592 3.80664 3.75169
# Velocity P-wave (km/s) = 7.02749 7.57273 7.30520
#
# Compressibility (1/GPa) = 0.01804220
#
# Stress axis : x y z
#
# Youngs Moduli (GPa) = 85.14995 42.73481 64.81377
#
# Poissons Ratio (x) = 0.19745 0.36267
# Poissons Ratio (y) = 0.39343 0.39208
# Poissons Ratio (z) = 0.47646 0.25852
#
# Static dielectric constant tensor:
#      x y z
#    x 3.692780 0.000000 -0.302300 
#    y 0.000000 3.244380 0.000000 
#    z -0.302300 0.000000 3.221220 
# 
# 
# High freq. dielectric constant tensor:
#      x y z
#    x 1.697150 0.000000 -0.025180 
#    y 0.000000 1.682180 0.000000 
#    z -0.025180 0.000000 1.668020 
# 
# From -- ./inp_files/67289.got.cif
#   From: 2010.06.25/outbox.cif.g09.slc.cpg/sg11_34_cif.got.tgz:67289.got - 2010.06.27 23:14:04.
