data_PCOD8070458
_publ_section_title
;
Structure prediction by ZEFSAII (Michael W. Deem and Ramdas Pophale) SiO2 
 PCOD8070458
Probable space group: P 21/M
;
_chemical_formula_sum "Si O2"
_cell_formula_units_Z 28
_cell_length_a 8.559178
_cell_length_b 9.978932
_cell_length_c 32.130332
_cell_angle_alpha 90.000000
_cell_angle_beta 144.711220
_cell_angle_gamma 90.000000
_cell_volume 1585.375135
_symmetry_space_group_name_H-M "P 21/M"
_symmetry_group_IT_number 11
_symmetry_cell_setting 'monoclinic'
loop_
_space_group_symop_operation_xyz
x,y,z
-x,1/2+y,-z
-x,-y,-z
x,1/2-y,z
loop_
_atom_site_type_symbol
_atom_site_label
_atom_site_fract_x
_atom_site_fract_y
_atom_site_fract_z
Si Si1 0.256318 0.906513 0.564577
Si Si2 0.303382 0.095313 0.645146
Si Si3 0.829888 0.105622 0.089368
Si Si4 0.325715 0.898817 0.488187
Si Si5 0.284449 0.603777 0.100849
Si Si6 0.686222 0.532394 0.976700
Si Si7 0.710038 0.405828 0.806718
O O1 0.187465 0.750000 0.561772
O O2 0.421574 0.905531 0.557283
O O3 0.415372 0.986454 0.635728
O O4 0.000000 0.000000 0.500000
O O5 0.341775 0.250000 0.638009
O O6 0.463306 0.068168 0.722236
O O7 0.989745 0.065264 0.585504
O O8 0.975866 0.250000 0.123927
O O9 0.563144 0.116529 0.059914
O O10 0.027440 0.990584 0.149944
O O11 0.747092 0.085518 0.023105
O O12 0.378108 0.750000 0.482052
O O13 0.500000 0.000000 0.500000
O O14 0.410484 0.750000 0.122264
O O15 0.397647 0.517593 0.087424
O O16 0.380796 0.546144 0.166715
O O17 0.958171 0.618192 0.030288
O O18 0.796708 0.250000 0.826242
#
# Coordination Sequence:
#
# PCOD8070458 Si02
#       7
#     4   4   4   4   4   4   4
#     4   9  17  30  50  75  99 125 158 194 230 274
#     4   9  18  34  52  71  97 129 163 198 239 288
#     4  10  19  31  48  71  98 126 161 204 248 292
#     4   9  18  31  49  74 101 125 155 195 237 280
#     4   9  16  29  48  69  93 124 162 200 242 290
#     4   9  18  29  46  70  96 126 160 202 248 291
#     4   9  19  34  51  70  95 127 162 201 244 292
#
# _framework density 17.661435999999998
#
# number of rings (size 3 to 8) (size 9 to 14) (size 15 to 20)
#    0.000    2.857    0.000    2.143    0.000    7.429 
#    0.000    2.143    0.000    3.429    0.000    0.000 
#    0.000    0.000    0.000    0.000    0.000    0.000 
#
# Total GULP energy -346883.950779 kJ/mol
# GULP energy per Si atom -12388.712528 kJ/mol
# Density = 1.762124 g / cm^3
# Si number density = 17.661436 Si / 1000 Ang^3
#
#
#
# Elastic Constant Matrix: (Units=GPa)
#
#
# Indices 1 2 3 4 5 6 
#
# 1 81.3236 45.6205 37.7646 0.0000 -14.6986 0.0000
# 2 45.6205 112.9047 45.3143 0.0000 -11.4361 0.0000
# 3 37.7646 45.3143 103.9476 0.0000 -22.2185 0.0000
# 4 0.0000 0.0000 0.0000 23.3725 0.0000 -2.3469
# 5 -14.6986 -11.4361 -22.2185 0.0000 22.3516 0.0000
# 6 0.0000 0.0000 0.0000 -2.3469 0.0000 20.8929
#
#
#
# Elastic Compliance Matrix: (Units=1/GPa)
#
#
# Indices 1 2 3 4 5 6 
#
# 1 0.017739 -0.005437 -0.002763 0.000000 0.006137 0.000000
# 2 -0.005437 0.012422 -0.003613 0.000000 -0.000812 0.000000
# 3 -0.002763 -0.003613 0.014495 0.000000 0.010744 0.000000
# 4 0.000000 0.000000 0.000000 0.043273 0.000000 0.004861
# 5 0.006137 -0.000812 0.010744 0.000000 0.059040 0.000000
# 6 0.000000 0.000000 0.000000 0.004861 0.000000 0.048409
#
#
# Mechanical properties :
#
#
# Convention : Reuss Voigt Hill
#
# Bulk Modulus (GPa) = 47.55067 61.73053 54.64060
# Shear Modulus (GPa) = 22.12247 24.62184 23.37215
#
# Velocity S-wave (km/s) = 3.54303 3.73782 3.64173
# Velocity P-wave (km/s) = 6.61206 7.32505 6.97767
#
# Compressibility (1/GPa) = 0.02103020
#
# Stress axis : x y z
#
# Youngs Moduli (GPa) = 56.37373 80.50247 68.98710
#
# Poissons Ratio (x) = 0.43771 0.19058
# Poissons Ratio (y) = 0.30652 0.24927
# Poissons Ratio (z) = 0.15573 0.29088
#
# Static dielectric constant tensor:
#      x y z
#    x 3.198370 0.000000 -0.345120 
#    y 0.000000 3.406340 0.000000 
#    z -0.345120 0.000000 3.318730 
# 
# 
# High freq. dielectric constant tensor:
#      x y z
#    x 1.665280 0.000000 -0.025080 
#    y 0.000000 1.688050 0.000000 
#    z -0.025080 0.000000 1.661780 
# 
# From -- ./inp_files/72762.got.cif
#   From: 2010.06.25/outbox.cif.g09.slc.cpg/sg11_37_cif.got.tgz:72762.got - 2010.06.27 23:14:04.
