data_PCOD8070664
_publ_section_title
;
Structure prediction by ZEFSAII (Michael W. Deem and Ramdas Pophale) SiO2 
 PCOD8070664
Probable space group: P 21/M
;
_chemical_formula_sum "Si O2"
_cell_formula_units_Z 28
_cell_length_a 29.793174
_cell_length_b 9.205301
_cell_length_c 10.238598
_cell_angle_alpha 90.000000
_cell_angle_beta 33.443465
_cell_angle_gamma 90.000000
_cell_volume 1547.521266
_symmetry_space_group_name_H-M "P 21/M"
_symmetry_group_IT_number 11
_symmetry_cell_setting 'monoclinic'
loop_
_space_group_symop_operation_xyz
x,y,z
-x,1/2+y,-z
-x,-y,-z
x,1/2-y,z
loop_
_atom_site_type_symbol
_atom_site_label
_atom_site_fract_x
_atom_site_fract_y
_atom_site_fract_z
Si Si1 0.801850 0.582337 0.981395
Si Si2 0.925561 0.920873 0.906107
Si Si3 0.347997 0.920917 0.553176
Si Si4 0.833800 0.578447 0.387247
Si Si5 0.500115 0.581450 0.863814
Si Si6 0.090394 0.082076 0.527203
Si Si7 0.679517 0.085094 0.681617
O O1 0.777613 0.750000 0.063704
O O2 0.722526 0.482034 0.182984
O O3 0.866868 0.531527 0.931419
O O4 0.838336 0.557425 0.749941
O O5 0.940006 0.750000 0.872501
O O6 0.886704 0.976096 0.136099
O O7 0.011641 0.995228 0.673186
O O8 0.358695 0.750000 0.548973
O O9 0.326924 0.960501 0.454659
O O10 0.432452 0.001424 0.389775
O O11 0.824221 0.750000 0.410696
O O12 0.878117 0.522882 0.410226
O O13 0.743239 0.515086 0.601520
O O14 0.523685 0.750000 0.825912
O O15 0.500000 0.500000 0.000000
O O16 0.407861 0.567912 0.032888
O O17 0.065697 0.250000 0.596274
O O18 0.710362 0.250000 0.615385
#
# Coordination Sequence:
#
# PCOD8070664 Si02
#       7
#     4   4   4   4   4   4   4
#     4  10  20  35  53  74 103 136 170 210 257 304
#     4  10  20  34  53  75  98 132 175 213 254 304
#     4  10  19  31  50  78 105 133 171 210 256 304
#     4  10  20  34  52  75 103 134 171 210 252 303
#     4   9  17  29  47  75 108 136 167 209 256 302
#     4  10  22  36  51  74 103 136 170 210 259 304
#     4   9  18  31  49  76 104 132 167 206 251 298
#
# _framework density 18.093451000000002
#
# number of rings (size 3 to 8) (size 9 to 14) (size 15 to 20)
#    0.000    2.286    1.429    2.571    0.000    5.143 
#    0.000    0.000    0.000    0.857    0.000    0.000 
#    0.000    0.000    0.000    0.000    0.000    0.000 
#
# Total GULP energy -347209.510863 kJ/mol
# GULP energy per Si atom -12400.339674 kJ/mol
# Density = 1.805227 g / cm^3
# Si number density = 18.093451 Si / 1000 Ang^3
#
#
#
# Elastic Constant Matrix: (Units=GPa)
#
#
# Indices 1 2 3 4 5 6 
#
# 1 31.1658 15.8863 25.4705 0.0000 1.6906 0.0000
# 2 15.8863 66.7409 40.8584 0.0000 -14.5530 0.0000
# 3 25.4705 40.8584 87.8116 0.0000 -16.0613 0.0000
# 4 0.0000 0.0000 0.0000 32.0901 0.0000 -12.4857
# 5 1.6906 -14.5530 -16.0613 0.0000 32.2365 0.0000
# 6 0.0000 0.0000 0.0000 -12.4857 0.0000 23.3667
#
#
#
# Elastic Compliance Matrix: (Units=1/GPa)
#
#
# Indices 1 2 3 4 5 6 
#
# 1 0.046024 -0.005570 -0.012828 0.000000 -0.011320 0.000000
# 2 -0.005570 0.022404 -0.007598 0.000000 0.006621 0.000000
# 3 -0.012828 -0.007598 0.019959 0.000000 0.007187 0.000000
# 4 0.000000 0.000000 0.000000 0.039341 0.000000 0.021021
# 5 -0.011320 0.006621 0.007187 0.000000 0.038184 0.000000
# 6 0.000000 0.000000 0.000000 0.021021 0.000000 0.054028
#
#
# Mechanical properties :
#
#
# Convention : Reuss Voigt Hill
#
# Bulk Modulus (GPa) = 27.47680 38.90540 33.19110
# Shear Modulus (GPa) = 17.60163 24.43886 21.02025
#
# Velocity S-wave (km/s) = 3.12239 3.67918 3.41216
# Velocity P-wave (km/s) = 5.31207 6.29266 5.82304
#
# Compressibility (1/GPa) = 0.03639434
#
# Stress axis : x y z
#
# Youngs Moduli (GPa) = 21.72794 44.63435 50.10316
#
# Poissons Ratio (x) = 0.24861 0.64274
# Poissons Ratio (y) = 0.12102 0.38069
# Poissons Ratio (z) = 0.27873 0.33913
#
# Static dielectric constant tensor:
#      x y z
#    x 3.248090 0.000000 -0.223500 
#    y 0.000000 3.309200 0.000000 
#    z -0.223500 0.000000 3.581960 
# 
# 
# High freq. dielectric constant tensor:
#      x y z
#    x 1.674150 0.000000 -0.019780 
#    y 0.000000 1.701630 0.000000 
#    z -0.019780 0.000000 1.704920 
# 
# From -- ./inp_files/28270.got.cif
#   From: 2010.06.25/outbox.cif.g09.slc.cpg/sg11_15_cif.got.tgz:28270.got - 2010.06.27 23:14:04.
