data_PCOD8070960
_publ_section_title
;
Structure prediction by ZEFSAII (Michael W. Deem and Ramdas Pophale) SiO2 
 PCOD8070960
Probable space group: P 21/M
;
_chemical_formula_sum "Si O2"
_cell_formula_units_Z 24
_cell_length_a 21.733565
_cell_length_b 13.171078
_cell_length_c 7.661146
_cell_angle_alpha 90.000000
_cell_angle_beta 33.149376
_cell_angle_gamma 90.000000
_cell_volume 1199.204766
_symmetry_space_group_name_H-M "P 21/M"
_symmetry_group_IT_number 11
_symmetry_cell_setting 'monoclinic'
loop_
_space_group_symop_operation_xyz
x,y,z
-x,1/2+y,-z
-x,-y,-z
x,1/2-y,z
loop_
_atom_site_type_symbol
_atom_site_label
_atom_site_fract_x
_atom_site_fract_y
_atom_site_fract_z
Si Si1 0.874854 0.040552 0.784114
Si Si2 0.844884 0.491530 0.228592
Si Si3 0.939315 0.134611 0.298960
Si Si4 0.641370 0.865648 0.666104
Si Si5 0.350678 0.445790 0.728899
Si Si6 0.498860 0.635449 0.333522
O O1 0.877864 0.129984 0.633825
O O2 0.785711 0.952537 0.936973
O O3 0.000000 0.000000 0.500000
O O4 0.837807 0.074890 0.066346
O O5 0.852288 0.411121 0.366126
O O6 0.734874 0.558260 0.516484
O O7 0.948192 0.569196 0.974245
O O8 0.968105 0.250000 0.184186
O O9 0.685885 0.750000 0.570990
O O10 0.607992 0.889987 0.545775
O O11 0.534606 0.879998 0.046796
O O12 0.397003 0.560950 0.621333
O O13 0.395021 0.384481 0.790417
O O14 0.456112 0.750000 0.464850
#
# Coordination Sequence:
#
# PCOD8070960 Si02
#       6
#     4   4   4   4   4   4
#     4   9  19  35  54  76 105 140 177 219 266 316
#     4   9  19  34  51  76 106 137 178 225 266 312
#     4  10  19  32  51  75 106 143 179 216 266 322
#     4  10  19  34  56  78 102 135 177 222 267 316
#     4  10  20  36  56  78 109 141 177 224 268 318
#     4  10  21  35  54  80 107 140 179 219 268 321
#
# _framework density 20.013262000000001
#
# number of rings (size 3 to 8) (size 9 to 14) (size 15 to 20)
#    0.000    2.333    0.000    2.500    0.000    1.333 
#    0.000    3.333    0.000   12.000    0.000    0.000 
#    0.000    0.000    0.000    0.000    0.000    0.000 
#
# Total GULP energy -297484.460412 kJ/mol
# GULP energy per Si atom -12395.185851 kJ/mol
# Density = 1.996771 g / cm^3
# Si number density = 20.013262 Si / 1000 Ang^3
#
#
#
# Elastic Constant Matrix: (Units=GPa)
#
#
# Indices 1 2 3 4 5 6 
#
# 1 94.6904 30.9800 19.1717 0.0000 11.9376 0.0000
# 2 30.9800 97.2315 25.1308 0.0000 18.8069 0.0000
# 3 19.1717 25.1308 57.6901 0.0000 2.7903 0.0000
# 4 0.0000 0.0000 0.0000 22.5619 0.0000 6.5385
# 5 11.9376 18.8069 2.7903 0.0000 27.7683 0.0000
# 6 0.0000 0.0000 0.0000 6.5385 0.0000 20.5137
#
#
#
# Elastic Compliance Matrix: (Units=1/GPa)
#
#
# Indices 1 2 3 4 5 6 
#
# 1 0.012394 -0.002578 -0.002836 0.000000 -0.003297 0.000000
# 2 -0.002578 0.013855 -0.004802 0.000000 -0.007793 0.000000
# 3 -0.002836 -0.004802 0.020250 0.000000 0.002436 0.000000
# 4 0.000000 0.000000 0.000000 0.048833 0.000000 -0.015565
# 5 -0.003297 -0.007793 0.002436 0.000000 0.042463 0.000000
# 6 0.000000 0.000000 0.000000 -0.015565 0.000000 0.053709
#
#
# Mechanical properties :
#
#
# Convention : Reuss Voigt Hill
#
# Bulk Modulus (GPa) = 38.36282 44.46410 41.41346
# Shear Modulus (GPa) = 22.66288 25.79075 24.22681
#
# Velocity S-wave (km/s) = 3.36876 3.59372 3.48305
# Velocity P-wave (km/s) = 5.86018 6.28373 6.07565
#
# Compressibility (1/GPa) = 0.02606690
#
# Stress axis : x y z
#
# Youngs Moduli (GPa) = 80.68313 72.17869 49.38183
#
# Poissons Ratio (x) = 0.18609 0.14006
# Poissons Ratio (y) = 0.20802 0.23711
# Poissons Ratio (z) = 0.22884 0.34657
#
# Static dielectric constant tensor:
#      x y z
#    x 4.040210 0.000000 0.222630 
#    y 0.000000 3.418010 0.000000 
#    z 0.222630 0.000000 3.562680 
# 
# 
# High freq. dielectric constant tensor:
#      x y z
#    x 1.798370 0.000000 0.010420 
#    y 0.000000 1.758400 0.000000 
#    z 0.010420 0.000000 1.773080 
# 
# From -- ./inp_files/27562.got.cif
#   From: 2010.06.25/outbox.cif.g09.slc.cpg/sg11_14_cif.got.tgz:27562.got - 2010.06.27 23:14:04.
