data_PCOD8070267
_publ_section_title
;
Structure prediction by ZEFSAII (Michael W. Deem and Ramdas Pophale) SiO2 
 PCOD8070267
Probable space group: P 21/M
;
_chemical_formula_sum "Si O2"
_cell_formula_units_Z 28
_cell_length_a 18.813735
_cell_length_b 9.184026
_cell_length_c 15.787590
_cell_angle_alpha 90.000000
_cell_angle_beta 33.626175
_cell_angle_gamma 90.000000
_cell_volume 1510.619066
_symmetry_space_group_name_H-M "P 21/M"
_symmetry_group_IT_number 11
_symmetry_cell_setting 'monoclinic'
loop_
_space_group_symop_operation_xyz
x,y,z
-x,1/2+y,-z
-x,-y,-z
x,1/2-y,z
loop_
_atom_site_type_symbol
_atom_site_label
_atom_site_fract_x
_atom_site_fract_y
_atom_site_fract_z
Si Si1 0.908652 0.414512 0.846437
Si Si2 0.414876 0.579409 0.015394
Si Si3 0.107444 0.587325 0.942237
Si Si4 0.939650 0.088044 0.435009
Si Si5 0.625618 0.079606 0.127269
Si Si6 0.400752 0.923013 0.660659
Si Si7 0.815156 0.912068 0.692325
O O1 0.918482 0.250000 0.799634
O O2 0.013948 0.515609 0.697727
O O3 0.937803 0.414839 0.916407
O O4 0.767972 0.485334 0.971143
O O5 0.414778 0.750000 0.034614
O O6 0.272790 0.515995 0.163766
O O7 0.500000 0.500000 0.000000
O O8 0.459523 0.548111 0.872990
O O9 0.105796 0.750000 0.907556
O O10 0.253895 0.527383 0.786325
O O11 0.000000 0.500000 0.000000
O O12 0.885710 0.250000 0.468814
O O13 0.051425 0.101266 0.392614
O O14 0.829710 0.986760 0.585469
O O15 0.649900 0.250000 0.115884
O O16 0.564524 0.024748 0.276777
O O17 0.415712 0.750000 0.636049
O O18 0.500000 0.000000 0.500000
O O19 0.755130 0.750000 0.739070
#
# Coordination Sequence:
#
# PCOD8070267 Si02
#       7
#     4   4   4   4   4   4   4
#     4   9  16  31  53  75  99 135 177 216 258 313
#     4  11  21  35  54  74 101 140 180 222 266 313
#     4   9  19  34  54  79 110 142 177 219 271 327
#     4  10  19  30  49  77 103 128 163 212 259 302
#     4   8  16  32  54  74  99 136 178 216 259 313
#     4   9  18  35  57  83 108 138 179 223 268 325
#     4  10  20  33  49  72 102 133 167 208 255 308
#
# _framework density 18.535447000000001
#
# number of rings (size 3 to 8) (size 9 to 14) (size 15 to 20)
#    0.000    2.571    1.429    3.000    0.000    2.286 
#    0.000    5.000    0.000    5.143    0.000    0.000 
#    0.000    0.000    0.000    0.000    0.000    0.000 
#
# Total GULP energy -346932.770507 kJ/mol
# GULP energy per Si atom -12390.456090 kJ/mol
# Density = 1.849326 g / cm^3
# Si number density = 18.535447 Si / 1000 Ang^3
#
#
#
# Elastic Constant Matrix: (Units=GPa)
#
#
# Indices 1 2 3 4 5 6 
#
# 1 94.8058 43.0600 42.0820 0.0000 14.1245 0.0000
# 2 43.0600 98.4493 47.6654 0.0000 11.4326 0.0000
# 3 42.0820 47.6654 111.3005 0.0000 25.6370 0.0000
# 4 0.0000 0.0000 0.0000 33.7232 0.0000 1.3437
# 5 14.1245 11.4326 25.6370 0.0000 21.6721 0.0000
# 6 0.0000 0.0000 0.0000 1.3437 0.0000 28.0340
#
#
#
# Elastic Compliance Matrix: (Units=1/GPa)
#
#
# Indices 1 2 3 4 5 6 
#
# 1 0.014348 -0.004581 -0.002565 0.000000 -0.003901 0.000000
# 2 -0.004581 0.014279 -0.004585 0.000000 0.000877 0.000000
# 3 -0.002565 -0.004585 0.015087 0.000000 -0.013757 0.000000
# 4 0.000000 0.000000 0.000000 0.029710 0.000000 -0.001424
# 5 -0.003901 0.000877 -0.013757 0.000000 0.064496 0.000000
# 6 0.000000 0.000000 0.000000 -0.001424 0.000000 0.035739
#
#
# Mechanical properties :
#
#
# Convention : Reuss Voigt Hill
#
# Bulk Modulus (GPa) = 49.37632 63.35228 56.36430
# Shear Modulus (GPa) = 24.52532 28.13572 26.33052
#
# Velocity S-wave (km/s) = 3.64147 3.90030 3.77311
# Velocity P-wave (km/s) = 6.66161 7.38487 7.03255
#
# Compressibility (1/GPa) = 0.02025262
#
# Stress axis : x y z
#
# Youngs Moduli (GPa) = 69.69611 70.03150 66.28358
#
# Poissons Ratio (x) = 0.32081 0.16999
# Poissons Ratio (y) = 0.31927 0.30392
# Poissons Ratio (z) = 0.17874 0.32111
#
# Static dielectric constant tensor:
#      x y z
#    x 3.236070 0.000000 0.200200 
#    y 0.000000 3.515290 0.000000 
#    z 0.200200 0.000000 3.451340 
# 
# 
# High freq. dielectric constant tensor:
#      x y z
#    x 1.698850 0.000000 0.020980 
#    y 0.000000 1.710820 0.000000 
#    z 0.020980 0.000000 1.711620 
# 
# From -- ./inp_files/37216.got.cif
#   From: 2010.06.25/outbox.cif.g09.slc.cpg/sg11_19_cif.got.tgz:37216.got - 2010.06.27 23:14:04.
