data_PCOD8070454
_publ_section_title
;
Structure prediction by ZEFSAII (Michael W. Deem and Ramdas Pophale) SiO2 
 PCOD8070454
Probable space group: P 21/M
;
_chemical_formula_sum "Si O2"
_cell_formula_units_Z 32
_cell_length_a 30.640860
_cell_length_b 9.030375
_cell_length_c 15.076671
_cell_angle_alpha 90.000000
_cell_angle_beta 28.725928
_cell_angle_gamma 90.000000
_cell_volume 2005.000006
_symmetry_space_group_name_H-M "P 21/M"
_symmetry_group_IT_number 11
_symmetry_cell_setting 'monoclinic'
loop_
_space_group_symop_operation_xyz
x,y,z
-x,1/2+y,-z
-x,-y,-z
x,1/2-y,z
loop_
_atom_site_type_symbol
_atom_site_label
_atom_site_fract_x
_atom_site_fract_y
_atom_site_fract_z
Si Si1 0.266982 0.076366 0.207864
Si Si2 0.701615 0.575338 0.170879
Si Si3 0.900236 0.576820 0.770241
Si Si4 0.630390 0.420751 0.825034
Si Si5 0.618913 0.073428 0.149031
Si Si6 0.421104 0.075573 0.449929
Si Si7 0.076955 0.078953 0.470845
Si Si8 0.425255 0.421179 0.246006
O O1 0.289264 0.250000 0.160170
O O2 0.159391 0.046443 0.390755
O O3 0.296485 0.014573 0.250429
O O4 0.317179 0.990518 0.040599
O O5 0.690453 0.750000 0.171217
O O6 0.648293 0.485742 0.191745
O O7 0.659830 0.529138 0.340102
O O8 0.807166 0.528603 0.984156
O O9 0.914097 0.750000 0.752073
O O10 0.894841 0.523170 0.677691
O O11 0.986251 0.503390 0.666063
O O12 0.659675 0.250000 0.772152
O O13 0.629923 0.480832 0.725674
O O14 0.532862 0.443121 0.043864
O O15 0.625463 0.250000 0.135419
O O16 0.516969 0.013738 0.314349
O O17 0.431188 0.250000 0.425219
O O18 0.398948 0.017558 0.390373
O O19 0.052613 0.250000 0.510842
O O20 0.398679 0.250000 0.279040
#
# Coordination Sequence:
#
# PCOD8070454 Si02
#       8
#     4   4   4   4   4   4   4   4
#     4  11  20  32  49  70  95 127 159 191 236 286
#     4  10  19  33  49  67  94 129 164 196 231 274
#     4   9  17  30  46  67  91 120 156 193 233 276
#     4  10  19  31  48  71  96 121 155 196 236 279
#     4  11  20  31  45  68  98 129 164 197 227 267
#     4   9  18  32  49  67  94 129 164 197 227 270
#     4   9  18  31  46  66  91 120 155 192 234 282
#     4   9  17  32  48  67  94 126 159 191 231 277
#
# _framework density 15.960100000000001
#
# number of rings (size 3 to 8) (size 9 to 14) (size 15 to 20)
#    0.000    2.250    2.500    1.500    0.000    2.000 
#    0.000    1.250    0.000    0.000    0.000    0.875 
#    0.000    0.000    0.000    0.000    0.000    0.000 
#
# Total GULP energy -396797.261401 kJ/mol
# GULP energy per Si atom -12399.914419 kJ/mol
# Density = 1.592377 g / cm^3
# Si number density = 15.960100 Si / 1000 Ang^3
#
#
#
# Elastic Constant Matrix: (Units=GPa)
#
#
# Indices 1 2 3 4 5 6 
#
# 1 113.8296 41.8227 62.5396 0.0000 5.8222 0.0000
# 2 41.8227 52.5945 34.3906 0.0000 0.1677 0.0000
# 3 62.5396 34.3906 101.8588 0.0000 2.7364 0.0000
# 4 0.0000 0.0000 0.0000 18.5885 0.0000 -4.8013
# 5 5.8222 0.1677 2.7364 0.0000 19.3259 0.0000
# 6 0.0000 0.0000 0.0000 -4.8013 0.0000 25.1874
#
#
#
# Elastic Compliance Matrix: (Units=1/GPa)
#
#
# Indices 1 2 3 4 5 6 
#
# 1 0.015648 -0.007974 -0.006817 0.000000 -0.003680 0.000000
# 2 -0.007974 0.028482 -0.004796 0.000000 0.002834 0.000000
# 3 -0.006817 -0.004796 0.015625 0.000000 -0.000117 0.000000
# 4 0.000000 0.000000 0.000000 0.056583 0.000000 0.010786
# 5 -0.003680 0.002834 -0.000117 0.000000 0.052845 0.000000
# 6 0.000000 0.000000 0.000000 0.010786 0.000000 0.041758
#
#
# Mechanical properties :
#
#
# Convention : Reuss Voigt Hill
#
# Bulk Modulus (GPa) = 48.58893 60.64322 54.61607
# Shear Modulus (GPa) = 19.45708 21.25569 20.35638
#
# Velocity S-wave (km/s) = 3.49536 3.65335 3.57523
# Velocity P-wave (km/s) = 6.84106 7.47497 7.16503
#
# Compressibility (1/GPa) = 0.02058082
#
# Stress axis : x y z
#
# Youngs Moduli (GPa) = 63.90464 35.11020 63.99896
#
# Poissons Ratio (x) = 0.27999 0.43625
# Poissons Ratio (y) = 0.50961 0.30696
# Poissons Ratio (z) = 0.43561 0.16840
#
# Static dielectric constant tensor:
#      x y z
#    x 3.169870 0.000000 -0.002080 
#    y 0.000000 2.990670 0.000000 
#    z -0.002080 0.000000 3.002240 
# 
# 
# High freq. dielectric constant tensor:
#      x y z
#    x 1.605460 0.000000 -0.006280 
#    y 0.000000 1.610060 0.000000 
#    z -0.006280 0.000000 1.592210 
# 
# From -- ./inp_files/51221.got.cif
#   From: 2010.06.25/outbox.cif.g09.slc.cpg/sg11_26_cif.got.tgz:51221.got - 2010.06.27 23:14:04.
