data_PCOD8070971
_publ_section_title
;
Structure prediction by ZEFSAII (Michael W. Deem and Ramdas Pophale) SiO2 
 PCOD8070971
Probable space group: P 21/M
;
_chemical_formula_sum "Si O2"
_cell_formula_units_Z 32
_cell_length_a 16.327752
_cell_length_b 9.351145
_cell_length_c 11.604295
_cell_angle_alpha 90.000000
_cell_angle_beta 94.872335
_cell_angle_gamma 90.000000
_cell_volume 1765.378156
_symmetry_space_group_name_H-M "P 21/M"
_symmetry_group_IT_number 11
_symmetry_cell_setting 'monoclinic'
loop_
_space_group_symop_operation_xyz
x,y,z
-x,1/2+y,-z
-x,-y,-z
x,1/2-y,z
loop_
_atom_site_type_symbol
_atom_site_label
_atom_site_fract_x
_atom_site_fract_y
_atom_site_fract_z
Si Si1 0.935797 0.587700 0.853416
Si Si2 0.413686 0.581283 0.992954
Si Si3 0.257467 0.580914 0.552529
Si Si4 0.731504 0.419651 0.186225
Si Si5 0.575602 0.090211 0.546895
Si Si6 0.804363 0.584638 0.658332
Si Si7 0.669693 0.413596 0.779236
Si Si8 0.884981 0.417582 0.061383
O O1 0.927162 0.750000 0.897114
O O2 0.895644 0.570077 0.722748
O O3 0.032032 0.545818 0.857427
O O4 0.887380 0.488343 0.936703
O O5 0.432101 0.750000 0.994309
O O6 0.356686 0.534201 0.877660
O O7 0.500000 0.500000 0.000000
O O8 0.361812 0.537651 0.099741
O O9 0.239819 0.750000 0.541431
O O10 0.256216 0.522610 0.682714
O O11 0.345253 0.537471 0.512664
O O12 0.192446 0.497261 0.464045
O O13 0.735814 0.250000 0.188899
O O14 0.806977 0.481230 0.120355
O O15 0.554496 0.250000 0.507851
O O16 0.591416 0.075678 0.684983
O O17 0.500000 0.000000 0.500000
O O18 0.780019 0.750000 0.636506
O O19 0.741484 0.516083 0.742832
O O20 0.702933 0.250000 0.785355
O O21 0.873623 0.250000 0.040597
#
# Coordination Sequence:
#
# PCOD8070971 Si02
#       8
#     4   4   4   4   4   4   4   4
#     4   9  18  31  50  79 111 131 160 211 257 295
#     4  10  21  35  52  75 101 130 165 207 252 301
#     4   9  19  35  51  70  97 133 173 211 246 295
#     4   9  18  34  55  74  98 134 174 207 244 298
#     4   9  18  30  47  68  92 122 159 206 250 287
#     4  10  19  32  51  76 103 132 165 208 257 298
#     4   9  19  35  51  71  99 129 167 207 244 297
#     4   9  17  32  55  79 101 136 173 202 244 301
#
# _framework density 18.126428000000001
#
# number of rings (size 3 to 8) (size 9 to 14) (size 15 to 20)
#    0.000    2.750    0.000    1.875    1.750    4.500 
#    0.000    2.500    0.000    0.000    0.000    0.000 
#    0.000    0.000    0.000    0.000    0.000    0.000 
#
# Total GULP energy -396702.247790 kJ/mol
# GULP energy per Si atom -12396.945243 kJ/mol
# Density = 1.808517 g / cm^3
# Si number density = 18.126428 Si / 1000 Ang^3
#
#
#
# Elastic Constant Matrix: (Units=GPa)
#
#
# Indices 1 2 3 4 5 6 
#
# 1 88.6931 34.0876 55.4016 0.0000 14.9753 0.0000
# 2 34.0876 45.4277 33.6301 0.0000 4.0278 0.0000
# 3 55.4016 33.6301 126.8483 0.0000 9.8016 0.0000
# 4 0.0000 0.0000 0.0000 23.9616 0.0000 4.9423
# 5 14.9753 4.0278 9.8016 0.0000 24.0828 0.0000
# 6 0.0000 0.0000 0.0000 4.9423 0.0000 24.2673
#
#
#
# Elastic Compliance Matrix: (Units=1/GPa)
#
#
# Indices 1 2 3 4 5 6 
#
# 1 0.020021 -0.010303 -0.005352 0.000000 -0.008548 0.000000
# 2 -0.010303 0.032756 -0.004394 0.000000 0.002717 0.000000
# 3 -0.005352 -0.004394 0.011432 0.000000 -0.000589 0.000000
# 4 0.000000 0.000000 0.000000 0.043563 0.000000 -0.008872
# 5 -0.008548 0.002717 -0.000589 0.000000 0.046624 0.000000
# 6 0.000000 0.000000 0.000000 -0.008872 0.000000 0.043015
#
#
# Mechanical properties :
#
#
# Convention : Reuss Voigt Hill
#
# Bulk Modulus (GPa) = 41.47699 56.35640 48.91669
# Shear Modulus (GPa) = 20.36263 23.65234 22.00748
#
# Velocity S-wave (km/s) = 3.35530 3.61619 3.48819
# Velocity P-wave (km/s) = 6.15975 6.97094 6.57786
#
# Compressibility (1/GPa) = 0.02410975
#
# Stress axis : x y z
#
# Youngs Moduli (GPa) = 49.94699 30.52834 87.47634
#
# Poissons Ratio (x) = 0.31454 0.46820
# Poissons Ratio (y) = 0.51461 0.38440
# Poissons Ratio (z) = 0.26733 0.13415
#
# Static dielectric constant tensor:
#      x y z
#    x 3.351430 0.000000 0.131330 
#    y 0.000000 3.597490 0.000000 
#    z 0.131330 0.000000 3.553690 
# 
# 
# High freq. dielectric constant tensor:
#      x y z
#    x 1.695500 0.000000 0.016730 
#    y 0.000000 1.684610 0.000000 
#    z 0.016730 0.000000 1.704750 
# 
# From -- ./inp_files/38069.got.cif
#   From: 2010.06.25/outbox.cif.g09.slc.cpg/sg11_20_cif.got.tgz:38069.got - 2010.06.27 23:14:04.
