data_PCOD8070839
_publ_section_title
;
Structure prediction by ZEFSAII (Michael W. Deem and Ramdas Pophale) SiO2 
 PCOD8070839
Probable space group: P 21/M
;
_chemical_formula_sum "Si O2"
_cell_formula_units_Z 32
_cell_length_a 26.457091
_cell_length_b 8.841886
_cell_length_c 20.765213
_cell_angle_alpha 90.000000
_cell_angle_beta 159.293590
_cell_angle_gamma 90.000000
_cell_volume 1717.554251
_symmetry_space_group_name_H-M "P 21/M"
_symmetry_group_IT_number 11
_symmetry_cell_setting 'monoclinic'
loop_
_space_group_symop_operation_xyz
x,y,z
-x,1/2+y,-z
-x,-y,-z
x,1/2-y,z
loop_
_atom_site_type_symbol
_atom_site_label
_atom_site_fract_x
_atom_site_fract_y
_atom_site_fract_z
Si Si1 0.438464 0.926292 0.363224
Si Si2 0.323782 0.570601 0.421010
Si Si3 0.135932 0.069444 0.301692
Si Si4 0.836067 0.074018 0.896434
Si Si5 0.496563 0.070452 0.925606
Si Si6 0.807051 0.929279 0.487141
Si Si7 0.985075 0.926273 0.579593
Si Si8 0.222580 0.425617 0.785777
O O1 0.476610 0.750000 0.405969
O O2 0.267478 0.952315 0.164862
O O3 0.500000 0.000000 0.500000
O O4 0.512622 0.010786 0.391435
O O5 0.324702 0.750000 0.425243
O O6 0.266810 0.501295 0.418943
O O7 0.228992 0.507253 0.247685
O O8 0.142828 0.250000 0.306620
O O9 0.147306 0.011143 0.388382
O O10 0.989474 0.002848 0.096441
O O11 0.856062 0.250000 0.908078
O O12 0.501013 0.250000 0.937484
O O13 0.351954 0.013121 0.718757
O O14 0.500000 0.000000 0.000000
O O15 0.628605 0.014953 0.039643
O O16 0.807392 0.750000 0.484990
O O17 0.922846 0.987996 0.573041
O O18 0.024049 0.750000 0.628562
O O19 0.863227 0.958361 0.381804
O O20 0.129754 0.016464 0.735713
O O21 0.255989 0.250000 0.834703
#
# Coordination Sequence:
#
# PCOD8070839 Si02
#       8
#     4   4   4   4   4   4   4   4
#     4   9  16  29  49  75 103 131 167 213 258 304
#     4  10  19  32  49  75 108 137 169 213 256 305
#     4  10  19  34  54  74  98 135 174 213 258 306
#     4   8  16  30  51  77 101 128 170 215 255 299
#     4  11  20  34  54  79 104 133 168 210 257 308
#     4   9  19  35  54  75 102 132 171 215 258 307
#     4   9  17  33  52  74 104 134 165 209 257 302
#     4  10  19  32  52  80 106 131 168 210 252 303
#
# _framework density 18.631145
#
# number of rings (size 3 to 8) (size 9 to 14) (size 15 to 20)
#    0.000    2.500    1.250    2.625    0.000    0.500 
#    0.000    6.250    0.000    4.500    0.000    0.000 
#    0.000    0.000    0.000    0.000    0.000    0.000 
#
# Total GULP energy -396680.026139 kJ/mol
# GULP energy per Si atom -12396.250817 kJ/mol
# Density = 1.858874 g / cm^3
# Si number density = 18.631145 Si / 1000 Ang^3
#
#
#
# Elastic Constant Matrix: (Units=GPa)
#
#
# Indices 1 2 3 4 5 6 
#
# 1 151.5990 34.5724 45.0068 0.0000 20.6917 0.0000
# 2 34.5724 52.4636 21.7570 0.0000 6.4980 0.0000
# 3 45.0068 21.7570 49.1195 0.0000 12.8732 0.0000
# 4 0.0000 0.0000 0.0000 19.6983 0.0000 7.6760
# 5 20.6917 6.4980 12.8732 0.0000 30.9082 0.0000
# 6 0.0000 0.0000 0.0000 7.6760 0.0000 29.6169
#
#
#
# Elastic Compliance Matrix: (Units=1/GPa)
#
#
# Indices 1 2 3 4 5 6 
#
# 1 0.009741 -0.003273 -0.006676 0.000000 -0.003053 0.000000
# 2 -0.003273 0.024462 -0.007928 0.000000 0.000350 0.000000
# 3 -0.006676 -0.007928 0.031856 0.000000 -0.007132 0.000000
# 4 0.000000 0.000000 0.000000 0.056469 0.000000 -0.014635
# 5 -0.003053 0.000350 -0.007132 0.000000 0.037294 0.000000
# 6 0.000000 0.000000 0.000000 -0.014635 0.000000 0.037558
#
#
# Mechanical properties :
#
#
# Convention : Reuss Voigt Hill
#
# Bulk Modulus (GPa) = 32.99700 50.65049 41.82374
# Shear Modulus (GPa) = 20.55612 26.16775 23.36194
#
# Velocity S-wave (km/s) = 3.32523 3.75175 3.54491
# Velocity P-wave (km/s) = 5.70017 6.78325 6.26516
#
# Compressibility (1/GPa) = 0.03030578
#
# Stress axis : x y z
#
# Youngs Moduli (GPa) = 102.65524 40.87975 31.39078
#
# Poissons Ratio (x) = 0.13378 0.20957
# Poissons Ratio (y) = 0.33595 0.24888
# Poissons Ratio (z) = 0.68533 0.32411
#
# Static dielectric constant tensor:
#      x y z
#    x 3.650110 0.000000 0.309880 
#    y 0.000000 3.261240 0.000000 
#    z 0.309880 0.000000 3.598470 
# 
# 
# High freq. dielectric constant tensor:
#      x y z
#    x 1.725140 0.000000 0.028790 
#    y 0.000000 1.704680 0.000000 
#    z 0.028790 0.000000 1.706580 
# 
# From -- ./inp_files/67186.got.cif
#   From: 2010.06.25/outbox.cif.g09.slc.cpg/sg11_34_cif.got.tgz:67186.got - 2010.06.27 23:14:04.
