data_PCOD8070509
_publ_section_title
;
Structure prediction by ZEFSAII (Michael W. Deem and Ramdas Pophale) SiO2 
 PCOD8070509
Probable space group: P 21/M
;
_chemical_formula_sum "Si O2"
_cell_formula_units_Z 28
_cell_length_a 9.518037
_cell_length_b 9.288567
_cell_length_c 31.821095
_cell_angle_alpha 90.000000
_cell_angle_beta 145.091414
_cell_angle_gamma 90.000000
_cell_volume 1609.945865
_symmetry_space_group_name_H-M "P 21/M"
_symmetry_group_IT_number 11
_symmetry_cell_setting 'monoclinic'
loop_
_space_group_symop_operation_xyz
x,y,z
-x,1/2+y,-z
-x,-y,-z
x,1/2-y,z
loop_
_atom_site_type_symbol
_atom_site_label
_atom_site_fract_x
_atom_site_fract_y
_atom_site_fract_z
Si Si1 0.997693 0.088193 0.440963
Si Si2 0.816363 0.420712 0.986639
Si Si3 0.383734 0.416892 0.605143
Si Si4 0.726809 0.913177 0.572941
Si Si5 0.744514 0.086870 0.059786
Si Si6 0.697680 0.416884 0.139831
Si Si7 0.845908 0.580970 0.694493
O O1 0.913849 0.250000 0.432760
O O2 0.247738 0.050735 0.527606
O O3 0.047635 0.075031 0.403913
O O4 0.785048 0.975704 0.398757
O O5 0.817497 0.250000 0.977058
O O6 0.540729 0.482487 0.913774
O O7 0.904442 0.452935 0.057094
O O8 0.000000 0.500000 0.000000
O O9 0.432614 0.250000 0.624566
O O10 0.640964 0.498102 0.670685
O O11 0.635359 0.750000 0.555273
O O12 0.828093 0.971687 0.641960
O O13 0.500000 0.000000 0.500000
O O14 0.664165 0.250000 0.033974
O O15 0.851308 0.062010 0.133131
O O16 0.500000 0.000000 0.000000
O O17 0.614469 0.250000 0.123625
O O18 0.885610 0.460831 0.222634
O O19 0.798754 0.750000 0.688027
#
# Coordination Sequence:
#
# PCOD8070509 Si02
#       7
#     4   4   4   4   4   4   4
#     4   9  18  32  48  68  94 123 161 208 252 295
#     4  10  19  32  53  80 105 134 167 204 245 291
#     4  10  19  31  49  71  94 125 163 206 252 296
#     4  10  19  32  50  73  98 129 169 211 255 304
#     4   8  15  29  50  73  97 125 162 199 236 283
#     4   9  18  34  53  75 102 133 167 206 249 299
#     4  10  20  33  52  75 101 132 166 206 257 307
#
# _framework density 17.391888999999999
#
# number of rings (size 3 to 8) (size 9 to 14) (size 15 to 20)
#    0.000    2.571    1.429    0.857    0.000    2.286 
#    0.000    1.429    0.000    8.571    0.000    0.000 
#    0.000    0.000    0.000    0.000    0.000    0.000 
#
# Total GULP energy -346934.450485 kJ/mol
# GULP energy per Si atom -12390.516089 kJ/mol
# Density = 1.735230 g / cm^3
# Si number density = 17.391889 Si / 1000 Ang^3
#
#
#
# Elastic Constant Matrix: (Units=GPa)
#
#
# Indices 1 2 3 4 5 6 
#
# 1 113.6362 48.8364 55.0981 0.0000 -7.2387 0.0000
# 2 48.8364 68.6009 42.0846 0.0000 2.3906 0.0000
# 3 55.0981 42.0846 96.0833 0.0000 -9.4698 0.0000
# 4 0.0000 0.0000 0.0000 22.5884 0.0000 5.2867
# 5 -7.2387 2.3906 -9.4698 0.0000 24.4814 0.0000
# 6 0.0000 0.0000 0.0000 5.2867 0.0000 29.4481
#
#
#
# Elastic Compliance Matrix: (Units=1/GPa)
#
#
# Indices 1 2 3 4 5 6 
#
# 1 0.014543 -0.007581 -0.004701 0.000000 0.003222 0.000000
# 2 -0.007581 0.024633 -0.007174 0.000000 -0.007422 0.000000
# 3 -0.004701 -0.007174 0.016819 0.000000 0.005816 0.000000
# 4 0.000000 0.000000 0.000000 0.046212 0.000000 -0.008296
# 5 0.003222 -0.007422 0.005816 0.000000 0.044775 0.000000
# 6 0.000000 0.000000 0.000000 -0.008296 0.000000 0.035447
#
#
# Mechanical properties :
#
#
# Convention : Reuss Voigt Hill
#
# Bulk Modulus (GPa) = 58.53798 63.37318 60.95558
# Shear Modulus (GPa) = 22.02295 24.12367 23.07331
#
# Velocity S-wave (km/s) = 3.56234 3.72837 3.64630
# Velocity P-wave (km/s) = 7.11700 7.41969 7.26992
#
# Compressibility (1/GPa) = 0.01708293
#
# Stress axis : x y z
#
# Youngs Moduli (GPa) = 68.76254 40.59534 59.45672
#
# Poissons Ratio (x) = 0.30775 0.27953
# Poissons Ratio (y) = 0.52129 0.42652
# Poissons Ratio (z) = 0.32328 0.29122
#
# Static dielectric constant tensor:
#      x y z
#    x 3.506070 0.000000 -0.469020 
#    y 0.000000 3.303110 0.000000 
#    z -0.469020 0.000000 3.248920 
# 
# 
# High freq. dielectric constant tensor:
#      x y z
#    x 1.674520 0.000000 -0.017990 
#    y 0.000000 1.677130 0.000000 
#    z -0.017990 0.000000 1.642900 
# 
# From -- ./inp_files/61954.got.cif
#   From: 2010.06.25/outbox.cif.g09.slc.cpg/sg11_31_cif.got.tgz:61954.got - 2010.06.27 23:14:04.
