data_PCOD8070919
_publ_section_title
;
Structure prediction by ZEFSAII (Michael W. Deem and Ramdas Pophale) SiO2 
 PCOD8070919
Probable space group: P 21/M
;
_chemical_formula_sum "Si O2"
_cell_formula_units_Z 32
_cell_length_a 10.878333
_cell_length_b 21.059815
_cell_length_c 20.036811
_cell_angle_alpha 90.000000
_cell_angle_beta 22.929567
_cell_angle_gamma 90.000000
_cell_volume 1788.395774
_symmetry_space_group_name_H-M "P 21/M"
_symmetry_group_IT_number 11
_symmetry_cell_setting 'monoclinic'
loop_
_space_group_symop_operation_xyz
x,y,z
-x,1/2+y,-z
-x,-y,-z
x,1/2-y,z
loop_
_atom_site_type_symbol
_atom_site_label
_atom_site_fract_x
_atom_site_fract_y
_atom_site_fract_z
Si Si1 0.233285 0.677930 0.810822
Si Si2 0.811076 0.606811 0.567675
Si Si3 0.305162 0.322619 0.175281
Si Si4 0.766773 0.322069 0.544088
Si Si5 0.594437 0.434193 0.796558
Si Si6 0.188930 0.393186 0.878748
Si Si7 0.694912 0.822620 0.980416
Si Si8 0.405490 0.565814 0.891045
O O1 0.338029 0.750000 0.766211
O O2 0.551813 0.637092 0.648256
O O3 0.038991 0.665991 0.840173
O O4 0.023176 0.661024 0.980462
O O5 0.635362 0.566219 0.711946
O O6 0.023168 0.661025 0.496356
O O7 0.039472 0.562953 0.408716
O O8 0.418477 0.250000 0.133107
O O9 0.276808 0.335994 0.111592
O O10 0.551113 0.372333 0.084067
O O11 0.961103 0.334010 0.379127
O O12 0.662027 0.250000 0.604221
O O13 0.448242 0.362904 0.700046
O O14 0.364596 0.433792 0.847319
O O15 0.499948 0.500000 0.881598
O O16 0.551025 0.372333 0.864840
O O17 0.960576 0.437035 0.948153
O O18 0.581615 0.750000 0.051555
#
# Coordination Sequence:
#
# PCOD8070919 Si02
#       8
#     4   4   4   4   4   4   4   4
#     4   9  16  28  48  71  96 124 155 196 242 289
#     4   9  18  29  46  74 100 123 156 197 244 290
#     4   9  19  35  51  68  94 129 165 200 240 284
#     4   9  16  28  48  71  96 124 155 196 242 289
#     4  10  19  32  51  73 100 131 161 197 241 290
#     4   9  18  29  46  74 100 123 156 197 244 290
#     4   9  19  35  51  68  94 129 165 200 240 284
#     4  10  19  32  51  73 100 131 161 197 241 290
#
# _framework density 17.893131
#
# number of rings (size 3 to 8) (size 9 to 14) (size 15 to 20)
#    0.000    2.750    0.000    1.500    0.000    7.500 
#    0.000    1.250    0.000    4.500    0.000    0.000 
#    0.000    0.000    0.000    0.000    0.000    0.000 
#
# Total GULP energy -396699.093375 kJ/mol
# GULP energy per Si atom -12396.846668 kJ/mol
# Density = 1.785241 g / cm^3
# Si number density = 17.893131 Si / 1000 Ang^3
#
#
#
# Elastic Constant Matrix: (Units=GPa)
#
#
# Indices 1 2 3 4 5 6 
#
# 1 58.9576 21.9797 29.3157 0.0000 2.3446 0.0000
# 2 21.9797 85.9020 24.9719 0.0000 -1.8142 0.0000
# 3 29.3157 24.9719 76.0855 0.0000 -12.7179 0.0000
# 4 0.0000 0.0000 0.0000 20.5046 0.0000 -1.7531
# 5 2.3446 -1.8142 -12.7179 0.0000 21.9683 0.0000
# 6 0.0000 0.0000 0.0000 -1.7531 0.0000 17.6061
#
#
#
# Elastic Compliance Matrix: (Units=1/GPa)
#
#
# Indices 1 2 3 4 5 6 
#
# 1 0.023089 -0.003428 -0.009112 0.000000 -0.008023 0.000000
# 2 -0.003428 0.013425 -0.003143 0.000000 -0.000345 0.000000
# 3 -0.009112 -0.003143 0.019712 0.000000 0.012125 0.000000
# 4 0.000000 0.000000 0.000000 0.049188 0.000000 0.004898
# 5 -0.008023 -0.000345 0.012125 0.000000 0.053367 0.000000
# 6 0.000000 0.000000 0.000000 0.004898 0.000000 0.057286
#
#
# Mechanical properties :
#
#
# Convention : Reuss Voigt Hill
#
# Bulk Modulus (GPa) = 40.22575 41.49776 40.86175
# Shear Modulus (GPa) = 19.55256 21.66098 20.60677
#
# Velocity S-wave (km/s) = 3.30925 3.48311 3.39729
# Velocity P-wave (km/s) = 6.09356 6.27841 6.18667
#
# Compressibility (1/GPa) = 0.02485970
#
# Stress axis : x y z
#
# Youngs Moduli (GPa) = 43.31005 74.48932 50.73006
#
# Poissons Ratio (x) = 0.25538 0.46226
# Poissons Ratio (y) = 0.14848 0.15943
# Poissons Ratio (z) = 0.39464 0.23411
#
# Static dielectric constant tensor:
#      x y z
#    x 3.117800 0.000000 -0.123140 
#    y 0.000000 3.362230 0.000000 
#    z -0.123140 0.000000 3.321370 
# 
# 
# High freq. dielectric constant tensor:
#      x y z
#    x 1.663170 0.000000 -0.012860 
#    y 0.000000 1.698680 0.000000 
#    z -0.012860 0.000000 1.684420 
# 
# From -- ./inp_files/19196.got.cif
#   From: 2010.06.25/outbox.cif.g09.slc.cpg/sg11_10_cif.got.tgz:19196.got - 2010.06.27 23:14:04.
