data_PCOD8070569
_publ_section_title
;
Structure prediction by ZEFSAII (Michael W. Deem and Ramdas Pophale) SiO2 
 PCOD8070569
Probable space group: P 21/M
;
_chemical_formula_sum "Si O2"
_cell_formula_units_Z 24
_cell_length_a 16.424888
_cell_length_b 8.844291
_cell_length_c 15.165007
_cell_angle_alpha 90.000000
_cell_angle_beta 142.508038
_cell_angle_gamma 90.000000
_cell_volume 1340.836335
_symmetry_space_group_name_H-M "P 21/M"
_symmetry_group_IT_number 11
_symmetry_cell_setting 'monoclinic'
loop_
_space_group_symop_operation_xyz
x,y,z
-x,1/2+y,-z
-x,-y,-z
x,1/2-y,z
loop_
_atom_site_type_symbol
_atom_site_label
_atom_site_fract_x
_atom_site_fract_y
_atom_site_fract_z
Si Si1 0.637170 0.072477 0.588009
Si Si2 0.085068 0.070006 0.858221
Si Si3 0.199426 0.428944 0.420364
Si Si4 0.132355 0.926642 0.074957
Si Si5 0.826697 0.082367 0.424662
Si Si6 0.856892 0.917405 0.281731
O O1 0.620482 0.250000 0.556190
O O2 0.744690 0.038851 0.756012
O O3 0.500000 0.000000 0.500000
O O4 0.679501 0.990494 0.534329
O O5 0.071864 0.250000 0.854000
O O6 0.163946 0.023044 0.836375
O O7 0.935961 0.004013 0.731357
O O8 0.166756 0.002112 0.010259
O O9 0.187519 0.250000 0.402582
O O10 0.230207 0.474083 0.547988
O O11 0.107060 0.750000 0.040557
O O12 0.000000 0.000000 0.000000
O O13 0.766694 0.250000 0.385433
O O14 0.985618 0.087198 0.566088
O O15 0.783753 0.022514 0.290818
O O16 0.796256 0.750000 0.239923
#
# Coordination Sequence:
#
# PCOD8070569 Si02
#       6
#     4   4   4   4   4   4
#     4  11  24  40  56  77 106 139 179 223 265 314
#     4  10  19  31  49  74 105 137 174 217 260 310
#     4  11  20  31  50  73 101 138 176 215 263 314
#     4  11  22  35  55  79 106 139 177 218 264 317
#     4   9  16  26  42  65  97 133 169 211 257 309
#     4   8  15  26  40  64  98 133 167 208 256 306
#
# _framework density 17.899274999999999
#
# number of rings (size 3 to 8) (size 9 to 14) (size 15 to 20)
#    0.000    2.000    1.667    4.500    0.000    6.667 
#    0.000    0.000    0.000    0.000    0.000    1.167 
#    0.000    0.000    0.000    0.000    0.000    0.000 
#
# Total GULP energy -297572.262898 kJ/mol
# GULP energy per Si atom -12398.844287 kJ/mol
# Density = 1.785854 g / cm^3
# Si number density = 17.899275 Si / 1000 Ang^3
#
#
#
# Elastic Constant Matrix: (Units=GPa)
#
#
# Indices 1 2 3 4 5 6 
#
# 1 121.4251 61.3480 52.5315 0.0000 -28.1737 0.0000
# 2 61.3480 122.9527 45.1409 0.0000 -11.3313 0.0000
# 3 52.5315 45.1409 57.8231 0.0000 -13.4015 0.0000
# 4 0.0000 0.0000 0.0000 23.4521 0.0000 -7.5293
# 5 -28.1737 -11.3313 -13.4015 0.0000 31.3714 0.0000
# 6 0.0000 0.0000 0.0000 -7.5293 0.0000 35.2814
#
#
#
# Elastic Compliance Matrix: (Units=1/GPa)
#
#
# Indices 1 2 3 4 5 6 
#
# 1 0.016624 -0.003763 -0.010011 0.000000 0.009294 0.000000
# 2 -0.003763 0.012256 -0.006556 0.000000 -0.001753 0.000000
# 3 -0.010011 -0.006556 0.032048 0.000000 0.002332 0.000000
# 4 0.000000 0.000000 0.000000 0.045776 0.000000 0.009769
# 5 0.009294 -0.001753 0.002332 0.000000 0.040586 0.000000
# 6 0.000000 0.000000 0.000000 0.009769 0.000000 0.030428
#
#
# Mechanical properties :
#
#
# Convention : Reuss Voigt Hill
#
# Bulk Modulus (GPa) = 49.33886 68.91574 59.12730
# Shear Modulus (GPa) = 22.20903 27.56635 24.88769
#
# Velocity S-wave (km/s) = 3.52629 3.92865 3.73289
# Velocity P-wave (km/s) = 6.64862 7.69185 7.18918
#
# Compressibility (1/GPa) = 0.02026800
#
# Stress axis : x y z
#
# Youngs Moduli (GPa) = 60.15371 81.59289 31.20349
#
# Poissons Ratio (x) = 0.30700 0.31239
# Poissons Ratio (y) = 0.22633 0.20457
# Poissons Ratio (z) = 0.60222 0.53492
#
# Static dielectric constant tensor:
#      x y z
#    x 3.514470 0.000000 -0.508800 
#    y 0.000000 3.436910 0.000000 
#    z -0.508800 0.000000 3.378260 
# 
# 
# High freq. dielectric constant tensor:
#      x y z
#    x 1.694740 0.000000 -0.041560 
#    y 0.000000 1.709390 0.000000 
#    z -0.041560 0.000000 1.643150 
# 
# From -- ./inp_files/25948.got.cif
#   From: 2010.06.25/outbox.cif.g09.slc.cpg/sg11_13_cif.got.tgz:25948.got - 2010.06.27 23:14:04.
