data_PCOD8070284
_publ_section_title
;
Structure prediction by ZEFSAII (Michael W. Deem and Ramdas Pophale) SiO2 
 PCOD8070284
Probable space group: P 21/M
;
_chemical_formula_sum "Si O2"
_cell_formula_units_Z 32
_cell_length_a 20.209932
_cell_length_b 8.965633
_cell_length_c 16.129856
_cell_angle_alpha 90.000000
_cell_angle_beta 32.958388
_cell_angle_gamma 90.000000
_cell_volume 1590.006808
_symmetry_space_group_name_H-M "P 21/M"
_symmetry_group_IT_number 11
_symmetry_cell_setting 'monoclinic'
loop_
_space_group_symop_operation_xyz
x,y,z
-x,1/2+y,-z
-x,-y,-z
x,1/2-y,z
loop_
_atom_site_type_symbol
_atom_site_label
_atom_site_fract_x
_atom_site_fract_y
_atom_site_fract_z
Si Si1 0.506790 0.424788 0.903998
Si Si2 0.451574 0.583662 0.427556
Si Si3 0.683804 0.585061 0.301799
Si Si4 0.111462 0.578923 0.343155
Si Si5 0.403922 0.927320 0.857401
Si Si6 0.817100 0.925970 0.004596
Si Si7 0.994080 0.075112 0.710919
Si Si8 0.778820 0.421144 0.609072
O O1 0.475311 0.250000 0.944700
O O2 0.413314 0.504901 0.939914
O O3 0.641822 0.449231 0.723494
O O4 0.500000 0.500000 0.000000
O O5 0.423135 0.750000 0.424814
O O6 0.565233 0.584760 0.369113
O O7 0.333345 0.524824 0.602155
O O8 0.479964 0.478501 0.319381
O O9 0.704907 0.750000 0.316083
O O10 0.796648 0.537820 0.123984
O O11 0.078200 0.750000 0.379055
O O12 0.113194 0.533768 0.244180
O O13 0.223484 0.543403 0.287732
O O14 0.000000 0.500000 0.500000
O O15 0.399626 0.750000 0.868487
O O16 0.281433 0.985761 0.945350
O O17 0.802838 0.750000 0.003376
O O18 0.950996 0.985718 0.838226
O O19 0.000793 0.250000 0.723644
O O20 0.127475 0.023308 0.540685
O O21 0.818782 0.250000 0.553000
#
# Coordination Sequence:
#
# PCOD8070284 Si02
#       8
#     4   4   4   4   4   4   4   4
#     4  11  24  40  57  77 102 137 179 222 264 306
#     4   9  16  28  48  72 101 134 171 210 252 308
#     4   8  15  27  44  70 103 137 169 204 250 305
#     4   8  15  28  45  67  91 119 156 200 247 296
#     4  11  22  36  53  74 104 140 178 219 262 309
#     4  10  20  33  50  76 110 142 174 211 257 313
#     4  10  19  30  50  77 104 132 168 211 258 311
#     4   9  19  36  54  70  96 132 172 213 257 308
#
# _framework density 20.125700999999999
#
# number of rings (size 3 to 8) (size 9 to 14) (size 15 to 20)
#    0.000    2.500    0.000    3.375    1.750    5.000 
#    0.000    0.000    0.000    0.000    0.000    0.875 
#    0.000    0.000    0.000    0.000    0.000    0.000 
#
# Total GULP energy -396457.270669 kJ/mol
# GULP energy per Si atom -12389.289708 kJ/mol
# Density = 2.007989 g / cm^3
# Si number density = 20.125701 Si / 1000 Ang^3
#
#
#
# Elastic Constant Matrix: (Units=GPa)
#
#
# Indices 1 2 3 4 5 6 
#
# 1 22.7876 15.9959 1.8811 0.0000 5.6974 0.0000
# 2 15.9959 117.8832 43.2879 0.0000 14.3143 0.0000
# 3 1.8811 43.2879 93.3810 0.0000 24.1694 0.0000
# 4 0.0000 0.0000 0.0000 33.7849 0.0000 7.5671
# 5 5.6974 14.3143 24.1694 0.0000 24.9581 0.0000
# 6 0.0000 0.0000 0.0000 7.5671 0.0000 20.5168
#
#
#
# Elastic Compliance Matrix: (Units=1/GPa)
#
#
# Indices 1 2 3 4 5 6 
#
# 1 0.052059 -0.007628 0.005913 0.000000 -0.013235 0.000000
# 2 -0.007628 0.011395 -0.005188 0.000000 0.000230 0.000000
# 3 0.005913 -0.005188 0.016780 0.000000 -0.014624 0.000000
# 4 0.000000 0.000000 0.000000 0.032264 0.000000 -0.011900
# 5 -0.013235 0.000230 -0.014624 0.000000 0.057118 0.000000
# 6 0.000000 0.000000 0.000000 -0.011900 0.000000 0.053129
#
#
# Mechanical properties :
#
#
# Convention : Reuss Voigt Hill
#
# Bulk Modulus (GPa) = 15.05402 39.59793 27.32597
# Shear Modulus (GPa) = 19.32771 27.37776 23.35274
#
# Velocity S-wave (km/s) = 3.10231 3.69228 3.41008
# Velocity P-wave (km/s) = 4.50874 6.15591 5.39555
#
# Compressibility (1/GPa) = 0.06642746
#
# Stress axis : x y z
#
# Youngs Moduli (GPa) = 19.20884 87.75506 59.59535
#
# Poissons Ratio (x) = 0.66942 -0.35240
# Poissons Ratio (y) = 0.14653 0.30920
# Poissons Ratio (z) = -0.11358 0.45531
#
# Static dielectric constant tensor:
#      x y z
#    x 2.875890 0.000000 0.277170 
#    y 0.000000 3.677170 0.000000 
#    z 0.277170 0.000000 3.779350 
# 
# 
# High freq. dielectric constant tensor:
#      x y z
#    x 1.739580 0.000000 0.023040 
#    y 0.000000 1.791700 0.000000 
#    z 0.023040 0.000000 1.787250 
# 
# From -- ./inp_files/61753.got.cif
#   From: 2010.06.25/outbox.cif.g09.slc.cpg/sg11_31_cif.got.tgz:61753.got - 2010.06.27 23:14:04.
