data_PCOD8070337
_publ_section_title
;
Structure prediction by ZEFSAII (Michael W. Deem and Ramdas Pophale) SiO2 
 PCOD8070337
Probable space group: P 21/M
;
_chemical_formula_sum "Si O2"
_cell_formula_units_Z 32
_cell_length_a 12.908687
_cell_length_b 9.150272
_cell_length_c 17.241684
_cell_angle_alpha 90.000000
_cell_angle_beta 90.630303
_cell_angle_gamma 90.000000
_cell_volume 2036.429953
_symmetry_space_group_name_H-M "P 21/M"
_symmetry_group_IT_number 11
_symmetry_cell_setting 'monoclinic'
loop_
_space_group_symop_operation_xyz
x,y,z
-x,1/2+y,-z
-x,-y,-z
x,1/2-y,z
loop_
_atom_site_type_symbol
_atom_site_label
_atom_site_fract_x
_atom_site_fract_y
_atom_site_fract_z
Si Si1 0.885274 0.077958 0.665345
Si Si2 0.802026 0.422944 0.823236
Si Si3 0.603702 0.421808 0.910663
Si Si4 0.892984 0.419065 0.499146
Si Si5 0.813525 0.420160 0.169436
Si Si6 0.004485 0.075946 0.917675
Si Si7 0.397963 0.580060 0.911233
Si Si8 0.897858 0.081547 0.332500
O O1 0.900102 0.250000 0.675493
O O2 0.810422 0.021912 0.733816
O O3 0.834986 0.037141 0.579802
O O4 0.998811 0.011518 0.676850
O O5 0.794953 0.250000 0.828574
O O6 0.698179 0.488371 0.860910
O O7 0.903087 0.476190 0.870267
O O8 0.592627 0.250000 0.898776
O O9 0.497607 0.494211 0.880510
O O10 0.626288 0.462433 0.000132
O O11 0.919060 0.250000 0.504954
O O12 0.839321 0.454275 0.415106
O O13 0.000000 0.500000 0.500000
O O14 0.835134 0.250000 0.149622
O O15 0.895125 0.521060 0.126675
O O16 0.699482 0.466719 0.141477
O O17 0.819194 0.451108 0.261778
O O18 0.009508 0.250000 0.927258
O O19 0.000000 0.000000 0.000000
O O20 0.422589 0.750000 0.903557
O O21 0.932520 0.250000 0.331537
#
# Coordination Sequence:
#
# PCOD8070337 Si02
#       8
#     4   4   4   4   4   4   4   4
#     4   9  15  26  42  61  87 117 146 173 209 257
#     4   9  17  29  45  64  87 115 143 177 218 258
#     4   9  17  31  48  62  79 105 143 186 223 257
#     4   8  14  23  38  59  84 114 144 173 205 247
#     4  10  19  31  46  64  90 119 145 177 218 262
#     4  11  21  32  45  63  90 120 149 176 212 263
#     4   9  18  32  47  62  82 109 142 183 227 261
#     4   9  16  26  40  62  90 116 143 175 210 250
#
# _framework density 15.713774000000001
#
# number of rings (size 3 to 8) (size 9 to 14) (size 15 to 20)
#    0.000    2.750    1.250    1.125    0.000    2.500 
#    0.000    4.375    0.000    0.000    0.000    0.875 
#    0.000    0.000    0.000    0.000    0.000    0.000 
#
# Total GULP energy -396460.934778 kJ/mol
# GULP energy per Si atom -12389.404212 kJ/mol
# Density = 1.567801 g / cm^3
# Si number density = 15.713774 Si / 1000 Ang^3
#
#
#
# Elastic Constant Matrix: (Units=GPa)
#
#
# Indices 1 2 3 4 5 6 
#
# 1 105.6371 27.2029 72.6758 0.0000 -1.5425 0.0000
# 2 27.2029 29.2676 31.4047 0.0000 -0.4737 0.0000
# 3 72.6758 31.4047 157.1055 0.0000 -3.8139 0.0000
# 4 0.0000 0.0000 0.0000 17.1906 0.0000 -0.8297
# 5 -1.5425 -0.4737 -3.8139 0.0000 17.1064 0.0000
# 6 0.0000 0.0000 0.0000 -0.8297 0.0000 21.0361
#
#
#
# Elastic Compliance Matrix: (Units=1/GPa)
#
#
# Indices 1 2 3 4 5 6 
#
# 1 0.015378 -0.008478 -0.005420 0.000000 -0.000057 0.000000
# 2 -0.008478 0.048180 -0.005726 0.000000 -0.000707 0.000000
# 3 -0.005420 -0.005726 0.010056 0.000000 0.001595 0.000000
# 4 0.000000 0.000000 0.000000 0.058282 0.000000 0.002299
# 5 -0.000057 -0.000707 0.001595 0.000000 0.058789 0.000000
# 6 0.000000 0.000000 0.000000 0.002299 0.000000 0.047628
#
#
# Mechanical properties :
#
#
# Convention : Reuss Voigt Hill
#
# Bulk Modulus (GPa) = 29.09943 61.61965 45.35954
# Shear Modulus (GPa) = 17.30005 21.78174 19.54089
#
# Velocity S-wave (km/s) = 3.32165 3.72715 3.53023
# Velocity P-wave (km/s) = 5.76800 7.60402 6.74874
#
# Compressibility (1/GPa) = 0.03436493
#
# Stress axis : x y z
#
# Youngs Moduli (GPa) = 65.02915 20.75543 99.44346
#
# Poissons Ratio (x) = 0.17596 0.53902
# Poissons Ratio (y) = 0.55129 0.56946
# Poissons Ratio (z) = 0.35248 0.11886
#
# Static dielectric constant tensor:
#      x y z
#    x 2.807260 0.000000 -0.055610 
#    y 0.000000 2.889860 0.000000 
#    z -0.055610 0.000000 3.719470 
# 
# 
# High freq. dielectric constant tensor:
#      x y z
#    x 1.563640 0.000000 -0.002110 
#    y 0.000000 1.594690 0.000000 
#    z -0.002110 0.000000 1.620000 
# 
# From -- ./inp_files/42466.got.cif
#   From: 2010.06.25/outbox.cif.g09.slc.cpg/sg11_22_cif.got.tgz:42466.got - 2010.06.27 23:14:04.
