data_PCOD8070562
_publ_section_title
;
Structure prediction by ZEFSAII (Michael W. Deem and Ramdas Pophale) SiO2 
 PCOD8070562
Probable space group: P 21/M
;
_chemical_formula_sum "Si O2"
_cell_formula_units_Z 32
_cell_length_a 22.731422
_cell_length_b 9.019510
_cell_length_c 27.976284
_cell_angle_alpha 90.000000
_cell_angle_beta 162.127344
_cell_angle_gamma 90.000000
_cell_volume 1760.353629
_symmetry_space_group_name_H-M "P 21/M"
_symmetry_group_IT_number 11
_symmetry_cell_setting 'monoclinic'
loop_
_space_group_symop_operation_xyz
x,y,z
-x,1/2+y,-z
-x,-y,-z
x,1/2-y,z
loop_
_atom_site_type_symbol
_atom_site_label
_atom_site_fract_x
_atom_site_fract_y
_atom_site_fract_z
Si Si1 0.855825 0.420154 0.354562
Si Si2 0.848213 0.920773 0.092242
Si Si3 0.145411 0.925445 0.148923
Si Si4 0.581444 0.076865 0.219825
Si Si5 0.879064 0.924131 0.519531
Si Si6 0.422280 0.422515 0.540705
Si Si7 0.167163 0.920522 0.416206
Si Si8 0.106209 0.076156 0.219670
O O1 0.905482 0.250000 0.398797
O O2 0.643034 0.453442 0.211357
O O3 0.000000 0.500000 0.500000
O O4 0.911572 0.463559 0.342943
O O5 0.854443 0.750000 0.080125
O O6 0.978379 0.945167 0.239063
O O7 0.636981 0.973056 0.943489
O O8 0.919203 0.024908 0.104232
O O9 0.115116 0.750000 0.124993
O O10 0.360142 0.969694 0.300164
O O11 0.107545 0.985631 0.172158
O O12 0.000000 0.000000 0.000000
O O13 0.607729 0.250000 0.252674
O O14 0.707496 0.981680 0.353619
O O15 0.852368 0.750000 0.506717
O O16 0.871978 0.002074 0.564412
O O17 0.400816 0.250000 0.535566
O O18 0.350963 0.510573 0.531915
O O19 0.297136 0.464357 0.397264
O O20 0.213603 0.750000 0.461391
O O21 0.091994 0.250000 0.197604
#
# Coordination Sequence:
#
# PCOD8070562 Si02
#       8
#     4   4   4   4   4   4   4   4
#     4   8  15  28  47  70  96 129 167 207 251 299
#     4   9  19  35  54  76 102 133 170 211 252 297
#     4  11  23  38  56  80 109 136 166 207 252 296
#     4   9  17  32  53  74  98 130 170 213 255 300
#     4  10  19  31  49  74 103 133 168 210 255 303
#     4   9  20  38  58  78 101 133 171 209 249 297
#     4  10  20  34  53  76 102 134 171 209 250 298
#     4  10  20  36  58  80 103 134 170 206 249 302
#
# _framework density 18.178166000000001
#
# number of rings (size 3 to 8) (size 9 to 14) (size 15 to 20)
#    0.000    2.500    0.000    1.875    0.000    4.000 
#    0.000    0.625    0.000    0.000    0.000    0.000 
#    0.000    0.000    0.000    0.000    0.000    0.000 
#
# Total GULP energy -396624.879835 kJ/mol
# GULP energy per Si atom -12394.527495 kJ/mol
# Density = 1.813679 g / cm^3
# Si number density = 18.178166 Si / 1000 Ang^3
#
#
#
# Elastic Constant Matrix: (Units=GPa)
#
#
# Indices 1 2 3 4 5 6 
#
# 1 169.5323 71.9516 76.7512 0.0000 16.9433 0.0000
# 2 71.9516 76.2367 41.2725 0.0000 7.9540 0.0000
# 3 76.7512 41.2725 106.8136 0.0000 24.9202 0.0000
# 4 0.0000 0.0000 0.0000 25.3017 0.0000 -1.5607
# 5 16.9433 7.9540 24.9202 0.0000 26.5675 0.0000
# 6 0.0000 0.0000 0.0000 -1.5607 0.0000 -4.5512
#
#
#
# Elastic Compliance Matrix: (Units=1/GPa)
#
#
# Indices 1 2 3 4 5 6 
#
# 1 0.011805 -0.008285 -0.005253 0.000000 -0.000121 0.000000
# 2 -0.008285 0.022439 -0.003050 0.000000 0.001427 0.000000
# 3 -0.005253 -0.003050 0.017052 0.000000 -0.011732 0.000000
# 4 0.000000 0.000000 0.000000 0.038704 0.000000 -0.013272
# 5 -0.000121 0.001427 -0.011732 0.000000 0.048294 0.000000
# 6 0.000000 0.000000 0.000000 -0.013272 0.000000 -0.215170
#
#
# Mechanical properties :
#
#
# Convention : Reuss Voigt Hill
#
# Bulk Modulus (GPa) = 55.18738 81.39258 68.28998
# Shear Modulus (GPa) = -132.77002 20.30409 -56.23296
#
# Velocity S-wave (km/s) = -8.55551 3.34570 -5.56790
# Velocity P-wave (km/s) = 8.19577 7.73286 1.92009
#
# Compressibility (1/GPa) = 0.01812008
#
# Stress axis : x y z
#
# Youngs Moduli (GPa) = 84.70875 44.56582 58.64340
#
# Poissons Ratio (x) = 0.36923 0.30806
# Poissons Ratio (y) = 0.70182 0.17885
# Poissons Ratio (z) = 0.44498 0.13592
#
# Static dielectric constant tensor:
#      x y z
#    x 3.649110 0.000000 0.330350 
#    y 0.000000 3.407920 0.000000 
#    z 0.330350 0.000000 3.386550 
# 
# 
# High freq. dielectric constant tensor:
#      x y z
#    x 1.717140 0.000000 0.019250 
#    y 0.000000 1.712310 0.000000 
#    z 0.019250 0.000000 1.687490 
# 
# From -- ./inp_files/66972.got.cif
#   From: 2010.06.25/outbox.cif.g09.slc.cpg/sg11_34_cif.got.tgz:66972.got - 2010.06.27 23:14:04.
