data_PCOD8070992
_publ_section_title
;
Structure prediction by ZEFSAII (Michael W. Deem and Ramdas Pophale) SiO2 
 PCOD8070992
Probable space group: P 21/M
;
_chemical_formula_sum "Si O2"
_cell_formula_units_Z 28
_cell_length_a 19.237237
_cell_length_b 8.772635
_cell_length_c 14.214516
_cell_angle_alpha 90.000000
_cell_angle_beta 41.495832
_cell_angle_gamma 90.000000
_cell_volume 1589.401770
_symmetry_space_group_name_H-M "P 21/M"
_symmetry_group_IT_number 11
_symmetry_cell_setting 'monoclinic'
loop_
_space_group_symop_operation_xyz
x,y,z
-x,1/2+y,-z
-x,-y,-z
x,1/2-y,z
loop_
_atom_site_type_symbol
_atom_site_label
_atom_site_fract_x
_atom_site_fract_y
_atom_site_fract_z
Si Si1 0.399720 0.575684 0.000213
Si Si2 0.097142 0.926091 0.011953
Si Si3 0.306305 0.925333 0.901236
Si Si4 0.119163 0.925697 0.773523
Si Si5 0.689536 0.572103 0.521128
Si Si6 0.618841 0.073987 0.772014
Si Si7 0.497970 0.071057 0.604269
O O1 0.441473 0.750000 0.958189
O O2 0.313320 0.551168 0.006689
O O3 0.496841 0.465718 0.880859
O O4 0.347925 0.537497 0.153871
O O5 0.064913 0.750000 0.056283
O O6 0.190174 0.974136 0.987718
O O7 0.135684 0.958322 0.867023
O O8 0.998089 0.029667 0.138619
O O9 0.328205 0.750000 0.850701
O O10 0.390084 0.029642 0.764329
O O11 0.139334 0.750000 0.728147
O O12 0.199527 0.029968 0.635737
O O13 0.669327 0.750000 0.530928
O O14 0.690831 0.525746 0.629781
O O15 0.595942 0.485050 0.565035
O O16 0.635402 0.250000 0.729851
O O17 0.506631 0.250000 0.584695
O O18 0.500000 0.000000 0.500000
#
# Coordination Sequence:
#
# PCOD8070992 Si02
#       7
#     4   4   4   4   4   4   4
#     4   9  18  32  52  77 107 141 177 217 265 318
#     4   9  19  35  55  78 105 138 176 217 263 314
#     4  10  19  34  55  79 108 141 176 217 264 318
#     4  10  20  35  55  78 105 139 180 222 263 314
#     4  12  23  36  54  77 107 142 179 222 270 319
#     4  10  19  32  51  77 107 140 178 220 264 319
#     4  12  24  36  51  76 109 144 177 214 263 319
#
# _framework density 17.616692
#
# number of rings (size 3 to 8) (size 9 to 14) (size 15 to 20)
#    0.000    1.714    1.429    4.286    0.000    2.857 
#    0.000    0.000    0.000    0.857    0.000    0.000 
#    0.000    0.000    0.000    0.000    0.000    0.000 
#
# Total GULP energy -347293.587546 kJ/mol
# GULP energy per Si atom -12403.342412 kJ/mol
# Density = 1.757660 g / cm^3
# Si number density = 17.616692 Si / 1000 Ang^3
#
#
#
# Elastic Constant Matrix: (Units=GPa)
#
#
# Indices 1 2 3 4 5 6 
#
# 1 128.3949 40.3237 53.1160 0.0000 3.5920 0.0000
# 2 40.3237 99.6167 40.0758 0.0000 3.4052 0.0000
# 3 53.1160 40.0758 68.4257 0.0000 2.5745 0.0000
# 4 0.0000 0.0000 0.0000 22.9364 0.0000 3.7750
# 5 3.5920 3.4052 2.5745 0.0000 22.4924 0.0000
# 6 0.0000 0.0000 0.0000 3.7750 0.0000 22.2952
#
#
#
# Elastic Compliance Matrix: (Units=1/GPa)
#
#
# Indices 1 2 3 4 5 6 
#
# 1 0.011633 -0.001390 -0.008189 0.000000 -0.000710 0.000000
# 2 -0.001390 0.013327 -0.006687 0.000000 -0.001030 0.000000
# 3 -0.008189 -0.006687 0.024908 0.000000 -0.000531 0.000000
# 4 0.000000 0.000000 0.000000 0.044849 0.000000 -0.007594
# 5 -0.000710 -0.001030 -0.000531 0.000000 0.044790 0.000000
# 6 0.000000 0.000000 0.000000 -0.007594 0.000000 0.046138
#
#
# Mechanical properties :
#
#
# Convention : Reuss Voigt Hill
#
# Bulk Modulus (GPa) = 57.68963 62.60759 60.14861
# Shear Modulus (GPa) = 22.32587 24.40623 23.36605
#
# Velocity S-wave (km/s) = 3.56380 3.72614 3.64587
# Velocity P-wave (km/s) = 7.05354 7.35718 7.20696
#
# Compressibility (1/GPa) = 0.01733414
#
# Stress axis : x y z
#
# Youngs Moduli (GPa) = 85.96476 75.03721 40.14773
#
# Poissons Ratio (x) = 0.10430 0.32878
# Poissons Ratio (y) = 0.11949 0.26849
# Poissons Ratio (z) = 0.70398 0.50181
#
# Static dielectric constant tensor:
#      x y z
#    x 3.448480 0.000000 0.232070 
#    y 0.000000 3.374560 0.000000 
#    z 0.232070 0.000000 3.320760 
# 
# 
# High freq. dielectric constant tensor:
#      x y z
#    x 1.677440 0.000000 0.013140 
#    y 0.000000 1.690410 0.000000 
#    z 0.013140 0.000000 1.666280 
# 
# From -- ./inp_files/53184.got.cif
#   From: 2010.06.25/outbox.cif.g09.slc.cpg/sg11_27_cif.got.tgz:53184.got - 2010.06.27 23:14:04.
