data_PCOD8070801
_publ_section_title
;
Structure prediction by ZEFSAII (Michael W. Deem and Ramdas Pophale) SiO2 
 PCOD8070801
Probable space group: P 21/M
;
_chemical_formula_sum "Si O2"
_cell_formula_units_Z 32
_cell_length_a 21.053806
_cell_length_b 8.899594
_cell_length_c 15.666723
_cell_angle_alpha 90.000000
_cell_angle_beta 137.857675
_cell_angle_gamma 90.000000
_cell_volume 1969.631668
_symmetry_space_group_name_H-M "P 21/M"
_symmetry_group_IT_number 11
_symmetry_cell_setting 'monoclinic'
loop_
_space_group_symop_operation_xyz
x,y,z
-x,1/2+y,-z
-x,-y,-z
x,1/2-y,z
loop_
_atom_site_type_symbol
_atom_site_label
_atom_site_fract_x
_atom_site_fract_y
_atom_site_fract_z
Si Si1 0.606923 0.076305 0.700473
Si Si2 0.899770 0.425024 0.581828
Si Si3 0.101766 0.573851 0.095211
Si Si4 0.113087 0.426957 0.783609
Si Si5 0.217740 0.427013 0.058799
Si Si6 0.101286 0.925042 0.605913
Si Si7 0.392727 0.075786 0.479474
Si Si8 0.220689 0.573495 0.382039
O O1 0.636628 0.250000 0.733552
O O2 0.498562 0.051497 0.621069
O O3 0.673579 0.981700 0.830111
O O4 0.623430 0.021379 0.620962
O O5 0.909120 0.250000 0.611037
O O6 0.851576 0.453636 0.440553
O O7 0.833908 0.494198 0.589992
O O8 0.006658 0.490810 0.692994
O O9 0.089050 0.750000 0.069492
O O10 0.157644 0.507499 0.071371
O O11 0.158525 0.536370 0.237471
O O12 0.000000 0.500000 0.000000
O O13 0.111494 0.250000 0.767837
O O14 0.157320 0.500581 0.741218
O O15 0.177834 0.474554 0.927159
O O16 0.211046 0.250000 0.066618
O O17 0.090037 0.750000 0.612493
O O18 0.000000 0.000000 0.500000
O O19 0.374751 0.250000 0.439820
O O20 0.319696 0.015880 0.477165
O O21 0.242041 0.750000 0.411941
#
# Coordination Sequence:
#
# PCOD8070801 Si02
#       8
#     4   4   4   4   4   4   4   4
#     4  10  20  34  50  69  93 123 158 199 245 291
#     4   8  15  29  47  67  94 127 158 190 231 281
#     4  11  22  33  46  66  96 134 168 196 230 277
#     4   9  18  32  48  68  96 128 161 197 239 283
#     4  11  21  33  50  71  96 127 162 202 243 285
#     4   9  16  28  47  69  94 125 159 197 239 279
#     4  10  20  33  50  70  93 121 158 202 244 285
#     4  10  19  32  49  68  94 128 162 195 236 284
#
# _framework density 16.246691999999999
#
# number of rings (size 3 to 8) (size 9 to 14) (size 15 to 20)
#    0.000    2.250    1.250    3.375    0.000    5.000 
#    0.000    3.125    0.000    0.000    0.000    0.875 
#    0.000    0.000    0.000    0.000    0.000    0.000 
#
# Total GULP energy -396709.754509 kJ/mol
# GULP energy per Si atom -12397.179828 kJ/mol
# Density = 1.620971 g / cm^3
# Si number density = 16.246692 Si / 1000 Ang^3
#
#
#
# Elastic Constant Matrix: (Units=GPa)
#
#
# Indices 1 2 3 4 5 6 
#
# 1 83.7749 41.1078 71.4569 0.0000 -7.1131 0.0000
# 2 41.1078 61.3755 44.8559 0.0000 -6.8276 0.0000
# 3 71.4569 44.8559 105.6140 0.0000 -10.8341 0.0000
# 4 0.0000 0.0000 0.0000 27.4992 0.0000 0.5223
# 5 -7.1131 -6.8276 -10.8341 0.0000 28.8903 0.0000
# 6 0.0000 0.0000 0.0000 0.5223 0.0000 25.4341
#
#
#
# Elastic Compliance Matrix: (Units=1/GPa)
#
#
# Indices 1 2 3 4 5 6 
#
# 1 0.030608 -0.007826 -0.017474 0.000000 -0.000866 0.000000
# 2 -0.007826 0.025728 -0.005414 0.000000 0.002123 0.000000
# 3 -0.017474 -0.005414 0.023939 0.000000 0.003395 0.000000
# 4 0.000000 0.000000 0.000000 0.036379 0.000000 -0.000747
# 5 -0.000866 0.002123 0.003395 0.000000 0.036175 0.000000
# 6 0.000000 0.000000 0.000000 -0.000747 0.000000 0.039333
#
#
# Mechanical properties :
#
#
# Convention : Reuss Voigt Hill
#
# Bulk Modulus (GPa) = 53.06089 62.84507 57.95298
# Shear Modulus (GPa) = 19.24019 22.58765 20.91392
#
# Velocity S-wave (km/s) = 3.44503 3.73271 3.59175
# Velocity P-wave (km/s) = 6.96812 7.57253 7.27660
#
# Compressibility (1/GPa) = 0.01884627
#
# Stress axis : x y z
#
# Youngs Moduli (GPa) = 32.67113 38.86810 41.77302
#
# Poissons Ratio (x) = 0.30419 0.72994
# Poissons Ratio (y) = 0.25569 0.22617
# Poissons Ratio (z) = 0.57089 0.21044
#
# Static dielectric constant tensor:
#      x y z
#    x 3.207120 0.000000 -0.161620 
#    y 0.000000 3.153570 0.000000 
#    z -0.161620 0.000000 3.086730 
# 
# 
# High freq. dielectric constant tensor:
#      x y z
#    x 1.610570 0.000000 -0.006370 
#    y 0.000000 1.627900 0.000000 
#    z -0.006370 0.000000 1.611220 
# 
# From -- ./inp_files/51359.got.cif
#   From: 2010.06.25/outbox.cif.g09.slc.cpg/sg11_26_cif.got.tgz:51359.got - 2010.06.27 23:14:04.
