data_PCOD8070904
_publ_section_title
;
Structure prediction by ZEFSAII (Michael W. Deem and Ramdas Pophale) SiO2 
 PCOD8070904
Probable space group: P 21/M
;
_chemical_formula_sum "Si O2"
_cell_formula_units_Z 32
_cell_length_a 29.277535
_cell_length_b 8.962145
_cell_length_c 12.544832
_cell_angle_alpha 90.000000
_cell_angle_beta 150.363265
_cell_angle_gamma 90.000000
_cell_volume 1627.709702
_symmetry_space_group_name_H-M "P 21/M"
_symmetry_group_IT_number 11
_symmetry_cell_setting 'monoclinic'
loop_
_space_group_symop_operation_xyz
x,y,z
-x,1/2+y,-z
-x,-y,-z
x,1/2-y,z
loop_
_atom_site_type_symbol
_atom_site_label
_atom_site_fract_x
_atom_site_fract_y
_atom_site_fract_z
Si Si1 0.207705 0.924779 0.736828
Si Si2 0.852142 0.923420 0.995795
Si Si3 0.708963 0.572816 0.525102
Si Si4 0.490832 0.427779 0.811235
Si Si5 0.269591 0.084985 0.054735
Si Si6 0.019468 0.072594 0.424612
Si Si7 0.466040 0.084070 0.531998
Si Si8 0.308225 0.574125 0.721950
O O1 0.184260 0.750000 0.690832
O O2 0.255760 0.972206 0.723650
O O3 0.117286 0.022258 0.575185
O O4 0.277694 0.964514 0.975868
O O5 0.874236 0.750000 0.019120
O O6 0.780035 0.983008 0.760340
O O7 0.816163 0.948963 0.042806
O O8 0.945820 0.019643 0.185259
O O9 0.709115 0.750000 0.520755
O O10 0.604476 0.510411 0.332063
O O11 0.741886 0.506868 0.478432
O O12 0.484109 0.250000 0.791011
O O13 0.499905 0.492200 0.709626
O O14 0.583946 0.479458 0.059708
O O15 0.259840 0.250000 0.983637
O O16 0.355617 0.081138 0.309005
O O17 0.016902 0.250000 0.432065
O O18 0.000000 0.000000 0.500000
O O19 0.506171 0.250000 0.606285
O O20 0.500000 0.000000 0.500000
O O21 0.302808 0.750000 0.694721
#
# Coordination Sequence:
#
# PCOD8070904 Si02
#       8
#     4   4   4   4   4   4   4   4
#     4  11  23  39  59  86 119 156 194 238 294 350
#     4  10  20  37  60  88 116 148 189 238 291 342
#     4  10  20  37  62  86 114 155 199 240 288 340
#     4   9  17  34  57  81 113 154 195 236 283 339
#     4  10  19  33  56  82 113 151 190 236 291 349
#     4  12  24  39  62  91 119 151 189 236 290 350
#     4  10  19  32  50  77 114 155 194 234 288 347
#     4  10  22  38  57  83 118 156 196 243 289 336
#
# _framework density 19.659523
#
# number of rings (size 3 to 8) (size 9 to 14) (size 15 to 20)
#    0.000    1.750    2.500    2.625    0.000    3.000 
#    0.000    1.875    0.000    0.000    0.000    0.000 
#    0.000    0.000    0.000    0.000    0.000    0.000 
#
# Total GULP energy -396673.452211 kJ/mol
# GULP energy per Si atom -12396.045382 kJ/mol
# Density = 1.961478 g / cm^3
# Si number density = 19.659523 Si / 1000 Ang^3
#
#
#
# Elastic Constant Matrix: (Units=GPa)
#
#
# Indices 1 2 3 4 5 6 
#
# 1 80.0035 32.6596 45.0813 0.0000 -16.7108 0.0000
# 2 32.6596 63.2687 38.1996 0.0000 -7.0492 0.0000
# 3 45.0813 38.1996 106.1005 0.0000 -11.1970 0.0000
# 4 0.0000 0.0000 0.0000 29.8847 0.0000 -3.5423
# 5 -16.7108 -7.0492 -11.1970 0.0000 29.1405 0.0000
# 6 0.0000 0.0000 0.0000 -3.5423 0.0000 29.5820
#
#
#
# Elastic Compliance Matrix: (Units=1/GPa)
#
#
# Indices 1 2 3 4 5 6 
#
# 1 0.019577 -0.006025 -0.005334 0.000000 0.007720 0.000000
# 2 -0.006025 0.022184 -0.005446 0.000000 -0.000181 0.000000
# 3 -0.005334 -0.005446 0.013748 0.000000 0.000906 0.000000
# 4 0.000000 0.000000 0.000000 0.033944 0.000000 0.004065
# 5 0.007720 -0.000181 0.000906 0.000000 0.039048 0.000000
# 6 0.000000 0.000000 0.000000 0.004065 0.000000 0.034291
#
#
# Mechanical properties :
#
#
# Convention : Reuss Voigt Hill
#
# Bulk Modulus (GPa) = 45.66613 53.47262 49.56937
# Shear Modulus (GPa) = 24.54569 26.61691 25.58130
#
# Velocity S-wave (km/s) = 3.53730 3.68352 3.61115
# Velocity P-wave (km/s) = 6.32157 6.73420 6.53115
#
# Compressibility (1/GPa) = 0.02189807
#
# Stress axis : x y z
#
# Youngs Moduli (GPa) = 51.07929 45.07817 72.73836
#
# Poissons Ratio (x) = 0.27160 0.38802
# Poissons Ratio (y) = 0.30776 0.39613
# Poissons Ratio (z) = 0.27248 0.24549
#
# Static dielectric constant tensor:
#      x y z
#    x 3.570570 0.000000 0.155970 
#    y 0.000000 3.199110 0.000000 
#    z 0.155970 0.000000 4.487890 
# 
# 
# High freq. dielectric constant tensor:
#      x y z
#    x 1.759130 0.000000 -0.001880 
#    y 0.000000 1.743130 0.000000 
#    z -0.001880 0.000000 1.776740 
# 
# From -- ./inp_files/45307.got.cif
#   From: 2010.06.25/outbox.cif.g09.slc.cpg/sg11_23_cif.got.tgz:45307.got - 2010.06.27 23:14:04.
