data_PCOD8070792
_publ_section_title
;
Structure prediction by ZEFSAII (Michael W. Deem and Ramdas Pophale) SiO2 
 PCOD8070792
Probable space group: P 21/M
;
_chemical_formula_sum "Si O2"
_cell_formula_units_Z 28
_cell_length_a 9.568977
_cell_length_b 8.828594
_cell_length_c 28.558053
_cell_angle_alpha 90.000000
_cell_angle_beta 40.202140
_cell_angle_gamma 90.000000
_cell_volume 1557.301218
_symmetry_space_group_name_H-M "P 21/M"
_symmetry_group_IT_number 11
_symmetry_cell_setting 'monoclinic'
loop_
_space_group_symop_operation_xyz
x,y,z
-x,1/2+y,-z
-x,-y,-z
x,1/2-y,z
loop_
_atom_site_type_symbol
_atom_site_label
_atom_site_fract_x
_atom_site_fract_y
_atom_site_fract_z
Si Si1 0.675580 0.078432 0.561052
Si Si2 0.640688 0.430647 0.005961
Si Si3 0.496129 0.572533 0.856282
Si Si4 0.135588 0.422232 0.402018
Si Si5 0.633325 0.427490 0.424046
Si Si6 0.885534 0.571666 0.697499
Si Si7 0.956042 0.072417 0.060929
O O1 0.591808 0.250000 0.580770
O O2 0.878682 0.055693 0.474442
O O3 0.735247 0.037915 0.598720
O O4 0.485531 0.966381 0.593908
O O5 0.639748 0.250000 0.002009
O O6 0.546675 0.490540 0.080146
O O7 0.500000 0.500000 0.000000
O O8 0.891209 0.490453 0.939307
O O9 0.526387 0.750000 0.854704
O O10 0.715304 0.499961 0.778247
O O11 0.302586 0.542984 0.867803
O O12 0.198853 0.250000 0.398868
O O13 0.198818 0.463486 0.333057
O O14 0.500000 0.500000 0.500000
O O15 0.644053 0.250000 0.430624
O O16 0.874658 0.497264 0.357750
O O17 0.897910 0.750000 0.702430
O O18 0.010594 0.250000 0.047298
O O19 0.000000 0.000000 0.000000
#
# Coordination Sequence:
#
# PCOD8070792 Si02
#       7
#     4   4   4   4   4   4   4
#     4  10  19  32  48  71  97 124 162 208 251 297
#     4  10  19  32  53  80 106 136 171 209 251 297
#     4   8  16  31  52  76 100 129 169 213 249 293
#     4   9  17  31  50  71  92 123 161 204 253 296
#     4  11  20  32  51  74  99 131 169 212 258 303
#     4   9  17  32  52  74  99 127 169 216 254 296
#     4   9  16  29  51  77 102 131 166 204 245 294
#
# _framework density 17.979823
#
# number of rings (size 3 to 8) (size 9 to 14) (size 15 to 20)
#    0.000    2.571    1.429    2.571    0.000    0.571 
#    0.000    1.429    0.000   24.000    0.000    0.000 
#    0.000    0.000    0.000    0.000    0.000    0.000 
#
# Total GULP energy -346971.792554 kJ/mol
# GULP energy per Si atom -12391.849734 kJ/mol
# Density = 1.793890 g / cm^3
# Si number density = 17.979823 Si / 1000 Ang^3
#
#
#
# Elastic Constant Matrix: (Units=GPa)
#
#
# Indices 1 2 3 4 5 6 
#
# 1 117.0726 36.8730 57.2198 0.0000 -15.3837 0.0000
# 2 36.8730 57.3042 26.9564 0.0000 -8.5642 0.0000
# 3 57.2198 26.9564 109.8434 0.0000 -9.5657 0.0000
# 4 0.0000 0.0000 0.0000 15.6618 0.0000 -1.7921
# 5 -15.3837 -8.5642 -9.5657 0.0000 22.9874 0.0000
# 6 0.0000 0.0000 0.0000 -1.7921 0.0000 32.9909
#
#
#
# Elastic Compliance Matrix: (Units=1/GPa)
#
#
# Indices 1 2 3 4 5 6 
#
# 1 0.013462 -0.005477 -0.005252 0.000000 0.004783 0.000000
# 2 -0.005477 0.022660 -0.002378 0.000000 0.003787 0.000000
# 3 -0.005252 -0.002378 0.012493 0.000000 0.000798 0.000000
# 4 0.000000 0.000000 0.000000 0.064249 0.000000 0.003490
# 5 0.004783 0.003787 0.000798 0.000000 0.048446 0.000000
# 6 0.000000 0.000000 0.000000 0.003490 0.000000 0.030501
#
#
# Mechanical properties :
#
#
# Convention : Reuss Voigt Hill
#
# Bulk Modulus (GPa) = 44.64171 58.47987 51.56079
# Shear Modulus (GPa) = 22.17378 25.20609 23.68994
#
# Velocity S-wave (km/s) = 3.51559 3.74827 3.63379
# Velocity P-wave (km/s) = 6.43132 7.16440 6.80773
#
# Compressibility (1/GPa) = 0.02240057
#
# Stress axis : x y z
#
# Youngs Moduli (GPa) = 74.28176 44.13158 80.04556
#
# Poissons Ratio (x) = 0.24170 0.42041
# Poissons Ratio (y) = 0.40683 0.19035
# Poissons Ratio (z) = 0.39014 0.10494
#
# Static dielectric constant tensor:
#      x y z
#    x 3.570970 0.000000 -0.309320 
#    y 0.000000 3.267600 0.000000 
#    z -0.309320 0.000000 3.590020 
# 
# 
# High freq. dielectric constant tensor:
#      x y z
#    x 1.700860 0.000000 -0.013110 
#    y 0.000000 1.678110 0.000000 
#    z -0.013110 0.000000 1.672690 
# 
# From -- ./inp_files/66009.got.cif
#   From: 2010.06.25/outbox.cif.g09.slc.cpg/sg11_34_cif.got.tgz:66009.got - 2010.06.27 23:14:04.
