data_PCOD8070447
_publ_section_title
;
Structure prediction by ZEFSAII (Michael W. Deem and Ramdas Pophale) SiO2 
 PCOD8070447
Probable space group: P 21/M
;
_chemical_formula_sum "Si O2"
_cell_formula_units_Z 28
_cell_length_a 18.342047
_cell_length_b 8.876545
_cell_length_c 16.181319
_cell_angle_alpha 90.000000
_cell_angle_beta 37.936531
_cell_angle_gamma 90.000000
_cell_volume 1619.687360
_symmetry_space_group_name_H-M "P 21/M"
_symmetry_group_IT_number 11
_symmetry_cell_setting 'monoclinic'
loop_
_space_group_symop_operation_xyz
x,y,z
-x,1/2+y,-z
-x,-y,-z
x,1/2-y,z
loop_
_atom_site_type_symbol
_atom_site_label
_atom_site_fract_x
_atom_site_fract_y
_atom_site_fract_z
Si Si1 0.995323 0.071544 0.770005
Si Si2 0.914532 0.927219 0.009827
Si Si3 0.237955 0.928530 0.502125
Si Si4 0.349434 0.076454 0.698410
Si Si5 0.422843 0.075190 0.449587
Si Si6 0.091225 0.083519 0.309748
Si Si7 0.828578 0.084040 0.614228
O O1 0.000519 0.250000 0.772805
O O2 0.914711 0.025423 0.763884
O O3 0.128680 0.010185 0.644442
O O4 0.934081 0.002326 0.904441
O O5 0.939202 0.750000 0.982987
O O6 0.781165 0.963820 0.155555
O O7 0.000000 0.000000 0.000000
O O8 0.217603 0.750000 0.527636
O O9 0.245242 0.976826 0.398807
O O10 0.359691 0.978532 0.435133
O O11 0.382450 0.250000 0.684704
O O12 0.358175 0.038467 0.593639
O O13 0.440253 0.974134 0.668931
O O14 0.414967 0.250000 0.433556
O O15 0.132355 0.250000 0.244776
O O16 0.964533 0.092734 0.465705
O O17 0.185747 0.021887 0.292708
O O18 0.783664 0.250000 0.679593
#
# Coordination Sequence:
#
# PCOD8070447 Si02
#       7
#     4   4   4   4   4   4   4
#     4  11  21  32  47  69  99 132 166 202 242 288
#     4  11  22  36  53  73  99 130 165 201 239 285
#     4  10  19  31  48  71 100 131 163 199 242 290
#     4   9  20  36  51  69  95 128 162 197 239 285
#     4  10  19  32  52  75  97 123 159 201 243 286
#     4   9  16  27  43  64  92 126 161 196 238 287
#     4   8  15  26  41  64  93 125 158 194 237 284
#
# _framework density 17.287286999999999
#
# number of rings (size 3 to 8) (size 9 to 14) (size 15 to 20)
#    0.000    2.286    0.000    4.714    0.000    6.857 
#    0.000    0.000    0.000    0.000    0.000    1.000 
#    0.000    0.000    0.000    0.000    0.000    0.000 
#
# Total GULP energy -347193.299778 kJ/mol
# GULP energy per Si atom -12399.760706 kJ/mol
# Density = 1.724794 g / cm^3
# Si number density = 17.287287 Si / 1000 Ang^3
#
#
#
# Elastic Constant Matrix: (Units=GPa)
#
#
# Indices 1 2 3 4 5 6 
#
# 1 136.4235 60.7196 47.2859 0.0000 8.2439 0.0000
# 2 60.7196 108.6576 41.9527 0.0000 0.3018 0.0000
# 3 47.2859 41.9527 60.2578 0.0000 2.2227 0.0000
# 4 0.0000 0.0000 0.0000 22.9782 0.0000 2.7395
# 5 8.2439 0.3018 2.2227 0.0000 16.3956 0.0000
# 6 0.0000 0.0000 0.0000 2.7395 0.0000 34.2201
#
#
#
# Elastic Compliance Matrix: (Units=1/GPa)
#
#
# Indices 1 2 3 4 5 6 
#
# 1 0.011542 -0.004115 -0.006011 0.000000 -0.004913 0.000000
# 2 -0.004115 0.014069 -0.006666 0.000000 0.002714 0.000000
# 3 -0.006011 -0.006666 0.025967 0.000000 -0.000375 0.000000
# 4 0.000000 0.000000 0.000000 0.043939 0.000000 -0.003517
# 5 -0.004913 0.002714 -0.000375 0.000000 0.063463 0.000000
# 6 0.000000 0.000000 0.000000 -0.003517 0.000000 0.029504
#
#
# Mechanical properties :
#
#
# Convention : Reuss Voigt Hill
#
# Bulk Modulus (GPa) = 55.57449 67.25059 61.41254
# Shear Modulus (GPa) = 21.92341 25.07752 23.50046
#
# Velocity S-wave (km/s) = 3.56502 3.81285 3.69101
# Velocity P-wave (km/s) = 7.01165 7.64002 7.33257
#
# Compressibility (1/GPa) = 0.01799387
#
# Stress axis : x y z
#
# Youngs Moduli (GPa) = 86.63878 71.07747 38.51043
#
# Poissons Ratio (x) = 0.29252 0.23148
# Poissons Ratio (y) = 0.35656 0.25670
# Poissons Ratio (z) = 0.52078 0.47379
#
# Static dielectric constant tensor:
#      x y z
#    x 3.396030 0.000000 0.206890 
#    y 0.000000 3.421720 0.000000 
#    z 0.206890 0.000000 2.937670 
# 
# 
# High freq. dielectric constant tensor:
#      x y z
#    x 1.675500 0.000000 0.018020 
#    y 0.000000 1.682090 0.000000 
#    z 0.018020 0.000000 1.620450 
# 
# From -- ./inp_files/53225.got.cif
#   From: 2010.06.25/outbox.cif.g09.slc.cpg/sg11_27_cif.got.tgz:53225.got - 2010.06.27 23:14:04.
