data_PCOD8070310
_publ_section_title
;
Structure prediction by ZEFSAII (Michael W. Deem and Ramdas Pophale) SiO2 
 PCOD8070310
Probable space group: P 21/M
;
_chemical_formula_sum "Si O2"
_cell_formula_units_Z 32
_cell_length_a 16.657854
_cell_length_b 8.627594
_cell_length_c 11.921995
_cell_angle_alpha 90.000000
_cell_angle_beta 85.597337
_cell_angle_gamma 90.000000
_cell_volume 1708.339841
_symmetry_space_group_name_H-M "P 21/M"
_symmetry_group_IT_number 11
_symmetry_cell_setting 'monoclinic'
loop_
_space_group_symop_operation_xyz
x,y,z
-x,1/2+y,-z
-x,-y,-z
x,1/2-y,z
loop_
_atom_site_type_symbol
_atom_site_label
_atom_site_fract_x
_atom_site_fract_y
_atom_site_fract_z
Si Si1 0.346619 0.428987 0.059392
Si Si2 0.660149 0.568511 0.591197
Si Si3 0.732864 0.930674 0.348141
Si Si4 0.896839 0.069962 0.404056
Si Si5 0.210011 0.071514 0.243043
Si Si6 0.624994 0.429348 0.179341
Si Si7 0.940061 0.070411 0.651424
Si Si8 0.543318 0.430114 0.765641
O O1 0.358208 0.250000 0.024032
O O2 0.258868 0.457234 0.123113
O O3 0.416354 0.470824 0.139769
O O4 0.353264 0.536885 0.951254
O O5 0.643764 0.750000 0.610028
O O6 0.678484 0.524647 0.461410
O O7 0.735772 0.515864 0.658350
O O8 0.581673 0.475313 0.641309
O O9 0.725722 0.750000 0.321558
O O10 0.825502 0.970427 0.359008
O O11 0.701879 0.028719 0.246373
O O12 0.877732 0.250000 0.389964
O O13 0.905803 0.023968 0.533232
O O14 0.979269 0.026111 0.331061
O O15 0.186218 0.250000 0.260016
O O16 0.128000 0.972339 0.249877
O O17 0.603046 0.250000 0.194587
O O18 0.550806 0.532965 0.228985
O O19 0.961958 0.250000 0.655967
O O20 0.556778 0.250000 0.788532
#
# Coordination Sequence:
#
# PCOD8070310 Si02
#       8
#     4   4   4   4   4   4   4   4
#     4  10  21  39  60  83 110 142 183 230 279 324
#     4   9  19  35  55  80 111 146 181 222 275 329
#     4  11  22  38  58  79 111 149 185 225 273 330
#     4  10  20  33  51  79 114 149 183 222 267 319
#     4   9  17  32  55  82 111 142 176 224 275 322
#     4  12  25  40  57  79 108 145 188 229 274 328
#     4  10  19  30  51  82 114 146 182 222 266 319
#     4  11  22  37  59  84 110 141 181 231 280 324
#
# _framework density 18.731635000000001
#
# number of rings (size 3 to 8) (size 9 to 14) (size 15 to 20)
#    0.000    1.750    1.250    4.875    0.000    5.000 
#    0.000    0.000    0.000    0.750    0.000    0.000 
#    0.000    0.000    0.000    0.000    0.000    0.000 
#
# Total GULP energy -396958.085216 kJ/mol
# GULP energy per Si atom -12404.940163 kJ/mol
# Density = 1.868900 g / cm^3
# Si number density = 18.731635 Si / 1000 Ang^3
#
#
#
# Elastic Constant Matrix: (Units=GPa)
#
#
# Indices 1 2 3 4 5 6 
#
# 1 98.7726 26.0074 33.9162 0.0000 -12.0434 0.0000
# 2 26.0074 65.0067 19.2114 0.0000 -6.0205 0.0000
# 3 33.9162 19.2114 39.3125 0.0000 5.4522 0.0000
# 4 0.0000 0.0000 0.0000 26.7788 0.0000 -3.8639
# 5 -12.0434 -6.0205 5.4522 0.0000 21.1922 0.0000
# 6 0.0000 0.0000 0.0000 -3.8639 0.0000 34.7229
#
#
#
# Elastic Compliance Matrix: (Units=1/GPa)
#
#
# Indices 1 2 3 4 5 6 
#
# 1 0.017958 -0.000801 -0.017096 0.000000 0.014376 0.000000
# 2 -0.000801 0.019293 -0.009784 0.000000 0.007543 0.000000
# 3 -0.017096 -0.009784 0.048428 0.000000 -0.024954 0.000000
# 4 0.000000 0.000000 0.000000 0.037952 0.000000 0.004223
# 5 0.014376 0.007543 -0.024954 0.000000 0.063920 0.000000
# 6 0.000000 0.000000 0.000000 0.004223 0.000000 0.029269
#
#
# Mechanical properties :
#
#
# Convention : Reuss Voigt Hill
#
# Bulk Modulus (GPa) = 32.98201 40.15134 36.56667
# Shear Modulus (GPa) = 17.71237 24.80256 21.25746
#
# Velocity S-wave (km/s) = 3.07837 3.64277 3.37240
# Velocity P-wave (km/s) = 5.50282 6.25896 5.89303
#
# Compressibility (1/GPa) = 0.03031956
#
# Stress axis : x y z
#
# Youngs Moduli (GPa) = 55.68441 51.83136 20.64914
#
# Poissons Ratio (x) = 0.04151 0.35301
# Poissons Ratio (y) = 0.04460 0.20202
# Poissons Ratio (z) = 0.95197 0.50709
#
# Static dielectric constant tensor:
#      x y z
#    x 3.401660 0.000000 -0.189120 
#    y 0.000000 3.380320 0.000000 
#    z -0.189120 0.000000 3.266470 
# 
# 
# High freq. dielectric constant tensor:
#      x y z
#    x 1.727050 0.000000 -0.017150 
#    y 0.000000 1.735490 0.000000 
#    z -0.017150 0.000000 1.701160 
# 
# From -- ./inp_files/38166.got.cif
#   From: 2010.06.25/outbox.cif.g09.slc.cpg/sg11_20_cif.got.tgz:38166.got - 2010.06.27 23:14:04.
