data_PCOD8070674
_publ_section_title
;
Structure prediction by ZEFSAII (Michael W. Deem and Ramdas Pophale) SiO2 
 PCOD8070674
Probable space group: P 21/M
;
_chemical_formula_sum "Si O2"
_cell_formula_units_Z 32
_cell_length_a 12.377152
_cell_length_b 8.489797
_cell_length_c 23.345530
_cell_angle_alpha 90.000000
_cell_angle_beta 43.071772
_cell_angle_gamma 90.000000
_cell_volume 1675.281371
_symmetry_space_group_name_H-M "P 21/M"
_symmetry_group_IT_number 11
_symmetry_cell_setting 'monoclinic'
loop_
_space_group_symop_operation_xyz
x,y,z
-x,1/2+y,-z
-x,-y,-z
x,1/2-y,z
loop_
_atom_site_type_symbol
_atom_site_label
_atom_site_fract_x
_atom_site_fract_y
_atom_site_fract_z
Si Si1 0.462990 0.068036 0.847051
Si Si2 0.128048 0.931844 0.992820
Si Si3 0.730261 0.569188 0.402373
Si Si4 0.578401 0.564938 0.261705
Si Si5 0.517454 0.567065 0.585929
Si Si6 0.913832 0.069279 0.161343
Si Si7 0.029716 0.568500 0.225469
Si Si8 0.609764 0.437746 0.905764
O O1 0.502774 0.250000 0.835167
O O2 0.506489 0.009528 0.765345
O O3 0.555152 0.989892 0.865244
O O4 0.279748 0.039072 0.927899
O O5 0.168745 0.750000 0.965532
O O6 0.054344 0.957147 0.083839
O O7 0.000000 0.000000 0.000000
O O8 0.680114 0.750000 0.411377
O O9 0.670014 0.517202 0.488736
O O10 0.642145 0.471004 0.386995
O O11 0.922295 0.550369 0.324925
O O12 0.614546 0.750000 0.245146
O O13 0.470683 0.525425 0.358326
O O14 0.744095 0.474291 0.201617
O O15 0.516365 0.750000 0.602028
O O16 0.947336 0.250000 0.132809
O O17 0.924461 0.038514 0.224361
O O18 0.032194 0.750000 0.204875
O O19 0.208439 0.504147 0.160364
O O20 0.598572 0.250000 0.911366
O O21 0.500000 0.500000 0.000000
#
# Coordination Sequence:
#
# PCOD8070674 Si02
#       8
#     4   4   4   4   4   4   4   4
#     4  10  22  39  57  78 107 143 187 231 275 327
#     4  12  23  35  52  75 105 141 178 220 272 328
#     4   9  18  32  52  78 111 148 182 222 275 334
#     4  11  21  34  53  76 109 148 180 219 274 332
#     4  10  19  31  50  80 114 145 180 224 278 333
#     4  12  23  34  51  79 111 142 180 224 273 327
#     4  10  20  36  58  81 108 144 187 229 276 330
#     4  10  22  40  60  82 107 143 188 234 277 325
#
# _framework density 19.101268000000001
#
# number of rings (size 3 to 8) (size 9 to 14) (size 15 to 20)
#    0.000    1.500    2.500    3.750    0.000    4.000 
#    0.000    0.000    0.000    0.750    0.000    0.000 
#    0.000    0.000    0.000    0.000    0.000    0.500 
#
# Total GULP energy -396538.335473 kJ/mol
# GULP energy per Si atom -12391.822984 kJ/mol
# Density = 1.905779 g / cm^3
# Si number density = 19.101268 Si / 1000 Ang^3
#
#
#
# Elastic Constant Matrix: (Units=GPa)
#
#
# Indices 1 2 3 4 5 6 
#
# 1 103.7343 21.3337 58.7234 0.0000 14.4498 0.0000
# 2 21.3337 40.3635 18.1384 0.0000 6.9836 0.0000
# 3 58.7234 18.1384 147.9689 0.0000 8.2750 0.0000
# 4 0.0000 0.0000 0.0000 28.8419 0.0000 2.1758
# 5 14.4498 6.9836 8.2750 0.0000 35.2220 0.0000
# 6 0.0000 0.0000 0.0000 2.1758 0.0000 14.9654
#
#
#
# Elastic Compliance Matrix: (Units=1/GPa)
#
#
# Indices 1 2 3 4 5 6 
#
# 1 0.013732 -0.004521 -0.004692 0.000000 -0.003635 0.000000
# 2 -0.004521 0.028431 -0.001499 0.000000 -0.003430 0.000000
# 3 -0.004692 -0.001499 0.008796 0.000000 0.000156 0.000000
# 4 0.000000 0.000000 0.000000 0.035056 0.000000 -0.005097
# 5 -0.003635 -0.003430 0.000156 0.000000 0.030526 0.000000
# 6 0.000000 0.000000 0.000000 -0.005097 0.000000 0.067562
#
#
# Mechanical properties :
#
#
# Convention : Reuss Voigt Hill
#
# Bulk Modulus (GPa) = 33.85846 54.27306 44.06576
# Shear Modulus (GPa) = 23.21556 28.73062 25.97309
#
# Velocity S-wave (km/s) = 3.49003 3.88251 3.69149
# Velocity P-wave (km/s) = 5.83135 6.96947 6.42566
#
# Compressibility (1/GPa) = 0.02953472
#
# Stress axis : x y z
#
# Youngs Moduli (GPa) = 72.82049 35.17239 113.69433
#
# Poissons Ratio (x) = 0.15900 0.53351
# Poissons Ratio (y) = 0.32919 0.17046
# Poissons Ratio (z) = 0.34171 0.05273
#
# Static dielectric constant tensor:
#      x y z
#    x 3.357570 0.000000 0.359060 
#    y 0.000000 3.416150 0.000000 
#    z 0.359060 0.000000 3.254930 
# 
# 
# High freq. dielectric constant tensor:
#      x y z
#    x 1.709800 0.000000 0.014540 
#    y 0.000000 1.737090 0.000000 
#    z 0.014540 0.000000 1.755710 
# 
# From -- ./inp_files/64337.got.cif
#   From: 2010.06.25/outbox.cif.g09.slc.cpg/sg11_33_cif.got.tgz:64337.got - 2010.06.27 23:14:04.
