data_PCOD8070178
_publ_section_title
;
Structure prediction by ZEFSAII (Michael W. Deem and Ramdas Pophale) SiO2 
 PCOD8070178
Probable space group: P 21/M
;
_chemical_formula_sum "Si O2"
_cell_formula_units_Z 32
_cell_length_a 30.562386
_cell_length_b 8.887305
_cell_length_c 14.131204
_cell_angle_alpha 90.000000
_cell_angle_beta 151.224963
_cell_angle_gamma 90.000000
_cell_volume 1847.639260
_symmetry_space_group_name_H-M "P 21/M"
_symmetry_group_IT_number 11
_symmetry_cell_setting 'monoclinic'
loop_
_space_group_symop_operation_xyz
x,y,z
-x,1/2+y,-z
-x,-y,-z
x,1/2-y,z
loop_
_atom_site_type_symbol
_atom_site_label
_atom_site_fract_x
_atom_site_fract_y
_atom_site_fract_z
Si Si1 0.674447 0.928677 0.185630
Si Si2 0.989182 0.924426 0.580013
Si Si3 0.862521 0.075929 0.985786
Si Si4 0.143280 0.926000 0.527097
Si Si5 0.307418 0.072666 0.395150
Si Si6 0.004360 0.073747 0.906103
Si Si7 0.662255 0.419824 0.363160
Si Si8 0.520130 0.081714 0.240457
O O1 0.681849 0.750000 0.202717
O O2 0.758494 0.997989 0.289430
O O3 0.671285 0.988405 0.285329
O O4 0.582698 0.980230 0.956713
O O5 0.964751 0.750000 0.522127
O O6 0.083122 0.947169 0.814142
O O7 0.000000 0.000000 0.500000
O O8 0.907742 0.004322 0.480446
O O9 0.850606 0.250000 0.937849
O O10 0.763997 0.998680 0.814188
O O11 0.912654 0.996107 0.994017
O O12 0.154498 0.750000 0.565794
O O13 0.089450 0.959460 0.327663
O O14 0.300107 0.250000 0.380036
O O15 0.279097 0.005316 0.444629
O O16 0.411672 0.022605 0.567629
O O17 0.021908 0.250000 0.950115
O O18 0.000000 0.000000 0.000000
O O19 0.699637 0.250000 0.418707
O O20 0.557856 0.415464 0.203199
O O21 0.522657 0.250000 0.288043
#
# Coordination Sequence:
#
# PCOD8070178 Si02
#       8
#     4   4   4   4   4   4   4   4
#     4  11  20  31  48  70  99 137 180 222 261 302
#     4  10  21  39  63  85 105 131 163 209 263 316
#     4  10  20  35  53  75 103 132 167 209 255 307
#     4  10  22  37  52  75 105 137 174 215 260 311
#     4  10  19  30  47  70  97 131 173 214 252 296
#     4  10  21  34  48  67  98 138 175 211 252 299
#     4   9  18  31  44  62  96 138 180 220 259 297
#     4   8  18  32  45  65  97 138 180 221 259 299
#
# _framework density 17.319398
#
# number of rings (size 3 to 8) (size 9 to 14) (size 15 to 20)
#    0.750    1.500    0.000    3.375    1.750    4.000 
#    0.000    0.000    0.000    0.000    0.000    0.875 
#    0.000    0.000    0.000    0.000    0.000    0.000 
#
# Total GULP energy -396643.439792 kJ/mol
# GULP energy per Si atom -12395.107494 kJ/mol
# Density = 1.727998 g / cm^3
# Si number density = 17.319398 Si / 1000 Ang^3
#
#
#
# Elastic Constant Matrix: (Units=GPa)
#
#
# Indices 1 2 3 4 5 6 
#
# 1 70.0824 47.7220 43.3905 0.0000 -2.4107 0.0000
# 2 47.7220 126.8648 64.5951 0.0000 2.9774 0.0000
# 3 43.3905 64.5951 112.7708 0.0000 15.0634 0.0000
# 4 0.0000 0.0000 0.0000 29.3287 0.0000 1.4689
# 5 -2.4107 2.9774 15.0634 0.0000 19.9203 0.0000
# 6 0.0000 0.0000 0.0000 1.4689 0.0000 26.5538
#
#
#
# Elastic Compliance Matrix: (Units=1/GPa)
#
#
# Indices 1 2 3 4 5 6 
#
# 1 0.022243 -0.005121 -0.006771 0.000000 0.008577 0.000000
# 2 -0.005121 0.012532 -0.005423 0.000000 0.001608 0.000000
# 3 -0.006771 -0.005423 0.016218 0.000000 -0.012273 0.000000
# 4 0.000000 0.000000 0.000000 0.034191 0.000000 -0.001891
# 5 0.008577 0.001608 -0.012273 0.000000 0.060278 0.000000
# 6 0.000000 0.000000 0.000000 -0.001891 0.000000 0.037764
#
#
# Mechanical properties :
#
#
# Convention : Reuss Voigt Hill
#
# Bulk Modulus (GPa) = 61.10842 69.01481 65.06161
# Shear Modulus (GPa) = 22.39036 25.42793 23.90914
#
# Velocity S-wave (km/s) = 3.59944 3.83584 3.71952
# Velocity P-wave (km/s) = 7.25496 7.71706 7.48957
#
# Compressibility (1/GPa) = 0.01636436
#
# Stress axis : x y z
#
# Youngs Moduli (GPa) = 44.95781 79.79551 61.65882
#
# Poissons Ratio (x) = 0.40862 0.41749
# Poissons Ratio (y) = 0.23022 0.33436
# Poissons Ratio (z) = 0.30440 0.43271
#
# Static dielectric constant tensor:
#      x y z
#    x 2.793920 0.000000 0.131610 
#    y 0.000000 3.334500 0.000000 
#    z 0.131610 0.000000 3.355810 
# 
# 
# High freq. dielectric constant tensor:
#      x y z
#    x 1.620270 0.000000 0.011950 
#    y 0.000000 1.687560 0.000000 
#    z 0.011950 0.000000 1.672390 
# 
# From -- ./inp_files/56480.got.cif
#   From: 2010.06.25/outbox.cif.g09.slc.cpg/sg11_29_cif.got.tgz:56480.got - 2010.06.27 23:14:04.
