data_PCOD8070191
_publ_section_title
;
Structure prediction by ZEFSAII (Michael W. Deem and Ramdas Pophale) SiO2 
 PCOD8070191
Probable space group: P 21/M
;
_chemical_formula_sum "Si O2"
_cell_formula_units_Z 24
_cell_length_a 18.454023
_cell_length_b 8.617551
_cell_length_c 9.965677
_cell_angle_alpha 90.000000
_cell_angle_beta 57.173242
_cell_angle_gamma 90.000000
_cell_volume 1331.751152
_symmetry_space_group_name_H-M "P 21/M"
_symmetry_group_IT_number 11
_symmetry_cell_setting 'monoclinic'
loop_
_space_group_symop_operation_xyz
x,y,z
-x,1/2+y,-z
-x,-y,-z
x,1/2-y,z
loop_
_atom_site_type_symbol
_atom_site_label
_atom_site_fract_x
_atom_site_fract_y
_atom_site_fract_z
Si Si1 0.598739 0.572760 0.249358
Si Si2 0.098942 0.433276 0.537932
Si Si3 0.095274 0.933457 0.260506
Si Si4 0.241236 0.433136 0.602261
Si Si5 0.770064 0.431273 0.093107
Si Si6 0.586740 0.431339 0.548040
O O1 0.625775 0.750000 0.198104
O O2 0.676831 0.466078 0.116308
O O3 0.587603 0.542299 0.418285
O O4 0.503473 0.538977 0.280138
O O5 0.100221 0.250000 0.526748
O O6 0.131129 0.499886 0.363966
O O7 0.161882 0.492973 0.591745
O O8 0.002201 0.492795 0.667977
O O9 0.099847 0.750000 0.264526
O O10 0.155104 0.993918 0.079479
O O11 0.252876 0.250000 0.578848
O O12 0.221986 0.478773 0.774911
O O13 0.327690 0.517241 0.456628
O O14 0.779115 0.250000 0.112072
O O15 0.592881 0.250000 0.500567
#
# Coordination Sequence:
#
# PCOD8070191 Si02
#       6
#     4   4   4   4   4   4
#     4   9  16  26  42  65  93 124 156 190 229 274
#     4   9  19  35  52  70  93 123 159 195 233 280
#     4   9  19  35  52  70  93 123 159 195 233 280
#     4  10  19  30  47  72  99 125 155 193 234 276
#     4  10  19  30  47  72  99 125 155 193 234 276
#     4   9  16  26  42  65  93 124 156 190 229 274
#
# _framework density 18.021384999999999
#
# number of rings (size 3 to 8) (size 9 to 14) (size 15 to 20)
#    0.000    2.667    0.000    4.000    0.000    5.333 
#    0.000    0.000    0.000    1.000    0.000    0.000 
#    0.000    0.000    0.000    0.000    0.000    0.000 
#
# Total GULP energy -297397.237801 kJ/mol
# GULP energy per Si atom -12391.551575 kJ/mol
# Density = 1.798037 g / cm^3
# Si number density = 18.021385 Si / 1000 Ang^3
#
#
#
# Elastic Constant Matrix: (Units=GPa)
#
#
# Indices 1 2 3 4 5 6 
#
# 1 136.9583 27.9984 75.8157 0.0000 -17.6728 0.0000
# 2 27.9984 35.3197 15.6771 0.0000 -1.4291 0.0000
# 3 75.8157 15.6771 66.2992 0.0000 -4.7352 0.0000
# 4 0.0000 0.0000 0.0000 23.3682 0.0000 -2.8005
# 5 -17.6728 -1.4291 -4.7352 0.0000 15.3314 0.0000
# 6 0.0000 0.0000 0.0000 -2.8005 0.0000 27.3093
#
#
#
# Elastic Compliance Matrix: (Units=1/GPa)
#
#
# Indices 1 2 3 4 5 6 
#
# 1 0.026890 -0.008353 -0.027217 0.000000 0.021812 0.000000
# 2 -0.008353 0.034234 0.001020 0.000000 -0.006123 0.000000
# 3 -0.027217 0.001020 0.044718 0.000000 -0.017467 0.000000
# 4 0.000000 0.000000 0.000000 0.043326 0.000000 0.004443
# 5 0.021812 -0.006123 -0.017467 0.000000 0.084403 0.000000
# 6 0.000000 0.000000 0.000000 0.004443 0.000000 0.037073
#
#
# Mechanical properties :
#
#
# Convention : Reuss Voigt Hill
#
# Bulk Modulus (GPa) = 27.21692 53.06217 40.13955
# Shear Modulus (GPa) = 14.20489 21.14085 17.67287
#
# Velocity S-wave (km/s) = 2.81058 3.42877 3.13495
# Velocity P-wave (km/s) = 5.06634 6.72184 5.95193
#
# Compressibility (1/GPa) = 0.03674185
#
# Stress axis : x y z
#
# Youngs Moduli (GPa) = 37.18855 29.21076 22.36238
#
# Poissons Ratio (x) = 0.24400 0.60863
# Poissons Ratio (y) = 0.31064 -0.02280
# Poissons Ratio (z) = 1.01215 -0.02979
#
# Static dielectric constant tensor:
#      x y z
#    x 3.985900 0.000000 -0.473490 
#    y 0.000000 3.262070 0.000000 
#    z -0.473490 0.000000 3.174780 
# 
# 
# High freq. dielectric constant tensor:
#      x y z
#    x 1.705110 0.000000 -0.032800 
#    y 0.000000 1.701500 0.000000 
#    z -0.032800 0.000000 1.657120 
# 
# From -- ./inp_files/25526.got.cif
#   From: 2010.06.25/outbox.cif.g09.slc.cpg/sg11_13_cif.got.tgz:25526.got - 2010.06.27 23:14:04.
