data_PCOD8070683
_publ_section_title
;
Structure prediction by ZEFSAII (Michael W. Deem and Ramdas Pophale) SiO2 
 PCOD8070683
Probable space group: P 21/M
;
_chemical_formula_sum "Si O2"
_cell_formula_units_Z 32
_cell_length_a 22.169937
_cell_length_b 8.570460
_cell_length_c 12.355030
_cell_angle_alpha 90.000000
_cell_angle_beta 45.964684
_cell_angle_gamma 90.000000
_cell_volume 1687.671126
_symmetry_space_group_name_H-M "P 21/M"
_symmetry_group_IT_number 11
_symmetry_cell_setting 'monoclinic'
loop_
_space_group_symop_operation_xyz
x,y,z
-x,1/2+y,-z
-x,-y,-z
x,1/2-y,z
loop_
_atom_site_type_symbol
_atom_site_label
_atom_site_fract_x
_atom_site_fract_y
_atom_site_fract_z
Si Si1 0.507773 0.932929 0.758054
Si Si2 0.573971 0.931307 0.340294
Si Si3 0.358745 0.432848 0.030147
Si Si4 0.222406 0.565991 0.049417
Si Si5 0.698976 0.566886 0.502106
Si Si6 0.908016 0.067275 0.610802
Si Si7 0.735900 0.071800 0.230980
Si Si8 0.775762 0.566138 0.625323
O O1 0.506082 0.750000 0.730464
O O2 0.603379 0.996260 0.638009
O O3 0.453122 0.044585 0.748437
O O4 0.447814 0.971376 0.936026
O O5 0.593422 0.750000 0.342212
O O6 0.500000 0.000000 0.500000
O O7 0.648108 0.043159 0.283571
O O8 0.377388 0.250000 0.008320
O O9 0.305718 0.476012 0.986990
O O10 0.302682 0.482903 0.202587
O O11 0.239433 0.750000 0.042306
O O12 0.142889 0.510203 0.219392
O O13 0.201515 0.527581 0.947614
O O14 0.692708 0.750000 0.519557
O O15 0.743029 0.525580 0.333021
O O16 0.756645 0.503563 0.527831
O O17 0.915427 0.250000 0.599605
O O18 0.860951 0.012754 0.560714
O O19 0.000000 0.000000 0.500000
O O20 0.746443 0.250000 0.253123
O O21 0.789984 0.750000 0.609976
#
# Coordination Sequence:
#
# PCOD8070683 Si02
#       8
#     4   4   4   4   4   4   4   4
#     4  11  21  32  47  70 103 144 189 233 277 319
#     4  12  22  32  47  70 100 139 187 238 280 314
#     4  10  19  31  51  75 102 138 185 234 276 317
#     4   9  19  34  53  79 111 139 170 216 273 320
#     4  10  22  37  52  71 105 150 190 227 270 317
#     4  10  20  37  63  92 114 136 164 208 266 327
#     4  11  21  33  52  76 105 142 183 226 269 316
#     4   9  20  39  57  78 108 143 180 222 270 323
#
# _framework density 18.961039
#
# number of rings (size 3 to 8) (size 9 to 14) (size 15 to 20)
#    0.000    1.750    2.500    2.625    0.000    3.000 
#    0.000    0.000    0.000    0.750    0.000    0.000 
#    0.000    0.000    0.000    0.000    0.000    0.000 
#
# Total GULP energy -396466.323429 kJ/mol
# GULP energy per Si atom -12389.572607 kJ/mol
# Density = 1.891788 g / cm^3
# Si number density = 18.961039 Si / 1000 Ang^3
#
#
#
# Elastic Constant Matrix: (Units=GPa)
#
#
# Indices 1 2 3 4 5 6 
#
# 1 112.1160 21.1334 69.7750 0.0000 9.1645 0.0000
# 2 21.1334 35.9116 20.1134 0.0000 -4.0266 0.0000
# 3 69.7750 20.1134 97.1507 0.0000 0.7360 0.0000
# 4 0.0000 0.0000 0.0000 28.3606 0.0000 0.8232
# 5 9.1645 -4.0266 0.7360 0.0000 31.1856 0.0000
# 6 0.0000 0.0000 0.0000 0.8232 0.0000 23.1340
#
#
#
# Elastic Compliance Matrix: (Units=1/GPa)
#
#
# Indices 1 2 3 4 5 6 
#
# 1 0.017350 -0.004364 -0.011517 0.000000 -0.005390 0.000000
# 2 -0.004364 0.033162 -0.003774 0.000000 0.005653 0.000000
# 3 -0.011517 -0.003774 0.019327 0.000000 0.002441 0.000000
# 4 0.000000 0.000000 0.000000 0.035297 0.000000 -0.001256
# 5 -0.005390 0.005653 0.002441 0.000000 0.034322 0.000000
# 6 0.000000 0.000000 0.000000 -0.001256 0.000000 0.043271
#
#
# Mechanical properties :
#
#
# Convention : Reuss Voigt Hill
#
# Bulk Modulus (GPa) = 32.75489 51.91356 42.33422
# Shear Modulus (GPa) = 21.53168 25.47980 23.50574
#
# Velocity S-wave (km/s) = 3.37349 3.66976 3.52474
# Velocity P-wave (km/s) = 5.69967 6.73756 6.24023
#
# Compressibility (1/GPa) = 0.03052979
#
# Stress axis : x y z
#
# Youngs Moduli (GPa) = 57.63726 30.15493 51.73975
#
# Poissons Ratio (x) = 0.13161 0.59586
# Poissons Ratio (y) = 0.25155 0.19526
# Poissons Ratio (z) = 0.66378 0.11380
#
# Static dielectric constant tensor:
#      x y z
#    x 3.341950 0.000000 0.205390 
#    y 0.000000 4.263800 0.000000 
#    z 0.205390 0.000000 3.755630 
# 
# 
# High freq. dielectric constant tensor:
#      x y z
#    x 1.701880 0.000000 0.016140 
#    y 0.000000 1.734030 0.000000 
#    z 0.016140 0.000000 1.744500 
# 
# From -- ./inp_files/42788.got.cif
#   From: 2010.06.25/outbox.cif.g09.slc.cpg/sg11_22_cif.got.tgz:42788.got - 2010.06.27 23:14:04.
