data_PCOD8070148
_publ_section_title
;
Structure prediction by ZEFSAII (Michael W. Deem and Ramdas Pophale) SiO2 
 PCOD8070148
Probable space group: P 21/M
;
_chemical_formula_sum "Si O2"
_cell_formula_units_Z 24
_cell_length_a 13.405778
_cell_length_b 22.095055
_cell_length_c 5.095945
_cell_angle_alpha 90.000000
_cell_angle_beta 68.859109
_cell_angle_gamma 90.000000
_cell_volume 1407.836208
_symmetry_space_group_name_H-M "P 21/M"
_symmetry_group_IT_number 11
_symmetry_cell_setting 'monoclinic'
loop_
_space_group_symop_operation_xyz
x,y,z
-x,1/2+y,-z
-x,-y,-z
x,1/2-y,z
loop_
_atom_site_type_symbol
_atom_site_label
_atom_site_fract_x
_atom_site_fract_y
_atom_site_fract_z
Si Si1 0.419010 0.434762 0.308493
Si Si2 0.640195 0.493526 0.134832
Si Si3 0.156888 0.319000 0.150940
Si Si4 0.006153 0.920796 0.763727
Si Si5 0.123613 0.540098 0.148139
Si Si6 0.704341 0.680619 0.477639
O O1 0.546230 0.443930 0.200642
O O2 0.359745 0.475304 0.581731
O O3 0.395572 0.363759 0.375792
O O4 0.372817 0.454630 0.071543
O O5 0.749192 0.456685 0.997833
O O6 0.122030 0.250000 0.145789
O O7 0.205433 0.330972 0.390483
O O8 0.048630 0.356463 0.225000
O O9 0.244742 0.336488 0.849900
O O10 0.093169 0.933383 0.458328
O O11 0.067467 0.919106 0.981161
O O12 0.912915 0.970793 0.848434
O O13 0.662710 0.750000 0.525647
#
# Coordination Sequence:
#
# PCOD8070148 Si02
#       6
#     4   4   4   4   4   4
#     4  10  19  32  50  71  97 126 156 195 241 284
#     4  10  20  32  49  72  97 126 157 194 238 285
#     4  10  20  33  50  72  97 125 157 194 236 281
#     4  10  19  30  47  68  94 124 153 190 231 273
#     4  10  19  30  46  70  95 122 154 190 232 275
#     4  10  19  31  50  73  96 123 155 195 238 280
#
# _framework density 17.047439000000001
#
# number of rings (size 3 to 8) (size 9 to 14) (size 15 to 20)
#    0.000    2.000    0.000    5.000    0.000    2.667 
#    0.000    0.000    0.000    2.000    0.000    0.000 
#    0.000    0.000    0.000    0.000    0.000    0.000 
#
# Total GULP energy -297714.702862 kJ/mol
# GULP energy per Si atom -12404.779286 kJ/mol
# Density = 1.700864 g / cm^3
# Si number density = 17.047439 Si / 1000 Ang^3
#
#
#
# Elastic Constant Matrix: (Units=GPa)
#
#
# Indices 1 2 3 4 5 6 
#
# 1 60.1867 31.1681 24.1859 0.0000 -15.8944 0.0000
# 2 31.1681 70.9815 10.1607 0.0000 -18.0416 0.0000
# 3 24.1859 10.1607 61.8459 0.0000 -1.6675 0.0000
# 4 0.0000 0.0000 0.0000 19.6450 0.0000 -5.0122
# 5 -15.8944 -18.0416 -1.6675 0.0000 33.5098 0.0000
# 6 0.0000 0.0000 0.0000 -5.0122 0.0000 24.2054
#
#
#
# Elastic Compliance Matrix: (Units=1/GPa)
#
#
# Indices 1 2 3 4 5 6 
#
# 1 0.026531 -0.008464 -0.008780 0.000000 0.007590 0.000000
# 2 -0.008464 0.019400 0.000296 0.000000 0.006445 0.000000
# 3 -0.008780 0.000296 0.019472 0.000000 -0.003036 0.000000
# 4 0.000000 0.000000 0.000000 0.053743 0.000000 0.011128
# 5 0.007590 0.006445 -0.003036 0.000000 0.036761 0.000000
# 6 0.000000 0.000000 0.000000 0.011128 0.000000 0.043617
#
#
# Mechanical properties :
#
#
# Convention : Reuss Voigt Hill
#
# Bulk Modulus (GPa) = 31.73737 36.00482 33.87110
# Shear Modulus (GPa) = 20.49830 23.97200 22.23515
#
# Velocity S-wave (km/s) = 3.47136 3.75399 3.61544
# Velocity P-wave (km/s) = 5.89276 6.32109 6.11068
#
# Compressibility (1/GPa) = 0.03150860
#
# Stress axis : x y z
#
# Youngs Moduli (GPa) = 37.69225 51.54539 51.35505
#
# Poissons Ratio (x) = 0.43626 0.45090
# Poissons Ratio (y) = 0.31901 -0.01522
# Poissons Ratio (z) = 0.33094 -0.01527
#
# Static dielectric constant tensor:
#      x y z
#    x 3.090700 0.000000 0.181010 
#    y 0.000000 3.082050 0.000000 
#    z 0.181010 0.000000 3.391710 
# 
# 
# High freq. dielectric constant tensor:
#      x y z
#    x 1.649750 0.000000 0.017050 
#    y 0.000000 1.637780 0.000000 
#    z 0.017050 0.000000 1.676630 
# 
# From -- ./inp_files/4627.got.cif
#   From: 2010.06.25/outbox.cif.g09.slc.cpg/sg11_3_cif.got.tgz:4627.got - 2010.06.27 23:14:04.
