data_PCOD8070137
_publ_section_title
;
Structure prediction by ZEFSAII (Michael W. Deem and Ramdas Pophale) SiO2 
 PCOD8070137
Probable space group: P 21/M
;
_chemical_formula_sum "Si O2"
_cell_formula_units_Z 32
_cell_length_a 11.681935
_cell_length_b 9.080683
_cell_length_c 21.328793
_cell_angle_alpha 90.000000
_cell_angle_beta 122.364624
_cell_angle_gamma 90.000000
_cell_volume 1911.088449
_symmetry_space_group_name_H-M "P 21/M"
_symmetry_group_IT_number 11
_symmetry_cell_setting 'monoclinic'
loop_
_space_group_symop_operation_xyz
x,y,z
-x,1/2+y,-z
-x,-y,-z
x,1/2-y,z
loop_
_atom_site_type_symbol
_atom_site_label
_atom_site_fract_x
_atom_site_fract_y
_atom_site_fract_z
Si Si1 0.348887 0.925405 0.229428
Si Si2 0.622033 0.577475 0.502141
Si Si3 0.939008 0.586507 0.073085
Si Si4 0.203725 0.912793 0.066205
Si Si5 0.071572 0.424664 0.580020
Si Si6 0.368256 0.076088 0.635497
Si Si7 0.088353 0.419680 0.361210
Si Si8 0.898490 0.578136 0.779673
O O1 0.332220 0.750000 0.232399
O O2 0.317602 0.971761 0.148196
O O3 0.499879 0.983502 0.288907
O O4 0.243485 0.999883 0.246246
O O5 0.500000 0.500000 0.500000
O O6 0.593704 0.750000 0.493563
O O7 0.632845 0.513087 0.435219
O O8 0.757863 0.537242 0.578812
O O9 0.899234 0.750000 0.084449
O O10 0.064008 0.594234 0.062792
O O11 0.977211 0.486903 0.143776
O O12 0.810252 0.518077 0.998270
O O13 0.241957 0.750000 0.053008
O O14 0.055036 0.250000 0.567812
O O15 0.229535 0.472400 0.628474
O O16 0.000000 0.500000 0.500000
O O17 0.010203 0.477771 0.627496
O O18 0.377021 0.250000 0.635053
O O19 0.060900 0.250000 0.371243
O O20 0.062358 0.450053 0.280726
O O21 0.882487 0.750000 0.790182
#
# Coordination Sequence:
#
# PCOD8070137 Si02
#       8
#     4   4   4   4   4   4   4   4
#     4   9  17  30  48  70  98 129 160 194 236 290
#     4  10  19  32  48  68  97 126 156 192 233 285
#     4   9  16  26  42  64  93 128 163 193 227 281
#     4   8  14  24  40  64  93 125 158 190 229 280
#     4  11  21  36  56  73  92 123 164 207 247 287
#     4   9  18  33  51  69  94 125 156 198 243 280
#     4  10  21  36  50  69  98 128 160 202 246 284
#     4  10  19  30  46  69 101 131 157 197 242 283
#
# _framework density 16.744384
#
# number of rings (size 3 to 8) (size 9 to 14) (size 15 to 20)
#    0.000    2.500    1.250    2.625    0.000    4.500 
#    0.000    1.250    0.000    0.000    0.000    0.875 
#    0.000    0.000    0.000    0.000    0.000    0.000 
#
# Total GULP energy -396725.128830 kJ/mol
# GULP energy per Si atom -12397.660276 kJ/mol
# Density = 1.670627 g / cm^3
# Si number density = 16.744384 Si / 1000 Ang^3
#
#
#
# Elastic Constant Matrix: (Units=GPa)
#
#
# Indices 1 2 3 4 5 6 
#
# 1 89.8219 42.7110 47.3325 0.0000 -5.4266 0.0000
# 2 42.7110 72.1540 50.7004 0.0000 -1.7817 0.0000
# 3 47.3325 50.7004 130.4019 0.0000 -0.4422 0.0000
# 4 0.0000 0.0000 0.0000 24.4087 0.0000 -2.7816
# 5 -5.4266 -1.7817 -0.4422 0.0000 10.6564 0.0000
# 6 0.0000 0.0000 0.0000 -2.7816 0.0000 22.7792
#
#
#
# Elastic Compliance Matrix: (Units=1/GPa)
#
#
# Indices 1 2 3 4 5 6 
#
# 1 0.016822 -0.007577 -0.003135 0.000000 0.007169 0.000000
# 2 -0.007577 0.022571 -0.006026 0.000000 -0.000335 0.000000
# 3 -0.003135 -0.006026 0.011142 0.000000 -0.002142 0.000000
# 4 0.000000 0.000000 0.000000 0.041547 0.000000 0.005073
# 5 0.007169 -0.000335 -0.002142 0.000000 0.097347 0.000000
# 6 0.000000 0.000000 0.000000 0.005073 0.000000 0.044519
#
#
# Mechanical properties :
#
#
# Convention : Reuss Voigt Hill
#
# Bulk Modulus (GPa) = 58.62760 63.76283 61.19522
# Shear Modulus (GPa) = 18.30756 21.67779 19.99268
#
# Velocity S-wave (km/s) = 3.31018 3.60200 3.45917
# Velocity P-wave (km/s) = 7.04975 7.44728 7.25124
#
# Compressibility (1/GPa) = 0.01705681
#
# Stress axis : x y z
#
# Youngs Moduli (GPa) = 59.44770 44.30513 89.74667
#
# Poissons Ratio (x) = 0.33571 0.28140
# Poissons Ratio (y) = 0.45044 0.54085
# Poissons Ratio (z) = 0.18640 0.26700
#
# Static dielectric constant tensor:
#      x y z
#    x 2.917620 0.000000 0.132930 
#    y 0.000000 3.138790 0.000000 
#    z 0.132930 0.000000 3.566120 
# 
# 
# High freq. dielectric constant tensor:
#      x y z
#    x 1.604720 0.000000 0.004380 
#    y 0.000000 1.641110 0.000000 
#    z 0.004380 0.000000 1.657080 
# 
# From -- ./inp_files/64227.got.cif
#   From: 2010.06.25/outbox.cif.g09.slc.cpg/sg11_33_cif.got.tgz:64227.got - 2010.06.27 23:14:04.
