data_PCOD8070605
_publ_section_title
;
Structure prediction by ZEFSAII (Michael W. Deem and Ramdas Pophale) SiO2 
 PCOD8070605
Probable space group: P 21/M
;
_chemical_formula_sum "Si O2"
_cell_formula_units_Z 32
_cell_length_a 9.355102
_cell_length_b 9.299005
_cell_length_c 21.198752
_cell_angle_alpha 90.000000
_cell_angle_beta 89.320723
_cell_angle_gamma 90.000000
_cell_volume 1844.016405
_symmetry_space_group_name_H-M "P 21/M"
_symmetry_group_IT_number 11
_symmetry_cell_setting 'monoclinic'
loop_
_space_group_symop_operation_xyz
x,y,z
-x,1/2+y,-z
-x,-y,-z
x,1/2-y,z
loop_
_atom_site_type_symbol
_atom_site_label
_atom_site_fract_x
_atom_site_fract_y
_atom_site_fract_z
Si Si1 0.235264 0.417512 0.041523
Si Si2 0.266094 0.413832 0.900048
Si Si3 0.225439 0.081879 0.234548
Si Si4 0.646842 0.419833 0.512428
Si Si5 0.527876 0.913466 0.859529
Si Si6 0.808325 0.916948 0.622362
Si Si7 0.049549 0.915749 0.138061
Si Si8 0.077434 0.587299 0.552045
O O1 0.189803 0.250000 0.042860
O O2 0.384054 0.441621 0.076961
O O3 0.111494 0.508046 0.075665
O O4 0.251496 0.477789 0.970708
O O5 0.314550 0.250000 0.906228
O O6 0.386033 0.493001 0.859088
O O7 0.120506 0.430345 0.862317
O O8 0.188870 0.250000 0.226096
O O9 0.376410 0.044244 0.201372
O O10 0.235147 0.036789 0.307249
O O11 0.101061 0.991646 0.201719
O O12 0.500000 0.500000 0.500000
O O13 0.618380 0.250000 0.521853
O O14 0.720033 0.483251 0.574993
O O15 0.752402 0.449859 0.450906
O O16 0.478243 0.750000 0.855115
O O17 0.768605 0.750000 0.609666
O O18 0.982935 0.938818 0.615882
O O19 0.098384 0.750000 0.137594
O O20 0.063179 0.750000 0.530124
O O21 0.000000 0.500000 0.500000
#
# Coordination Sequence:
#
# PCOD8070605 Si02
#       8
#     4   4   4   4   4   4   4   4
#     4   9  18  33  50  69  94 123 159 200 244 296
#     4  10  20  32  47  70  98 125 155 198 249 296
#     4   9  19  36  54  71  93 125 165 203 240 286
#     4  10  19  31  49  77 110 136 160 194 238 284
#     4   9  18  31  48  70  94 123 160 199 240 291
#     4   9  17  33  56  75  94 126 166 204 241 282
#     4  10  20  32  48  71  96 123 158 199 243 290
#     4   8  15  28  48  73  97 123 157 195 233 275
#
# _framework density 17.353425999999999
#
# number of rings (size 3 to 8) (size 9 to 14) (size 15 to 20)
#    0.000    2.750    0.000    2.250    0.000    4.500 
#    0.000    1.250    0.000    6.000    0.000    0.000 
#    0.000    0.000    0.000    0.000    0.000    0.000 
#
# Total GULP energy -396585.388766 kJ/mol
# GULP energy per Si atom -12393.293399 kJ/mol
# Density = 1.731393 g / cm^3
# Si number density = 17.353426 Si / 1000 Ang^3
#
#
#
# Elastic Constant Matrix: (Units=GPa)
#
#
# Indices 1 2 3 4 5 6 
#
# 1 122.3063 60.2597 56.7997 0.0000 -10.4696 0.0000
# 2 60.2597 75.9243 42.1208 0.0000 -4.3893 0.0000
# 3 56.7997 42.1208 101.9543 0.0000 -10.9041 0.0000
# 4 0.0000 0.0000 0.0000 22.0590 0.0000 0.8793
# 5 -10.4696 -4.3893 -10.9041 0.0000 14.9300 0.0000
# 6 0.0000 0.0000 0.0000 0.8793 0.0000 32.7443
#
#
#
# Elastic Compliance Matrix: (Units=1/GPa)
#
#
# Indices 1 2 3 4 5 6 
#
# 1 0.015133 -0.009524 -0.003971 0.000000 0.004912 0.000000
# 2 -0.009524 0.023082 -0.004576 0.000000 -0.003235 0.000000
# 3 -0.003971 -0.004576 0.014610 0.000000 0.006541 0.000000
# 4 0.000000 0.000000 0.000000 0.045382 0.000000 -0.001219
# 5 0.004912 -0.003235 0.006541 0.000000 0.074250 0.000000
# 6 0.000000 0.000000 0.000000 -0.001219 0.000000 0.030572
#
#
# Mechanical properties :
#
#
# Convention : Reuss Voigt Hill
#
# Bulk Modulus (GPa) = 59.93787 68.72725 64.33256
# Shear Modulus (GPa) = 20.43052 23.34697 21.88874
#
# Velocity S-wave (km/s) = 3.43493 3.67192 3.55540
# Velocity P-wave (km/s) = 7.09550 7.59393 7.34894
#
# Compressibility (1/GPa) = 0.01668394
#
# Stress axis : x y z
#
# Youngs Moduli (GPa) = 66.07995 43.32453 68.44408
#
# Poissons Ratio (x) = 0.41263 0.27178
# Poissons Ratio (y) = 0.62935 0.31319
# Poissons Ratio (z) = 0.26239 0.19824
#
# Static dielectric constant tensor:
#      x y z
#    x 3.346570 0.000000 -0.346320 
#    y 0.000000 3.275700 0.000000 
#    z -0.346320 0.000000 3.228320 
# 
# 
# High freq. dielectric constant tensor:
#      x y z
#    x 1.669990 0.000000 -0.016600 
#    y 0.000000 1.674360 0.000000 
#    z -0.016600 0.000000 1.649110 
# 
# From -- ./inp_files/67798.got.cif
#   From: 2010.06.25/outbox.cif.g09.slc.cpg/sg11_34_cif.got.tgz:67798.got - 2010.06.27 23:14:04.
