data_PCOD8070566
_publ_section_title
;
Structure prediction by ZEFSAII (Michael W. Deem and Ramdas Pophale) SiO2 
 PCOD8070566
Probable space group: P 21/M
;
_chemical_formula_sum "Si O2"
_cell_formula_units_Z 32
_cell_length_a 14.428912
_cell_length_b 23.159261
_cell_length_c 14.432359
_cell_angle_alpha 90.000000
_cell_angle_beta 20.742513
_cell_angle_gamma 90.000000
_cell_volume 1708.071129
_symmetry_space_group_name_H-M "P 21/M"
_symmetry_group_IT_number 11
_symmetry_cell_setting 'monoclinic'
loop_
_space_group_symop_operation_xyz
x,y,z
-x,1/2+y,-z
-x,-y,-z
x,1/2-y,z
loop_
_atom_site_type_symbol
_atom_site_label
_atom_site_fract_x
_atom_site_fract_y
_atom_site_fract_z
Si Si1 0.011416 0.840108 0.004939
Si Si2 0.408754 0.931515 0.403689
Si Si3 0.655912 0.817492 0.688839
Si Si4 0.297745 0.546405 0.297572
Si Si5 0.259645 0.423089 0.258613
Si Si6 0.041736 0.458697 0.045734
Si Si7 0.462455 0.688973 0.454778
Si Si8 0.096987 0.816594 0.127358
O O1 0.258244 0.808224 0.730239
O O2 0.976447 0.896914 0.979990
O O3 0.063512 0.853152 0.064687
O O4 0.741950 0.806413 0.243913
O O5 0.349390 0.931204 0.351572
O O6 0.426264 0.864904 0.419964
O O7 0.181153 0.966861 0.668566
O O8 0.674981 0.966908 0.172630
O O9 0.676192 0.750000 0.701587
O O10 0.719148 0.860463 0.713832
O O11 0.859562 0.831185 0.417255
O O12 0.366753 0.833119 0.924593
O O13 0.298097 0.476364 0.294387
O O14 0.023152 0.572516 0.522914
O O15 0.522108 0.573105 0.024100
O O16 0.000000 0.500000 0.000000
O O17 0.428180 0.750000 0.431067
O O18 0.096230 0.750000 0.098128
#
# Coordination Sequence:
#
# PCOD8070566 Si02
#       8
#     4   4   4   4   4   4   4   4
#     4  10  20  32  50  75 103 141 180 211 247 300
#     4  10  21  36  54  78 105 136 174 218 259 306
#     4  10  21  35  52  78 110 138 169 216 270 318
#     4  10  21  38  60  80 102 134 178 219 259 313
#     4  10  21  38  58  80 103 134 173 218 267 315
#     4  10  21  35  52  77 110 141 171 210 258 304
#     4  10  19  33  51  72 103 138 174 215 258 300
#     4  10  19  31  49  74 104 138 175 209 249 310
#
# _framework density 18.734583000000001
#
# number of rings (size 3 to 8) (size 9 to 14) (size 15 to 20)
#    0.000    2.000    0.000    3.750    0.000    3.000 
#    0.000    1.250    0.000    0.000    0.000    0.000 
#    0.000    0.000    0.000    0.000    0.000    0.000 
#
# Total GULP energy -396720.687168 kJ/mol
# GULP energy per Si atom -12397.521474 kJ/mol
# Density = 1.869194 g / cm^3
# Si number density = 18.734583 Si / 1000 Ang^3
#
#
#
# Elastic Constant Matrix: (Units=GPa)
#
#
# Indices 1 2 3 4 5 6 
#
# 1 121.0158 46.9651 49.2602 0.0000 5.5533 0.0000
# 2 46.9651 56.5965 35.8147 0.0000 3.1200 0.0000
# 3 49.2602 35.8147 142.0676 0.0000 -7.7585 0.0000
# 4 0.0000 0.0000 0.0000 13.4304 0.0000 -0.3402
# 5 5.5533 3.1200 -7.7585 0.0000 26.0463 0.0000
# 6 0.0000 0.0000 0.0000 -0.3402 0.0000 9.4701
#
#
#
# Elastic Compliance Matrix: (Units=1/GPa)
#
#
# Indices 1 2 3 4 5 6 
#
# 1 0.012818 -0.009061 -0.002287 0.000000 -0.002329 0.000000
# 2 -0.009061 0.027881 -0.004030 0.000000 -0.002608 0.000000
# 3 -0.002287 -0.004030 0.009048 0.000000 0.003666 0.000000
# 4 0.000000 0.000000 0.000000 0.074526 0.000000 0.002677
# 5 -0.002329 -0.002608 0.003666 0.000000 0.040294 0.000000
# 6 0.000000 0.000000 0.000000 0.002677 0.000000 0.105692
#
#
# Mechanical properties :
#
#
# Convention : Reuss Voigt Hill
#
# Bulk Modulus (GPa) = 52.65384 64.86222 58.75803
# Shear Modulus (GPa) = 16.26841 22.29869 19.28355
#
# Velocity S-wave (km/s) = 2.95000 3.45373 3.21175
# Velocity P-wave (km/s) = 6.30630 7.11345 6.72200
#
# Compressibility (1/GPa) = 0.01899197
#
# Stress axis : x y z
#
# Youngs Moduli (GPa) = 78.01732 35.86633 110.52083
#
# Poissons Ratio (x) = 0.32497 0.25281
# Poissons Ratio (y) = 0.70688 0.44535
# Poissons Ratio (z) = 0.17846 0.14453
#
# Static dielectric constant tensor:
#      x y z
#    x 3.223820 0.000000 -0.298050 
#    y 0.000000 3.354680 0.000000 
#    z -0.298050 0.000000 4.749640 
# 
# 
# High freq. dielectric constant tensor:
#      x y z
#    x 1.713580 0.000000 -0.007470 
#    y 0.000000 1.722940 0.000000 
#    z -0.007470 0.000000 1.755770 
# 
# From -- ./inp_files/52704.got.cif
#   From: 2010.06.25/outbox.cif.g09.slc.cpg/sg11_27_cif.got.tgz:52704.got - 2010.06.27 23:14:04.
