data_PCOD8070738
_publ_section_title
;
Structure prediction by ZEFSAII (Michael W. Deem and Ramdas Pophale) SiO2 
 PCOD8070738
Probable space group: P 21/M
;
_chemical_formula_sum "Si O2"
_cell_formula_units_Z 28
_cell_length_a 19.575861
_cell_length_b 8.747787
_cell_length_c 15.385969
_cell_angle_alpha 90.000000
_cell_angle_beta 36.006541
_cell_angle_gamma 90.000000
_cell_volume 1548.926620
_symmetry_space_group_name_H-M "P 21/M"
_symmetry_group_IT_number 11
_symmetry_cell_setting 'monoclinic'
loop_
_space_group_symop_operation_xyz
x,y,z
-x,1/2+y,-z
-x,-y,-z
x,1/2-y,z
loop_
_atom_site_type_symbol
_atom_site_label
_atom_site_fract_x
_atom_site_fract_y
_atom_site_fract_z
Si Si1 0.400706 0.070276 0.295470
Si Si2 0.781995 0.075251 0.045504
Si Si3 0.625262 0.425885 0.368546
Si Si4 0.623013 0.926312 0.867717
Si Si5 0.763422 0.569187 0.380089
Si Si6 0.002170 0.570244 0.902398
Si Si7 0.654053 0.929926 0.022004
O O1 0.429134 0.250000 0.275211
O O2 0.328703 0.036415 0.278985
O O3 0.319286 0.012777 0.456988
O O4 0.521141 0.979113 0.175869
O O5 0.824991 0.250000 0.996969
O O6 0.672767 0.058891 0.222229
O O7 0.741958 0.021106 0.992298
O O8 0.886825 0.969861 0.968710
O O9 0.500000 0.500000 0.500000
O O10 0.617997 0.250000 0.405615
O O11 0.711411 0.516570 0.342284
O O12 0.599211 0.750000 0.901887
O O13 0.694772 0.974649 0.880576
O O14 0.500000 0.000000 0.000000
O O15 0.777454 0.750000 0.365554
O O16 0.888946 0.493743 0.263919
O O17 0.014184 0.750000 0.900243
O O18 0.000000 0.500000 0.000000
O O19 0.665063 0.750000 0.029546
#
# Coordination Sequence:
#
# PCOD8070738 Si02
#       7
#     4   4   4   4   4   4   4
#     4   9  18  33  53  79 111 146 179 215 264 321
#     4  11  23  38  55  76 105 142 180 220 265 315
#     4  11  23  36  52  75 107 142 175 215 266 319
#     4   8  15  29  49  75 108 142 177 215 260 315
#     4  11  22  36  56  79 106 140 179 221 265 315
#     4  12  24  40  60  79 102 136 180 225 267 314
#     4  10  19  31  52  82 112 143 178 221 268 314
#
# _framework density 18.077036
#
# number of rings (size 3 to 8) (size 9 to 14) (size 15 to 20)
#    0.000    1.714    1.429    3.857    0.000    6.857 
#    0.000    0.000    0.000    0.857    0.000    0.000 
#    0.000    0.000    0.000    0.000    0.000    0.000 
#
# Total GULP energy -347073.266690 kJ/mol
# GULP energy per Si atom -12395.473810 kJ/mol
# Density = 1.803589 g / cm^3
# Si number density = 18.077036 Si / 1000 Ang^3
#
#
#
# Elastic Constant Matrix: (Units=GPa)
#
#
# Indices 1 2 3 4 5 6 
#
# 1 116.1242 30.4507 30.5567 0.0000 10.4890 0.0000
# 2 30.4507 79.0561 21.6569 0.0000 -0.0502 0.0000
# 3 30.5567 21.6569 40.5139 0.0000 -4.7434 0.0000
# 4 0.0000 0.0000 0.0000 25.6342 0.0000 -4.2461
# 5 10.4890 -0.0502 -4.7434 0.0000 31.8635 0.0000
# 6 0.0000 0.0000 0.0000 -4.2461 0.0000 29.8317
#
#
#
# Elastic Compliance Matrix: (Units=1/GPa)
#
#
# Indices 1 2 3 4 5 6 
#
# 1 0.011870 -0.002293 -0.008330 0.000000 -0.005151 0.000000
# 2 -0.002293 0.015306 -0.006474 0.000000 -0.000185 0.000000
# 3 -0.008330 -0.006474 0.035362 0.000000 0.007996 0.000000
# 4 0.000000 0.000000 0.000000 0.039952 0.000000 0.005687
# 5 -0.005151 -0.000185 0.007996 0.000000 0.034270 0.000000
# 6 0.000000 0.000000 0.000000 0.005687 0.000000 0.034331
#
#
# Mechanical properties :
#
#
# Convention : Reuss Voigt Hill
#
# Bulk Modulus (GPa) = 35.28053 44.55808 39.91931
# Shear Modulus (GPa) = 23.28470 27.66786 25.47628
#
# Velocity S-wave (km/s) = 3.59288 3.91647 3.75816
# Velocity P-wave (km/s) = 6.06390 6.71969 6.40020
#
# Compressibility (1/GPa) = 0.02834424
#
# Stress axis : x y z
#
# Youngs Moduli (GPa) = 84.24557 65.33404 28.27870
#
# Poissons Ratio (x) = 0.14984 0.23556
# Poissons Ratio (y) = 0.19321 0.18307
# Poissons Ratio (z) = 0.70175 0.42295
#
# Static dielectric constant tensor:
#      x y z
#    x 3.758200 0.000000 0.378810 
#    y 0.000000 3.473010 0.000000 
#    z 0.378810 0.000000 3.479780 
# 
# 
# High freq. dielectric constant tensor:
#      x y z
#    x 1.705320 0.000000 0.017260 
#    y 0.000000 1.713270 0.000000 
#    z 0.017260 0.000000 1.679570 
# 
# From -- ./inp_files/53189.got.cif
#   From: 2010.06.25/outbox.cif.g09.slc.cpg/sg11_27_cif.got.tgz:53189.got - 2010.06.27 23:14:04.
