data_PCOD8070414
_publ_section_title
;
Structure prediction by ZEFSAII (Michael W. Deem and Ramdas Pophale) SiO2 
 PCOD8070414
Probable space group: P 21/M
;
_chemical_formula_sum "Si O2"
_cell_formula_units_Z 32
_cell_length_a 12.621257
_cell_length_b 8.860760
_cell_length_c 23.193371
_cell_angle_alpha 90.000000
_cell_angle_beta 134.418637
_cell_angle_gamma 90.000000
_cell_volume 1852.612980
_symmetry_space_group_name_H-M "P 21/M"
_symmetry_group_IT_number 11
_symmetry_cell_setting 'monoclinic'
loop_
_space_group_symop_operation_xyz
x,y,z
-x,1/2+y,-z
-x,-y,-z
x,1/2-y,z
loop_
_atom_site_type_symbol
_atom_site_label
_atom_site_fract_x
_atom_site_fract_y
_atom_site_fract_z
Si Si1 0.564429 0.578395 0.785782
Si Si2 0.173366 0.429640 0.324708
Si Si3 0.566766 0.926458 0.660314
Si Si4 0.689881 0.070963 0.006702
Si Si5 0.578577 0.071911 0.154684
Si Si6 0.156159 0.572793 0.819593
Si Si7 0.632013 0.426092 0.515824
Si Si8 0.853898 0.923187 0.966429
O O1 0.512537 0.750000 0.758308
O O2 0.552035 0.497168 0.718307
O O3 0.458030 0.505951 0.795118
O O4 0.733990 0.566572 0.869930
O O5 0.175172 0.250000 0.329532
O O6 0.290733 0.489995 0.321231
O O7 0.217212 0.494389 0.404897
O O8 0.009611 0.494956 0.248227
O O9 0.598285 0.750000 0.679824
O O10 0.410088 0.954574 0.567457
O O11 0.674609 0.250000 0.000653
O O12 0.528688 0.999965 0.934190
O O13 0.804369 0.018705 0.002155
O O14 0.755443 0.008237 0.091838
O O15 0.544351 0.250000 0.141062
O O16 0.748043 0.035218 0.201548
O O17 0.139696 0.750000 0.821350
O O18 0.500000 0.500000 0.500000
O O19 0.641006 0.250000 0.532966
O O20 0.881696 0.750000 0.994814
O O21 0.000000 0.000000 0.000000
#
# Coordination Sequence:
#
# PCOD8070414 Si02
#       8
#     4   4   4   4   4   4   4   4
#     4   8  15  27  46  67  86 116 155 191 223 269
#     4   9  17  29  46  67  92 119 153 190 230 281
#     4   8  14  25  45  68  87 113 150 184 220 277
#     4  10  19  31  48  68  91 124 163 197 237 283
#     4   9  17  32  49  67  92 120 161 205 238 273
#     4   9  18  30  48  70  91 124 162 199 236 280
#     4   9  16  28  46  67  93 119 146 182 228 282
#     4  10  20  32  47  67  96 128 157 193 235 277
#
# _framework density 17.272901000000001
#
# number of rings (size 3 to 8) (size 9 to 14) (size 15 to 20)
#    0.000    3.000    0.000    3.000    1.750    0.000 
#    0.000    2.500    0.000   11.250    0.000    0.000 
#    0.000    0.000    0.000    0.000    0.000    0.500 
#
# Total GULP energy -396482.835724 kJ/mol
# GULP energy per Si atom -12390.088616 kJ/mol
# Density = 1.723359 g / cm^3
# Si number density = 17.272901 Si / 1000 Ang^3
#
#
#
# Elastic Constant Matrix: (Units=GPa)
#
#
# Indices 1 2 3 4 5 6 
#
# 1 93.8948 13.3510 73.1443 0.0000 -2.5834 0.0000
# 2 13.3510 32.8460 23.5182 0.0000 -0.9555 0.0000
# 3 73.1443 23.5182 126.0321 0.0000 -9.5356 0.0000
# 4 0.0000 0.0000 0.0000 23.5343 0.0000 1.2708
# 5 -2.5834 -0.9555 -9.5356 0.0000 23.4259 0.0000
# 6 0.0000 0.0000 0.0000 1.2708 0.0000 15.3332
#
#
#
# Elastic Compliance Matrix: (Units=1/GPa)
#
#
# Indices 1 2 3 4 5 6 
#
# 1 0.019587 0.000279 -0.011613 0.000000 -0.002556 0.000000
# 2 0.000279 0.035181 -0.006826 0.000000 -0.001313 0.000000
# 3 -0.011613 -0.006826 0.016333 0.000000 0.005089 0.000000
# 4 0.000000 0.000000 0.000000 0.042682 0.000000 -0.003537
# 5 -0.002556 -0.001313 0.005089 0.000000 0.044424 0.000000
# 6 0.000000 0.000000 0.000000 -0.003537 0.000000 0.065511
#
#
# Mechanical properties :
#
#
# Convention : Reuss Voigt Hill
#
# Bulk Modulus (GPa) = 28.75139 52.53332 40.64235
# Shear Modulus (GPa) = 18.40728 21.97597 20.19163
#
# Velocity S-wave (km/s) = 3.26801 3.57077 3.42274
# Velocity P-wave (km/s) = 5.56070 6.89060 6.26106
#
# Compressibility (1/GPa) = 0.03478093
#
# Stress axis : x y z
#
# Youngs Moduli (GPa) = 51.05535 28.42424 61.22571
#
# Poissons Ratio (x) = -0.00794 0.71100
# Poissons Ratio (y) = -0.01425 0.41795
# Poissons Ratio (z) = 0.59289 0.19403
#
# Static dielectric constant tensor:
#      x y z
#    x 3.369340 0.000000 -0.155890 
#    y 0.000000 3.061210 0.000000 
#    z -0.155890 0.000000 3.640680 
# 
# 
# High freq. dielectric constant tensor:
#      x y z
#    x 1.656410 0.000000 -0.006550 
#    y 0.000000 1.635830 0.000000 
#    z -0.006550 0.000000 1.664710 
# 
# From -- ./inp_files/68323.got.cif
#   From: 2010.06.25/outbox.cif.g09.slc.cpg/sg11_35_cif.got.tgz:68323.got - 2010.06.27 23:14:04.
