data_PCOD8070074
_publ_section_title
;
Structure prediction by ZEFSAII (Michael W. Deem and Ramdas Pophale) SiO2 
 PCOD8070074
Probable space group: P 21/M
;
_chemical_formula_sum "Si O2"
_cell_formula_units_Z 28
_cell_length_a 21.143310
_cell_length_b 9.127067
_cell_length_c 11.122936
_cell_angle_alpha 90.000000
_cell_angle_beta 50.025548
_cell_angle_gamma 90.000000
_cell_volume 1644.902041
_symmetry_space_group_name_H-M "P 21/M"
_symmetry_group_IT_number 11
_symmetry_cell_setting 'monoclinic'
loop_
_space_group_symop_operation_xyz
x,y,z
-x,1/2+y,-z
-x,-y,-z
x,1/2-y,z
loop_
_atom_site_type_symbol
_atom_site_label
_atom_site_fract_x
_atom_site_fract_y
_atom_site_fract_z
Si Si1 0.730980 0.419299 0.007770
Si Si2 0.406040 0.916712 0.528609
Si Si3 0.029640 0.418555 0.635608
Si Si4 0.924659 0.920277 0.154240
Si Si5 0.422864 0.417244 0.748697
Si Si6 0.226648 0.585198 0.766503
Si Si7 0.120196 0.078970 0.282718
O O1 0.731095 0.250000 0.973366
O O2 0.638445 0.481984 0.098054
O O3 0.757857 0.447854 0.112055
O O4 0.792456 0.502197 0.843623
O O5 0.412368 0.750000 0.575391
O O6 0.478863 0.937223 0.339279
O O7 0.313466 0.934802 0.588203
O O8 0.416999 0.039462 0.616318
O O9 0.001004 0.250000 0.663769
O O10 0.075085 0.454616 0.704338
O O11 0.093266 0.456325 0.451784
O O12 0.947422 0.515658 0.726955
O O13 0.934219 0.750000 0.115932
O O14 0.838256 0.972107 0.206326
O O15 0.000000 0.000000 0.000000
O O16 0.394539 0.250000 0.800275
O O17 0.192143 0.750000 0.792727
O O18 0.129135 0.250000 0.246603
#
# Coordination Sequence:
#
# PCOD8070074 Si02
#       7
#     4   4   4   4   4   4   4
#     4  10  19  30  44  66  97 125 148 184 232 268
#     4   8  15  27  41  60  90 123 150 183 227 266
#     4   9  20  36  49  65  92 120 146 185 233 268
#     4  11  22  34  48  67  92 121 151 184 222 263
#     4   9  15  24  41  64  89 119 154 185 218 268
#     4   9  18  31  45  64  93 125 152 181 221 266
#     4  10  19  32  51  70  87 114 153 189 223 270
#
# _framework density 17.022290000000002
#
# number of rings (size 3 to 8) (size 9 to 14) (size 15 to 20)
#    0.000    2.571    0.000    3.429    0.000    8.571 
#    0.000    0.000    0.000    0.000    0.000    1.000 
#    0.000    0.000    0.000    0.000    0.000    0.000 
#
# Total GULP energy -347059.116449 kJ/mol
# GULP energy per Si atom -12394.968445 kJ/mol
# Density = 1.698355 g / cm^3
# Si number density = 17.022290 Si / 1000 Ang^3
#
#
#
# Elastic Constant Matrix: (Units=GPa)
#
#
# Indices 1 2 3 4 5 6 
#
# 1 61.5787 35.9794 42.2724 0.0000 -18.1886 0.0000
# 2 35.9794 90.8546 52.9991 0.0000 -15.8963 0.0000
# 3 42.2724 52.9991 103.8134 0.0000 -32.8385 0.0000
# 4 0.0000 0.0000 0.0000 28.9635 0.0000 -6.8097
# 5 -18.1886 -15.8963 -32.8385 0.0000 30.3744 0.0000
# 6 0.0000 0.0000 0.0000 -6.8097 0.0000 24.6632
#
#
#
# Elastic Compliance Matrix: (Units=1/GPa)
#
#
# Indices 1 2 3 4 5 6 
#
# 1 0.025089 -0.005748 -0.005290 0.000000 0.006296 0.000000
# 2 -0.005748 0.017001 -0.007011 0.000000 -0.002124 0.000000
# 3 -0.005290 -0.007011 0.020065 0.000000 0.014856 0.000000
# 4 0.000000 0.000000 0.000000 0.036923 0.000000 0.010195
# 5 0.006296 -0.002124 0.014856 0.000000 0.051643 0.000000
# 6 0.000000 0.000000 0.000000 0.010195 0.000000 0.043361
#
#
# Mechanical properties :
#
#
# Convention : Reuss Voigt Hill
#
# Bulk Modulus (GPa) = 38.37620 57.63869 48.00745
# Shear Modulus (GPa) = 20.93228 25.13326 23.03277
#
# Velocity S-wave (km/s) = 3.51051 3.84668 3.68243
# Velocity P-wave (km/s) = 6.24701 7.32554 6.80767
#
# Compressibility (1/GPa) = 0.02605782
#
# Stress axis : x y z
#
# Youngs Moduli (GPa) = 39.85793 58.82064 49.83755
#
# Poissons Ratio (x) = 0.33811 0.26364
# Poissons Ratio (y) = 0.22911 0.34939
# Poissons Ratio (z) = 0.21085 0.41237
#
# Static dielectric constant tensor:
#      x y z
#    x 3.005450 0.000000 -0.375200 
#    y 0.000000 3.312470 0.000000 
#    z -0.375200 0.000000 3.372460 
# 
# 
# High freq. dielectric constant tensor:
#      x y z
#    x 1.615690 0.000000 -0.038800 
#    y 0.000000 1.671080 0.000000 
#    z -0.038800 0.000000 1.654440 
# 
# From -- ./inp_files/42359.got.cif
#   From: 2010.06.25/outbox.cif.g09.slc.cpg/sg11_22_cif.got.tgz:42359.got - 2010.06.27 23:14:04.
