data_PCOD8070276
_publ_section_title
;
Structure prediction by ZEFSAII (Michael W. Deem and Ramdas Pophale) SiO2 
 PCOD8070276
Probable space group: P 21/M
;
_chemical_formula_sum "Si O2"
_cell_formula_units_Z 32
_cell_length_a 30.116972
_cell_length_b 9.336243
_cell_length_c 12.897575
_cell_angle_alpha 90.000000
_cell_angle_beta 152.786679
_cell_angle_gamma 90.000000
_cell_volume 1658.430128
_symmetry_space_group_name_H-M "P 21/M"
_symmetry_group_IT_number 11
_symmetry_cell_setting 'monoclinic'
loop_
_space_group_symop_operation_xyz
x,y,z
-x,1/2+y,-z
-x,-y,-z
x,1/2-y,z
loop_
_atom_site_type_symbol
_atom_site_label
_atom_site_fract_x
_atom_site_fract_y
_atom_site_fract_z
Si Si1 0.663953 0.590833 0.677215
Si Si2 0.186550 0.918377 0.905337
Si Si3 0.540893 0.088965 0.678862
Si Si4 0.402873 0.419580 0.835153
Si Si5 0.127981 0.413844 0.582412
Si Si6 0.758451 0.916638 0.660124
Si Si7 0.671152 0.586051 0.092775
Si Si8 0.914220 0.415705 0.088706
O O1 0.701826 0.750000 0.784734
O O2 0.548178 0.590301 0.425694
O O3 0.698531 0.542125 0.637203
O O4 0.705222 0.483131 0.851181
O O5 0.194888 0.750000 0.905911
O O6 0.122261 0.960490 0.872080
O O7 0.139523 0.985926 0.705993
O O8 0.570875 0.250000 0.708176
O O9 0.500000 0.000000 0.500000
O O10 0.631924 0.012784 0.919570
O O11 0.420647 0.250000 0.859528
O O12 0.308810 0.468998 0.574077
O O13 0.374102 0.462862 0.892178
O O14 0.500000 0.500000 0.000000
O O15 0.124546 0.250000 0.615332
O O16 0.212431 0.433690 0.671548
O O17 0.027881 0.453727 0.317214
O O18 0.782601 0.750000 0.699528
O O19 0.860502 0.999996 0.883610
O O20 0.641795 0.750000 0.009427
O O21 0.892969 0.250000 0.025420
#
# Coordination Sequence:
#
# PCOD8070276 Si02
#       8
#     4   4   4   4   4   4   4   4
#     4   9  18  32  49  70  99 135 169 205 257 317
#     4  10  19  30  49  78 106 134 174 220 259 301
#     4  11  22  35  52  75 106 142 178 215 258 312
#     4  10  21  38  60  84 108 136 173 218 267 318
#     4  10  20  35  52  71 103 144 178 211 258 314
#     4   9  18  34  55  77 101 130 168 214 262 310
#     4  10  22  38  55  77 106 141 179 217 262 318
#     4   9  19  34  52  76 105 138 176 216 259 308
#
# _framework density 19.295356999999999
#
# number of rings (size 3 to 8) (size 9 to 14) (size 15 to 20)
#    0.000    2.250    0.000    2.625    0.000    7.500 
#    0.000    3.125    0.000    0.000    0.000    0.000 
#    0.000    0.000    0.000    0.000    0.000    0.000 
#
# Total GULP energy -396739.515415 kJ/mol
# GULP energy per Si atom -12398.109857 kJ/mol
# Density = 1.925144 g / cm^3
# Si number density = 19.295357 Si / 1000 Ang^3
#
#
#
# Elastic Constant Matrix: (Units=GPa)
#
#
# Indices 1 2 3 4 5 6 
#
# 1 69.0231 35.1529 45.0028 0.0000 1.3713 0.0000
# 2 35.1529 84.6615 57.2563 0.0000 -6.7879 0.0000
# 3 45.0028 57.2563 137.0036 0.0000 0.5512 0.0000
# 4 0.0000 0.0000 0.0000 34.5240 0.0000 0.5922
# 5 1.3713 -6.7879 0.5512 0.0000 30.5015 0.0000
# 6 0.0000 0.0000 0.0000 0.5922 0.0000 20.9260
#
#
#
# Elastic Compliance Matrix: (Units=1/GPa)
#
#
# Indices 1 2 3 4 5 6 
#
# 1 0.020193 -0.005677 -0.004252 0.000000 -0.002094 0.000000
# 2 -0.005677 0.018511 -0.005889 0.000000 0.004481 0.000000
# 3 -0.004252 -0.005889 0.011162 0.000000 -0.001321 0.000000
# 4 0.000000 0.000000 0.000000 0.028979 0.000000 -0.000820
# 5 -0.002094 0.004481 -0.001321 0.000000 0.033901 0.000000
# 6 0.000000 0.000000 0.000000 -0.000820 0.000000 0.047811
#
#
# Mechanical properties :
#
#
# Convention : Reuss Voigt Hill
#
# Bulk Modulus (GPa) = 54.85486 62.83469 58.84478
# Shear Modulus (GPa) = 25.21808 27.40872 26.31340
#
# Velocity S-wave (km/s) = 3.61910 3.77302 3.69686
# Velocity P-wave (km/s) = 6.77898 7.18445 6.98466
#
# Compressibility (1/GPa) = 0.01822993
#
# Stress axis : x y z
#
# Youngs Moduli (GPa) = 49.52212 54.02156 89.58589
#
# Poissons Ratio (x) = 0.30666 0.38093
# Poissons Ratio (y) = 0.28112 0.52762
# Poissons Ratio (z) = 0.21058 0.31816
#
# Static dielectric constant tensor:
#      x y z
#    x 3.534550 0.000000 0.196210 
#    y 0.000000 3.550390 0.000000 
#    z 0.196210 0.000000 3.810570 
# 
# 
# High freq. dielectric constant tensor:
#      x y z
#    x 1.738500 0.000000 0.011770 
#    y 0.000000 1.748470 0.000000 
#    z 0.011770 0.000000 1.752030 
# 
# From -- ./inp_files/45254.got.cif
#   From: 2010.06.25/outbox.cif.g09.slc.cpg/sg11_23_cif.got.tgz:45254.got - 2010.06.27 23:14:04.
