data_PCOD8070405
_publ_section_title
;
Structure prediction by ZEFSAII (Michael W. Deem and Ramdas Pophale) SiO2 
 PCOD8070405
Probable space group: P 21/M
;
_chemical_formula_sum "Si O2"
_cell_formula_units_Z 32
_cell_length_a 30.573745
_cell_length_b 8.971686
_cell_length_c 21.158872
_cell_angle_alpha 90.000000
_cell_angle_beta 160.544990
_cell_angle_gamma 90.000000
_cell_volume 1933.064133
_symmetry_space_group_name_H-M "P 21/M"
_symmetry_group_IT_number 11
_symmetry_cell_setting 'monoclinic'
loop_
_space_group_symop_operation_xyz
x,y,z
-x,1/2+y,-z
-x,-y,-z
x,1/2-y,z
loop_
_atom_site_type_symbol
_atom_site_label
_atom_site_fract_x
_atom_site_fract_y
_atom_site_fract_z
Si Si1 0.964480 0.926158 0.802955
Si Si2 0.193287 0.077210 0.782988
Si Si3 0.716554 0.920832 0.549847
Si Si4 0.586697 0.074205 0.171239
Si Si5 0.509120 0.574163 0.824199
Si Si6 0.111907 0.574168 0.427665
Si Si7 0.103019 0.076953 0.095225
Si Si8 0.018997 0.077673 0.426064
O O1 0.981237 0.750000 0.823231
O O2 0.833164 0.974741 0.661914
O O3 0.962361 0.992362 0.730248
O O4 0.092517 0.995838 0.012949
O O5 0.179527 0.250000 0.783950
O O6 0.137002 0.052483 0.636114
O O7 0.342948 0.021247 0.987263
O O8 0.117613 0.975181 0.729834
O O9 0.685226 0.750000 0.492379
O O10 0.756421 0.942313 0.678101
O O11 0.585186 0.014151 0.359255
O O12 0.568025 0.250000 0.141169
O O13 0.538917 0.011995 0.173709
O O14 0.736509 0.025579 0.365393
O O15 0.500000 0.000000 0.000000
O O16 0.500448 0.750000 0.812274
O O17 0.095818 0.750000 0.397327
O O18 0.045740 0.522889 0.402038
O O19 0.067666 0.250000 0.039190
O O20 0.000000 0.000000 0.000000
O O21 0.007321 0.250000 0.390466
#
# Coordination Sequence:
#
# PCOD8070405 Si02
#       8
#     4   4   4   4   4   4   4   4
#     4  10  19  31  47  70  99 132 167 203 245 290
#     4   9  19  35  53  72  96 126 165 211 254 293
#     4   9  18  30  45  69  99 130 163 200 240 287
#     4  10  21  33  46  68  97 132 165 197 241 293
#     4  10  19  32  49  70  98 130 164 201 243 292
#     4  11  21  33  50  72 100 132 166 203 247 297
#     4   9  17  29  45  67  96 130 167 202 242 289
#     4  10  20  35  54  72  95 126 166 214 255 293
#
# _framework density 16.554029
#
# number of rings (size 3 to 8) (size 9 to 14) (size 15 to 20)
#    0.000    2.250    1.250    3.000    0.000    6.000 
#    0.000    0.000    0.000    0.000    0.000    0.875 
#    0.000    0.000    0.000    0.000    0.000    0.000 
#
# Total GULP energy -396799.339169 kJ/mol
# GULP energy per Si atom -12399.979349 kJ/mol
# Density = 1.651635 g / cm^3
# Si number density = 16.554029 Si / 1000 Ang^3
#
#
#
# Elastic Constant Matrix: (Units=GPa)
#
#
# Indices 1 2 3 4 5 6 
#
# 1 78.1645 36.8811 57.5371 0.0000 -10.4928 0.0000
# 2 36.8811 62.8653 41.6126 0.0000 -7.7478 0.0000
# 3 57.5371 41.6126 105.0114 0.0000 -13.4582 0.0000
# 4 0.0000 0.0000 0.0000 29.1131 0.0000 -6.9359
# 5 -10.4928 -7.7478 -13.4582 0.0000 24.2505 0.0000
# 6 0.0000 0.0000 0.0000 -6.9359 0.0000 25.2346
#
#
#
# Elastic Compliance Matrix: (Units=1/GPa)
#
#
# Indices 1 2 3 4 5 6 
#
# 1 0.023748 -0.007079 -0.009882 0.000000 0.002529 0.000000
# 2 -0.007079 0.023794 -0.005349 0.000000 0.001571 0.000000
# 3 -0.009882 -0.005349 0.017537 0.000000 0.003748 0.000000
# 4 0.000000 0.000000 0.000000 0.036756 0.000000 0.010103
# 5 0.002529 0.001571 0.003748 0.000000 0.044912 0.000000
# 6 0.000000 0.000000 0.000000 0.010103 0.000000 0.042405
#
#
# Mechanical properties :
#
#
# Convention : Reuss Voigt Hill
#
# Bulk Modulus (GPa) = 48.87870 57.56699 53.22285
# Shear Modulus (GPa) = 20.78210 23.05367 21.91788
#
# Velocity S-wave (km/s) = 3.54702 3.73585 3.64266
# Velocity P-wave (km/s) = 6.80926 7.31160 7.06489
#
# Compressibility (1/GPa) = 0.02045881
#
# Stress axis : x y z
#
# Youngs Moduli (GPa) = 42.10965 42.02714 57.02100
#
# Poissons Ratio (x) = 0.29750 0.56350
# Poissons Ratio (y) = 0.29808 0.30500
# Poissons Ratio (z) = 0.41614 0.22480
#
# Static dielectric constant tensor:
#      x y z
#    x 3.017050 0.000000 -0.201740 
#    y 0.000000 3.156930 0.000000 
#    z -0.201740 0.000000 3.233690 
# 
# 
# High freq. dielectric constant tensor:
#      x y z
#    x 1.615740 0.000000 -0.021200 
#    y 0.000000 1.645800 0.000000 
#    z -0.021200 0.000000 1.629060 
# 
# From -- ./inp_files/40719.got.cif
#   From: 2010.06.25/outbox.cif.g09.slc.cpg/sg11_21_cif.got.tgz:40719.got - 2010.06.27 23:14:04.
