data_PCOD8070698
_publ_section_title
;
Structure prediction by ZEFSAII (Michael W. Deem and Ramdas Pophale) SiO2 
 PCOD8070698
Probable space group: P 21/M
;
_chemical_formula_sum "Si O2"
_cell_formula_units_Z 32
_cell_length_a 21.816031
_cell_length_b 12.960753
_cell_length_c 18.653554
_cell_angle_alpha 90.000000
_cell_angle_beta 161.212241
_cell_angle_gamma 90.000000
_cell_volume 1698.669905
_symmetry_space_group_name_H-M "P 21/M"
_symmetry_group_IT_number 11
_symmetry_cell_setting 'monoclinic'
loop_
_space_group_symop_operation_xyz
x,y,z
-x,1/2+y,-z
-x,-y,-z
x,1/2-y,z
loop_
_atom_site_type_symbol
_atom_site_label
_atom_site_fract_x
_atom_site_fract_y
_atom_site_fract_z
Si Si1 0.067818 0.631579 0.403169
Si Si2 0.639176 0.634017 0.911043
Si Si3 0.860831 0.867653 0.898750
Si Si4 0.809829 0.512806 0.705866
Si Si5 0.519732 0.634136 0.621204
Si Si6 0.690291 0.513021 0.417382
Si Si7 0.436520 0.371382 0.855511
Si Si8 0.795804 0.023085 0.309555
O O1 0.104847 0.750000 0.422859
O O2 0.135082 0.558911 0.413028
O O3 0.180957 0.604167 0.600280
O O4 0.846311 0.609994 0.171537
O O5 0.575670 0.750000 0.860745
O O6 0.642425 0.618976 0.829132
O O7 0.497648 0.556436 0.792782
O O8 0.925381 0.750000 0.981933
O O9 0.652878 0.887599 0.700836
O O10 0.856589 0.890859 0.808872
O O11 0.005272 0.942022 0.100514
O O12 0.654013 0.444147 0.573987
O O13 0.736974 0.555104 0.548605
O O14 0.436281 0.750000 0.525306
O O15 0.655905 0.607694 0.325104
O O16 0.451143 0.250000 0.884200
O O17 0.298368 0.417888 0.764122
O O18 0.646769 0.423081 0.090331
O O19 0.000000 0.000000 0.500000
#
# Coordination Sequence:
#
# PCOD8070698 Si02
#       8
#     4   4   4   4   4   4   4   4
#     4  10  19  31  51  78 104 131 168 214 258 301
#     4   9  17  29  48  75 103 132 166 207 257 307
#     4  10  20  33  50  73  99 129 169 214 258 305
#     4  10  20  33  51  73  99 134 170 209 256 308
#     4   9  17  30  49  72  99 130 165 208 258 307
#     4  10  20  34  51  73 104 137 170 208 255 310
#     4  10  22  38  56  80 109 141 177 217 260 309
#     4  10  21  38  58  80 107 141 179 217 260 311
#
# _framework density 18.838269
#
# number of rings (size 3 to 8) (size 9 to 14) (size 15 to 20)
#    0.000    2.250    0.000    3.000    0.000    4.000 
#    0.000    3.125    0.000    0.000    0.000    7.000 
#    0.000    0.000    0.000    0.000    0.000    0.000 
#
# Total GULP energy -396819.486746 kJ/mol
# GULP energy per Si atom -12400.608961 kJ/mol
# Density = 1.879539 g / cm^3
# Si number density = 18.838269 Si / 1000 Ang^3
#
#
#
# Elastic Constant Matrix: (Units=GPa)
#
#
# Indices 1 2 3 4 5 6 
#
# 1 70.7069 28.5947 22.9826 0.0000 2.4377 0.0000
# 2 28.5947 77.4708 26.3109 0.0000 4.7266 0.0000
# 3 22.9826 26.3109 76.9055 0.0000 1.6550 0.0000
# 4 0.0000 0.0000 0.0000 1369.4841 0.0000-1016.6082
# 5 2.4377 4.7266 1.6550 0.0000 33.0106 0.0000
# 6 0.0000 0.0000 0.0000-1016.6082 0.0000 786.2645
#
#
#
# Elastic Compliance Matrix: (Units=1/GPa)
#
#
# Indices 1 2 3 4 5 6 
#
# 1 0.017377 -0.005240 -0.003393 0.000000 -0.000363 0.000000
# 2 -0.005240 0.016298 -0.003972 0.000000 -0.001748 0.000000
# 3 -0.003393 -0.003972 0.015375 0.000000 0.000048 0.000000
# 4 0.000000 0.000000 0.000000 0.018165 0.000000 0.023487
# 5 -0.000363 -0.001748 0.000048 0.000000 0.030568 0.000000
# 6 0.000000 0.000000 0.000000 0.023487 0.000000 0.031639
#
#
# Mechanical properties :
#
#
# Convention : Reuss Voigt Hill
#
# Bulk Modulus (GPa) = 41.94542 42.31773 42.13157
# Shear Modulus (GPa) = 30.75451 447.56485 239.15968
#
# Velocity S-wave (km/s) = 4.04487 15.43044 11.27962
# Velocity P-wave (km/s) = 6.64297 18.43847 13.85832
#
# Compressibility (1/GPa) = 0.02384050
#
# Stress axis : x y z
#
# Youngs Moduli (GPa) = 57.54707 61.35813 65.04144
#
# Poissons Ratio (x) = 0.32149 0.22066
# Poissons Ratio (y) = 0.30152 0.25837
# Poissons Ratio (z) = 0.19524 0.24374
#
# Static dielectric constant tensor:
#      x y z
#    x 3.398390 0.000000 0.028780 
#    y 0.000000 3.220940 0.000000 
#    z 0.028780 0.000000 3.486690 
# 
# 
# High freq. dielectric constant tensor:
#      x y z
#    x 1.730310 0.000000 0.000770 
#    y 0.000000 1.713020 0.000000 
#    z 0.000770 0.000000 1.740160 
# 
# From -- ./inp_files/61621.got.cif
#   From: 2010.06.25/outbox.cif.g09.slc.cpg/sg11_31_cif.got.tgz:61621.got - 2010.06.27 23:14:04.
