data_PCOD8070890
_publ_section_title
;
Structure prediction by ZEFSAII (Michael W. Deem and Ramdas Pophale) SiO2 
 PCOD8070890
Probable space group: P 21/M
;
_chemical_formula_sum "Si O2"
_cell_formula_units_Z 32
_cell_length_a 23.190398
_cell_length_b 9.065885
_cell_length_c 15.582149
_cell_angle_alpha 90.000000
_cell_angle_beta 148.522503
_cell_angle_gamma 90.000000
_cell_volume 1710.615470
_symmetry_space_group_name_H-M "P 21/M"
_symmetry_group_IT_number 11
_symmetry_cell_setting 'monoclinic'
loop_
_space_group_symop_operation_xyz
x,y,z
-x,1/2+y,-z
-x,-y,-z
x,1/2-y,z
loop_
_atom_site_type_symbol
_atom_site_label
_atom_site_fract_x
_atom_site_fract_y
_atom_site_fract_z
Si Si1 0.095690 0.418672 0.671756
Si Si2 0.810336 0.590684 0.378453
Si Si3 0.137681 0.422183 0.914346
Si Si4 0.425259 0.090362 0.842604
Si Si5 0.693106 0.573074 0.472816
Si Si6 0.354943 0.580399 0.246011
Si Si7 0.433996 0.580053 0.539647
Si Si8 0.892323 0.420452 0.636286
O O1 0.060900 0.250000 0.643440
O O2 0.196526 0.439420 0.732661
O O3 0.126718 0.486283 0.803387
O O4 0.000000 0.500000 0.500000
O O5 0.870243 0.750000 0.470127
O O6 0.687327 0.606077 0.251238
O O7 0.874274 0.465828 0.513708
O O8 0.170049 0.250000 0.954425
O O9 0.022638 0.446077 0.820437
O O10 0.233808 0.512085 0.082507
O O11 0.481202 0.250000 0.900308
O O12 0.396895 0.021257 0.713243
O O13 0.500000 0.000000 0.000000
O O14 0.699805 0.750000 0.486733
O O15 0.653287 0.504411 0.511153
O O16 0.815748 0.514887 0.603646
O O17 0.354515 0.750000 0.215861
O O18 0.385524 0.564901 0.383735
O O19 0.444905 0.494420 0.302095
O O20 0.444835 0.750000 0.581977
O O21 0.860019 0.250000 0.606002
#
# Coordination Sequence:
#
# PCOD8070890 Si02
#       8
#     4   4   4   4   4   4   4   4
#     4  10  19  32  50  75 106 143 185 228 272 321
#     4   9  18  32  49  69 101 142 182 224 273 322
#     4  10  21  35  53  82 118 151 189 234 281 334
#     4   9  19  33  48  73 106 140 179 223 268 318
#     4  10  21  37  58  83 110 144 188 230 276 333
#     4  10  22  39  61  88 114 144 181 226 281 339
#     4  10  21  40  64  87 112 142 182 229 282 338
#     4  10  19  33  53  79 111 146 187 228 272 327
#
# _framework density 18.706717999999999
#
# number of rings (size 3 to 8) (size 9 to 14) (size 15 to 20)
#    0.000    2.250    1.250    2.250    0.000    6.500 
#    0.000    1.875    0.000    0.000    0.000    0.000 
#    0.000    0.000    0.000    0.000    0.000    0.000 
#
# Total GULP energy -396557.568199 kJ/mol
# GULP energy per Si atom -12392.424006 kJ/mol
# Density = 1.866414 g / cm^3
# Si number density = 18.706718 Si / 1000 Ang^3
#
#
#
# Elastic Constant Matrix: (Units=GPa)
#
#
# Indices 1 2 3 4 5 6 
#
# 1 91.5700 45.4786 18.7013 0.0000 4.9013 0.0000
# 2 45.4786 104.9453 47.0359 0.0000 9.7319 0.0000
# 3 18.7013 47.0359 79.8902 0.0000 14.2150 0.0000
# 4 0.0000 0.0000 0.0000 33.1683 0.0000 1.7472
# 5 4.9013 9.7319 14.2150 0.0000 14.5377 0.0000
# 6 0.0000 0.0000 0.0000 1.7472 0.0000 30.7961
#
#
#
# Elastic Compliance Matrix: (Units=1/GPa)
#
#
# Indices 1 2 3 4 5 6 
#
# 1 0.013940 -0.006200 0.000587 0.000000 -0.001123 0.000000
# 2 -0.006200 0.015728 -0.007636 0.000000 -0.000972 0.000000
# 3 0.000587 -0.007636 0.019371 0.000000 -0.014028 0.000000
# 4 0.000000 0.000000 0.000000 0.030240 0.000000 -0.001716
# 5 -0.001123 -0.000972 -0.014028 0.000000 0.083532 0.000000
# 6 0.000000 0.000000 0.000000 -0.001716 0.000000 0.032569
#
#
# Mechanical properties :
#
#
# Convention : Reuss Voigt Hill
#
# Bulk Modulus (GPa) = 44.36146 55.42633 49.89390
# Shear Modulus (GPa) = 21.79683 26.71309 24.25496
#
# Velocity S-wave (km/s) = 3.41719 3.78298 3.60473
# Velocity P-wave (km/s) = 6.27178 6.98389 6.63739
#
# Compressibility (1/GPa) = 0.02254209
#
# Stress axis : x y z
#
# Youngs Moduli (GPa) = 71.73564 63.58116 51.62287
#
# Poissons Ratio (x) = 0.39420 -0.03030
# Poissons Ratio (y) = 0.44475 0.39417
# Poissons Ratio (z) = -0.04210 0.48548
#
# Static dielectric constant tensor:
#      x y z
#    x 3.804440 0.000000 -0.050390 
#    y 0.000000 2.926080 0.000000 
#    z -0.050390 0.000000 3.127840 
# 
# 
# High freq. dielectric constant tensor:
#      x y z
#    x 1.733420 0.000000 0.006490 
#    y 0.000000 1.732400 0.000000 
#    z 0.006490 0.000000 1.704150 
# 
# From -- ./inp_files/55724.got.cif
#   From: 2010.06.25/outbox.cif.g09.slc.cpg/sg11_28_cif.got.tgz:55724.got - 2010.06.27 23:14:04.
