data_PCOD8070063
_publ_section_title
;
Structure prediction by ZEFSAII (Michael W. Deem and Ramdas Pophale) SiO2 
 PCOD8070063
Probable space group: P 21/M
;
_chemical_formula_sum "Si O2"
_cell_formula_units_Z 32
_cell_length_a 16.105541
_cell_length_b 9.137354
_cell_length_c 14.023853
_cell_angle_alpha 90.000000
_cell_angle_beta 92.522266
_cell_angle_gamma 90.000000
_cell_volume 2061.779269
_symmetry_space_group_name_H-M "P 21/M"
_symmetry_group_IT_number 11
_symmetry_cell_setting 'monoclinic'
loop_
_space_group_symop_operation_xyz
x,y,z
-x,1/2+y,-z
-x,-y,-z
x,1/2-y,z
loop_
_atom_site_type_symbol
_atom_site_label
_atom_site_fract_x
_atom_site_fract_y
_atom_site_fract_z
Si Si1 0.022164 0.077611 0.267781
Si Si2 0.860563 0.919665 0.336787
Si Si3 0.242200 0.581141 0.003056
Si Si4 0.605130 0.913030 0.923617
Si Si5 0.456310 0.412297 0.863633
Si Si6 0.921945 0.916807 0.533274
Si Si7 0.939779 0.419616 0.924277
Si Si8 0.278457 0.078578 0.814044
O O1 0.015742 0.250000 0.243991
O O2 0.091113 0.043945 0.355410
O O3 0.931630 0.021262 0.295333
O O4 0.053063 0.990921 0.178430
O O5 0.884021 0.750000 0.318342
O O6 0.849019 0.947620 0.451410
O O7 0.772796 0.958645 0.283810
O O8 0.266441 0.750000 0.991560
O O9 0.310622 0.506861 0.074975
O O10 0.154040 0.560017 0.047414
O O11 0.237725 0.508015 0.899246
O O12 0.624416 0.750000 0.887479
O O13 0.535131 0.982735 0.850616
O O14 0.569781 0.910156 0.027780
O O15 0.482402 0.250000 0.831662
O O16 0.374814 0.468000 0.801455
O O17 0.948585 0.750000 0.531055
O O18 0.000000 0.000000 0.500000
O O19 0.965369 0.250000 0.920432
O O20 0.000000 0.500000 0.000000
O O21 0.275499 0.250000 0.840800
#
# Coordination Sequence:
#
# PCOD8070063 Si02
#       8
#     4   4   4   4   4   4   4   4
#     4  10  19  30  44  62  84 111 143 177 212 248
#     4   9  16  28  45  63  85 112 141 173 208 247
#     4  10  20  31  42  57  79 108 141 175 207 240
#     4   9  16  26  41  58  76 103 137 168 200 239
#     4   8  14  24  37  56  81 106 132 162 197 239
#     4   8  15  27  43  62  82 106 137 172 209 248
#     4  11  23  35  46  61  82 111 145 178 212 246
#     4   9  17  27  41  61  84 111 139 166 201 244
#
# _framework density 15.520574999999999
#
# number of rings (size 3 to 8) (size 9 to 14) (size 15 to 20)
#    0.000    2.750    0.000    3.000    0.000    8.000 
#    0.000    0.000    0.000    0.000    0.000    0.000 
#    0.000    1.000    0.000    2.000    0.000    2.875 
#
# Total GULP energy -396478.053825 kJ/mol
# GULP energy per Si atom -12389.939182 kJ/mol
# Density = 1.548525 g / cm^3
# Si number density = 15.520575 Si / 1000 Ang^3
#
#
#
# Elastic Constant Matrix: (Units=GPa)
#
#
# Indices 1 2 3 4 5 6 
#
# 1 99.4080 53.2849 53.2412 0.0000 27.9914 0.0000
# 2 53.2849 92.4097 48.3366 0.0000 10.7131 0.0000
# 3 53.2412 48.3366 93.8540 0.0000 24.4849 0.0000
# 4 0.0000 0.0000 0.0000 17.8588 0.0000 1.2169
# 5 27.9914 10.7131 24.4849 0.0000 21.5945 0.0000
# 6 0.0000 0.0000 0.0000 1.2169 0.0000 24.1868
#
#
#
# Elastic Compliance Matrix: (Units=1/GPa)
#
#
# Indices 1 2 3 4 5 6 
#
# 1 0.022328 -0.009168 -0.002245 0.000000 -0.021849 0.000000
# 2 -0.009168 0.018628 -0.007217 0.000000 0.010825 0.000000
# 3 -0.002245 -0.007217 0.019813 0.000000 -0.015974 0.000000
# 4 0.000000 0.000000 0.000000 0.056188 0.000000 -0.002827
# 5 -0.021849 0.010825 -0.015974 0.000000 0.087372 0.000000
# 6 0.000000 0.000000 0.000000 -0.002827 0.000000 0.041487
#
#
# Mechanical properties :
#
#
# Convention : Reuss Voigt Hill
#
# Bulk Modulus (GPa) = 42.53593 66.15525 54.34559
# Shear Modulus (GPa) = 17.18744 21.44861 19.31803
#
# Velocity S-wave (km/s) = 3.33137 3.72149 3.53182
# Velocity P-wave (km/s) = 6.50100 7.82194 7.19186
#
# Compressibility (1/GPa) = 0.02350953
#
# Stress axis : x y z
#
# Youngs Moduli (GPa) = 44.78654 53.68356 50.47300
#
# Poissons Ratio (x) = 0.49215 0.11329
# Poissons Ratio (y) = 0.41059 0.36427
# Poissons Ratio (z) = 0.10053 0.38744
#
# Static dielectric constant tensor:
#      x y z
#    x 3.111240 0.000000 0.455360 
#    y 0.000000 3.174300 0.000000 
#    z 0.455360 0.000000 3.067210 
# 
# 
# High freq. dielectric constant tensor:
#      x y z
#    x 1.583100 0.000000 0.031710 
#    y 0.000000 1.609570 0.000000 
#    z 0.031710 0.000000 1.559440 
# 
# From -- ./inp_files/51260.got.cif
#   From: 2010.06.25/outbox.cif.g09.slc.cpg/sg11_26_cif.got.tgz:51260.got - 2010.06.27 23:14:04.
