data_PCOD8070809
_publ_section_title
;
Structure prediction by ZEFSAII (Michael W. Deem and Ramdas Pophale) SiO2 
 PCOD8070809
Probable space group: P 21/M
;
_chemical_formula_sum "Si O2"
_cell_formula_units_Z 32
_cell_length_a 10.249493
_cell_length_b 10.726355
_cell_length_c 24.289964
_cell_angle_alpha 90.000000
_cell_angle_beta 39.425986
_cell_angle_gamma 90.000000
_cell_volume 1695.939995
_symmetry_space_group_name_H-M "P 21/M"
_symmetry_group_IT_number 11
_symmetry_cell_setting 'monoclinic'
loop_
_space_group_symop_operation_xyz
x,y,z
-x,1/2+y,-z
-x,-y,-z
x,1/2-y,z
loop_
_atom_site_type_symbol
_atom_site_label
_atom_site_fract_x
_atom_site_fract_y
_atom_site_fract_z
Si Si1 0.079617 0.613301 0.817410
Si Si2 0.078229 0.389385 0.011456
Si Si3 0.303805 0.387756 0.609815
Si Si4 0.162920 0.391703 0.542432
Si Si5 0.899254 0.391034 0.808807
Si Si6 0.704475 0.397946 0.681090
Si Si7 0.544715 0.394066 0.848486
Si Si8 0.490564 0.472539 0.358504
O O1 0.997314 0.750000 0.823511
O O2 0.319944 0.610635 0.723508
O O3 0.956857 0.494012 0.835331
O O4 0.056175 0.607110 0.890172
O O5 0.058159 0.250000 0.990918
O O6 0.316664 0.418884 0.944555
O O7 0.000000 0.500000 0.000000
O O8 0.397598 0.250000 0.572709
O O9 0.284561 0.453809 0.555424
O O10 0.447602 0.453460 0.606958
O O11 0.071530 0.383971 0.706625
O O12 0.123899 0.250000 0.573304
O O13 0.295117 0.393500 0.443098
O O14 0.938117 0.452020 0.604846
O O15 0.870256 0.250000 0.843902
O O16 0.695301 0.446316 0.846500
O O17 0.702943 0.250000 0.678923
O O18 0.588676 0.451170 0.773411
O O19 0.579003 0.440732 0.668680
O O20 0.598998 0.250000 0.825510
#
# Coordination Sequence:
#
# PCOD8070809 Si02
#       8
#     4   4   4   4   4   4   4   4
#     4  10  22  37  52  77 116 148 170 211 272 328
#     4  10  21  37  56  79 108 142 179 219 266 322
#     4   9  17  31  50  74 101 129 175 232 271 303
#     4  10  19  32  49  70 100 138 176 220 273 320
#     4   9  17  33  58  82 102 134 183 228 262 310
#     4  10  19  32  52  78 104 129 174 235 278 307
#     4   9  17  33  57  79 101 134 175 224 276 313
#     4  11  20  31  50  75 102 144 179 209 257 333
#
# _framework density 18.868592
#
# number of rings (size 3 to 8) (size 9 to 14) (size 15 to 20)
#    0.000    2.250    1.250    2.250    0.000    1.500 
#    0.000    0.625    0.000    2.250    0.000    0.000 
#    0.000    0.000    0.000    0.000    0.000    0.000 
#
# Total GULP energy -396470.524003 kJ/mol
# GULP energy per Si atom -12389.703875 kJ/mol
# Density = 1.882565 g / cm^3
# Si number density = 18.868592 Si / 1000 Ang^3
#
#
#
# Elastic Constant Matrix: (Units=GPa)
#
#
# Indices 1 2 3 4 5 6 
#
# 1 97.0190 45.4317 24.3572 0.0000 2.4552 0.0000
# 2 45.4317 87.2170 28.8233 0.0000 8.9745 0.0000
# 3 24.3572 28.8233 87.7710 0.0000 3.3999 0.0000
# 4 0.0000 0.0000 0.0000 21.2376 0.0000 4.9952
# 5 2.4552 8.9745 3.3999 0.0000 21.1826 0.0000
# 6 0.0000 0.0000 0.0000 4.9952 0.0000 20.8661
#
#
#
# Elastic Compliance Matrix: (Units=1/GPa)
#
#
# Indices 1 2 3 4 5 6 
#
# 1 0.013892 -0.006846 -0.001667 0.000000 0.001558 0.000000
# 2 -0.006846 0.016739 -0.003374 0.000000 -0.005757 0.000000
# 3 -0.001667 -0.003374 0.012982 0.000000 -0.000461 0.000000
# 4 0.000000 0.000000 0.000000 0.049896 0.000000 -0.011945
# 5 0.001558 -0.005757 -0.000461 0.000000 0.049541 0.000000
# 6 0.000000 0.000000 0.000000 -0.011945 0.000000 0.050784
#
#
# Mechanical properties :
#
#
# Convention : Reuss Voigt Hill
#
# Bulk Modulus (GPa) = 50.40738 52.13682 51.27210
# Shear Modulus (GPa) = 22.29936 24.21692 23.25814
#
# Velocity S-wave (km/s) = 3.44150 3.58642 3.51470
# Velocity P-wave (km/s) = 6.52417 6.69637 6.61083
#
# Compressibility (1/GPa) = 0.01983836
#
# Stress axis : x y z
#
# Youngs Moduli (GPa) = 71.98313 59.74033 77.03006
#
# Poissons Ratio (x) = 0.40897 0.12844
# Poissons Ratio (y) = 0.49278 0.25992
# Poissons Ratio (z) = 0.12003 0.20158
#
# Static dielectric constant tensor:
#      x y z
#    x 3.529770 0.000000 -0.143280 
#    y 0.000000 3.401730 0.000000 
#    z -0.143280 0.000000 3.648280 
# 
# 
# High freq. dielectric constant tensor:
#      x y z
#    x 1.731420 0.000000 -0.003570 
#    y 0.000000 1.704660 0.000000 
#    z -0.003570 0.000000 1.742580 
# 
# From -- ./inp_files/47204.got.cif
#   From: 2010.06.25/outbox.cif.g09.slc.cpg/sg11_24_cif.got.tgz:47204.got - 2010.06.27 23:14:04.
