data_PCOD8070723
_publ_section_title
;
Structure prediction by ZEFSAII (Michael W. Deem and Ramdas Pophale) SiO2 
 PCOD8070723
Probable space group: P 21/M
;
_chemical_formula_sum "Si O2"
_cell_formula_units_Z 32
_cell_length_a 21.809153
_cell_length_b 8.789011
_cell_length_c 28.249144
_cell_angle_alpha 90.000000
_cell_angle_beta 162.078202
_cell_angle_gamma 90.000000
_cell_volume 1666.241263
_symmetry_space_group_name_H-M "P 21/M"
_symmetry_group_IT_number 11
_symmetry_cell_setting 'monoclinic'
loop_
_space_group_symop_operation_xyz
x,y,z
-x,1/2+y,-z
-x,-y,-z
x,1/2-y,z
loop_
_atom_site_type_symbol
_atom_site_label
_atom_site_fract_x
_atom_site_fract_y
_atom_site_fract_z
Si Si1 0.286148 0.424606 0.198935
Si Si2 0.217023 0.570996 0.660118
Si Si3 0.442037 0.070251 0.737684
Si Si4 0.296785 0.572289 0.537649
Si Si5 0.862528 0.929073 0.058246
Si Si6 0.516134 0.571687 0.960745
Si Si7 0.909827 0.930712 0.198869
Si Si8 0.966237 0.924465 0.900134
O O1 0.232664 0.250000 0.146308
O O2 0.518458 0.457984 0.361770
O O3 0.232232 0.455628 0.214481
O O4 0.159821 0.535918 0.073365
O O5 0.200912 0.750000 0.640274
O O6 0.352099 0.502710 0.718452
O O7 0.320499 0.532375 0.786294
O O8 0.000000 0.500000 0.500000
O O9 0.439057 0.250000 0.740738
O O10 0.311951 0.021342 0.597109
O O11 0.664541 0.010124 0.893625
O O12 0.278016 0.750000 0.536572
O O13 0.102051 0.509072 0.368001
O O14 0.825279 0.750000 0.030808
O O15 0.918063 0.990357 0.151020
O O16 0.038888 0.973935 0.151324
O O17 0.541035 0.750000 0.985493
O O18 0.500000 0.500000 0.000000
O O19 0.711000 0.504826 0.077599
O O20 0.907875 0.750000 0.196845
O O21 0.981134 0.750000 0.895606
#
# Coordination Sequence:
#
# PCOD8070723 Si02
#       8
#     4   4   4   4   4   4   4   4
#     4   9  18  32  52  80 115 152 190 236 292 345
#     4  11  24  43  64  89 121 153 191 237 284 340
#     4  12  24  38  59  89 119 150 193 243 290 338
#     4  10  20  37  61  86 113 152 195 240 291 344
#     4  11  20  37  60  83 112 153 198 239 286 342
#     4  10  22  41  61  85 116 153 192 234 282 340
#     4   9  20  39  61  83 111 150 196 236 280 343
#     4  10  19  31  51  82 116 149 191 242 290 342
#
# _framework density 19.204902000000001
#
# number of rings (size 3 to 8) (size 9 to 14) (size 15 to 20)
#    0.000    1.750    2.500    2.250    1.750    1.500 
#    0.000    1.875    0.000    0.000    0.000    0.000 
#    0.000    0.000    0.000    0.000    0.000    0.000 
#
# Total GULP energy -396861.393918 kJ/mol
# GULP energy per Si atom -12401.918560 kJ/mol
# Density = 1.916119 g / cm^3
# Si number density = 19.204902 Si / 1000 Ang^3
#
#
#
# Elastic Constant Matrix: (Units=GPa)
#
#
# Indices 1 2 3 4 5 6 
#
# 1 152.3427 49.6381 45.9038 0.0000 -12.9709 0.0000
# 2 49.6381 76.0591 43.9629 0.0000 -5.0394 0.0000
# 3 45.9038 43.9629 95.9255 0.0000 -12.0823 0.0000
# 4 0.0000 0.0000 0.0000 17.3662 0.0000 2.3525
# 5 -12.9709 -5.0394 -12.0823 0.0000 31.0017 0.0000
# 6 0.0000 0.0000 0.0000 2.3525 0.0000 35.4358
#
#
#
# Elastic Compliance Matrix: (Units=1/GPa)
#
#
# Indices 1 2 3 4 5 6 
#
# 1 0.008782 -0.004512 -0.001855 0.000000 0.002218 0.000000
# 2 -0.004512 0.020207 -0.007283 0.000000 -0.001442 0.000000
# 3 -0.001855 -0.007283 0.015147 0.000000 0.003943 0.000000
# 4 0.000000 0.000000 0.000000 0.058106 0.000000 -0.003857
# 5 0.002218 -0.001442 0.003943 0.000000 0.034487 0.000000
# 6 0.000000 0.000000 0.000000 -0.003857 0.000000 0.028476
#
#
# Mechanical properties :
#
#
# Convention : Reuss Voigt Hill
#
# Bulk Modulus (GPa) = 59.40077 67.03742 63.21910
# Shear Modulus (GPa) = 25.23759 29.08223 27.15991
#
# Velocity S-wave (km/s) = 3.62902 3.89564 3.76469
# Velocity P-wave (km/s) = 6.96827 7.43080 7.20325
#
# Compressibility (1/GPa) = 0.01683480
#
# Stress axis : x y z
#
# Youngs Moduli (GPa) = 113.86615 49.48879 66.01913
#
# Poissons Ratio (x) = 0.22330 0.12249
# Poissons Ratio (y) = 0.51378 0.48082
# Poissons Ratio (z) = 0.21126 0.36043
#
# Static dielectric constant tensor:
#      x y z
#    x 3.813470 0.000000 0.112630 
#    y 0.000000 3.398650 0.000000 
#    z 0.112630 0.000000 3.538420 
# 
# 
# High freq. dielectric constant tensor:
#      x y z
#    x 1.765850 0.000000 0.005150 
#    y 0.000000 1.735970 0.000000 
#    z 0.005150 0.000000 1.731760 
# 
# From -- ./inp_files/72138.got.cif
#   From: 2010.06.25/outbox.cif.g09.slc.cpg/sg11_37_cif.got.tgz:72138.got - 2010.06.27 23:14:04.
