data_PCOD8070198
_publ_section_title
;
Structure prediction by ZEFSAII (Michael W. Deem and Ramdas Pophale) SiO2 
 PCOD8070198
Probable space group: P 21/M
;
_chemical_formula_sum "Si O2"
_cell_formula_units_Z 32
_cell_length_a 23.225229
_cell_length_b 9.331059
_cell_length_c 13.099411
_cell_angle_alpha 90.000000
_cell_angle_beta 147.236685
_cell_angle_gamma 90.000000
_cell_volume 1536.301119
_symmetry_space_group_name_H-M "P 21/M"
_symmetry_group_IT_number 11
_symmetry_cell_setting 'monoclinic'
loop_
_space_group_symop_operation_xyz
x,y,z
-x,1/2+y,-z
-x,-y,-z
x,1/2-y,z
loop_
_atom_site_type_symbol
_atom_site_label
_atom_site_fract_x
_atom_site_fract_y
_atom_site_fract_z
Si Si1 0.364575 0.420601 0.933477
Si Si2 0.556972 0.915398 0.272043
Si Si3 0.425354 0.416560 0.467748
Si Si4 0.742912 0.408865 0.060143
Si Si5 0.939229 0.097025 0.484695
Si Si6 0.765536 0.914438 0.460974
Si Si7 0.035252 0.583181 0.252798
Si Si8 0.802873 0.917670 0.953188
O O1 0.370387 0.250000 0.950046
O O2 0.341610 0.486351 0.012482
O O3 0.282909 0.466047 0.721281
O O4 0.481906 0.485929 0.088377
O O5 0.523840 0.750000 0.206194
O O6 0.546666 0.959509 0.375435
O O7 0.677598 0.939403 0.416518
O O8 0.500000 0.500000 0.500000
O O9 0.444630 0.250000 0.475755
O O10 0.301254 0.455556 0.266878
O O11 0.696802 0.250000 0.958979
O O12 0.822041 0.380117 0.270243
O O13 0.800316 0.486653 0.051400
O O14 0.999375 0.250000 0.582058
O O15 0.939062 0.028586 0.595067
O O16 0.000000 0.000000 0.500000
O O17 0.798267 0.750000 0.500195
O O18 0.871191 0.995089 0.663901
O O19 0.056477 0.750000 0.264130
O O20 0.910277 0.544433 0.047178
O O21 0.807020 0.750000 0.989843
#
# Coordination Sequence:
#
# PCOD8070198 Si02
#       8
#     4   4   4   4   4   4   4   4
#     4  11  22  35  55  84 114 148 187 230 279 335
#     4  10  22  41  61  82 110 146 187 234 283 331
#     4  10  22  41  64  86 111 143 182 230 282 332
#     4  11  21  32  50  80 115 150 185 225 274 330
#     4  10  19  30  47  73 108 150 187 222 268 326
#     4  10  22  38  57  82 114 150 187 227 277 334
#     4  10  20  35  54  79 114 152 188 227 275 330
#     4  10  21  37  57  83 114 149 190 235 280 329
#
# _framework density 20.829249000000001
#
# number of rings (size 3 to 8) (size 9 to 14) (size 15 to 20)
#    0.000    1.750    2.500    1.875    0.000    5.500 
#    0.000    0.625    0.000    0.000    0.000    0.000 
#    0.000    0.000    0.000    0.000    0.000    0.000 
#
# Total GULP energy -396419.859073 kJ/mol
# GULP energy per Si atom -12388.120596 kJ/mol
# Density = 2.078184 g / cm^3
# Si number density = 20.829249 Si / 1000 Ang^3
#
#
#
# Elastic Constant Matrix: (Units=GPa)
#
#
# Indices 1 2 3 4 5 6 
#
# 1 77.6569 40.1411 26.2294 0.0000 16.4081 0.0000
# 2 40.1411 82.3314 42.6647 0.0000 13.5906 0.0000
# 3 26.2294 42.6647 130.9126 0.0000 26.8221 0.0000
# 4 0.0000 0.0000 0.0000 28.2681 0.0000 10.9046
# 5 16.4081 13.5906 26.8221 0.0000 28.5073 0.0000
# 6 0.0000 0.0000 0.0000 10.9046 0.0000 29.0913
#
#
#
# Elastic Compliance Matrix: (Units=1/GPa)
#
#
# Indices 1 2 3 4 5 6 
#
# 1 0.018381 -0.007981 0.000379 0.000000 -0.007132 0.000000
# 2 -0.007981 0.018301 -0.004359 0.000000 -0.000030 0.000000
# 3 0.000379 -0.004359 0.010657 0.000000 -0.008167 0.000000
# 4 0.000000 0.000000 0.000000 0.041355 0.000000 -0.015502
# 5 -0.007132 -0.000030 -0.008167 0.000000 0.046882 0.000000
# 6 0.000000 0.000000 0.000000 -0.015502 0.000000 0.040185
#
#
# Mechanical properties :
#
#
# Convention : Reuss Voigt Hill
#
# Bulk Modulus (GPa) = 42.70380 56.55238 49.62809
# Shear Modulus (GPa) = 24.09758 29.29772 26.69765
#
# Velocity S-wave (km/s) = 3.40503 3.75449 3.58402
# Velocity P-wave (km/s) = 6.00044 6.78265 6.40350
#
# Compressibility (1/GPa) = 0.02341712
#
# Stress axis : x y z
#
# Youngs Moduli (GPa) = 54.40264 54.64114 93.83857
#
# Poissons Ratio (x) = 0.43611 -0.03561
# Poissons Ratio (y) = 0.43421 0.40906
# Poissons Ratio (z) = -0.02065 0.23819
#
# Static dielectric constant tensor:
#      x y z
#    x 3.408010 0.000000 0.448450 
#    y 0.000000 3.784970 0.000000 
#    z 0.448450 0.000000 3.647420 
# 
# 
# High freq. dielectric constant tensor:
#      x y z
#    x 1.798540 0.000000 0.018460 
#    y 0.000000 1.808770 0.000000 
#    z 0.018460 0.000000 1.821810 
# 
# From -- ./inp_files/55754.got.cif
#   From: 2010.06.25/outbox.cif.g09.slc.cpg/sg11_28_cif.got.tgz:55754.got - 2010.06.27 23:14:04.
