data_PCOD8070994
_publ_section_title
;
Structure prediction by ZEFSAII (Michael W. Deem and Ramdas Pophale) SiO2 
 PCOD8070994
Probable space group: P 21/M
;
_chemical_formula_sum "Si O2"
_cell_formula_units_Z 32
_cell_length_a 21.268587
_cell_length_b 8.794645
_cell_length_c 23.672715
_cell_angle_alpha 90.000000
_cell_angle_beta 23.549113
_cell_angle_gamma 90.000000
_cell_volume 1769.130475
_symmetry_space_group_name_H-M "P 21/M"
_symmetry_group_IT_number 11
_symmetry_cell_setting 'monoclinic'
loop_
_space_group_symop_operation_xyz
x,y,z
-x,1/2+y,-z
-x,-y,-z
x,1/2-y,z
loop_
_atom_site_type_symbol
_atom_site_label
_atom_site_fract_x
_atom_site_fract_y
_atom_site_fract_z
Si Si1 0.690923 0.072250 0.183325
Si Si2 0.276115 0.571592 0.259988
Si Si3 0.351341 0.569118 0.654335
Si Si4 0.134913 0.427425 0.266079
Si Si5 0.509009 0.070813 0.227236
Si Si6 0.964453 0.927864 0.088994
Si Si7 0.178905 0.070793 0.452304
Si Si8 0.608143 0.925095 0.035890
O O1 0.660613 0.250000 0.213294
O O2 0.651820 0.006915 0.278112
O O3 0.574469 0.999947 0.232087
O O4 0.871018 0.042954 0.013297
O O5 0.247730 0.750000 0.274127
O O6 0.227623 0.482192 0.244485
O O7 0.171113 0.514610 0.398770
O O8 0.456942 0.529066 0.123121
O O9 0.500000 0.500000 0.500000
O O10 0.357741 0.750000 0.645278
O O11 0.189152 0.510602 0.757838
O O12 0.097964 0.250000 0.302718
O O13 0.975540 0.521058 0.386749
O O14 0.237624 0.462956 0.126546
O O15 0.520262 0.250000 0.221583
O O16 0.329705 0.016953 0.364567
O O17 0.617365 0.019075 0.085982
O O18 0.927413 0.750000 0.114165
O O19 0.000000 0.000000 0.000000
O O20 0.182409 0.250000 0.438584
O O21 0.595642 0.750000 0.063059
#
# Coordination Sequence:
#
# PCOD8070994 Si02
#       8
#     4   4   4   4   4   4   4   4
#     4   8  16  32  54  76  97 128 167 206 244 285
#     4  10  19  33  52  72  95 123 159 200 246 299
#     4  10  19  32  51  77 110 139 166 203 249 295
#     4  11  21  33  49  70  98 127 157 197 247 298
#     4   9  18  35  56  73  92 125 170 207 238 287
#     4   9  16  29  50  75 103 132 165 203 244 289
#     4  10  20  33  50  72  97 126 162 202 242 289
#     4   9  20  35  50  71  98 126 156 200 253 294
#
# _framework density 18.087982
#
# number of rings (size 3 to 8) (size 9 to 14) (size 15 to 20)
#    0.000    2.500    0.000    3.375    0.000    2.000 
#    0.000    5.000    0.000    6.000    0.000    0.000 
#    0.000    0.000    0.000    0.000    0.000    0.000 
#
# Total GULP energy -396669.002348 kJ/mol
# GULP energy per Si atom -12395.906323 kJ/mol
# Density = 1.804681 g / cm^3
# Si number density = 18.087982 Si / 1000 Ang^3
#
#
#
# Elastic Constant Matrix: (Units=GPa)
#
#
# Indices 1 2 3 4 5 6 
#
# 1 97.6646 21.1068 35.5693 0.0000 -5.5217 0.0000
# 2 21.1068 41.2100 32.8351 0.0000 -2.3242 0.0000
# 3 35.5693 32.8351 90.5862 0.0000 6.5693 0.0000
# 4 0.0000 0.0000 0.0000 32.2762 0.0000 1.0312
# 5 -5.5217 -2.3242 6.5693 0.0000 14.6224 0.0000
# 6 0.0000 0.0000 0.0000 1.0312 0.0000 19.2183
#
#
#
# Elastic Compliance Matrix: (Units=1/GPa)
#
#
# Indices 1 2 3 4 5 6 
#
# 1 0.012827 -0.002552 -0.004583 0.000000 0.006497 0.000000
# 2 -0.002552 0.036553 -0.013023 0.000000 0.010697 0.000000
# 3 -0.004583 -0.013023 0.018436 0.000000 -0.012083 0.000000
# 4 0.000000 0.000000 0.000000 0.031036 0.000000 -0.001665
# 5 0.006497 0.010697 -0.012083 0.000000 0.077970 0.000000
# 6 0.000000 0.000000 0.000000 -0.001665 0.000000 0.052123
#
#
# Mechanical properties :
#
#
# Convention : Reuss Voigt Hill
#
# Bulk Modulus (GPa) = 36.36406 45.38703 40.87554
# Shear Modulus (GPa) = 17.95804 22.55335 20.25569
#
# Velocity S-wave (km/s) = 3.15432 3.53493 3.35004
# Velocity P-wave (km/s) = 5.78048 6.46590 6.13277
#
# Compressibility (1/GPa) = 0.02749968
#
# Stress axis : x y z
#
# Youngs Moduli (GPa) = 77.96062 27.35767 54.24307
#
# Poissons Ratio (x) = 0.06981 0.24859
# Poissons Ratio (y) = 0.19894 0.70642
# Poissons Ratio (z) = 0.35728 0.35629
#
# Static dielectric constant tensor:
#      x y z
#    x 3.480860 0.000000 -0.236250 
#    y 0.000000 3.333940 0.000000 
#    z -0.236250 0.000000 3.627460 
# 
# 
# High freq. dielectric constant tensor:
#      x y z
#    x 1.678200 0.000000 -0.012330 
#    y 0.000000 1.698510 0.000000 
#    z -0.012330 0.000000 1.706980 
# 
# From -- ./inp_files/72283.got.cif
#   From: 2010.06.25/outbox.cif.g09.slc.cpg/sg11_37_cif.got.tgz:72283.got - 2010.06.27 23:14:04.
