data_PCOD8070629
_publ_section_title
;
Structure prediction by ZEFSAII (Michael W. Deem and Ramdas Pophale) SiO2 
 PCOD8070629
Probable space group: P 21/M
;
_chemical_formula_sum "Si O2"
_cell_formula_units_Z 32
_cell_length_a 21.526743
_cell_length_b 8.996574
_cell_length_c 27.862363
_cell_angle_alpha 90.000000
_cell_angle_beta 19.397298
_cell_angle_gamma 90.000000
_cell_volume 1792.107583
_symmetry_space_group_name_H-M "P 21/M"
_symmetry_group_IT_number 11
_symmetry_cell_setting 'monoclinic'
loop_
_space_group_symop_operation_xyz
x,y,z
-x,1/2+y,-z
-x,-y,-z
x,1/2-y,z
loop_
_atom_site_type_symbol
_atom_site_label
_atom_site_fract_x
_atom_site_fract_y
_atom_site_fract_z
Si Si1 0.040089 0.577530 0.394337
Si Si2 0.189170 0.913586 0.921971
Si Si3 0.693743 0.571792 0.875197
Si Si4 0.921213 0.924452 0.905285
Si Si5 0.680865 0.078905 0.351203
Si Si6 0.328890 0.424318 0.999487
Si Si7 0.768095 0.587079 0.196682
Si Si8 0.270077 0.577952 0.323307
O O1 0.017588 0.750000 0.396809
O O2 0.132067 0.490695 0.282469
O O3 0.172395 0.555748 0.343432
O O4 0.836485 0.511086 0.556637
O O5 0.284061 0.750000 0.855375
O O6 0.295090 0.028582 0.809737
O O7 0.987867 0.894698 0.044374
O O8 0.192046 0.982931 0.972746
O O9 0.684856 0.750000 0.876234
O O10 0.500000 0.500000 0.000000
O O11 0.720179 0.519584 0.911309
O O12 0.897331 0.750000 0.934224
O O13 0.138502 0.971977 0.749592
O O14 0.843581 0.966644 0.909460
O O15 0.647221 0.250000 0.381746
O O16 0.500000 0.000000 0.500000
O O17 0.698637 0.038935 0.282942
O O18 0.361744 0.250000 0.978566
O O19 0.521177 0.489150 0.836464
O O20 0.674490 0.750000 0.272772
O O21 0.271582 0.750000 0.337733
#
# Coordination Sequence:
#
# PCOD8070629 Si02
#       8
#     4   4   4   4   4   4   4   4
#     4  10  19  32  50  77 107 135 172 219 266 313
#     4   9  16  27  45  71 100 123 150 194 245 292
#     4  11  20  33  53  79 107 139 178 224 270 315
#     4   9  18  33  53  74  98 132 172 211 250 305
#     4  10  19  31  50  75 101 131 169 212 258 305
#     4   9  18  34  55  77 103 135 179 223 262 314
#     4   9  16  27  46  71  96 123 156 194 239 291
#     4   9  17  32  52  75 102 135 171 213 264 313
#
# _framework density 17.856071
#
# number of rings (size 3 to 8) (size 9 to 14) (size 15 to 20)
#    0.000    2.500    1.250    1.875    0.000    4.000 
#    0.000    1.875    2.750    0.000    0.000    0.000 
#    0.000    0.000    0.000    0.000    0.000    0.000 
#
# Total GULP energy -396578.704709 kJ/mol
# GULP energy per Si atom -12393.084522 kJ/mol
# Density = 1.781543 g / cm^3
# Si number density = 17.856071 Si / 1000 Ang^3
#
#
#
# Elastic Constant Matrix: (Units=GPa)
#
#
# Indices 1 2 3 4 5 6 
#
# 1 116.5639 45.5046 53.0610 0.0000 14.8852 0.0000
# 2 45.5046 68.7553 39.6628 0.0000 6.9743 0.0000
# 3 53.0610 39.6628 111.8484 0.0000 17.1466 0.0000
# 4 0.0000 0.0000 0.0000 29.1317 0.0000 7.1269
# 5 14.8852 6.9743 17.1466 0.0000 18.4513 0.0000
# 6 0.0000 0.0000 0.0000 7.1269 0.0000 21.7237
#
#
#
# Elastic Compliance Matrix: (Units=1/GPa)
#
#
# Indices 1 2 3 4 5 6 
#
# 1 0.013185 -0.006348 -0.003196 0.000000 -0.005267 0.000000
# 2 -0.006348 0.021358 -0.004793 0.000000 0.001502 0.000000
# 3 -0.003196 -0.004793 0.013391 0.000000 -0.008054 0.000000
# 4 0.000000 0.000000 0.000000 0.037322 0.000000 -0.012244
# 5 -0.005267 0.001502 -0.008054 0.000000 0.065363 0.000000
# 6 0.000000 0.000000 0.000000 -0.012244 0.000000 0.050050
#
#
# Mechanical properties :
#
#
# Convention : Reuss Voigt Hill
#
# Bulk Modulus (GPa) = 51.92059 63.73604 57.82831
# Shear Modulus (GPa) = 21.20779 24.45730 22.83254
#
# Velocity S-wave (km/s) = 3.45005 3.70495 3.57977
# Velocity P-wave (km/s) = 6.70901 7.35350 7.03864
#
# Compressibility (1/GPa) = 0.01926018
#
# Stress axis : x y z
#
# Youngs Moduli (GPa) = 75.84549 46.82099 74.67552
#
# Poissons Ratio (x) = 0.29722 0.23869
# Poissons Ratio (y) = 0.48146 0.35788
# Poissons Ratio (z) = 0.24243 0.22439
#
# Static dielectric constant tensor:
#      x y z
#    x 1.806750 0.000000 -1.298760 
#    y 0.000000 3.456180 0.000000 
#    z -1.298760 0.000000 1.743510 
# 
# 
# High freq. dielectric constant tensor:
#      x y z
#    x 1.674390 0.000000 0.020500 
#    y 0.000000 1.692870 0.000000 
#    z 0.020500 0.000000 1.671760 
# 
# From -- ./inp_files/70337.got.cif
#   From: 2010.06.25/outbox.cif.g09.slc.cpg/sg11_36_cif.got.tgz:70337.got - 2010.06.27 23:14:04.
