data_PCOD8070196
_publ_section_title
;
Structure prediction by ZEFSAII (Michael W. Deem and Ramdas Pophale) SiO2 
 PCOD8070196
Probable space group: P 21/M
;
_chemical_formula_sum "Si O2"
_cell_formula_units_Z 28
_cell_length_a 19.152679
_cell_length_b 8.736995
_cell_length_c 15.133881
_cell_angle_alpha 90.000000
_cell_angle_beta 37.628830
_cell_angle_gamma 90.000000
_cell_volume 1546.175265
_symmetry_space_group_name_H-M "P 21/M"
_symmetry_group_IT_number 11
_symmetry_cell_setting 'monoclinic'
loop_
_space_group_symop_operation_xyz
x,y,z
-x,1/2+y,-z
-x,-y,-z
x,1/2-y,z
loop_
_atom_site_type_symbol
_atom_site_label
_atom_site_fract_x
_atom_site_fract_y
_atom_site_fract_z
Si Si1 0.110168 0.570464 0.137000
Si Si2 0.930131 0.419487 0.201338
Si Si3 0.230950 0.582703 0.468774
Si Si4 0.263356 0.071066 0.704528
Si Si5 0.677701 0.928946 0.154411
Si Si6 0.582158 0.432694 0.597495
Si Si7 0.025981 0.566624 0.568784
O O1 0.094990 0.750000 0.164544
O O2 0.069549 0.488072 0.266973
O O3 0.040991 0.515222 0.119623
O O4 0.242171 0.526208 0.990841
O O5 0.970067 0.250000 0.130544
O O6 0.846133 0.404067 0.367400
O O7 0.862149 0.501824 0.190151
O O8 0.262596 0.750000 0.400286
O O9 0.348786 0.502830 0.384226
O O10 0.152076 0.501443 0.473106
O O11 0.258327 0.250000 0.691129
O O12 0.294037 0.029987 0.773481
O O13 0.364762 0.001538 0.544297
O O14 0.695535 0.750000 0.117680
O O15 0.548836 0.981700 0.262288
O O16 0.596311 0.250000 0.577564
O O17 0.026569 0.750000 0.567053
O O18 0.000000 0.500000 0.500000
#
# Coordination Sequence:
#
# PCOD8070196 Si02
#       7
#     4   4   4   4   4   4   4
#     4  11  22  35  52  75 102 132 167 208 258 310
#     4   9  17  32  51  69  96 133 170 210 255 303
#     4   7  13  27  49  74  96 123 159 200 244 289
#     4  10  19  30  47  73 101 131 174 222 260 295
#     4  10  21  34  48  69 101 140 176 212 255 303
#     4   9  17  32  52  71  97 137 179 213 251 297
#     4  10  19  34  57  83 108 130 157 198 249 307
#
# _framework density 18.109200999999999
#
# number of rings (size 3 to 8) (size 9 to 14) (size 15 to 20)
#    0.000    2.571    0.000    4.714    0.000    2.286 
#    0.000    0.714    0.000    0.857    0.000    0.000 
#    0.000    0.000    0.000    0.000    0.000    0.000 
#
# Total GULP energy -346999.285177 kJ/mol
# GULP energy per Si atom -12392.831613 kJ/mol
# Density = 1.806798 g / cm^3
# Si number density = 18.109201 Si / 1000 Ang^3
#
#
#
# Elastic Constant Matrix: (Units=GPa)
#
#
# Indices 1 2 3 4 5 6 
#
# 1 136.7098 38.5807 59.5788 0.0000 -3.2338 0.0000
# 2 38.5807 76.7797 32.6438 0.0000 0.7834 0.0000
# 3 59.5788 32.6438 83.9177 0.0000 -14.0841 0.0000
# 4 0.0000 0.0000 0.0000 24.9303 0.0000 0.2351
# 5 -3.2338 0.7834 -14.0841 0.0000 18.6137 0.0000
# 6 0.0000 0.0000 0.0000 0.2351 0.0000 25.8808
#
#
#
# Elastic Compliance Matrix: (Units=1/GPa)
#
#
# Indices 1 2 3 4 5 6 
#
# 1 0.011244 -0.002333 -0.007710 0.000000 -0.003782 0.000000
# 2 -0.002333 0.016700 -0.005757 0.000000 -0.005464 0.000000
# 3 -0.007710 -0.005757 0.022274 0.000000 0.015757 0.000000
# 4 0.000000 0.000000 0.000000 0.040115 0.000000 -0.000364
# 5 -0.003782 -0.005464 0.015757 0.000000 0.065219 0.000000
# 6 0.000000 0.000000 0.000000 -0.000364 0.000000 0.038642
#
#
# Mechanical properties :
#
#
# Convention : Reuss Voigt Hill
#
# Bulk Modulus (GPa) = 53.71137 62.11262 57.91199
# Shear Modulus (GPa) = 21.55173 24.99188 23.27181
#
# Velocity S-wave (km/s) = 3.45352 3.71895 3.58869
# Velocity P-wave (km/s) = 6.75474 7.26734 7.01572
#
# Compressibility (1/GPa) = 0.01861803
#
# Stress axis : x y z
#
# Youngs Moduli (GPa) = 88.93830 59.88009 44.89547
#
# Poissons Ratio (x) = 0.13972 0.34613
# Poissons Ratio (y) = 0.20752 0.25845
# Poissons Ratio (z) = 0.68570 0.34471
#
# Static dielectric constant tensor:
#      x y z
#    x 3.790480 0.000000 -0.337530 
#    y 0.000000 3.303320 0.000000 
#    z -0.337530 0.000000 3.130510 
# 
# 
# High freq. dielectric constant tensor:
#      x y z
#    x 1.705370 0.000000 -0.021930 
#    y 0.000000 1.692630 0.000000 
#    z -0.021930 0.000000 1.673660 
# 
# From -- ./inp_files/37141.got.cif
#   From: 2010.06.25/outbox.cif.g09.slc.cpg/sg11_19_cif.got.tgz:37141.got - 2010.06.27 23:14:04.
