data_PCOD8070201
_publ_section_title
;
Structure prediction by ZEFSAII (Michael W. Deem and Ramdas Pophale) SiO2 
 PCOD8070201
Probable space group: P 21/M
;
_chemical_formula_sum "Si O2"
_cell_formula_units_Z 32
_cell_length_a 11.746431
_cell_length_b 8.697918
_cell_length_c 18.367798
_cell_angle_alpha 90.000000
_cell_angle_beta 89.726260
_cell_angle_gamma 90.000000
_cell_volume 1876.607203
_symmetry_space_group_name_H-M "P 21/M"
_symmetry_group_IT_number 11
_symmetry_cell_setting 'monoclinic'
loop_
_space_group_symop_operation_xyz
x,y,z
-x,1/2+y,-z
-x,-y,-z
x,1/2-y,z
loop_
_atom_site_type_symbol
_atom_site_label
_atom_site_fract_x
_atom_site_fract_y
_atom_site_fract_z
Si Si1 0.238998 0.069463 0.358472
Si Si2 0.628850 0.066573 0.235747
Si Si3 0.381084 0.572339 0.234523
Si Si4 0.391989 0.571263 0.073707
Si Si5 0.230504 0.067964 0.634476
Si Si6 0.996288 0.430996 0.419686
Si Si7 0.631202 0.426185 0.078758
Si Si8 0.376285 0.431575 0.497974
O O1 0.253118 0.250000 0.346667
O O2 0.109452 0.023764 0.375207
O O3 0.315199 0.010761 0.425309
O O4 0.279826 0.983985 0.286077
O O5 0.637370 0.250000 0.243762
O O6 0.671551 0.000675 0.155752
O O7 0.497493 0.019884 0.249556
O O8 0.712209 0.986317 0.291641
O O9 0.408362 0.750000 0.249472
O O10 0.332022 0.548061 0.152139
O O11 0.430852 0.750000 0.065207
O O12 0.497768 0.457280 0.072131
O O13 0.315261 0.526537 0.001240
O O14 0.219039 0.250000 0.633538
O O15 0.305770 0.007085 0.567071
O O16 0.106090 0.995779 0.628087
O O17 0.985523 0.250000 0.428741
O O18 0.000000 0.500000 0.500000
O O19 0.654437 0.250000 0.092218
O O20 0.500000 0.500000 0.500000
O O21 0.384059 0.250000 0.500225
#
# Coordination Sequence:
#
# PCOD8070201 Si02
#       8
#     4   4   4   4   4   4   4   4
#     4  10  21  37  52  69  97 129 164 202 244 293
#     4  10  19  31  48  73 103 136 169 201 245 296
#     4  10  19  30  47  74 104 134 167 203 247 292
#     4   8  14  25  41  64  96 130 163 199 237 283
#     4  11  22  37  53  73  99 128 165 207 251 293
#     4  11  22  39  59  76  94 124 165 210 253 294
#     4   8  14  25  42  64  94 131 166 197 234 286
#     4  10  21  35  49  69  96 127 160 193 234 288
#
# _framework density 17.052050999999999
#
# number of rings (size 3 to 8) (size 9 to 14) (size 15 to 20)
#    0.000    2.250    1.250    2.250    0.000    5.500 
#    0.000    0.000    0.000    0.000    0.000    0.875 
#    0.000    0.000    0.000    0.000    0.000    0.000 
#
# Total GULP energy -396433.317025 kJ/mol
# GULP energy per Si atom -12388.541157 kJ/mol
# Density = 1.701324 g / cm^3
# Si number density = 17.052051 Si / 1000 Ang^3
#
#
#
# Elastic Constant Matrix: (Units=GPa)
#
#
# Indices 1 2 3 4 5 6 
#
# 1 99.3475 29.9672 63.5802 0.0000 -3.6462 0.0000
# 2 29.9672 35.9792 29.3853 0.0000 -6.1223 0.0000
# 3 63.5802 29.3853 164.7141 0.0000 -6.2787 0.0000
# 4 0.0000 0.0000 0.0000 23.2256 0.0000 0.6474
# 5 -3.6462 -6.1223 -6.2787 0.0000 4.8610 0.0000
# 6 0.0000 0.0000 0.0000 0.6474 0.0000 24.7136
#
#
#
# Elastic Compliance Matrix: (Units=1/GPa)
#
#
# Indices 1 2 3 4 5 6 
#
# 1 0.015959 -0.010903 -0.004504 0.000000 -0.007579 0.000000
# 2 -0.010903 0.046939 -0.002339 0.000000 0.047920 0.000000
# 3 -0.004504 -0.002339 0.008399 0.000000 0.004525 0.000000
# 4 0.000000 0.000000 0.000000 0.043087 0.000000 -0.001129
# 5 -0.007579 0.047920 0.004525 0.000000 0.266231 0.000000
# 6 0.000000 0.000000 0.000000 -0.001129 0.000000 0.040493
#
#
# Mechanical properties :
#
#
# Convention : Reuss Voigt Hill
#
# Bulk Modulus (GPa) = 27.92852 60.65623 44.29238
# Shear Modulus (GPa) = 10.67152 22.36724 16.51938
#
# Velocity S-wave (km/s) = 2.50435 3.62567 3.11587
# Velocity P-wave (km/s) = 4.97758 7.29217 6.24308
#
# Compressibility (1/GPa) = 0.03580569
#
# Stress axis : x y z
#
# Youngs Moduli (GPa) = 62.66141 21.30404 119.05668
#
# Poissons Ratio (x) = 0.23229 0.53622
# Poissons Ratio (y) = 0.68322 0.27844
# Poissons Ratio (z) = 0.28222 0.04982
#
# Static dielectric constant tensor:
#      x y z
#    x 2.910560 0.000000 -0.007400 
#    y 0.000000 3.211050 0.000000 
#    z -0.007400 0.000000 3.793330 
# 
# 
# High freq. dielectric constant tensor:
#      x y z
#    x 1.610880 0.000000 0.001810 
#    y 0.000000 1.661840 0.000000 
#    z 0.001810 0.000000 1.683010 
# 
# From -- ./inp_files/40648.got.cif
#   From: 2010.06.25/outbox.cif.g09.slc.cpg/sg11_21_cif.got.tgz:40648.got - 2010.06.27 23:14:04.
