data_PCOD8070046
_publ_section_title
;
Structure prediction by ZEFSAII (Michael W. Deem and Ramdas Pophale) SiO2 
 PCOD8070046
Probable space group: P 21/M
;
_chemical_formula_sum "Si O2"
_cell_formula_units_Z 24
_cell_length_a 12.527419
_cell_length_b 13.712648
_cell_length_c 21.586230
_cell_angle_alpha 90.000000
_cell_angle_beta 20.807088
_cell_angle_gamma 90.000000
_cell_volume 1317.226100
_symmetry_space_group_name_H-M "P 21/M"
_symmetry_group_IT_number 11
_symmetry_cell_setting 'monoclinic'
loop_
_space_group_symop_operation_xyz
x,y,z
-x,1/2+y,-z
-x,-y,-z
x,1/2-y,z
loop_
_atom_site_type_symbol
_atom_site_label
_atom_site_fract_x
_atom_site_fract_y
_atom_site_fract_z
Si Si1 0.659492 0.359307 0.541673
Si Si2 0.744518 0.464593 0.053742
Si Si3 0.867146 0.640002 0.251521
Si Si4 0.695383 0.140205 0.883626
Si Si5 0.718206 0.955470 0.792451
Si Si6 0.845862 0.861157 0.080988
O O1 0.788896 0.250000 0.477318
O O2 0.490367 0.373609 0.566717
O O3 0.417077 0.379624 0.726769
O O4 0.928996 0.434686 0.401343
O O5 0.963475 0.444718 0.877428
O O6 0.834508 0.394397 0.062328
O O7 0.410097 0.444994 0.208087
O O8 0.777106 0.576659 0.057006
O O9 0.954304 0.750000 0.179776
O O10 0.970022 0.630454 0.267183
O O11 0.643237 0.250000 0.887378
O O12 0.668096 0.066965 0.841212
O O13 0.444750 0.118117 0.071865
O O14 0.870709 0.750000 0.046456
#
# Coordination Sequence:
#
# PCOD8070046 Si02
#       6
#     4   4   4   4   4   4
#     4   9  17  29  46  68  90 114 152 194 225 260
#     4   9  17  30  48  68  91 117 151 186 221 269
#     4   8  15  30  50  68  90 123 155 182 217 264
#     4   9  18  32  47  66  93 123 153 183 222 271
#     4  10  19  29  48  72  91 117 151 190 229 263
#     4   9  18  32  49  67  89 121 154 184 224 270
#
# _framework density 18.220106999999999
#
# number of rings (size 3 to 8) (size 9 to 14) (size 15 to 20)
#    0.000    3.000    0.000    2.000    0.000    4.000 
#    0.000    0.000    0.000   10.000    0.000    0.000 
#    0.000    0.000    0.000    0.000    0.000    0.000 
#
# Total GULP energy -297400.822303 kJ/mol
# GULP energy per Si atom -12391.700929 kJ/mol
# Density = 1.817864 g / cm^3
# Si number density = 18.220107 Si / 1000 Ang^3
#
#
#
# Elastic Constant Matrix: (Units=GPa)
#
#
# Indices 1 2 3 4 5 6 
#
# 1 61.3097 22.1152 37.3868 0.0000 -21.4714 0.0000
# 2 22.1152 103.3184 40.0827 0.0000 -6.8277 0.0000
# 3 37.3868 40.0827 59.3199 0.0000 -25.1713 0.0000
# 4 0.0000 0.0000 0.0000 19.0863 0.0000 -3.0709
# 5 -21.4714 -6.8277 -25.1713 0.0000 25.2485 0.0000
# 6 0.0000 0.0000 0.0000 -3.0709 0.0000 23.5790
#
#
#
# Elastic Compliance Matrix: (Units=1/GPa)
#
#
# Indices 1 2 3 4 5 6 
#
# 1 0.028106 -0.000314 -0.012819 0.000000 0.011037 0.000000
# 2 -0.000314 0.014471 -0.013923 0.000000 -0.010234 0.000000
# 3 -0.012819 -0.013923 0.048740 0.000000 0.033925 0.000000
# 4 0.000000 0.000000 0.000000 0.053515 0.000000 0.006970
# 5 0.011037 -0.010234 0.033925 0.000000 0.080046 0.000000
# 6 0.000000 0.000000 0.000000 0.006970 0.000000 0.043318
#
#
# Mechanical properties :
#
#
# Convention : Reuss Voigt Hill
#
# Bulk Modulus (GPa) = 26.87706 47.01303 36.94505
# Shear Modulus (GPa) = 14.93829 21.87366 18.40597
#
# Velocity S-wave (km/s) = 2.86646 3.46862 3.18181
# Velocity P-wave (km/s) = 5.07334 6.47306 5.81547
#
# Compressibility (1/GPa) = 0.03720645
#
# Stress axis : x y z
#
# Youngs Moduli (GPa) = 35.57962 69.10276 20.51685
#
# Poissons Ratio (x) = 0.02167 0.26300
# Poissons Ratio (y) = 0.01116 0.28566
# Poissons Ratio (z) = 0.45608 0.96214
#
# Static dielectric constant tensor:
#      x y z
#    x 3.434430 0.000000 -0.391010 
#    y 0.000000 3.367630 0.000000 
#    z -0.391010 0.000000 3.025870 
# 
# 
# High freq. dielectric constant tensor:
#      x y z
#    x 1.701500 0.000000 -0.035020 
#    y 0.000000 1.708370 0.000000 
#    z -0.035020 0.000000 1.664800 
# 
# From -- ./inp_files/17195.got.cif
#   From: 2010.06.25/outbox.cif.g09.slc.cpg/sg11_9_cif.got.tgz:17195.got - 2010.06.27 23:14:04.
