data_PCOD8070615
_publ_section_title
;
Structure prediction by ZEFSAII (Michael W. Deem and Ramdas Pophale) SiO2 
 PCOD8070615
Probable space group: P 21/M
;
_chemical_formula_sum "Si O2"
_cell_formula_units_Z 32
_cell_length_a 23.345944
_cell_length_b 8.736927
_cell_length_c 12.500568
_cell_angle_alpha 90.000000
_cell_angle_beta 44.981706
_cell_angle_gamma 90.000000
_cell_volume 1802.379276
_symmetry_space_group_name_H-M "P 21/M"
_symmetry_group_IT_number 11
_symmetry_cell_setting 'monoclinic'
loop_
_space_group_symop_operation_xyz
x,y,z
-x,1/2+y,-z
-x,-y,-z
x,1/2-y,z
loop_
_atom_site_type_symbol
_atom_site_label
_atom_site_fract_x
_atom_site_fract_y
_atom_site_fract_z
Si Si1 0.187738 0.930304 0.685324
Si Si2 0.984835 0.072711 0.131883
Si Si3 0.844214 0.930481 0.041227
Si Si4 0.329678 0.932378 0.341400
Si Si5 0.448903 0.070217 0.661413
Si Si6 0.715777 0.432095 0.059325
Si Si7 0.666891 0.073763 0.896863
Si Si8 0.507352 0.572530 0.794970
O O1 0.192612 0.750000 0.702414
O O2 0.264534 0.986303 0.515422
O O3 0.108315 0.968797 0.714957
O O4 0.185737 0.014884 0.802055
O O5 0.993418 0.250000 0.102497
O O6 0.060595 0.023544 0.107190
O O7 0.000000 0.000000 0.000000
O O8 0.829188 0.750000 0.054068
O O9 0.797440 0.012626 0.007387
O O10 0.343412 0.750000 0.326759
O O11 0.300104 0.985680 0.261490
O O12 0.412890 0.019610 0.250152
O O13 0.439728 0.250000 0.659032
O O14 0.500000 0.000000 0.500000
O O15 0.360291 0.995152 0.774256
O O16 0.497229 0.032304 0.704877
O O17 0.711316 0.250000 0.066561
O O18 0.710600 0.499528 0.943971
O O19 0.687828 0.250000 0.877475
O O20 0.570149 0.045894 0.026666
O O21 0.513807 0.750000 0.752426
#
# Coordination Sequence:
#
# PCOD8070615 Si02
#       8
#     4   4   4   4   4   4   4   4
#     4   9  18  31  49  74 102 129 160 202 253 302
#     4   8  15  29  47  69  97 129 161 197 244 297
#     4  10  19  31  50  74 101 131 165 202 244 301
#     4  10  19  32  52  75  98 127 167 212 255 297
#     4  11  22  36  52  71  99 133 166 203 248 293
#     4  10  20  35  53  73  98 129 168 207 246 293
#     4   8  17  34  52  70  94 128 170 212 249 290
#     4  10  20  34  50  71  99 132 169 206 246 293
#
# _framework density 17.754308999999999
#
# number of rings (size 3 to 8) (size 9 to 14) (size 15 to 20)
#    0.000    2.500    0.000    3.375    1.750    1.000 
#    0.000    3.125    0.000    0.750    0.000    0.000 
#    0.000    0.000    0.000    0.000    0.000    1.125 
#
# Total GULP energy -396439.967394 kJ/mol
# GULP energy per Si atom -12388.748981 kJ/mol
# Density = 1.771390 g / cm^3
# Si number density = 17.754309 Si / 1000 Ang^3
#
#
#
# Elastic Constant Matrix: (Units=GPa)
#
#
# Indices 1 2 3 4 5 6 
#
# 1 126.0741 32.1222 32.5759 0.0000 -12.3102 0.0000
# 2 32.1222 57.7289 15.7700 0.0000 -3.0406 0.0000
# 3 32.5759 15.7700 40.7481 0.0000 0.4177 0.0000
# 4 0.0000 0.0000 0.0000 17.1992 0.0000 -2.8124
# 5 -12.3102 -3.0406 0.4177 0.0000 18.2832 0.0000
# 6 0.0000 0.0000 0.0000 -2.8124 0.0000 25.0239
#
#
#
# Elastic Compliance Matrix: (Units=1/GPa)
#
#
# Indices 1 2 3 4 5 6 
#
# 1 0.011706 -0.003966 -0.007900 0.000000 0.007403 0.000000
# 2 -0.003966 0.020927 -0.004938 0.000000 0.000923 0.000000
# 3 -0.007900 -0.004938 0.032838 0.000000 -0.006890 0.000000
# 4 0.000000 0.000000 0.000000 0.059231 0.000000 0.006657
# 5 0.007403 0.000923 -0.006890 0.000000 0.059990 0.000000
# 6 0.000000 0.000000 0.000000 0.006657 0.000000 0.040710
#
#
# Mechanical properties :
#
#
# Convention : Reuss Voigt Hill
#
# Bulk Modulus (GPa) = 31.38308 42.83190 37.10749
# Shear Modulus (GPa) = 18.54395 21.70679 20.12537
#
# Velocity S-wave (km/s) = 3.23534 3.50039 3.37047
# Velocity P-wave (km/s) = 5.62772 6.36507 6.00772
#
# Compressibility (1/GPa) = 0.03186430
#
# Stress axis : x y z
#
# Youngs Moduli (GPa) = 85.42423 47.78615 30.45257
#
# Poissons Ratio (x) = 0.18951 0.24056
# Poissons Ratio (y) = 0.33878 0.15037
# Poissons Ratio (z) = 0.67482 0.23596
#
# Static dielectric constant tensor:
#      x y z
#    x 3.068600 0.000000 0.614730 
#    y 0.000000 3.202550 0.000000 
#    z 0.614730 0.000000 2.853530 
# 
# 
# High freq. dielectric constant tensor:
#      x y z
#    x 1.691940 0.000000 -0.006820 
#    y 0.000000 1.682200 0.000000 
#    z -0.006820 0.000000 1.666410 
# 
# From -- ./inp_files/42767.got.cif
#   From: 2010.06.25/outbox.cif.g09.slc.cpg/sg11_22_cif.got.tgz:42767.got - 2010.06.27 23:14:04.
