data_PCOD8070544
_publ_section_title
;
Structure prediction by ZEFSAII (Michael W. Deem and Ramdas Pophale) SiO2 
 PCOD8070544
Probable space group: P 21/M
;
_chemical_formula_sum "Si O2"
_cell_formula_units_Z 32
_cell_length_a 18.215408
_cell_length_b 9.437643
_cell_length_c 25.139824
_cell_angle_alpha 90.000000
_cell_angle_beta 24.347941
_cell_angle_gamma 90.000000
_cell_volume 1781.777990
_symmetry_space_group_name_H-M "P 21/M"
_symmetry_group_IT_number 11
_symmetry_cell_setting 'monoclinic'
loop_
_space_group_symop_operation_xyz
x,y,z
-x,1/2+y,-z
-x,-y,-z
x,1/2-y,z
loop_
_atom_site_type_symbol
_atom_site_label
_atom_site_fract_x
_atom_site_fract_y
_atom_site_fract_z
Si Si1 0.403975 0.910281 0.914366
Si Si2 0.184155 0.586269 0.571259
Si Si3 0.413085 0.416364 0.694484
Si Si4 0.263844 0.912904 0.890174
Si Si5 0.943658 0.412890 0.460842
Si Si6 0.896577 0.582304 0.176734
Si Si7 0.015364 0.914908 0.210673
Si Si8 0.254094 0.915263 0.301092
O O1 0.468310 0.750000 0.882842
O O2 0.371756 0.931224 0.873247
O O3 0.552678 0.018483 0.836471
O O4 0.224885 0.942278 0.065275
O O5 0.147685 0.750000 0.607237
O O6 0.385617 0.544038 0.453725
O O7 0.155224 0.550780 0.528555
O O8 0.047462 0.496874 0.696016
O O9 0.391929 0.250000 0.719081
O O10 0.359271 0.493379 0.783578
O O11 0.287721 0.466693 0.728449
O O12 0.263325 0.750000 0.871635
O O13 0.062515 0.971116 0.031480
O O14 0.006853 0.250000 0.421575
O O15 0.115618 0.512279 0.352246
O O16 0.804241 0.445395 0.599820
O O17 0.916638 0.750000 0.167382
O O18 0.910249 0.524555 0.228101
O O19 0.974516 0.750000 0.245949
O O20 0.262260 0.750000 0.282290
#
# Coordination Sequence:
#
# PCOD8070544 Si02
#       8
#     4   4   4   4   4   4   4   4
#     4   9  18  33  52  73 100 133 164 200 250 296
#     4  10  21  35  50  71 100 133 167 204 248 291
#     4  10  19  31  49  73 102 133 163 202 254 299
#     4   9  17  30  49  74 102 131 165 201 241 296
#     4   9  19  35  51  72 107 138 156 190 247 298
#     4   8  16  32  51  71  99 133 165 203 251 294
#     4   9  19  36  54  70  94 133 175 208 241 287
#     4  10  19  32  55  83 103 124 161 200 237 293
#
# _framework density 17.959588
#
# number of rings (size 3 to 8) (size 9 to 14) (size 15 to 20)
#    0.000    2.750    0.000    3.000    0.000    4.000 
#    0.000    3.125    0.000    0.000    0.000    0.000 
#    0.000    0.000    0.000    0.000    0.000    0.000 
#
# Total GULP energy -396808.642354 kJ/mol
# GULP energy per Si atom -12400.270074 kJ/mol
# Density = 1.791871 g / cm^3
# Si number density = 17.959588 Si / 1000 Ang^3
#
#
#
# Elastic Constant Matrix: (Units=GPa)
#
#
# Indices 1 2 3 4 5 6 
#
# 1 54.9398 37.5293 46.1043 0.0000 -15.3395 0.0000
# 2 37.5293 63.9633 48.9864 0.0000 -10.5545 0.0000
# 3 46.1043 48.9864 90.8319 0.0000 -11.1796 0.0000
# 4 0.0000 0.0000 0.0000 31.2276 0.0000 3.0123
# 5 -15.3395 -10.5545 -11.1796 0.0000 31.2859 0.0000
# 6 0.0000 0.0000 0.0000 3.0123 0.0000 23.4874
#
#
#
# Elastic Compliance Matrix: (Units=1/GPa)
#
#
# Indices 1 2 3 4 5 6 
#
# 1 0.039983 -0.012152 -0.012377 0.000000 0.011082 0.000000
# 2 -0.012152 0.030823 -0.010364 0.000000 0.000737 0.000000
# 3 -0.012377 -0.010364 0.022703 0.000000 -0.001453 0.000000
# 4 0.000000 0.000000 0.000000 0.032424 0.000000 -0.004159
# 5 0.011082 0.000737 -0.001453 0.000000 0.037126 0.000000
# 6 0.000000 0.000000 0.000000 -0.004159 0.000000 0.043109
#
#
# Mechanical properties :
#
#
# Convention : Reuss Voigt Hill
#
# Bulk Modulus (GPa) = 42.15489 52.77500 47.46495
# Shear Modulus (GPa) = 17.61414 22.34117 19.97765
#
# Velocity S-wave (km/s) = 3.13511 3.53082 3.33884
# Velocity P-wave (km/s) = 6.05213 6.78760 6.43039
#
# Compressibility (1/GPa) = 0.02372204
#
# Stress axis : x y z
#
# Youngs Moduli (GPa) = 25.01034 32.44326 44.04794
#
# Poissons Ratio (x) = 0.39425 0.54519
# Poissons Ratio (y) = 0.30392 0.45653
# Poissons Ratio (z) = 0.30956 0.33625
#
# Static dielectric constant tensor:
#      x y z
#    x 3.319100 0.000000 -0.135780 
#    y 0.000000 3.157590 0.000000 
#    z -0.135780 0.000000 3.217050 
# 
# 
# High freq. dielectric constant tensor:
#      x y z
#    x 1.692540 0.000000 -0.010460 
#    y 0.000000 1.681580 0.000000 
#    z -0.010460 0.000000 1.691250 
# 
# From -- ./inp_files/72067.got.cif
#   From: 2010.06.25/outbox.cif.g09.slc.cpg/sg11_37_cif.got.tgz:72067.got - 2010.06.27 23:14:04.
