data_PCOD8070594
_publ_section_title
;
Structure prediction by ZEFSAII (Michael W. Deem and Ramdas Pophale) SiO2 
 PCOD8070594
Probable space group: P 21/M
;
_chemical_formula_sum "Si O2"
_cell_formula_units_Z 28
_cell_length_a 5.116692
_cell_length_b 13.140858
_cell_length_c 22.961026
_cell_angle_alpha 90.000000
_cell_angle_beta 108.075597
_cell_angle_gamma 90.000000
_cell_volume 1467.655112
_symmetry_space_group_name_H-M "P 21/M"
_symmetry_group_IT_number 11
_symmetry_cell_setting 'monoclinic'
loop_
_space_group_symop_operation_xyz
x,y,z
-x,1/2+y,-z
-x,-y,-z
x,1/2-y,z
loop_
_atom_site_type_symbol
_atom_site_label
_atom_site_fract_x
_atom_site_fract_y
_atom_site_fract_z
Si Si1 0.629563 0.138847 0.891960
Si Si2 0.230208 0.632098 0.668544
Si Si3 0.199374 0.040389 0.277285
Si Si4 0.771606 0.063698 0.015615
Si Si5 0.879677 0.966842 0.430565
Si Si6 0.085870 0.487738 0.860370
Si Si7 0.692072 0.369725 0.625259
O O1 0.556469 0.250000 0.862011
O O2 0.374799 0.063987 0.864330
O O3 0.888360 0.097081 0.874104
O O4 0.706890 0.155570 0.966492
O O5 0.253865 0.750000 0.654809
O O6 0.509403 0.591615 0.717443
O O7 0.187347 0.572577 0.605622
O O8 0.973026 0.614260 0.692953
O O9 0.239584 0.929863 0.310130
O O10 0.039137 0.033441 0.206134
O O11 0.868486 0.081514 0.089552
O O12 0.500000 0.000000 0.000000
O O13 0.000000 0.000000 0.000000
O O14 0.605397 0.900540 0.419902
O O15 0.090156 0.897405 0.409303
O O16 0.000000 0.000000 0.500000
O O17 0.704754 0.250000 0.640100
#
# Coordination Sequence:
#
# PCOD8070594 Si02
#       7
#     4   4   4   4   4   4   4
#     4  10  19  31  49  76 103 130 173 222 264 316
#     4  10  21  38  58  80 109 144 178 222 268 307
#     4  10  21  37  56  80 110 143 183 221 261 321
#     4   8  16  30  48  67  94 129 161 201 258 308
#     4  10  21  38  58  84 111 140 183 222 262 321
#     4  10  19  34  53  72 101 141 173 211 266 316
#     4  10  21  36  55  81 116 147 174 219 272 317
#
# _framework density 19.078053000000001
#
# number of rings (size 3 to 8) (size 9 to 14) (size 15 to 20)
#    0.000    2.286    0.000    2.571    0.000    2.286 
#    0.000    1.429    0.000    0.000    0.000    0.000 
#    0.000    0.000    0.000    0.000    0.000    0.000 
#
# Total GULP energy -346969.779664 kJ/mol
# GULP energy per Si atom -12391.777845 kJ/mol
# Density = 1.903463 g / cm^3
# Si number density = 19.078053 Si / 1000 Ang^3
#
#
#
# Elastic Constant Matrix: (Units=GPa)
#
#
# Indices 1 2 3 4 5 6 
#
# 1 98.5472 20.2884 11.1315 0.0000 13.3222 0.0000
# 2 20.2884 105.2989 28.1651 0.0000 3.8213 0.0000
# 3 11.1315 28.1651 113.9777 0.0000 20.3252 0.0000
# 4 0.0000 0.0000 0.0000 9.7498 0.0000 0.6971
# 5 13.3222 3.8213 20.3252 0.0000 23.5096 0.0000
# 6 0.0000 0.0000 0.0000 0.6971 0.0000 18.3626
#
#
#
# Elastic Compliance Matrix: (Units=1/GPa)
#
#
# Indices 1 2 3 4 5 6 
#
# 1 0.011413 -0.002116 0.000592 0.000000 -0.006635 0.000000
# 2 -0.002116 0.010569 -0.002734 0.000000 0.001845 0.000000
# 3 0.000592 -0.002734 0.011080 0.000000 -0.009470 0.000000
# 4 0.000000 0.000000 0.000000 0.102845 0.000000 -0.003905
# 5 -0.006635 0.001845 -0.009470 0.000000 0.054183 0.000000
# 6 0.000000 0.000000 0.000000 -0.003905 0.000000 0.054607
#
#
# Mechanical properties :
#
#
# Convention : Reuss Voigt Hill
#
# Bulk Modulus (GPa) = 40.74235 48.55486 44.64861
# Shear Modulus (GPa) = 19.12801 27.54035 23.33418
#
# Velocity S-wave (km/s) = 3.16985 3.80355 3.50106
# Velocity P-wave (km/s) = 5.89909 6.69292 6.30850
#
# Compressibility (1/GPa) = 0.02454449
#
# Stress axis : x y z
#
# Youngs Moduli (GPa) = 87.61717 94.61729 90.25057
#
# Poissons Ratio (x) = 0.20026 -0.05339
# Poissons Ratio (y) = 0.18544 0.24675
# Poissons Ratio (z) = -0.05183 0.25869
#
# Static dielectric constant tensor:
#      x y z
#    x 3.827080 0.000000 0.031860 
#    y 0.000000 3.293010 0.000000 
#    z 0.031860 0.000000 3.691150 
# 
# 
# High freq. dielectric constant tensor:
#      x y z
#    x 1.769410 0.000000 0.003350 
#    y 0.000000 1.716590 0.000000 
#    z 0.003350 0.000000 1.741140 
# 
# From -- ./inp_files/8767.got.cif
#   From: 2010.06.25/outbox.cif.g09.slc.cpg/sg11_5_cif.got.tgz:8767.got - 2010.06.27 23:14:04.
