data_PCOD8070550
_publ_section_title
;
Structure prediction by ZEFSAII (Michael W. Deem and Ramdas Pophale) SiO2 
 PCOD8070550
Probable space group: P 21/M
;
_chemical_formula_sum "Si O2"
_cell_formula_units_Z 32
_cell_length_a 23.123462
_cell_length_b 17.166086
_cell_length_c 25.797747
_cell_angle_alpha 90.000000
_cell_angle_beta 10.073956
_cell_angle_gamma 90.000000
_cell_volume 1791.197187
_symmetry_space_group_name_H-M "P 21/M"
_symmetry_group_IT_number 11
_symmetry_cell_setting 'monoclinic'
loop_
_space_group_symop_operation_xyz
x,y,z
-x,1/2+y,-z
-x,-y,-z
x,1/2-y,z
loop_
_atom_site_type_symbol
_atom_site_label
_atom_site_fract_x
_atom_site_fract_y
_atom_site_fract_z
Si Si1 0.001935 0.340890 0.484834
Si Si2 0.738011 0.162254 0.346047
Si Si3 0.420868 0.930280 0.224867
Si Si4 0.332275 0.517076 0.471007
Si Si5 0.836577 0.557591 0.103589
Si Si6 0.003135 0.966143 0.326407
Si Si7 0.234000 0.109526 0.984362
Si Si8 0.246707 0.659299 0.184845
O O1 0.935894 0.250000 0.536491
O O2 0.747542 0.382680 0.671838
O O3 0.939511 0.366953 0.598853
O O4 0.372567 0.364744 0.143271
O O5 0.665879 0.250000 0.389266
O O6 0.398760 0.122056 0.662974
O O7 0.884530 0.106402 0.172421
O O8 0.995192 0.172173 0.167555
O O9 0.609177 0.868922 0.097750
O O10 0.152624 0.977899 0.493488
O O11 0.666334 0.992163 0.983711
O O12 0.632193 0.498595 0.245791
O O13 0.463797 0.591068 0.321313
O O14 0.240070 0.451803 0.508966
O O15 0.004522 0.534977 0.793770
O O16 0.000000 0.500000 0.000000
O O17 0.084787 0.882868 0.278613
O O18 0.210532 0.750000 0.204927
#
# Coordination Sequence:
#
# PCOD8070550 Si02
#       8
#     4   4   4   4   4   4   4   4
#     4  10  21  34  46  65  95 125 155 195 241 295
#     4  10  19  32  51  76 105 136 172 206 237 289
#     4  10  19  31  49  73  96 122 157 194 241 287
#     4   8  16  30  47  70  94 117 155 196 233 280
#     4  10  19  33  53  77 104 138 169 200 250 299
#     4  10  19  32  51  71  92 120 158 206 237 276
#     4   8  16  29  45  68  97 123 151 190 235 284
#     4  10  21  35  48  64  89 123 160 199 248 290
#
# _framework density 17.865145999999999
#
# number of rings (size 3 to 8) (size 9 to 14) (size 15 to 20)
#    0.000    2.500    0.000    2.250    0.000    3.500 
#    0.000    0.000    0.000    9.000    0.000    1.750 
#    0.000    0.000    0.000    0.000    0.000    0.000 
#
# Total GULP energy -396464.111863 kJ/mol
# GULP energy per Si atom -12389.503496 kJ/mol
# Density = 1.782448 g / cm^3
# Si number density = 17.865146 Si / 1000 Ang^3
#
#
#
# Elastic Constant Matrix: (Units=GPa)
#
#
# Indices 1 2 3 4 5 6 
#
# 1 116.3300 59.6818 47.6826 0.0000 -12.0407 0.0000
# 2 59.6818 63.6141 37.4937 0.0000 -8.6040 0.0000
# 3 47.6826 37.4937 109.0282 0.0000 22.8557 0.0000
# 4 0.0000 0.0000 0.0000 16.5655 0.0000 0.1642
# 5 -12.0407 -8.6040 22.8557 0.0000 43.7790 0.0000
# 6 0.0000 0.0000 0.0000 0.1642 0.0000 21.1821
#
#
#
# Elastic Compliance Matrix: (Units=1/GPa)
#
#
# Indices 1 2 3 4 5 6 
#
# 1 0.017655 -0.013706 -0.003886 0.000000 0.004191 0.000000
# 2 -0.013706 0.033488 -0.006863 0.000000 0.006395 0.000000
# 3 -0.003886 -0.006863 0.015427 0.000000 -0.010471 0.000000
# 4 0.000000 0.000000 0.000000 0.060371 0.000000 -0.000468
# 5 0.004191 0.006395 -0.010471 0.000000 0.030718 0.000000
# 6 0.000000 0.000000 0.000000 -0.000468 0.000000 0.047213
#
#
# Mechanical properties :
#
#
# Convention : Reuss Voigt Hill
#
# Bulk Modulus (GPa) = 56.62574 64.29872 60.46223
# Shear Modulus (GPa) = 19.25532 25.91293 22.58412
#
# Velocity S-wave (km/s) = 3.28657 3.81264 3.55934
# Velocity P-wave (km/s) = 6.79464 7.44654 7.12804
#
# Compressibility (1/GPa) = 0.01765981
#
# Stress axis : x y z
#
# Youngs Moduli (GPa) = 56.64234 29.86133 64.82272
#
# Poissons Ratio (x) = 0.40928 0.25192
# Poissons Ratio (y) = 0.77634 0.44485
# Poissons Ratio (z) = 0.22013 0.20493
#
# Static dielectric constant tensor:
#      x y z
#    x 3.505020 0.000000 0.067130 
#    y 0.000000 2.902280 0.000000 
#    z 0.067130 0.000000 3.536940 
# 
# 
# High freq. dielectric constant tensor:
#      x y z
#    x 1.701690 0.000000 0.011150 
#    y 0.000000 1.642330 0.000000 
#    z 0.011150 0.000000 1.711720 
# 
# From -- ./inp_files/72335.got.cif
#   From: 2010.06.25/outbox.cif.g09.slc.cpg/sg11_37_cif.got.tgz:72335.got - 2010.06.27 23:14:04.
