data_PCOD8070331
_publ_section_title
;
Structure prediction by ZEFSAII (Michael W. Deem and Ramdas Pophale) SiO2 
 PCOD8070331
Probable space group: P 21/M
;
_chemical_formula_sum "Si O2"
_cell_formula_units_Z 32
_cell_length_a 14.402159
_cell_length_b 9.057631
_cell_length_c 15.688719
_cell_angle_alpha 90.000000
_cell_angle_beta 89.824595
_cell_angle_gamma 90.000000
_cell_volume 2046.575046
_symmetry_space_group_name_H-M "P 21/M"
_symmetry_group_IT_number 11
_symmetry_cell_setting 'monoclinic'
loop_
_space_group_symop_operation_xyz
x,y,z
-x,1/2+y,-z
-x,-y,-z
x,1/2-y,z
loop_
_atom_site_type_symbol
_atom_site_label
_atom_site_fract_x
_atom_site_fract_y
_atom_site_fract_z
Si Si1 0.598332 0.922620 0.993536
Si Si2 0.898113 0.576671 0.407985
Si Si3 0.400296 0.077711 0.820221
Si Si4 0.389615 0.923698 0.169927
Si Si5 0.711082 0.925019 0.337189
Si Si6 0.599243 0.574848 0.504386
Si Si7 0.102081 0.920006 0.415877
Si Si8 0.295364 0.921009 0.344280
O O1 0.585732 0.750000 0.976214
O O2 0.653317 0.996394 0.914218
O O3 0.645967 0.950371 0.086197
O O4 0.500000 0.000000 0.000000
O O5 0.886815 0.750000 0.418298
O O6 0.818304 0.518683 0.343461
O O7 0.877049 0.512486 0.500545
O O8 0.001929 0.533364 0.375642
O O9 0.407525 0.250000 0.801200
O O10 0.505665 0.016123 0.814372
O O11 0.336264 0.003664 0.747078
O O12 0.388758 0.750000 0.152447
O O13 0.326685 0.968447 0.250082
O O14 0.708777 0.750000 0.329807
O O15 0.655799 0.976607 0.421029
O O16 0.500000 0.500000 0.500000
O O17 0.587583 0.750000 0.508329
O O18 0.652566 0.521180 0.587848
O O19 0.098009 0.750000 0.443898
O O20 0.184329 0.948153 0.348273
O O21 0.320611 0.750000 0.362004
#
# Coordination Sequence:
#
# PCOD8070331 Si02
#       8
#     4   4   4   4   4   4   4   4
#     4   9  16  27  44  64  85 109 142 180 221 260
#     4   9  16  28  45  64  84 111 146 183 221 263
#     4   8  14  25  41  60  81 108 139 175 212 251
#     4   9  17  29  44  60  84 116 147 179 220 261
#     4   9  16  27  43  62  85 114 147 176 212 262
#     4  11  21  31  43  61  88 122 154 181 212 256
#     4   9  17  28  44  64  87 111 142 186 227 259
#     4  10  19  31  45  63  88 119 150 182 222 264
#
# _framework density 15.635878999999999
#
# number of rings (size 3 to 8) (size 9 to 14) (size 15 to 20)
#    0.000    2.750    1.250    2.250    0.000    2.500 
#    0.000    0.000    0.000    6.000    0.000    0.875 
#    0.000    0.000    0.000    0.000    0.000    0.000 
#
# Total GULP energy -396520.564486 kJ/mol
# GULP energy per Si atom -12391.267640 kJ/mol
# Density = 1.560029 g / cm^3
# Si number density = 15.635879 Si / 1000 Ang^3
#
#
#
# Elastic Constant Matrix: (Units=GPa)
#
#
# Indices 1 2 3 4 5 6 
#
# 1 110.2161 23.6892 66.7175 0.0000 -0.6283 0.0000
# 2 23.6892 37.4639 36.1064 0.0000 -0.8724 0.0000
# 3 66.7175 36.1064 133.2414 0.0000 -4.9999 0.0000
# 4 0.0000 0.0000 0.0000 22.6687 0.0000 -0.5964
# 5 -0.6283 -0.8724 -4.9999 0.0000 12.8329 0.0000
# 6 0.0000 0.0000 0.0000 -0.5964 0.0000 15.2603
#
#
#
# Elastic Compliance Matrix: (Units=1/GPa)
#
#
# Indices 1 2 3 4 5 6 
#
# 1 0.013259 -0.002655 -0.005990 0.000000 -0.001865 0.000000
# 2 -0.002655 0.036683 -0.008649 0.000000 -0.001006 0.000000
# 3 -0.005990 -0.008649 0.013005 0.000000 0.004186 0.000000
# 4 0.000000 0.000000 0.000000 0.044159 0.000000 0.001726
# 5 -0.001865 -0.001006 0.004186 0.000000 0.079396 0.000000
# 6 0.000000 0.000000 0.000000 0.001726 0.000000 0.065597
#
#
# Mechanical properties :
#
#
# Convention : Reuss Voigt Hill
#
# Bulk Modulus (GPa) = 35.26035 59.32751 47.29393
# Shear Modulus (GPa) = 16.88396 20.44627 18.66511
#
# Velocity S-wave (km/s) = 3.28963 3.62007 3.45880
# Velocity P-wave (km/s) = 6.08513 7.44975 6.80175
#
# Compressibility (1/GPa) = 0.02836047
#
# Stress axis : x y z
#
# Youngs Moduli (GPa) = 75.42198 27.26037 76.89231
#
# Poissons Ratio (x) = 0.07237 0.46056
# Poissons Ratio (y) = 0.20022 0.66505
# Poissons Ratio (z) = 0.45175 0.23578
#
# Static dielectric constant tensor:
#      x y z
#    x 3.347620 0.000000 0.015600 
#    y 0.000000 2.912480 0.000000 
#    z 0.015600 0.000000 3.398730 
# 
# 
# High freq. dielectric constant tensor:
#      x y z
#    x 1.584620 0.000000 0.000360 
#    y 0.000000 1.584190 0.000000 
#    z 0.000360 0.000000 1.591430 
# 
# From -- ./inp_files/51245.got.cif
#   From: 2010.06.25/outbox.cif.g09.slc.cpg/sg11_26_cif.got.tgz:51245.got - 2010.06.27 23:14:04.
