data_PCOD8070710
_publ_section_title
;
Structure prediction by ZEFSAII (Michael W. Deem and Ramdas Pophale) SiO2 
 PCOD8070710
Probable space group: P 21/M
;
_chemical_formula_sum "Si O2"
_cell_formula_units_Z 32
_cell_length_a 16.662266
_cell_length_b 8.778468
_cell_length_c 26.025185
_cell_angle_alpha 90.000000
_cell_angle_beta 24.956412
_cell_angle_gamma 90.000000
_cell_volume 1606.148319
_symmetry_space_group_name_H-M "P 21/M"
_symmetry_group_IT_number 11
_symmetry_cell_setting 'monoclinic'
loop_
_space_group_symop_operation_xyz
x,y,z
-x,1/2+y,-z
-x,-y,-z
x,1/2-y,z
loop_
_atom_site_type_symbol
_atom_site_label
_atom_site_fract_x
_atom_site_fract_y
_atom_site_fract_z
Si Si1 0.659782 0.930272 0.369460
Si Si2 0.610297 0.576263 0.777778
Si Si3 0.987787 0.928220 0.783465
Si Si4 0.536650 0.080027 0.338889
Si Si5 0.421251 0.569952 0.992833
Si Si6 0.560517 0.073871 0.705601
Si Si7 0.017626 0.922938 0.570693
Si Si8 0.899936 0.917498 0.380254
O O1 0.653417 0.750000 0.381179
O O2 0.500000 0.000000 0.500000
O O3 0.869593 0.993154 0.259310
O O4 0.629444 0.971751 0.327610
O O5 0.548632 0.750000 0.805337
O O6 0.500668 0.480759 0.797424
O O7 0.837770 0.554856 0.637658
O O8 0.555906 0.523697 0.866907
O O9 0.971141 0.750000 0.805060
O O10 0.076605 0.953917 0.675982
O O11 0.783460 0.006136 0.903780
O O12 0.626280 0.250000 0.288855
O O13 0.316310 0.088887 0.478301
O O14 0.562814 0.011477 0.266512
O O15 0.411835 0.750000 0.006126
O O16 0.500000 0.500000 0.000000
O O17 0.514280 0.250000 0.726458
O O18 0.784727 0.036044 0.571303
O O19 0.025690 0.750000 0.586718
O O20 0.977589 0.033652 0.641833
O O21 0.968469 0.750000 0.321365
#
# Coordination Sequence:
#
# PCOD8070710 Si02
#       8
#     4   4   4   4   4   4   4   4
#     4  12  23  37  59  89 123 157 195 241 296 358
#     4  10  21  37  56  78 109 150 194 244 295 348
#     4  12  24  38  58  83 117 159 200 246 297 353
#     4  10  20  35  55  82 118 155 189 231 288 351
#     4  11  24  42  63  88 118 156 204 252 298 351
#     4  10  20  33  54  83 115 151 192 240 291 351
#     4   9  18  32  51  79 114 149 190 237 292 350
#     4  10  19  31  51  79 113 150 190 235 285 348
#
# _framework density 19.923441
#
# number of rings (size 3 to 8) (size 9 to 14) (size 15 to 20)
#    0.000    1.500    1.250    4.875    0.000    4.000 
#    0.000    0.000    0.000    0.750    0.000    0.000 
#    0.000    0.000    0.000    0.000    0.000    0.000 
#
# Total GULP energy -396709.476903 kJ/mol
# GULP energy per Si atom -12397.171153 kJ/mol
# Density = 1.987809 g / cm^3
# Si number density = 19.923441 Si / 1000 Ang^3
#
#
#
# Elastic Constant Matrix: (Units=GPa)
#
#
# Indices 1 2 3 4 5 6 
#
# 1 124.9364 69.3168 51.2919 0.0000 3.3663 0.0000
# 2 69.3168 118.4665 28.7407 0.0000 3.6703 0.0000
# 3 51.2919 28.7407 36.8678 0.0000 -1.3844 0.0000
# 4 0.0000 0.0000 0.0000 24.6631 0.0000 0.3495
# 5 3.3663 3.6703 -1.3844 0.0000 30.7170 0.0000
# 6 0.0000 0.0000 0.0000 0.3495 0.0000 42.1561
#
#
#
# Elastic Compliance Matrix: (Units=1/GPa)
#
#
# Indices 1 2 3 4 5 6 
#
# 1 0.022657 -0.006777 -0.026346 0.000000 -0.002861 0.000000
# 2 -0.006777 0.012517 -0.000359 0.000000 -0.000769 0.000000
# 3 -0.026346 -0.000359 0.064277 0.000000 0.005827 0.000000
# 4 0.000000 0.000000 0.000000 0.040551 0.000000 -0.000336
# 5 -0.002861 -0.000769 0.005827 0.000000 0.033223 0.000000
# 6 0.000000 0.000000 0.000000 -0.000336 0.000000 0.023724
#
#
# Mechanical properties :
#
#
# Convention : Reuss Voigt Hill
#
# Bulk Modulus (GPa) = 30.78109 64.32993 47.55551
# Shear Modulus (GPa) = 18.19883 28.23531 23.21707
#
# Velocity S-wave (km/s) = 3.02559 3.76864 3.41737
# Velocity P-wave (km/s) = 5.26202 7.16209 6.28428
#
# Compressibility (1/GPa) = 0.03248748
#
# Stress axis : x y z
#
# Youngs Moduli (GPa) = 44.13567 79.88946 15.55776
#
# Poissons Ratio (x) = 0.54140 0.40989
# Poissons Ratio (y) = 0.29910 0.00558
# Poissons Ratio (z) = 1.16282 0.02866
#
# Static dielectric constant tensor:
#      x y z
#    x 3.843280 0.000000 0.188570 
#    y 0.000000 3.844900 0.000000 
#    z 0.188570 0.000000 3.909420 
# 
# 
# High freq. dielectric constant tensor:
#      x y z
#    x 1.787040 0.000000 0.003600 
#    y 0.000000 1.788410 0.000000 
#    z 0.003600 0.000000 1.738030 
# 
# From -- ./inp_files/68978.got.cif
#   From: 2010.06.25/outbox.cif.g09.slc.cpg/sg11_35_cif.got.tgz:68978.got - 2010.06.27 23:14:04.
