data_PCOD8070761
_publ_section_title
;
Structure prediction by ZEFSAII (Michael W. Deem and Ramdas Pophale) SiO2 
 PCOD8070761
Probable space group: P 21/M
;
_chemical_formula_sum "Si O2"
_cell_formula_units_Z 28
_cell_length_a 29.984578
_cell_length_b 8.936969
_cell_length_c 10.293368
_cell_angle_alpha 90.000000
_cell_angle_beta 146.597471
_cell_angle_gamma 90.000000
_cell_volume 1518.507326
_symmetry_space_group_name_H-M "P 21/M"
_symmetry_group_IT_number 11
_symmetry_cell_setting 'monoclinic'
loop_
_space_group_symop_operation_xyz
x,y,z
-x,1/2+y,-z
-x,-y,-z
x,1/2-y,z
loop_
_atom_site_type_symbol
_atom_site_label
_atom_site_fract_x
_atom_site_fract_y
_atom_site_fract_z
Si Si1 0.681662 0.426248 0.708702
Si Si2 0.086355 0.923032 0.364773
Si Si3 0.737565 0.576574 0.586535
Si Si4 0.906146 0.920531 0.884307
Si Si5 0.770444 0.927307 0.160245
Si Si6 0.337561 0.073370 0.864245
Si Si7 0.507035 0.074293 0.378625
O O1 0.692308 0.250000 0.749942
O O2 0.704218 0.474938 0.619551
O O3 0.589110 0.476788 0.507961
O O4 0.740604 0.507038 0.952244
O O5 0.108409 0.750000 0.435314
O O6 0.991415 0.954596 0.162143
O O7 0.137836 0.018402 0.592828
O O8 0.107919 0.970897 0.270952
O O9 0.714929 0.750000 0.555968
O O10 0.696884 0.513416 0.355588
O O11 0.834559 0.555425 0.813715
O O12 0.904731 0.750000 0.827339
O O13 0.768166 0.750000 0.144864
O O14 0.714058 0.990353 0.139891
O O15 0.327426 0.250000 0.841521
O O16 0.431045 0.023149 0.105410
O O17 0.504646 0.250000 0.395991
O O18 0.500000 0.000000 0.500000
#
# Coordination Sequence:
#
# PCOD8070761 Si02
#       7
#     4   4   4   4   4   4   4
#     4  11  24  38  54  83 119 147 181 235 289 332
#     4  10  19  31  54  87 118 142 180 238 287 323
#     4  10  20  38  59  80 110 152 193 224 268 337
#     4   9  18  34  55  82 114 151 189 226 273 336
#     4  11  20  36  60  83 109 148 194 230 274 339
#     4   9  18  34  59  83 107 142 188 230 265 323
#     4  10  20  36  57  83 113 144 183 231 279 329
#
# _framework density 18.439160000000001
#
# number of rings (size 3 to 8) (size 9 to 14) (size 15 to 20)
#    0.000    2.000    2.857    1.286    0.000    2.286 
#    0.000    1.429    0.000    0.000    0.000    0.000 
#    0.000    0.000    0.000    0.000    0.000    0.000 
#
# Total GULP energy -347246.049368 kJ/mol
# GULP energy per Si atom -12401.644620 kJ/mol
# Density = 1.839719 g / cm^3
# Si number density = 18.439160 Si / 1000 Ang^3
#
#
#
# Elastic Constant Matrix: (Units=GPa)
#
#
# Indices 1 2 3 4 5 6 
#
# 1 106.7953 31.5866 58.7508 0.0000 1.6014 0.0000
# 2 31.5866 54.0104 35.0486 0.0000 2.2930 0.0000
# 3 58.7508 35.0486 137.5001 0.0000 6.8247 0.0000
# 4 0.0000 0.0000 0.0000 27.4798 0.0000 -3.4737
# 5 1.6014 2.2930 6.8247 0.0000 31.9790 0.0000
# 6 0.0000 0.0000 0.0000 -3.4737 0.0000 27.9031
#
#
#
# Elastic Compliance Matrix: (Units=1/GPa)
#
#
# Indices 1 2 3 4 5 6 
#
# 1 0.013245 -0.004889 -0.004445 0.000000 0.000636 0.000000
# 2 -0.004889 0.023994 -0.003996 0.000000 -0.000623 0.000000
# 3 -0.004445 -0.003996 0.010274 0.000000 -0.001683 0.000000
# 4 0.000000 0.000000 0.000000 0.036972 0.000000 0.004603
# 5 0.000636 -0.000623 -0.001683 0.000000 0.031643 0.000000
# 6 0.000000 0.000000 0.000000 0.004603 0.000000 0.036411
#
#
# Mechanical properties :
#
#
# Convention : Reuss Voigt Hill
#
# Bulk Modulus (GPa) = 47.95367 61.00864 54.48116
# Shear Modulus (GPa) = 26.86004 29.00037 27.93020
#
# Velocity S-wave (km/s) = 3.82079 3.97011 3.89617
# Velocity P-wave (km/s) = 6.74741 7.36029 7.06050
#
# Compressibility (1/GPa) = 0.02085346
#
# Stress axis : x y z
#
# Youngs Moduli (GPa) = 75.49813 41.67758 97.33226
#
# Poissons Ratio (x) = 0.20376 0.43263
# Poissons Ratio (y) = 0.36910 0.38895
# Poissons Ratio (z) = 0.33558 0.16655
#
# Static dielectric constant tensor:
#      x y z
#    x 3.285770 0.000000 0.286310 
#    y 0.000000 3.307820 0.000000 
#    z 0.286310 0.000000 3.660720 
# 
# 
# High freq. dielectric constant tensor:
#      x y z
#    x 1.699820 0.000000 0.014870 
#    y 0.000000 1.704930 0.000000 
#    z 0.014870 0.000000 1.727660 
# 
# From -- ./inp_files/28530.got.cif
#   From: 2010.06.25/outbox.cif.g09.slc.cpg/sg11_15_cif.got.tgz:28530.got - 2010.06.27 23:14:04.
