data_PCOD8070898
_publ_section_title
;
Structure prediction by ZEFSAII (Michael W. Deem and Ramdas Pophale) SiO2 
 PCOD8070898
Probable space group: P 21/M
;
_chemical_formula_sum "Si O2"
_cell_formula_units_Z 32
_cell_length_a 20.919512
_cell_length_b 9.061630
_cell_length_c 11.859173
_cell_angle_alpha 90.000000
_cell_angle_beta 52.618564
_cell_angle_gamma 90.000000
_cell_volume 1786.352057
_symmetry_space_group_name_H-M "P 21/M"
_symmetry_group_IT_number 11
_symmetry_cell_setting 'monoclinic'
loop_
_space_group_symop_operation_xyz
x,y,z
-x,1/2+y,-z
-x,-y,-z
x,1/2-y,z
loop_
_atom_site_type_symbol
_atom_site_label
_atom_site_fract_x
_atom_site_fract_y
_atom_site_fract_z
Si Si1 0.039733 0.423835 0.203484
Si Si2 0.599807 0.421509 0.502994
Si Si3 0.279864 0.579239 0.991357
Si Si4 0.837948 0.922548 0.732803
Si Si5 0.880974 0.581031 0.439272
Si Si6 0.557864 0.420264 0.292157
Si Si7 0.160135 0.923995 0.921445
Si Si8 0.762345 0.580825 0.367515
O O1 0.040616 0.250000 0.180808
O O2 0.089480 0.467835 0.262055
O O3 0.949430 0.479091 0.313356
O O4 0.077660 0.504489 0.054489
O O5 0.611539 0.250000 0.516869
O O6 0.594202 0.453119 0.376209
O O7 0.519043 0.478459 0.650893
O O8 0.674841 0.509353 0.472195
O O9 0.267955 0.750000 0.029862
O O10 0.245777 0.492464 0.135278
O O11 0.373553 0.539971 0.872496
O O12 0.232025 0.535633 0.929593
O O13 0.823542 0.750000 0.745790
O O14 0.858990 0.981700 0.586239
O O15 0.912035 0.750000 0.413608
O O16 0.801739 0.570016 0.448252
O O17 0.531669 0.250000 0.311828
O O18 0.148297 0.750000 0.919746
O O19 0.181145 0.993165 0.779079
O O20 0.754418 0.750000 0.336011
#
# Coordination Sequence:
#
# PCOD8070898 Si02
#       8
#     4   4   4   4   4   4   4   4
#     4  10  20  34  55  81 102 127 169 218 262 307
#     4  10  19  32  50  76 107 138 169 205 252 302
#     4   9  17  31  52  78 106 133 164 206 258 305
#     4   9  19  35  54  77 103 130 169 217 260 302
#     4  10  22  38  53  72 101 139 175 211 258 305
#     4   9  17  31  50  77 108 135 166 203 251 306
#     4  10  19  34  53  75 105 138 168 207 259 307
#     4  11  22  35  52  73 103 141 176 209 250 304
#
# _framework density 17.913602999999998
#
# number of rings (size 3 to 8) (size 9 to 14) (size 15 to 20)
#    0.000    2.250    1.250    1.875    0.000    4.000 
#    0.000    0.000    0.000    0.750    0.000    0.000 
#    0.000    0.000    0.000    0.000    0.000    0.000 
#
# Total GULP energy -396902.784800 kJ/mol
# GULP energy per Si atom -12403.212025 kJ/mol
# Density = 1.787283 g / cm^3
# Si number density = 17.913603 Si / 1000 Ang^3
#
#
#
# Elastic Constant Matrix: (Units=GPa)
#
#
# Indices 1 2 3 4 5 6 
#
# 1 65.9216 37.9155 38.1014 0.0000 -13.0897 0.0000
# 2 37.9155 81.7783 36.5569 0.0000 -12.0570 0.0000
# 3 38.1014 36.5569 79.5376 0.0000 -22.2890 0.0000
# 4 0.0000 0.0000 0.0000 34.7741 0.0000 -7.5718
# 5 -13.0897 -12.0570 -22.2890 0.0000 24.8762 0.0000
# 6 0.0000 0.0000 0.0000 -7.5718 0.0000 24.2142
#
#
#
# Elastic Compliance Matrix: (Units=1/GPa)
#
#
# Indices 1 2 3 4 5 6 
#
# 1 0.024343 -0.007577 -0.007502 0.000000 0.002415 0.000000
# 2 -0.007577 0.017790 -0.004337 0.000000 0.000750 0.000000
# 3 -0.007502 -0.004337 0.021985 0.000000 0.013649 0.000000
# 4 0.000000 0.000000 0.000000 0.030858 0.000000 0.009649
# 5 0.002415 0.000750 0.013649 0.000000 0.054062 0.000000
# 6 0.000000 0.000000 0.000000 0.009649 0.000000 0.044315
#
#
# Mechanical properties :
#
#
# Convention : Reuss Voigt Hill
#
# Bulk Modulus (GPa) = 39.54723 50.26502 44.90613
# Shear Modulus (GPa) = 20.78018 24.41715 22.59867
#
# Velocity S-wave (km/s) = 3.40961 3.69596 3.55566
# Velocity P-wave (km/s) = 6.13393 6.80691 6.47917
#
# Compressibility (1/GPa) = 0.02528622
#
# Stress axis : x y z
#
# Youngs Moduli (GPa) = 41.07983 56.21029 45.48632
#
# Poissons Ratio (x) = 0.42588 0.34124
# Poissons Ratio (y) = 0.31125 0.19728
# Poissons Ratio (z) = 0.30818 0.24379
#
# Static dielectric constant tensor:
#      x y z
#    x 3.117040 0.000000 -0.105070 
#    y 0.000000 3.343920 0.000000 
#    z -0.105070 0.000000 3.414260 
# 
# 
# High freq. dielectric constant tensor:
#      x y z
#    x 1.667930 0.000000 -0.015800 
#    y 0.000000 1.699850 0.000000 
#    z -0.015800 0.000000 1.693600 
# 
# From -- ./inp_files/38176.got.cif
#   From: 2010.06.25/outbox.cif.g09.slc.cpg/sg11_20_cif.got.tgz:38176.got - 2010.06.27 23:14:04.
