data_PCOD8070656
_publ_section_title
;
Structure prediction by ZEFSAII (Michael W. Deem and Ramdas Pophale) SiO2 
 PCOD8070656
Probable space group: P 21/M
;
_chemical_formula_sum "Si O2"
_cell_formula_units_Z 28
_cell_length_a 14.415925
_cell_length_b 9.310885
_cell_length_c 13.111769
_cell_angle_alpha 90.000000
_cell_angle_beta 56.651364
_cell_angle_gamma 90.000000
_cell_volume 1470.139591
_symmetry_space_group_name_H-M "P 21/M"
_symmetry_group_IT_number 11
_symmetry_cell_setting 'monoclinic'
loop_
_space_group_symop_operation_xyz
x,y,z
-x,1/2+y,-z
-x,-y,-z
x,1/2-y,z
loop_
_atom_site_type_symbol
_atom_site_label
_atom_site_fract_x
_atom_site_fract_y
_atom_site_fract_z
Si Si1 0.829504 0.582878 0.761260
Si Si2 0.234875 0.413595 0.704696
Si Si3 0.403675 0.417698 0.000000
Si Si4 0.619902 0.581145 0.577585
Si Si5 0.939571 0.086405 0.295304
Si Si6 0.409236 0.082878 0.761260
Si Si7 0.197487 0.581145 0.422415
O O1 0.830413 0.750000 0.727397
O O2 0.714762 0.537637 0.882807
O O3 0.852909 0.483316 0.650103
O O4 0.929036 0.553561 0.781437
O O5 0.199297 0.250000 0.715995
O O6 0.325096 0.453756 0.564109
O O7 0.120666 0.500000 0.758669
O O8 0.289527 0.446438 0.781437
O O9 0.426059 0.250000 0.000000
O O10 0.500000 0.500000 0.000000
O O11 0.402431 0.462363 0.882807
O O12 0.616365 0.750000 0.603954
O O13 0.496987 0.516684 0.650103
O O14 0.686657 0.500000 0.626685
O O15 0.915292 0.250000 0.284005
O O16 0.889206 0.046244 0.435891
O O17 0.442190 0.250000 0.727397
O O18 0.220320 0.750000 0.396046
#
# Coordination Sequence:
#
# PCOD8070656 Si02
#       7
#     4   4   4   4   4   4   4
#     4  10  20  35  53  74 101 135 171 209 251 296
#     4   9  19  34  52  75 104 134 166 205 252 301
#     4  10  22  38  55  74 100 132 167 206 249 296
#     4  10  19  31  50  77 105 134 166 205 252 303
#     4   9  19  34  52  75 104 134 166 205 252 301
#     4  10  20  35  53  74 101 135 171 209 251 296
#     4  10  19  31  50  77 105 134 166 205 252 303
#
# _framework density 19.045812000000002
#
# number of rings (size 3 to 8) (size 9 to 14) (size 15 to 20)
#    0.000    2.286    0.000    2.571    0.000    5.714 
#    0.000    0.714    0.000    0.000    0.000    0.000 
#    0.000    0.000    0.000    0.000    0.000    0.000 
#
# Total GULP energy -347256.548248 kJ/mol
# GULP energy per Si atom -12402.019580 kJ/mol
# Density = 1.900246 g / cm^3
# Si number density = 19.045812 Si / 1000 Ang^3
#
#
#
# Elastic Constant Matrix: (Units=GPa)
#
#
# Indices 1 2 3 4 5 6 
#
# 1 155.1386 62.4197 56.8484 0.0000 2.2365 0.0000
# 2 62.4197 72.8076 34.4965 0.0000 1.9314 0.0000
# 3 56.8484 34.4965 59.0386 0.0000 4.4108 0.0000
# 4 0.0000 0.0000 0.0000 17.2358 0.0000 1.4998
# 5 2.2365 1.9314 4.4108 0.0000 32.8279 0.0000
# 6 0.0000 0.0000 0.0000 1.4998 0.0000 38.9185
#
#
#
# Elastic Compliance Matrix: (Units=1/GPa)
#
#
# Indices 1 2 3 4 5 6 
#
# 1 0.011888 -0.006586 -0.007644 0.000000 0.000605 0.000000
# 2 -0.006586 0.022647 -0.006894 0.000000 0.000043 0.000000
# 3 -0.007644 -0.006894 0.028544 0.000000 -0.002909 0.000000
# 4 0.000000 0.000000 0.000000 0.058214 0.000000 -0.002243
# 5 0.000605 0.000043 -0.002909 0.000000 0.030809 0.000000
# 6 0.000000 0.000000 0.000000 -0.002243 0.000000 0.025781
#
#
# Mechanical properties :
#
#
# Convention : Reuss Voigt Hill
#
# Bulk Modulus (GPa) = 48.00614 66.05710 57.03162
# Shear Modulus (GPa) = 22.01927 26.67777 24.34852
#
# Velocity S-wave (km/s) = 3.40387 3.74667 3.57938
# Velocity P-wave (km/s) = 6.38034 7.31268 6.86236
#
# Compressibility (1/GPa) = 0.02083067
#
# Stress axis : x y z
#
# Youngs Moduli (GPa) = 84.11770 44.15678 35.03407
#
# Poissons Ratio (x) = 0.29083 0.26779
# Poissons Ratio (y) = 0.55403 0.24151
# Poissons Ratio (z) = 0.64298 0.30440
#
# Static dielectric constant tensor:
#      x y z
#    x 3.616710 0.000000 0.021450 
#    y 0.000000 3.457570 0.000000 
#    z 0.021450 0.000000 3.306610 
# 
# 
# High freq. dielectric constant tensor:
#      x y z
#    x 1.752040 0.000000 0.002530 
#    y 0.000000 1.738480 0.000000 
#    z 0.002530 0.000000 1.715500 
# 
# From -- ./inp_files/37848.got.cif
#   From: 2010.06.25/outbox.cif.g09.slc.cpg/sg11_19_cif.got.tgz:37848.got - 2010.06.27 23:14:04.
