data_PCOD8070300
_publ_section_title
;
Structure prediction by ZEFSAII (Michael W. Deem and Ramdas Pophale) SiO2 
 PCOD8070300
Probable space group: P 21/M
;
_chemical_formula_sum "Si O2"
_cell_formula_units_Z 32
_cell_length_a 28.143001
_cell_length_b 9.329286
_cell_length_c 21.688089
_cell_angle_alpha 90.000000
_cell_angle_beta 161.372050
_cell_angle_gamma 90.000000
_cell_volume 1818.881459
_symmetry_space_group_name_H-M "P 21/M"
_symmetry_group_IT_number 11
_symmetry_cell_setting 'monoclinic'
loop_
_space_group_symop_operation_xyz
x,y,z
-x,1/2+y,-z
-x,-y,-z
x,1/2-y,z
loop_
_atom_site_type_symbol
_atom_site_label
_atom_site_fract_x
_atom_site_fract_y
_atom_site_fract_z
Si Si1 0.651280 0.414883 0.186783
Si Si2 0.437947 0.915140 0.613020
Si Si3 0.155905 0.920410 0.693136
Si Si4 0.383194 0.414571 0.050153
Si Si5 0.699591 0.413398 0.382817
Si Si6 0.589283 0.083474 0.558686
Si Si7 0.813456 0.585580 0.629916
Si Si8 0.075914 0.586105 0.039392
O O1 0.607226 0.250000 0.124912
O O2 0.761217 0.463918 0.268016
O O3 0.733714 0.442369 0.353159
O O4 0.500000 0.500000 0.000000
O O5 0.388333 0.750000 0.559617
O O6 0.577504 0.946605 0.829770
O O7 0.481223 0.948332 0.595561
O O8 0.297036 0.010004 0.458085
O O9 0.134198 0.750000 0.673201
O O10 0.000000 0.000000 0.500000
O O11 0.251189 0.979556 0.867898
O O12 0.331659 0.250000 0.977872
O O13 0.527307 0.448167 0.185576
O O14 0.733774 0.250000 0.443366
O O15 0.807092 0.514246 0.554704
O O16 0.580430 0.250000 0.564248
O O17 0.758800 0.027509 0.769346
O O18 0.500000 0.000000 0.500000
O O19 0.764449 0.750000 0.564038
O O20 0.981577 0.569878 0.860740
O O21 0.084059 0.750000 0.071526
O O22 0.000000 0.500000 0.000000
#
# Coordination Sequence:
#
# PCOD8070300 Si02
#       8
#     4   4   4   4   4   4   4   4
#     4  10  20  35  56  81 107 138 178 222 270 320
#     4   9  18  34  55  77 106 144 179 218 270 324
#     4  11  23  37  55  80 111 146 182 222 270 321
#     4   9  17  32  55  79 105 138 178 222 268 321
#     4   9  18  33  53  78 109 143 175 217 272 325
#     4  10  21  37  55  78 110 146 183 225 271 321
#     4  10  19  30  50  82 111 137 175 225 272 316
#     4  10  20  34  54  79 108 139 176 223 271 319
#
# _framework density 17.593229000000001
#
# number of rings (size 3 to 8) (size 9 to 14) (size 15 to 20)
#    0.000    2.250    2.500    1.500    0.000    4.500 
#    0.000    1.250    0.000    4.500    0.000    0.000 
#    0.000    0.000    0.000    0.000    0.000    0.000 
#
# Total GULP energy -396809.526934 kJ/mol
# GULP energy per Si atom -12400.297717 kJ/mol
# Density = 1.755319 g / cm^3
# Si number density = 17.593229 Si / 1000 Ang^3
#
#
#
# Elastic Constant Matrix: (Units=GPa)
#
#
# Indices 1 2 3 4 5 6 
#
# 1 125.4535 56.2265 69.6453 0.0000 -4.9826 0.0000
# 2 56.2265 84.7133 62.8558 0.0000 -1.7110 0.0000
# 3 69.6453 62.8558 121.3134 0.0000 -6.3978 0.0000
# 4 0.0000 0.0000 0.0000 30.3501 0.0000 -2.9751
# 5 -4.9826 -1.7110 -6.3978 0.0000 26.3441 0.0000
# 6 0.0000 0.0000 0.0000 -2.9751 0.0000 30.0733
#
#
#
# Elastic Compliance Matrix: (Units=1/GPa)
#
#
# Indices 1 2 3 4 5 6 
#
# 1 0.012895 -0.005010 -0.004757 0.000000 0.000958 0.000000
# 2 -0.005010 0.021160 -0.008169 0.000000 -0.001557 0.000000
# 3 -0.004757 -0.008169 0.015328 0.000000 0.002292 0.000000
# 4 0.000000 0.000000 0.000000 0.033272 0.000000 0.003291
# 5 0.000958 -0.001557 0.002292 0.000000 0.038596 0.000000
# 6 0.000000 0.000000 0.000000 0.003291 0.000000 0.033578
#
#
# Mechanical properties :
#
#
# Convention : Reuss Voigt Hill
#
# Bulk Modulus (GPa) = 74.01726 78.77060 76.39393
# Shear Modulus (GPa) = 25.61423 26.87033 26.24228
#
# Velocity S-wave (km/s) = 3.81978 3.91232 3.86633
# Velocity P-wave (km/s) = 7.84966 8.07953 7.96542
#
# Compressibility (1/GPa) = 0.01351036
#
# Stress axis : x y z
#
# Youngs Moduli (GPa) = 77.54754 47.25881 65.24221
#
# Poissons Ratio (x) = 0.23678 0.31033
# Poissons Ratio (y) = 0.38854 0.53299
# Poissons Ratio (z) = 0.36886 0.38607
#
# Static dielectric constant tensor:
#      x y z
#    x 3.403020 0.000000 -0.300860 
#    y 0.000000 3.291760 0.000000 
#    z -0.300860 0.000000 3.365990 
# 
# 
# High freq. dielectric constant tensor:
#      x y z
#    x 1.671990 0.000000 -0.023820 
#    y 0.000000 1.683150 0.000000 
#    z -0.023820 0.000000 1.671670 
# 
# From -- ./inp_files/67303.got.cif
#   From: 2010.06.25/outbox.cif.g09.slc.cpg/sg11_34_cif.got.tgz:67303.got - 2010.06.27 23:14:04.
