data_PCOD8070957
_publ_section_title
;
Structure prediction by ZEFSAII (Michael W. Deem and Ramdas Pophale) SiO2 
 PCOD8070957
Probable space group: P 21/M
;
_chemical_formula_sum "Si O2"
_cell_formula_units_Z 32
_cell_length_a 24.914626
_cell_length_b 8.998313
_cell_length_c 21.001063
_cell_angle_alpha 90.000000
_cell_angle_beta 157.874023
_cell_angle_gamma 90.000000
_cell_volume 1773.324208
_symmetry_space_group_name_H-M "P 21/M"
_symmetry_group_IT_number 11
_symmetry_cell_setting 'monoclinic'
loop_
_space_group_symop_operation_xyz
x,y,z
-x,1/2+y,-z
-x,-y,-z
x,1/2-y,z
loop_
_atom_site_type_symbol
_atom_site_label
_atom_site_fract_x
_atom_site_fract_y
_atom_site_fract_z
Si Si1 0.626458 0.085169 0.559983
Si Si2 0.698856 0.585901 0.755688
Si Si3 0.615282 0.422588 0.170249
Si Si4 0.239145 0.426929 0.037951
Si Si5 0.997176 0.423389 0.306513
Si Si6 0.060861 0.924741 0.504438
Si Si7 0.321151 0.079880 0.635065
Si Si8 0.464759 0.075409 0.660529
O O1 0.681001 0.250000 0.602369
O O2 0.467262 0.091795 0.410809
O O3 0.727978 0.020745 0.727511
O O4 0.633236 0.981590 0.505253
O O5 0.752480 0.750000 0.795746
O O6 0.779492 0.529707 0.907884
O O7 0.581902 0.250000 0.134146
O O8 0.771222 0.458341 0.314043
O O9 0.600920 0.481064 0.226369
O O10 0.500000 0.500000 0.000000
O O11 0.241821 0.250000 0.032110
O O12 0.385522 0.491540 0.171326
O O13 0.109140 0.499272 0.858668
O O14 0.960311 0.250000 0.273243
O O15 0.981048 0.500982 0.357158
O O16 0.153124 0.450455 0.449424
O O17 0.028406 0.750000 0.468954
O O18 0.000000 0.000000 0.500000
O O19 0.354389 0.250000 0.688620
O O20 0.381212 0.035742 0.632708
O O21 0.491762 0.250000 0.681746
#
# Coordination Sequence:
#
# PCOD8070957 Si02
#       8
#     4   4   4   4   4   4   4   4
#     4   9  16  26  43  69  99 129 164 207 253 300
#     4   8  15  27  43  65  96 131 164 202 251 300
#     4  10  21  36  56  79 103 132 167 206 249 297
#     4  10  20  33  50  76 105 132 168 212 253 298
#     4  10  20  36  56  76 101 135 170 206 251 301
#     4  10  21  37  56  79 104 133 169 207 249 298
#     4   9  20  37  55  75 101 134 171 206 246 299
#     4  10  19  32  51  75 103 134 168 209 253 298
#
# _framework density 18.045204999999999
#
# number of rings (size 3 to 8) (size 9 to 14) (size 15 to 20)
#    0.000    2.500    0.000    3.000    0.000    7.500 
#    0.000    1.250    0.000    0.750    0.000    0.000 
#    0.000    0.000    0.000    0.000    0.000    0.000 
#
# Total GULP energy -396801.539853 kJ/mol
# GULP energy per Si atom -12400.048120 kJ/mol
# Density = 1.800413 g / cm^3
# Si number density = 18.045205 Si / 1000 Ang^3
#
#
#
# Elastic Constant Matrix: (Units=GPa)
#
#
# Indices 1 2 3 4 5 6 
#
# 1 109.0118 66.8334 66.1285 0.0000 -27.1506 0.0000
# 2 66.8334 123.2129 70.8283 0.0000 -22.7520 0.0000
# 3 66.1285 70.8283 117.8934 0.0000 -37.1070 0.0000
# 4 0.0000 0.0000 0.0000 31.9440 0.0000 -9.1959
# 5 -27.1506 -22.7520 -37.1070 0.0000 25.5774 0.0000
# 6 0.0000 0.0000 0.0000 -9.1959 0.0000 30.0997
#
#
#
# Elastic Compliance Matrix: (Units=1/GPa)
#
#
# Indices 1 2 3 4 5 6 
#
# 1 0.016650 -0.005553 -0.003672 0.000000 0.007408 0.000000
# 2 -0.005553 0.014252 -0.006096 0.000000 -0.002061 0.000000
# 3 -0.003672 -0.006096 0.020742 0.000000 0.020772 0.000000
# 4 0.000000 0.000000 0.000000 0.034324 0.000000 0.010486
# 5 0.007408 -0.002061 0.020772 0.000000 0.075262 0.000000
# 6 0.000000 0.000000 0.000000 0.010486 0.000000 0.036427
#
#
# Mechanical properties :
#
#
# Convention : Reuss Voigt Hill
#
# Bulk Modulus (GPa) = 47.61319 84.18872 65.90095
# Shear Modulus (GPa) = 21.24958 27.27943 24.26450
#
# Velocity S-wave (km/s) = 3.43530 3.89231 3.67093
# Velocity P-wave (km/s) = 6.49445 8.18265 7.38693
#
# Compressibility (1/GPa) = 0.02100258
#
# Stress axis : x y z
#
# Youngs Moduli (GPa) = 60.06042 70.16649 48.21086
#
# Poissons Ratio (x) = 0.38962 0.17701
# Poissons Ratio (y) = 0.33350 0.29391
# Poissons Ratio (z) = 0.22051 0.42776
#
# Static dielectric constant tensor:
#      x y z
#    x 3.345050 0.000000 -0.288950 
#    y 0.000000 3.624180 0.000000 
#    z -0.288950 0.000000 3.303610 
# 
# 
# High freq. dielectric constant tensor:
#      x y z
#    x 1.689740 0.000000 -0.026130 
#    y 0.000000 1.714750 0.000000 
#    z -0.026130 0.000000 1.685720 
# 
# From -- ./inp_files/67227.got.cif
#   From: 2010.06.25/outbox.cif.g09.slc.cpg/sg11_34_cif.got.tgz:67227.got - 2010.06.27 23:14:04.
