data_PCOD8070608
_publ_section_title
;
Structure prediction by ZEFSAII (Michael W. Deem and Ramdas Pophale) SiO2 
 PCOD8070608
Probable space group: P 21/M
;
_chemical_formula_sum "Si O2"
_cell_formula_units_Z 32
_cell_length_a 17.326802
_cell_length_b 17.727915
_cell_length_c 13.567858
_cell_angle_alpha 90.000000
_cell_angle_beta 155.037702
_cell_angle_gamma 90.000000
_cell_volume 1758.823446
_symmetry_space_group_name_H-M "P 21/M"
_symmetry_group_IT_number 11
_symmetry_cell_setting 'monoclinic'
loop_
_space_group_symop_operation_xyz
x,y,z
-x,1/2+y,-z
-x,-y,-z
x,1/2-y,z
loop_
_atom_site_type_symbol
_atom_site_label
_atom_site_fract_x
_atom_site_fract_y
_atom_site_fract_z
Si Si1 0.995607 0.835596 0.400444
Si Si2 0.886331 0.832797 0.658969
Si Si3 0.175198 0.036544 0.915350
Si Si4 0.434993 0.963466 0.694878
Si Si5 0.059865 0.487322 0.179720
Si Si6 0.409181 0.835593 0.814043
Si Si7 0.111601 0.885818 0.740624
Si Si8 0.517365 0.614210 0.146420
O O1 0.923726 0.750000 0.321335
O O2 0.196251 0.840145 0.588812
O O3 0.991402 0.870803 0.504658
O O4 0.863691 0.881956 0.175999
O O5 0.912805 0.750000 0.738273
O O6 0.929533 0.897626 0.788453
O O7 0.676750 0.837530 0.380992
O O8 0.027340 0.837540 0.731493
O O9 0.092933 0.974063 0.745639
O O10 0.393102 0.026295 0.179190
O O11 0.087745 0.027639 0.921309
O O12 0.448608 0.881975 0.760983
O O13 0.254039 0.972353 0.420544
O O14 0.440285 0.025956 0.787609
O O15 0.000000 0.500000 0.000000
O O16 0.473794 0.750000 0.871359
O O17 0.521838 0.870753 0.035147
O O18 0.322621 0.861184 0.967956
#
# Coordination Sequence:
#
# PCOD8070608 Si02
#       8
#     4   4   4   4   4   4   4   4
#     4  10  19  31  49  77 115 152 178 208 258 317
#     4  10  20  34  56  84 106 136 179 223 270 317
#     4  10  20  35  56  78 103 141 182 224 270 321
#     4  10  20  35  56  78 103 141 182 224 270 321
#     4  10  22  42  60  76 104 138 184 235 278 319
#     4  10  19  31  49  77 115 152 178 208 258 317
#     4   9  19  33  51  77 112 146 177 211 257 320
#     4   9  19  33  51  77 112 146 177 211 257 320
#
# _framework density 18.193981000000001
#
# number of rings (size 3 to 8) (size 9 to 14) (size 15 to 20)
#    0.000    2.250    1.250    1.500    1.750    2.500 
#    0.000    1.250    0.000    0.000    0.000    0.000 
#    0.000    0.000    0.000    0.000    0.000    0.000 
#
# Total GULP energy -396827.254581 kJ/mol
# GULP energy per Si atom -12400.851706 kJ/mol
# Density = 1.815257 g / cm^3
# Si number density = 18.193981 Si / 1000 Ang^3
#
#
#
# Elastic Constant Matrix: (Units=GPa)
#
#
# Indices 1 2 3 4 5 6 
#
# 1 99.4538 54.5440 67.5454 0.0000 -8.3771 0.0000
# 2 54.5440 114.4631 52.5361 0.0000 -11.6354 0.0000
# 3 67.5454 52.5361 96.7810 0.0000 -6.1804 0.0000
# 4 0.0000 0.0000 0.0000 15.3690 0.0000 1.3961
# 5 -8.3771 -11.6354 -6.1804 0.0000 28.1028 0.0000
# 6 0.0000 0.0000 0.0000 1.3961 0.0000 15.1488
#
#
#
# Elastic Compliance Matrix: (Units=1/GPa)
#
#
# Indices 1 2 3 4 5 6 
#
# 1 0.020665 -0.004126 -0.012069 0.000000 0.001798 0.000000
# 2 -0.004126 0.012804 -0.003865 0.000000 0.003221 0.000000
# 3 -0.012069 -0.003865 0.020814 0.000000 -0.000620 0.000000
# 4 0.000000 0.000000 0.000000 0.065615 0.000000 -0.006047
# 5 0.001798 0.003221 -0.000620 0.000000 0.037317 0.000000
# 6 0.000000 0.000000 0.000000 -0.006047 0.000000 0.066569
#
#
# Mechanical properties :
#
#
# Convention : Reuss Voigt Hill
#
# Bulk Modulus (GPa) = 70.59875 73.32764 71.96319
# Shear Modulus (GPa) = 18.61329 20.79562 19.70446
#
# Velocity S-wave (km/s) = 3.20198 3.38449 3.29450
# Velocity P-wave (km/s) = 7.24968 7.46081 7.35600
#
# Compressibility (1/GPa) = 0.01416456
#
# Stress axis : x y z
#
# Youngs Moduli (GPa) = 48.38996 78.10096 48.04430
#
# Poissons Ratio (x) = 0.32221 0.57982
# Poissons Ratio (y) = 0.19964 0.18571
# Poissons Ratio (z) = 0.58400 0.30189
#
# Static dielectric constant tensor:
#      x y z
#    x 3.202160 0.000000 0.327450 
#    y 0.000000 3.467410 0.000000 
#    z 0.327450 0.000000 3.256460 
# 
# 
# High freq. dielectric constant tensor:
#      x y z
#    x 1.686730 0.000000 0.031090 
#    y 0.000000 1.710620 0.000000 
#    z 0.031090 0.000000 1.691860 
# 
# From -- ./inp_files/39972.got.cif
#   From: 2010.06.25/outbox.cif.g09.slc.cpg/sg11_20_cif.got.tgz:39972.got - 2010.06.27 23:14:04.
