data_PCOD8070552
_publ_section_title
;
Structure prediction by ZEFSAII (Michael W. Deem and Ramdas Pophale) SiO2 
 PCOD8070552
Probable space group: P 21/M
;
_chemical_formula_sum "Si O2"
_cell_formula_units_Z 32
_cell_length_a 21.553217
_cell_length_b 8.738007
_cell_length_c 11.795259
_cell_angle_alpha 90.000000
_cell_angle_beta 52.284631
_cell_angle_gamma 90.000000
_cell_volume 1757.280560
_symmetry_space_group_name_H-M "P 21/M"
_symmetry_group_IT_number 11
_symmetry_cell_setting 'monoclinic'
loop_
_space_group_symop_operation_xyz
x,y,z
-x,1/2+y,-z
-x,-y,-z
x,1/2-y,z
loop_
_atom_site_type_symbol
_atom_site_label
_atom_site_fract_x
_atom_site_fract_y
_atom_site_fract_z
Si Si1 0.964010 0.428154 0.152418
Si Si2 0.091041 0.925344 0.149436
Si Si3 0.194139 0.572375 0.234471
Si Si4 0.336688 0.073626 0.951742
Si Si5 0.418781 0.569944 0.052805
Si Si6 0.730190 0.929538 0.658088
Si Si7 0.202316 0.074229 0.653597
Si Si8 0.763768 0.572646 0.134876
O O1 0.971004 0.250000 0.129887
O O2 0.874425 0.471929 0.270805
O O3 0.014046 0.477985 0.206445
O O4 0.000000 0.500000 0.000000
O O5 0.072186 0.750000 0.143842
O O6 0.111847 0.948590 0.260027
O O7 0.164296 0.971387 0.989147
O O8 0.221141 0.750000 0.198645
O O9 0.256044 0.460851 0.105963
O O10 0.194832 0.511829 0.363386
O O11 0.360502 0.250000 0.939672
O O12 0.404397 0.972418 0.935660
O O13 0.317832 0.032784 0.840620
O O14 0.421184 0.750000 0.064845
O O15 0.350824 0.501579 0.208151
O O16 0.500000 0.500000 0.000000
O O17 0.730541 0.750000 0.683807
O O18 0.738690 0.963293 0.515019
O O19 0.174720 0.250000 0.680363
O O20 0.248935 0.038887 0.717921
O O21 0.785306 0.750000 0.088545
#
# Coordination Sequence:
#
# PCOD8070552 Si02
#       8
#     4   4   4   4   4   4   4   4
#     4  12  23  34  50  73 102 136 177 224 269 314
#     4  10  19  31  49  73  99 131 174 225 270 309
#     4   9  17  30  49  72 100 133 172 216 261 308
#     4   9  16  28  49  78 106 132 168 209 253 305
#     4  11  21  35  57  83 110 137 168 209 255 303
#     4  10  20  35  55  79 108 139 173 210 255 313
#     4  10  21  36  53  75 105 141 177 215 260 310
#     4   9  17  30  50  74 102 137 173 213 259 305
#
# _framework density 18.209955000000001
#
# number of rings (size 3 to 8) (size 9 to 14) (size 15 to 20)
#    0.000    2.000    1.250    5.250    0.000    3.000 
#    0.000    0.625    0.000    0.750    0.000    0.000 
#    0.000    0.000    0.000    0.000    0.000    0.000 
#
# Total GULP energy -396602.547664 kJ/mol
# GULP energy per Si atom -12393.829615 kJ/mol
# Density = 1.816851 g / cm^3
# Si number density = 18.209955 Si / 1000 Ang^3
#
#
#
# Elastic Constant Matrix: (Units=GPa)
#
#
# Indices 1 2 3 4 5 6 
#
# 1 153.3656 58.4273 56.3433 0.0000 20.0390 0.0000
# 2 58.4273 111.5317 40.3797 0.0000 4.3753 0.0000
# 3 56.3433 40.3797 75.5581 0.0000 19.1969 0.0000
# 4 0.0000 0.0000 0.0000 19.1158 0.0000 0.7227
# 5 20.0390 4.3753 19.1969 0.0000 26.2663 0.0000
# 6 0.0000 0.0000 0.0000 0.7227 0.0000 32.1770
#
#
#
# Elastic Compliance Matrix: (Units=1/GPa)
#
#
# Indices 1 2 3 4 5 6 
#
# 1 0.010030 -0.003394 -0.004746 0.000000 -0.003618 0.000000
# 2 -0.003394 0.012469 -0.005235 0.000000 0.004338 0.000000
# 3 -0.004746 -0.005235 0.022633 0.000000 -0.012048 0.000000
# 4 0.000000 0.000000 0.000000 0.052357 0.000000 -0.001176
# 5 -0.003618 0.004338 -0.012048 0.000000 0.048915 0.000000
# 6 0.000000 0.000000 0.000000 -0.001176 0.000000 0.031105
#
#
# Mechanical properties :
#
#
# Convention : Reuss Voigt Hill
#
# Bulk Modulus (GPa) = 54.40320 72.30622 63.35471
# Shear Modulus (GPa) = 23.76588 27.86550 25.81569
#
# Velocity S-wave (km/s) = 3.61654 3.91606 3.76928
# Velocity P-wave (km/s) = 6.88328 7.76148 7.33553
#
# Compressibility (1/GPa) = 0.01838127
#
# Stress axis : x y z
#
# Youngs Moduli (GPa) = 99.70413 80.19756 44.18334
#
# Poissons Ratio (x) = 0.27218 0.20970
# Poissons Ratio (y) = 0.33839 0.23131
# Poissons Ratio (z) = 0.47321 0.41985
#
# Static dielectric constant tensor:
#      x y z
#    x 3.883190 0.000000 0.497470 
#    y 0.000000 3.477060 0.000000 
#    z 0.497470 0.000000 3.059230 
# 
# 
# High freq. dielectric constant tensor:
#      x y z
#    x 1.714530 0.000000 0.034260 
#    y 0.000000 1.719410 0.000000 
#    z 0.034260 0.000000 1.658590 
# 
# From -- ./inp_files/42479.got.cif
#   From: 2010.06.25/outbox.cif.g09.slc.cpg/sg11_22_cif.got.tgz:42479.got - 2010.06.27 23:14:04.
