data_PCOD8070740
_publ_section_title
;
Structure prediction by ZEFSAII (Michael W. Deem and Ramdas Pophale) SiO2 
 PCOD8070740
Probable space group: P 21/M
;
_chemical_formula_sum "Si O2"
_cell_formula_units_Z 32
_cell_length_a 16.383178
_cell_length_b 8.926344
_cell_length_c 12.176079
_cell_angle_alpha 90.000000
_cell_angle_beta 88.309331
_cell_angle_gamma 90.000000
_cell_volume 1779.877559
_symmetry_space_group_name_H-M "P 21/M"
_symmetry_group_IT_number 11
_symmetry_cell_setting 'monoclinic'
loop_
_space_group_symop_operation_xyz
x,y,z
-x,1/2+y,-z
-x,-y,-z
x,1/2-y,z
loop_
_atom_site_type_symbol
_atom_site_label
_atom_site_fract_x
_atom_site_fract_y
_atom_site_fract_z
Si Si1 0.969658 0.572348 0.890041
Si Si2 0.368324 0.076384 0.738945
Si Si3 0.528209 0.077207 0.609349
Si Si4 0.267390 0.927624 0.920027
Si Si5 0.786107 0.573041 0.861515
Si Si6 0.246165 0.576041 0.585364
Si Si7 0.291730 0.575700 0.342174
Si Si8 0.125411 0.925908 0.767031
O O1 0.970831 0.750000 0.903936
O O2 0.879632 0.515274 0.863106
O O3 0.033178 0.516607 0.792316
O O4 0.000000 0.500000 0.000000
O O5 0.347992 0.250000 0.758416
O O6 0.463870 0.050645 0.710035
O O7 0.346387 0.985352 0.850031
O O8 0.318849 0.019184 0.634974
O O9 0.537327 0.250000 0.578410
O O10 0.615803 0.017148 0.646251
O O11 0.500000 0.000000 0.500000
O O12 0.271887 0.750000 0.929713
O O13 0.187230 0.986705 0.858264
O O14 0.267208 0.997458 0.040931
O O15 0.780802 0.750000 0.874645
O O16 0.750399 0.525177 0.746905
O O17 0.265049 0.750000 0.610426
O O18 0.241120 0.547181 0.456153
O O19 0.159754 0.527606 0.645412
O O20 0.289198 0.750000 0.308012
O O21 0.125144 0.750000 0.779010
#
# Coordination Sequence:
#
# PCOD8070740 Si02
#       8
#     4   4   4   4   4   4   4   4
#     4  10  19  33  53  79 109 138 176 224 269 318
#     4  10  19  31  52  83 113 136 169 226 279 314
#     4  10  20  34  55  82 110 141 180 226 268 316
#     4  10  19  34  56  78 105 143 181 217 266 329
#     4  11  23  36  53  79 111 144 179 226 277 319
#     4   9  17  32  54  78 105 141 183 218 258 317
#     4  10  21  37  55  76 108 148 186 219 261 326
#     4   8  15  29  52  79 103 133 172 217 261 308
#
# _framework density 17.978767000000001
#
# number of rings (size 3 to 8) (size 9 to 14) (size 15 to 20)
#    0.000    2.250    2.500    1.875    0.000    2.000 
#    0.000    1.250    0.000    0.000    0.000    0.000 
#    0.000    0.000    0.000    0.000    0.000    0.000 
#
# Total GULP energy -396721.174968 kJ/mol
# GULP energy per Si atom -12397.536718 kJ/mol
# Density = 1.793785 g / cm^3
# Si number density = 17.978767 Si / 1000 Ang^3
#
#
#
# Elastic Constant Matrix: (Units=GPa)
#
#
# Indices 1 2 3 4 5 6 
#
# 1 116.1309 36.2565 67.2191 0.0000 -8.4617 0.0000
# 2 36.2565 59.0042 41.4413 0.0000 -3.0630 0.0000
# 3 67.2191 41.4413 124.9489 0.0000 -11.4964 0.0000
# 4 0.0000 0.0000 0.0000 31.2058 0.0000 0.3962
# 5 -8.4617 -3.0630 -11.4964 0.0000 28.8893 0.0000
# 6 0.0000 0.0000 0.0000 0.3962 0.0000 20.6708
#
#
#
# Elastic Compliance Matrix: (Units=1/GPa)
#
#
# Indices 1 2 3 4 5 6 
#
# 1 0.013256 -0.004109 -0.005659 0.000000 0.001195 0.000000
# 2 -0.004109 0.023378 -0.005632 0.000000 -0.000966 0.000000
# 3 -0.005659 -0.005632 0.013191 0.000000 0.002995 0.000000
# 4 0.000000 0.000000 0.000000 0.032053 0.000000 -0.000614
# 5 0.001195 -0.000966 0.002995 0.000000 0.036054 0.000000
# 6 0.000000 0.000000 0.000000 -0.000614 0.000000 0.048389
#
#
# Mechanical properties :
#
#
# Convention : Reuss Voigt Hill
#
# Bulk Modulus (GPa) = 52.56024 65.54641 59.05333
# Shear Modulus (GPa) = 24.57432 26.49765 25.53599
#
# Velocity S-wave (km/s) = 3.70111 3.84321 3.77283
# Velocity P-wave (km/s) = 6.89655 7.49870 7.20392
#
# Compressibility (1/GPa) = 0.01902579
#
# Stress axis : x y z
#
# Youngs Moduli (GPa) = 75.43544 42.77439 75.80934
#
# Poissons Ratio (x) = 0.17577 0.42898
# Poissons Ratio (y) = 0.30999 0.42696
# Poissons Ratio (z) = 0.42686 0.24091
#
# Static dielectric constant tensor:
#      x y z
#    x 3.816290 0.000000 -0.456830 
#    y 0.000000 4.148180 0.000000 
#    z -0.456830 0.000000 3.321320 
# 
# 
# High freq. dielectric constant tensor:
#      x y z
#    x 1.691310 0.000000 -0.028320 
#    y 0.000000 1.687080 0.000000 
#    z -0.028320 0.000000 1.689260 
# 
# From -- ./inp_files/38267.got.cif
#   From: 2010.06.25/outbox.cif.g09.slc.cpg/sg11_20_cif.got.tgz:38267.got - 2010.06.27 23:14:04.
