data_PCOD8070487
_publ_section_title
;
Structure prediction by ZEFSAII (Michael W. Deem and Ramdas Pophale) SiO2 
 PCOD8070487
Probable space group: P 21/M
;
_chemical_formula_sum "Si O2"
_cell_formula_units_Z 28
_cell_length_a 31.605841
_cell_length_b 8.789193
_cell_length_c 31.605801
_cell_angle_alpha 90.000000
_cell_angle_beta 170.543127
_cell_angle_gamma 90.000000
_cell_volume 1442.561685
_symmetry_space_group_name_H-M "P 21/M"
_symmetry_group_IT_number 11
_symmetry_cell_setting 'monoclinic'
loop_
_space_group_symop_operation_xyz
x,y,z
-x,1/2+y,-z
-x,-y,-z
x,1/2-y,z
loop_
_atom_site_type_symbol
_atom_site_label
_atom_site_fract_x
_atom_site_fract_y
_atom_site_fract_z
Si Si1 0.809377 0.069530 0.690736
Si Si2 0.905523 0.430814 0.594616
Si Si3 0.381191 0.068865 0.118955
Si Si4 0.333220 0.431606 0.166863
Si Si5 0.760718 0.068716 0.739282
Si Si6 0.477223 0.570824 0.023299
Si Si7 0.048130 0.429538 0.451308
O O1 0.810719 0.250000 0.689548
O O2 0.570517 0.003917 0.428323
O O3 0.785077 0.015330 0.714902
O O4 0.071787 0.003882 0.929598
O O5 0.905988 0.250000 0.594090
O O6 0.643699 0.493387 0.357268
O O7 0.929070 0.489754 0.570763
O O8 0.142978 0.493396 0.856523
O O9 0.380801 0.250000 0.119224
O O10 0.357219 0.005413 0.142886
O O11 0.333036 0.250000 0.166880
O O12 0.758464 0.250000 0.741549
O O13 0.500000 0.000000 0.500000
O O14 0.000000 0.000000 0.000000
O O15 0.479762 0.750000 0.020427
O O16 0.715366 0.514511 0.286573
O O17 0.500000 0.500000 0.000000
O O18 0.214287 0.514465 0.785594
O O19 0.051676 0.250000 0.447856
#
# Coordination Sequence:
#
# PCOD8070487 Si02
#       7
#     4   4   4   4   4   4   4
#     4   9  17  28  46  72 101 132 171 215 260 314
#     4  10  19  31  48  73 101 129 161 200 243 293
#     4   9  17  28  45  72 103 128 159 205 256 301
#     4   9  15  26  44  69 101 132 160 206 265 307
#     4  11  22  37  56  82 113 146 187 233 280 336
#     4  10  21  36  54  75  99 126 161 201 242 286
#     4  10  21  36  52  73 100 131 164 198 236 287
#
# _framework density 19.409915999999999
#
# number of rings (size 3 to 8) (size 9 to 14) (size 15 to 20)
#    0.000    2.286    0.000    3.429    0.000    6.857 
#    0.000    0.000    0.000    0.000    0.000   20.000 
#    0.000    0.000    0.000    0.000    0.000    0.000 
#
# Total GULP energy -347265.486729 kJ/mol
# GULP energy per Si atom -12402.338812 kJ/mol
# Density = 1.936574 g / cm^3
# Si number density = 19.409916 Si / 1000 Ang^3
#
#
#
# Elastic Constant Matrix: (Units=GPa)
#
#
# Indices 1 2 3 4 5 6 
#
# 1 218.7817 30.1207 125.5531 0.0000 0.3236 0.0000
# 2 30.1207 22.1687 26.0384 0.0000 -0.3581 0.0000
# 3 125.5531 26.0384 229.3208 0.0000 0.7884 0.0000
# 4 0.0000 0.0000 0.0000 12.2875 0.0000 -1.1485
# 5 0.3236 -0.3581 0.7884 0.0000 47.9731 0.0000
# 6 0.0000 0.0000 0.0000 -1.1485 0.0000 25.6338
#
#
#
# Elastic Compliance Matrix: (Units=1/GPa)
#
#
# Indices 1 2 3 4 5 6 
#
# 1 0.007302 -0.006031 -0.003313 0.000000 -0.000040 0.000000
# 2 -0.006031 0.057043 -0.003177 0.000000 0.000519 0.000000
# 3 -0.003313 -0.003177 0.006536 0.000000 -0.000109 0.000000
# 4 0.000000 0.000000 0.000000 0.081726 0.000000 0.003662
# 5 -0.000040 0.000519 -0.000109 0.000000 0.020851 0.000000
# 6 0.000000 0.000000 0.000000 0.003662 0.000000 0.039175
#
#
# Mechanical properties :
#
#
# Convention : Reuss Voigt Hill
#
# Bulk Modulus (GPa) = 21.81553 92.63286 57.22419
# Shear Modulus (GPa) = 19.76645 36.41617 28.09131
#
# Velocity S-wave (km/s) = 3.19465 4.33617 3.80842
# Velocity P-wave (km/s) = 4.98713 8.53803 6.99176
#
# Compressibility (1/GPa) = 0.04583890
#
# Stress axis : x y z
#
# Youngs Moduli (GPa) = 136.93958 17.53076 153.00473
#
# Poissons Ratio (x) = 0.10573 0.50693
# Poissons Ratio (y) = 0.82589 0.48606
# Poissons Ratio (z) = 0.45370 0.05569
#
# Static dielectric constant tensor:
#      x y z
#    x 3.729680 0.000000 0.320840 
#    y 0.000000 3.023890 0.000000 
#    z 0.320840 0.000000 7.124110 
# 
# 
# High freq. dielectric constant tensor:
#      x y z
#    x 1.776100 0.000000 0.000390 
#    y 0.000000 1.702500 0.000000 
#    z 0.000390 0.000000 1.780420 
# 
# From -- ./inp_files/9592.got.cif
#   From: 2010.06.25/outbox.cif.g09.slc.cpg/sg11_5_cif.got.tgz:9592.got - 2010.06.27 23:14:04.
