data_PCOD8070417
_publ_section_title
;
Structure prediction by ZEFSAII (Michael W. Deem and Ramdas Pophale) SiO2 
 PCOD8070417
Probable space group: P 21/M
;
_chemical_formula_sum "Si O2"
_cell_formula_units_Z 32
_cell_length_a 20.372770
_cell_length_b 8.795657
_cell_length_c 14.476019
_cell_angle_alpha 90.000000
_cell_angle_beta 137.083592
_cell_angle_gamma 90.000000
_cell_volume 1766.324028
_symmetry_space_group_name_H-M "P 21/M"
_symmetry_group_IT_number 11
_symmetry_cell_setting 'monoclinic'
loop_
_space_group_symop_operation_xyz
x,y,z
-x,1/2+y,-z
-x,-y,-z
x,1/2-y,z
loop_
_atom_site_type_symbol
_atom_site_label
_atom_site_fract_x
_atom_site_fract_y
_atom_site_fract_z
Si Si1 0.009034 0.927845 0.109825
Si Si2 0.494104 0.923803 0.092211
Si Si3 0.375988 0.926248 0.620111
Si Si4 0.348563 0.923993 0.088757
Si Si5 0.530236 0.924419 0.632121
Si Si6 0.686834 0.079539 0.683419
Si Si7 0.203375 0.428026 0.361567
Si Si8 0.830066 0.082303 0.000265
O O1 0.025950 0.750000 0.115007
O O2 0.097583 0.999477 0.256367
O O3 0.912126 0.957941 0.068278
O O4 0.000000 0.000000 0.000000
O O5 0.520811 0.750000 0.105346
O O6 0.386602 0.947018 0.023316
O O7 0.569470 0.989573 0.242634
O O8 0.500000 0.000000 0.000000
O O9 0.375230 0.750000 0.644027
O O10 0.421396 0.954672 0.562276
O O11 0.268011 0.993315 0.507338
O O12 0.371871 0.750000 0.144942
O O13 0.403716 0.042553 0.210957
O O14 0.231950 0.952240 0.970395
O O15 0.545503 0.750000 0.619085
O O16 0.573849 0.030550 0.591290
O O17 0.685508 0.250000 0.638288
O O18 0.746325 0.960054 0.684413
O O19 0.744618 0.079856 0.837806
O O20 0.195107 0.250000 0.370588
O O21 0.878758 0.250000 0.052634
#
# Coordination Sequence:
#
# PCOD8070417 Si02
#       8
#     4   4   4   4   4   4   4   4
#     4  12  23  35  51  72  99 135 178 225 267 308
#     4  10  19  34  57  85 112 140 170 205 251 308
#     4  10  21  37  53  73 103 136 169 212 259 309
#     4   8  16  30  49  73 104 136 168 206 253 303
#     4   9  17  29  47  69  96 130 170 210 251 300
#     4  10  19  31  48  68  96 133 173 216 258 301
#     4  12  24  36  51  70  96 133 177 222 263 308
#     4   9  17  31  50  71  98 133 174 221 262 299
#
# _framework density 18.116720999999998
#
# number of rings (size 3 to 8) (size 9 to 14) (size 15 to 20)
#    0.000    2.000    1.250    4.500    0.000    4.500 
#    0.000    0.000    0.000    0.000    0.000    0.875 
#    0.000    0.000    0.000    0.000    0.000    0.000 
#
# Total GULP energy -396703.666112 kJ/mol
# GULP energy per Si atom -12396.989566 kJ/mol
# Density = 1.807549 g / cm^3
# Si number density = 18.116721 Si / 1000 Ang^3
#
#
#
# Elastic Constant Matrix: (Units=GPa)
#
#
# Indices 1 2 3 4 5 6 
#
# 1 96.1990 42.7421 50.2804 0.0000 11.7095 0.0000
# 2 42.7421 122.1015 36.8332 0.0000 4.9273 0.0000
# 3 50.2804 36.8332 71.5364 0.0000 13.6315 0.0000
# 4 0.0000 0.0000 0.0000 29.5405 0.0000 1.5648
# 5 11.7095 4.9273 13.6315 0.0000 35.5308 0.0000
# 6 0.0000 0.0000 0.0000 1.5648 0.0000 27.6612
#
#
#
# Elastic Compliance Matrix: (Units=1/GPa)
#
#
# Indices 1 2 3 4 5 6 
#
# 1 0.017265 -0.002848 -0.010422 0.000000 -0.001297 0.000000
# 2 -0.002848 0.010178 -0.003397 0.000000 0.000830 0.000000
# 3 -0.010422 -0.003397 0.024069 0.000000 -0.005328 0.000000
# 4 0.000000 0.000000 0.000000 0.033954 0.000000 -0.001921
# 5 -0.001297 0.000830 -0.005328 0.000000 0.030501 0.000000
# 6 0.000000 0.000000 0.000000 -0.001921 0.000000 0.036260
#
#
# Mechanical properties :
#
#
# Convention : Reuss Voigt Hill
#
# Bulk Modulus (GPa) = 55.01039 61.06092 58.03565
# Shear Modulus (GPa) = 26.09328 29.21191 27.65260
#
# Velocity S-wave (km/s) = 3.79923 4.01986 3.91110
# Velocity P-wave (km/s) = 7.04811 7.43795 7.24565
#
# Compressibility (1/GPa) = 0.01817838
#
# Stress axis : x y z
#
# Youngs Moduli (GPa) = 57.91928 98.25075 41.54785
#
# Poissons Ratio (x) = 0.27978 0.43301
# Poissons Ratio (y) = 0.16493 0.14115
# Poissons Ratio (z) = 0.60363 0.33379
#
# Static dielectric constant tensor:
#      x y z
#    x 3.487070 0.000000 0.255220 
#    y 0.000000 3.426890 0.000000 
#    z 0.255220 0.000000 3.234570 
# 
# 
# High freq. dielectric constant tensor:
#      x y z
#    x 1.687880 0.000000 0.025810 
#    y 0.000000 1.713280 0.000000 
#    z 0.025810 0.000000 1.680430 
# 
# From -- ./inp_files/54318.got.cif
#   From: 2010.06.25/outbox.cif.g09.slc.cpg/sg11_28_cif.got.tgz:54318.got - 2010.06.27 23:14:04.
