data_PCOD8070090
_publ_section_title
;
Structure prediction by ZEFSAII (Michael W. Deem and Ramdas Pophale) SiO2 
 PCOD8070090
Probable space group: P 21/M
;
_chemical_formula_sum "Si O2"
_cell_formula_units_Z 32
_cell_length_a 21.139569
_cell_length_b 9.267507
_cell_length_c 30.550510
_cell_angle_alpha 90.000000
_cell_angle_beta 160.619122
_cell_angle_gamma 90.000000
_cell_volume 1986.161332
_symmetry_space_group_name_H-M "P 21/M"
_symmetry_group_IT_number 11
_symmetry_cell_setting 'monoclinic'
loop_
_space_group_symop_operation_xyz
x,y,z
-x,1/2+y,-z
-x,-y,-z
x,1/2-y,z
loop_
_atom_site_type_symbol
_atom_site_label
_atom_site_fract_x
_atom_site_fract_y
_atom_site_fract_z
Si Si1 0.418472 0.916813 0.110248
Si Si2 0.777721 0.081406 0.199983
Si Si3 0.814367 0.580325 0.503182
Si Si4 0.166934 0.418616 0.584469
Si Si5 0.190256 0.079876 0.031863
Si Si6 0.549280 0.586311 0.715480
Si Si7 0.909502 0.582178 0.900576
Si Si8 0.541848 0.416417 0.963059
O O1 0.377263 0.750000 0.095354
O O2 0.635231 0.956832 0.262996
O O3 0.381012 0.949100 0.034863
O O4 0.274891 0.020280 0.042113
O O5 0.760577 0.250000 0.198125
O O6 0.995214 0.030188 0.347305
O O7 0.649458 0.005259 0.152887
O O8 0.707332 0.039638 0.105366
O O9 0.785127 0.750000 0.486020
O O10 0.823402 0.526311 0.459094
O O11 0.635683 0.511345 0.411415
O O12 0.120966 0.250000 0.556502
O O13 0.000000 0.500000 0.500000
O O14 0.152539 0.250000 0.003799
O O15 0.334781 0.040157 0.165377
O O16 0.988091 0.997823 0.908413
O O17 0.480731 0.750000 0.676055
O O18 0.680809 0.569033 0.757794
O O19 0.971368 0.750000 0.940979
O O20 0.000000 0.500000 0.000000
O O21 0.485694 0.250000 0.931578
#
# Coordination Sequence:
#
# PCOD8070090 Si02
#       8
#     4   4   4   4   4   4   4   4
#     4  10  19  31  46  65  91 122 154 188 228 274
#     4   9  18  32  48  67  90 117 154 196 235 271
#     4  10  19  30  45  65  91 121 151 186 227 269
#     4  10  20  30  41  61  87 119 152 181 221 270
#     4  10  19  30  45  68  94 123 155 187 227 273
#     4   9  18  30  44  66  93 121 152 183 219 267
#     4   9  17  29  45  66  93 124 156 187 223 268
#     4   9  18  32  49  67  88 118 156 195 234 273
#
# _framework density 16.111481000000001
#
# number of rings (size 3 to 8) (size 9 to 14) (size 15 to 20)
#    0.000    2.500    1.250    2.250    0.000    4.500 
#    0.000    0.000    0.000    0.000    0.000    0.875 
#    0.000    0.000    0.000    0.000    0.000    0.000 
#
# Total GULP energy -396762.835191 kJ/mol
# GULP energy per Si atom -12398.838600 kJ/mol
# Density = 1.607481 g / cm^3
# Si number density = 16.111481 Si / 1000 Ang^3
#
#
#
# Elastic Constant Matrix: (Units=GPa)
#
#
# Indices 1 2 3 4 5 6 
#
# 1 98.7349 49.7244 48.8421 0.0000 17.6351 0.0000
# 2 49.7244 67.6060 39.3743 0.0000 14.5270 0.0000
# 3 48.8421 39.3743 79.2539 0.0000 11.5355 0.0000
# 4 0.0000 0.0000 0.0000 21.9122 0.0000 10.6324
# 5 17.6351 14.5270 11.5355 0.0000 24.8043 0.0000
# 6 0.0000 0.0000 0.0000 10.6324 0.0000 29.0436
#
#
#
# Elastic Compliance Matrix: (Units=1/GPa)
#
#
# Indices 1 2 3 4 5 6 
#
# 1 0.018676 -0.008964 -0.006315 0.000000 -0.005091 0.000000
# 2 -0.008964 0.026675 -0.006845 0.000000 -0.006066 0.000000
# 3 -0.006315 -0.006845 0.020029 0.000000 -0.000816 0.000000
# 4 0.000000 0.000000 0.000000 0.055494 0.000000 -0.020316
# 5 -0.005091 -0.006066 -0.000816 0.000000 0.047867 0.000000
# 6 0.000000 0.000000 0.000000 -0.020316 0.000000 0.041868
#
#
# Mechanical properties :
#
#
# Convention : Reuss Voigt Hill
#
# Bulk Modulus (GPa) = 47.32358 57.94184 52.63271
# Shear Modulus (GPa) = 19.09113 22.32896 20.71005
#
# Velocity S-wave (km/s) = 3.44603 3.72681 3.58917
# Velocity P-wave (km/s) = 6.72829 7.38647 7.06505
#
# Compressibility (1/GPa) = 0.02113112
#
# Stress axis : x y z
#
# Youngs Moduli (GPa) = 53.54504 37.48833 49.92806
#
# Poissons Ratio (x) = 0.33606 0.31529
# Poissons Ratio (y) = 0.48000 0.34176
# Poissons Ratio (z) = 0.33813 0.25661
#
# Static dielectric constant tensor:
#      x y z
#    x 3.202450 0.000000 0.164610 
#    y 0.000000 3.079710 0.000000 
#    z 0.164610 0.000000 3.026560 
# 
# 
# High freq. dielectric constant tensor:
#      x y z
#    x 1.611310 0.000000 0.017790 
#    y 0.000000 1.624560 0.000000 
#    z 0.017790 0.000000 1.595360 
# 
# From -- ./inp_files/40683.got.cif
#   From: 2010.06.25/outbox.cif.g09.slc.cpg/sg11_21_cif.got.tgz:40683.got - 2010.06.27 23:14:04.
