data_PCOD8070392
_publ_section_title
;
Structure prediction by ZEFSAII (Michael W. Deem and Ramdas Pophale) SiO2 
 PCOD8070392
Probable space group: P 21/M
;
_chemical_formula_sum "Si O2"
_cell_formula_units_Z 24
_cell_length_a 11.783608
_cell_length_b 9.079949
_cell_length_c 12.687008
_cell_angle_alpha 90.000000
_cell_angle_beta 90.220060
_cell_angle_gamma 90.000000
_cell_volume 1357.430822
_symmetry_space_group_name_H-M "P 21/M"
_symmetry_group_IT_number 11
_symmetry_cell_setting 'monoclinic'
loop_
_space_group_symop_operation_xyz
x,y,z
-x,1/2+y,-z
-x,-y,-z
x,1/2-y,z
loop_
_atom_site_type_symbol
_atom_site_label
_atom_site_fract_x
_atom_site_fract_y
_atom_site_fract_z
Si Si1 0.119334 0.922238 0.999565
Si Si2 0.506980 0.575130 0.113371
Si Si3 0.275663 0.579224 0.804724
Si Si4 0.732535 0.424239 0.807243
Si Si5 0.884650 0.078433 0.382587
Si Si6 0.885184 0.076512 0.620805
O O1 0.098461 0.750000 0.012852
O O2 0.182449 0.959368 0.891559
O O3 0.194581 0.987144 0.095110
O O4 0.000000 0.000000 0.000000
O O5 0.511216 0.750000 0.097036
O O6 0.614904 0.521691 0.179440
O O7 0.397515 0.524953 0.181007
O O8 0.500000 0.500000 0.000000
O O9 0.311889 0.750000 0.812516
O O10 0.222305 0.539587 0.691127
O O11 0.737954 0.250000 0.811260
O O12 0.785493 0.482369 0.697373
O O13 0.913955 0.250000 0.375773
O O14 0.852926 0.030429 0.501548
O O15 0.995897 0.993630 0.343297
O O16 0.899770 0.250000 0.631798
#
# Coordination Sequence:
#
# PCOD8070392 Si02
#       6
#     4   4   4   4   4   4
#     4  10  19  31  47  70 100 129 159 203 252 298
#     4  11  21  36  55  74  99 135 175 211 253 303
#     4  10  20  35  51  72 105 136 167 208 255 301
#     4   9  18  33  51  71  99 132 166 206 251 297
#     4   9  18  32  52  77 105 135 165 207 255 296
#     4   9  17  32  54  76 101 135 171 204 249 306
#
# _framework density 17.680458999999999
#
# number of rings (size 3 to 8) (size 9 to 14) (size 15 to 20)
#    0.000    2.333    1.667    1.500    0.000    1.333 
#    0.000    2.500    0.000    0.000    0.000    0.000 
#    0.000    0.000    0.000    0.000    0.000    0.000 
#
# Total GULP energy -297600.165777 kJ/mol
# GULP energy per Si atom -12400.006907 kJ/mol
# Density = 1.764022 g / cm^3
# Si number density = 17.680459 Si / 1000 Ang^3
#
#
#
# Elastic Constant Matrix: (Units=GPa)
#
#
# Indices 1 2 3 4 5 6 
#
# 1 152.3202 51.4273 70.4377 0.0000 0.0905 0.0000
# 2 51.4273 43.4620 34.6189 0.0000 -1.2318 0.0000
# 3 70.4377 34.6189 112.2258 0.0000 -0.4127 0.0000
# 4 0.0000 0.0000 0.0000 16.7730 0.0000 3.4547
# 5 0.0905 -1.2318 -0.4127 0.0000 31.4759 0.0000
# 6 0.0000 0.0000 0.0000 3.4547 0.0000 33.2066
#
#
#
# Elastic Compliance Matrix: (Units=1/GPa)
#
#
# Indices 1 2 3 4 5 6 
#
# 1 0.012323 -0.011182 -0.004287 0.000000 -0.000529 0.000000
# 2 -0.011182 0.040686 -0.005527 0.000000 0.001552 0.000000
# 3 -0.004287 -0.005527 0.013306 0.000000 -0.000029 0.000000
# 4 0.000000 0.000000 0.000000 0.060925 0.000000 -0.006338
# 5 -0.000529 0.001552 -0.000029 0.000000 0.031832 0.000000
# 6 0.000000 0.000000 0.000000 -0.006338 0.000000 0.030774
#
#
# Mechanical properties :
#
#
# Convention : Reuss Voigt Hill
#
# Bulk Modulus (GPa) = 41.11191 68.99731 55.05461
# Shear Modulus (GPa) = 20.83800 26.39271 23.61536
#
# Velocity S-wave (km/s) = 3.43678 3.86782 3.65865
# Velocity P-wave (km/s) = 6.24915 7.68479 7.00385
#
# Compressibility (1/GPa) = 0.02432385
#
# Stress axis : x y z
#
# Youngs Moduli (GPa) = 81.14729 24.57853 75.15297
#
# Poissons Ratio (x) = 0.27483 0.32220
# Poissons Ratio (y) = 0.90738 0.41535
# Poissons Ratio (z) = 0.34790 0.13584
#
# Static dielectric constant tensor:
#      x y z
#    x 3.417640 0.000000 -0.111120 
#    y 0.000000 3.172910 0.000000 
#    z -0.111120 0.000000 3.627090 
# 
# 
# High freq. dielectric constant tensor:
#      x y z
#    x 1.683990 0.000000 -0.000730 
#    y 0.000000 1.665760 0.000000 
#    z -0.000730 0.000000 1.689550 
# 
# From -- ./inp_files/33785.got.cif
#   From: 2010.06.25/outbox.cif.g09.slc.cpg/sg11_17_cif.got.tgz:33785.got - 2010.06.27 23:14:04.
