data_PCOD8070950
_publ_section_title
;
Structure prediction by ZEFSAII (Michael W. Deem and Ramdas Pophale) SiO2 
 PCOD8070950
Probable space group: P 21/M
;
_chemical_formula_sum "Si O2"
_cell_formula_units_Z 32
_cell_length_a 21.868815
_cell_length_b 19.149576
_cell_length_c 9.653631
_cell_angle_alpha 90.000000
_cell_angle_beta 151.990438
_cell_angle_gamma 90.000000
_cell_volume 1898.544074
_symmetry_space_group_name_H-M "P 21/M"
_symmetry_group_IT_number 11
_symmetry_cell_setting 'monoclinic'
loop_
_space_group_symop_operation_xyz
x,y,z
-x,1/2+y,-z
-x,-y,-z
x,1/2-y,z
loop_
_atom_site_type_symbol
_atom_site_label
_atom_site_fract_x
_atom_site_fract_y
_atom_site_fract_z
Si Si1 0.513688 0.827351 0.119993
Si Si2 0.486310 0.327351 0.565240
Si Si3 0.115499 0.030531 0.320362
Si Si4 0.115498 0.469469 0.641632
Si Si5 0.761027 0.671889 0.431607
Si Si6 0.761027 0.828111 0.112500
Si Si7 0.388008 0.533551 0.185204
Si Si8 0.388008 0.533551 0.866826
O O1 0.460672 0.750000 0.976431
O O2 0.565378 0.829779 0.380754
O O3 0.634430 0.848021 0.265610
O O4 0.396669 0.882420 0.865278
O O5 0.539326 0.250000 0.633742
O O6 0.603331 0.382420 0.778605
O O7 0.365569 0.348023 0.227890
O O8 0.086191 0.015503 0.422382
O O9 0.128289 0.113924 0.317343
O O10 0.247093 0.991778 0.535012
O O11 0.000000 0.000000 0.000000
O O12 0.128289 0.386076 0.695813
O O13 0.000000 0.500000 0.500000
O O14 0.247094 0.508222 0.953361
O O15 0.812834 0.750000 0.572605
O O16 0.718089 0.667762 0.186179
O O17 0.812834 0.750000 0.178730
O O18 0.500000 0.500000 0.500000
O O19 0.410363 0.511136 0.070725
O O20 0.500000 0.500000 0.000000
#
# Coordination Sequence:
#
# PCOD8070950 Si02
#       8
#     4   4   4   4   4   4   4   4
#     4   9  17  29  48  75 103 129 160 203 252 299
#     4   9  17  29  48  75 103 129 160 203 252 299
#     4  10  21  35  50  73 103 135 171 207 249 297
#     4  10  21  35  50  73 103 135 171 207 249 297
#     4   9  17  31  51  73  99 130 165 206 248 295
#     4   9  17  31  51  73  99 130 165 206 248 295
#     4  10  19  32  51  75 101 128 165 207 250 298
#     4  10  19  32  51  75 101 128 165 207 250 298
#
# _framework density 16.85502
#
# number of rings (size 3 to 8) (size 9 to 14) (size 15 to 20)
#    0.000    2.500    2.500    0.000    0.000    2.000 
#    0.000    1.250    0.000    1.500    0.000    0.000 
#    0.000    0.000    0.000    0.000    0.000    0.000 
#
# Total GULP energy -396665.156402 kJ/mol
# GULP energy per Si atom -12395.786138 kJ/mol
# Density = 1.681666 g / cm^3
# Si number density = 16.855020 Si / 1000 Ang^3
#
#
#
# Elastic Constant Matrix: (Units=GPa)
#
#
# Indices 1 2 3 4 5 6 
#
# 1 83.4771 51.6550 44.4193 0.0000 18.4087 0.0000
# 2 51.6550 128.1056 64.6023 0.0000 11.7111 0.0000
# 3 44.4193 64.6023 111.2639 0.0000 6.7208 0.0000
# 4 0.0000 0.0000 0.0000 25.0661 0.0000 0.9448
# 5 18.4087 11.7111 6.7208 0.0000 19.1348 0.0000
# 6 0.0000 0.0000 0.0000 0.9448 0.0000 24.0216
#
#
#
# Elastic Compliance Matrix: (Units=1/GPa)
#
#
# Indices 1 2 3 4 5 6 
#
# 1 0.020716 -0.004579 -0.004676 0.000000 -0.015485 0.000000
# 2 -0.004579 0.012462 -0.005326 0.000000 -0.001351 0.000000
# 3 -0.004676 -0.005326 0.013770 0.000000 0.002922 0.000000
# 4 0.000000 0.000000 0.000000 0.039954 0.000000 -0.001571
# 5 -0.015485 -0.001351 0.002922 0.000000 0.066958 0.000000
# 6 0.000000 0.000000 0.000000 -0.001571 0.000000 0.041691
#
#
# Mechanical properties :
#
#
# Convention : Reuss Voigt Hill
#
# Bulk Modulus (GPa) = 56.22579 71.57776 63.90178
# Shear Modulus (GPa) = 21.67858 24.45583 23.06720
#
# Velocity S-wave (km/s) = 3.59022 3.81327 3.70343
# Velocity P-wave (km/s) = 7.11458 7.87064 7.50214
#
# Compressibility (1/GPa) = 0.01778543
#
# Stress axis : x y z
#
# Youngs Moduli (GPa) = 48.27178 80.24507 72.62049
#
# Poissons Ratio (x) = 0.36748 0.33958
# Poissons Ratio (y) = 0.22106 0.38676
# Poissons Ratio (z) = 0.22572 0.42737
#
# Static dielectric constant tensor:
#      x y z
#    x 3.111060 0.000000 -0.154280 
#    y 0.000000 3.727380 0.000000 
#    z -0.154280 0.000000 2.940470 
# 
# 
# High freq. dielectric constant tensor:
#      x y z
#    x 1.641030 0.000000 -0.020110 
#    y 0.000000 1.673710 0.000000 
#    z -0.020110 0.000000 1.618800 
# 
# From -- ./inp_files/27130.got.cif
#   From: 2010.06.25/outbox.cif.g09.slc.cpg/sg11_14_cif.got.tgz:27130.got - 2010.06.27 23:14:04.
