data_PCOD8070765
_publ_section_title
;
Structure prediction by ZEFSAII (Michael W. Deem and Ramdas Pophale) SiO2 
 PCOD8070765
Probable space group: P 21/M
;
_chemical_formula_sum "Si O2"
_cell_formula_units_Z 32
_cell_length_a 24.666360
_cell_length_b 8.939431
_cell_length_c 19.738631
_cell_angle_alpha 90.000000
_cell_angle_beta 156.502767
_cell_angle_gamma 90.000000
_cell_volume 1735.335349
_symmetry_space_group_name_H-M "P 21/M"
_symmetry_group_IT_number 11
_symmetry_cell_setting 'monoclinic'
loop_
_space_group_symop_operation_xyz
x,y,z
-x,1/2+y,-z
-x,-y,-z
x,1/2-y,z
loop_
_atom_site_type_symbol
_atom_site_label
_atom_site_fract_x
_atom_site_fract_y
_atom_site_fract_z
Si Si1 0.165250 0.079347 0.744002
Si Si2 0.096393 0.576415 0.019608
Si Si3 0.841414 0.922779 0.040436
Si Si4 0.657626 0.573808 0.442099
Si Si5 0.180987 0.576290 0.264290
Si Si6 0.896267 0.921927 0.475766
Si Si7 0.377472 0.077774 0.097825
Si Si8 0.857060 0.423924 0.564914
O O1 0.116241 0.250000 0.701940
O O2 0.188359 0.052542 0.690504
O O3 0.306535 0.048852 0.944083
O O4 0.051862 0.969028 0.642782
O O5 0.057631 0.750000 0.969075
O O6 0.183105 0.522421 0.054615
O O7 0.185331 0.546447 0.188833
O O8 0.958740 0.481711 0.863529
O O9 0.831532 0.750000 0.008327
O O10 0.725986 0.967339 0.961315
O O11 0.986206 0.959202 0.239738
O O12 0.669304 0.750000 0.457812
O O13 0.692767 0.508635 0.556781
O O14 0.506441 0.528460 0.248662
O O15 0.763934 0.511832 0.510139
O O16 0.191944 0.750000 0.294689
O O17 0.894491 0.750000 0.496398
O O18 0.825299 0.019663 0.452687
O O19 0.422967 0.250000 0.157169
O O20 0.821963 0.250000 0.530010
#
# Coordination Sequence:
#
# PCOD8070765 Si02
#       8
#     4   4   4   4   4   4   4   4
#     4   9  18  35  56  81 115 153 191 228 282 342
#     4  10  20  33  56  87 116 144 185 238 281 323
#     4  10  20  35  59  85 112 148 192 232 277 338
#     4  12  25  39  57  85 115 147 189 237 284 335
#     4  10  20  36  56  81 114 153 188 224 281 341
#     4  10  19  31  55  88 117 145 185 241 284 325
#     4  10  21  40  60  80 112 154 191 227 279 344
#     4  11  21  37  59  84 114 151 190 231 281 340
#
# _framework density 18.440239999999999
#
# number of rings (size 3 to 8) (size 9 to 14) (size 15 to 20)
#    0.000    1.750    2.500    2.625    0.000    3.500 
#    0.000    1.250    0.000    0.000    0.000    0.000 
#    0.000    0.000    0.000    0.000    0.000    0.000 
#
# Total GULP energy -396916.922236 kJ/mol
# GULP energy per Si atom -12403.653820 kJ/mol
# Density = 1.839827 g / cm^3
# Si number density = 18.440240 Si / 1000 Ang^3
#
#
#
# Elastic Constant Matrix: (Units=GPa)
#
#
# Indices 1 2 3 4 5 6 
#
# 1 78.3783 49.6351 37.9666 0.0000 -21.4970 0.0000
# 2 49.6351 111.1418 56.6146 0.0000 -10.5314 0.0000
# 3 37.9666 56.6146 99.0478 0.0000 -13.7000 0.0000
# 4 0.0000 0.0000 0.0000 25.9531 0.0000 -1.3767
# 5 -21.4970 -10.5314 -13.7000 0.0000 28.1143 0.0000
# 6 0.0000 0.0000 0.0000 -1.3767 0.0000 34.9831
#
#
#
# Elastic Compliance Matrix: (Units=1/GPa)
#
#
# Indices 1 2 3 4 5 6 
#
# 1 0.022235 -0.007438 -0.002472 0.000000 0.013011 0.000000
# 2 -0.007438 0.015226 -0.006273 0.000000 -0.003040 0.000000
# 3 -0.002472 -0.006273 0.015058 0.000000 0.003098 0.000000
# 4 0.000000 0.000000 0.000000 0.038612 0.000000 0.001520
# 5 0.013011 -0.003040 0.003098 0.000000 0.045888 0.000000
# 6 0.000000 0.000000 0.000000 0.001520 0.000000 0.028645
#
#
# Mechanical properties :
#
#
# Convention : Reuss Voigt Hill
#
# Bulk Modulus (GPa) = 49.61879 64.11117 56.86498
# Shear Modulus (GPa) = 24.42050 27.43354 25.92702
#
# Velocity S-wave (km/s) = 3.64305 3.86126 3.75374
# Velocity P-wave (km/s) = 6.68297 7.39740 7.04924
#
# Compressibility (1/GPa) = 0.02015366
#
# Stress axis : x y z
#
# Youngs Moduli (GPa) = 44.97482 65.67555 66.41190
#
# Poissons Ratio (x) = 0.48848 0.16417
# Poissons Ratio (y) = 0.33451 0.41658
# Poissons Ratio (z) = 0.11118 0.41196
#
# Static dielectric constant tensor:
#      x y z
#    x 3.498640 0.000000 -0.291540 
#    y 0.000000 3.453680 0.000000 
#    z -0.291540 0.000000 3.357600 
# 
# 
# High freq. dielectric constant tensor:
#      x y z
#    x 1.717040 0.000000 -0.024420 
#    y 0.000000 1.723430 0.000000 
#    z -0.024420 0.000000 1.695810 
# 
# From -- ./inp_files/67288.got.cif
#   From: 2010.06.25/outbox.cif.g09.slc.cpg/sg11_34_cif.got.tgz:67288.got - 2010.06.27 23:14:04.
