data_PCOD8070138
_publ_section_title
;
Structure prediction by ZEFSAII (Michael W. Deem and Ramdas Pophale) SiO2 
 PCOD8070138
Probable space group: P 21/M
;
_chemical_formula_sum "Si O2"
_cell_formula_units_Z 32
_cell_length_a 12.069435
_cell_length_b 8.969407
_cell_length_c 15.841603
_cell_angle_alpha 90.000000
_cell_angle_beta 80.264575
_cell_angle_gamma 90.000000
_cell_volume 1690.246705
_symmetry_space_group_name_H-M "P 21/M"
_symmetry_group_IT_number 11
_symmetry_cell_setting 'monoclinic'
loop_
_space_group_symop_operation_xyz
x,y,z
-x,1/2+y,-z
-x,-y,-z
x,1/2-y,z
loop_
_atom_site_type_symbol
_atom_site_label
_atom_site_fract_x
_atom_site_fract_y
_atom_site_fract_z
Si Si1 0.541966 0.082746 0.260818
Si Si2 0.232946 0.074903 0.785856
Si Si3 0.596507 0.088659 0.446403
Si Si4 0.699320 0.427003 0.705508
Si Si5 0.035039 0.576718 0.909674
Si Si6 0.912096 0.923919 0.355966
Si Si7 0.808384 0.075205 0.513879
Si Si8 0.891161 0.922928 0.767712
O O1 0.529969 0.250000 0.223276
O O2 0.582464 0.097837 0.350069
O O3 0.643903 0.990313 0.205893
O O4 0.424324 0.996709 0.271387
O O5 0.236240 0.250000 0.802783
O O6 0.192873 0.042422 0.694251
O O7 0.147219 0.999870 0.861378
O O8 0.590156 0.250000 0.490603
O O9 0.714925 0.023000 0.458150
O O10 0.500000 0.000000 0.500000
O O11 0.687008 0.250000 0.712324
O O12 0.765479 0.476162 0.611389
O O13 0.772500 0.490986 0.773331
O O14 0.060767 0.750000 0.921134
O O15 0.932538 0.554265 0.857836
O O16 0.000000 0.500000 0.000000
O O17 0.939911 0.750000 0.354391
O O18 0.905699 0.979880 0.454960
O O19 0.020856 0.008008 0.308323
O O20 0.838718 0.250000 0.508935
O O21 0.874513 0.750000 0.747904
#
# Coordination Sequence:
#
# PCOD8070138 Si02
#       8
#     4   4   4   4   4   4   4   4
#     4  11  21  33  52  77 109 149 190 232 280 328
#     4  10  20  34  55  85 117 145 180 227 276 325
#     4  10  19  30  46  69 101 141 189 241 284 320
#     4  11  23  37  53  75 108 151 196 236 275 324
#     4  10  21  39  66  95 118 140 170 214 269 330
#     4  10  20  33  53  78 105 142 188 238 285 325
#     4  10  20  33  48  71 104 145 192 240 285 325
#     4  10  22  40  59  80 110 145 181 222 272 331
#
# _framework density 18.932147000000001
#
# number of rings (size 3 to 8) (size 9 to 14) (size 15 to 20)
#    0.000    1.750    2.500    2.250    0.000    5.000 
#    0.000    0.000    0.000    0.750    0.000    0.000 
#    0.000    0.000    0.000    0.000    0.000    0.000 
#
# Total GULP energy -396541.770091 kJ/mol
# GULP energy per Si atom -12391.930315 kJ/mol
# Density = 1.888906 g / cm^3
# Si number density = 18.932147 Si / 1000 Ang^3
#
#
#
# Elastic Constant Matrix: (Units=GPa)
#
#
# Indices 1 2 3 4 5 6 
#
# 1 82.4393 60.7231 50.0987 0.0000 10.3044 0.0000
# 2 60.7231 120.8029 54.1328 0.0000 -6.2361 0.0000
# 3 50.0987 54.1328 84.8829 0.0000 -14.4328 0.0000
# 4 0.0000 0.0000 0.0000 28.6795 0.0000 -4.4845
# 5 10.3044 -6.2361 -14.4328 0.0000 19.9315 0.0000
# 6 0.0000 0.0000 0.0000 -4.4845 0.0000 36.7284
#
#
#
# Elastic Compliance Matrix: (Units=1/GPa)
#
#
# Indices 1 2 3 4 5 6 
#
# 1 0.040044 -0.011940 -0.023008 0.000000 -0.041099 0.000000
# 2 -0.011940 0.015219 -0.000911 0.000000 0.010275 0.000000
# 3 -0.023008 -0.000911 0.031835 0.000000 0.034662 0.000000
# 4 0.000000 0.000000 0.000000 0.035547 0.000000 0.004340
# 5 -0.041099 0.010275 0.034662 0.000000 0.099734 0.000000
# 6 0.000000 0.000000 0.000000 0.004340 0.000000 0.027757
#
#
# Mechanical properties :
#
#
# Convention : Reuss Voigt Hill
#
# Bulk Modulus (GPa) = 65.02193 68.67048 66.84620
# Shear Modulus (GPa) = 15.29143 25.27924 20.28533
#
# Velocity S-wave (km/s) = 2.84508 3.65808 3.27689
# Velocity P-wave (km/s) = 6.72398 7.36157 7.04999
#
# Compressibility (1/GPa) = 0.01537943
#
# Stress axis : x y z
#
# Youngs Moduli (GPa) = 24.97239 65.70918 31.41194
#
# Poissons Ratio (x) = 0.78459 0.72272
# Poissons Ratio (y) = 0.29818 0.02862
# Poissons Ratio (z) = 0.57456 0.05986
#
# Static dielectric constant tensor:
#      x y z
#    x 3.595720 0.000000 0.083830 
#    y 0.000000 3.711390 0.000000 
#    z 0.083830 0.000000 3.214720 
# 
# 
# High freq. dielectric constant tensor:
#      x y z
#    x 1.742960 0.000000 -0.000010 
#    y 0.000000 1.749770 0.000000 
#    z -0.000010 0.000000 1.701030 
# 
# From -- ./inp_files/49293.got.cif
#   From: 2010.06.25/outbox.cif.g09.slc.cpg/sg11_25_cif.got.tgz:49293.got - 2010.06.27 23:14:04.
