data_PCOD8070719
_publ_section_title
;
Structure prediction by ZEFSAII (Michael W. Deem and Ramdas Pophale) SiO2 
 PCOD8070719
Probable space group: P 21/M
;
_chemical_formula_sum "Si O2"
_cell_formula_units_Z 32
_cell_length_a 26.738190
_cell_length_b 8.820167
_cell_length_c 20.765652
_cell_angle_alpha 90.000000
_cell_angle_beta 19.823971
_cell_angle_gamma 90.000000
_cell_volume 1660.819952
_symmetry_space_group_name_H-M "P 21/M"
_symmetry_group_IT_number 11
_symmetry_cell_setting 'monoclinic'
loop_
_space_group_symop_operation_xyz
x,y,z
-x,1/2+y,-z
-x,-y,-z
x,1/2-y,z
loop_
_atom_site_type_symbol
_atom_site_label
_atom_site_fract_x
_atom_site_fract_y
_atom_site_fract_z
Si Si1 0.170659 0.072667 0.621155
Si Si2 0.268347 0.424274 0.296669
Si Si3 0.065203 0.571136 0.984946
Si Si4 0.956366 0.428744 0.349955
Si Si5 0.520796 0.924099 0.068456
Si Si6 0.279236 0.070173 0.930540
Si Si7 0.475427 0.926989 0.269076
Si Si8 0.345061 0.069553 0.706446
O O1 0.176645 0.250000 0.600349
O O2 0.325376 0.017753 0.462860
O O3 0.143711 0.986996 0.587248
O O4 0.042288 0.029581 0.826203
O O5 0.229074 0.250000 0.354040
O O6 0.394717 0.467175 0.194543
O O7 0.119228 0.518133 0.491748
O O8 0.325502 0.458269 0.154992
O O9 0.084005 0.750000 0.953336
O O10 0.223392 0.496106 0.805574
O O11 0.000000 0.500000 0.000000
O O12 0.959299 0.250000 0.343342
O O13 0.121650 0.495429 0.144798
O O14 0.472430 0.750000 0.114433
O O15 0.544203 0.956320 0.115273
O O16 0.276507 0.250000 0.937491
O O17 0.406963 0.007681 0.822370
O O18 0.308100 0.014476 0.823284
O O19 0.443105 0.750000 0.319512
O O20 0.349531 0.250000 0.695214
O O21 0.500000 0.000000 0.500000
#
# Coordination Sequence:
#
# PCOD8070719 Si02
#       8
#     4   4   4   4   4   4   4   4
#     4  11  23  38  58  88 118 146 189 245 293 335
#     4  10  19  31  51  81 116 148 189 244 291 339
#     4  11  25  43  63  90 122 156 195 244 297 351
#     4  11  20  36  59  83 111 153 198 234 283 346
#     4   9  18  32  52  80 113 151 191 235 292 347
#     4   9  21  39  60  84 113 151 195 237 282 345
#     4  10  20  37  60  85 113 151 195 238 287 348
#     4  11  23  42  63  88 120 159 200 240 293 353
#
# _framework density 19.267593000000002
#
# number of rings (size 3 to 8) (size 9 to 14) (size 15 to 20)
#    0.000    1.750    2.500    1.875    1.750    2.000 
#    0.000    2.500    0.000    0.000    0.000    0.000 
#    0.000    0.000    0.000    0.000    0.000    0.000 
#
# Total GULP energy -396892.698493 kJ/mol
# GULP energy per Si atom -12402.896828 kJ/mol
# Density = 1.922374 g / cm^3
# Si number density = 19.267593 Si / 1000 Ang^3
#
#
#
# Elastic Constant Matrix: (Units=GPa)
#
#
# Indices 1 2 3 4 5 6 
#
# 1 90.0722 30.6232 48.6674 0.0000 -13.1030 0.0000
# 2 30.6232 71.3002 49.5423 0.0000 3.1176 0.0000
# 3 48.6674 49.5423 160.6350 0.0000 -6.9182 0.0000
# 4 0.0000 0.0000 0.0000 33.6865 0.0000 2.8210
# 5 -13.1030 3.1176 -6.9182 0.0000 31.8548 0.0000
# 6 0.0000 0.0000 0.0000 2.8210 0.0000 19.5708
#
#
#
# Elastic Compliance Matrix: (Units=1/GPa)
#
#
# Indices 1 2 3 4 5 6 
#
# 1 0.015158 -0.004795 -0.002852 0.000000 0.006085 0.000000
# 2 -0.004795 0.019650 -0.004821 0.000000 -0.004943 0.000000
# 3 -0.002852 -0.004821 0.008626 0.000000 0.001172 0.000000
# 4 0.000000 0.000000 0.000000 0.030048 0.000000 -0.004331
# 5 0.006085 -0.004943 0.001172 0.000000 0.034634 0.000000
# 6 0.000000 0.000000 0.000000 -0.004331 0.000000 0.051721
#
#
# Mechanical properties :
#
#
# Convention : Reuss Voigt Hill
#
# Bulk Modulus (GPa) = 54.05210 64.40813 59.23011
# Shear Modulus (GPa) = 26.18628 29.90071 28.04350
#
# Velocity S-wave (km/s) = 3.69058 3.94365 3.81921
# Velocity P-wave (km/s) = 6.80255 7.36459 7.08915
#
# Compressibility (1/GPa) = 0.01850067
#
# Stress axis : x y z
#
# Youngs Moduli (GPa) = 65.96975 50.88963 115.92271
#
# Poissons Ratio (x) = 0.24403 0.33056
# Poissons Ratio (y) = 0.31634 0.55881
# Poissons Ratio (z) = 0.18812 0.24532
#
# Static dielectric constant tensor:
#      x y z
#    x 3.515660 0.000000 0.148660 
#    y 0.000000 3.447090 0.000000 
#    z 0.148660 0.000000 3.816960 
# 
# 
# High freq. dielectric constant tensor:
#      x y z
#    x 1.737900 0.000000 0.011680 
#    y 0.000000 1.743560 0.000000 
#    z 0.011680 0.000000 1.764920 
# 
# From -- ./inp_files/66922.got.cif
#   From: 2010.06.25/outbox.cif.g09.slc.cpg/sg11_34_cif.got.tgz:66922.got - 2010.06.27 23:14:04.
