data_PCOD8070653
_publ_section_title
;
Structure prediction by ZEFSAII (Michael W. Deem and Ramdas Pophale) SiO2 
 PCOD8070653
Probable space group: P 21/M
;
_chemical_formula_sum "Si O2"
_cell_formula_units_Z 32
_cell_length_a 23.247283
_cell_length_b 8.610017
_cell_length_c 21.152672
_cell_angle_alpha 90.000000
_cell_angle_beta 155.820176
_cell_angle_gamma 90.000000
_cell_volume 1734.216527
_symmetry_space_group_name_H-M "P 21/M"
_symmetry_group_IT_number 11
_symmetry_cell_setting 'monoclinic'
loop_
_space_group_symop_operation_xyz
x,y,z
-x,1/2+y,-z
-x,-y,-z
x,1/2-y,z
loop_
_atom_site_type_symbol
_atom_site_label
_atom_site_fract_x
_atom_site_fract_y
_atom_site_fract_z
Si Si1 0.827638 0.067453 0.201194
Si Si2 0.907239 0.568503 0.462190
Si Si3 0.460979 0.567433 0.321552
Si Si4 0.255767 0.433574 0.217461
Si Si5 0.738865 0.066246 0.638947
Si Si6 0.232105 0.931658 0.995341
Si Si7 0.655370 0.433547 0.149255
Si Si8 0.033060 0.565236 0.905798
O O1 0.800488 0.250000 0.173677
O O2 0.781678 0.991166 0.088023
O O3 0.729205 0.000677 0.159046
O O4 0.995564 0.034457 0.378629
O O5 0.882976 0.750000 0.428256
O O6 0.753710 0.487010 0.307365
O O7 0.000000 0.500000 0.500000
O O8 0.460489 0.750000 0.336187
O O9 0.383635 0.480352 0.300907
O O10 0.615961 0.498943 0.470936
O O11 0.384447 0.532898 0.178036
O O12 0.244733 0.250000 0.212458
O O13 0.285002 0.504287 0.314891
O O14 0.109321 0.500354 0.044628
O O15 0.739941 0.250000 0.640072
O O16 0.878430 0.001383 0.747169
O O17 0.206709 0.750000 0.962495
O O18 0.113698 0.996262 0.924349
O O19 0.645734 0.250000 0.139830
O O20 0.500000 0.500000 0.000000
O O21 0.032408 0.750000 0.909703
#
# Coordination Sequence:
#
# PCOD8070653 Si02
#       8
#     4   4   4   4   4   4   4   4
#     4   8  15  30  53  78  98 128 171 211 245 291
#     4   9  16  28  49  75 104 133 167 204 243 289
#     4  10  20  35  54  76 101 131 167 209 253 301
#     4  11  21  35  54  76 102 131 165 205 252 309
#     4  12  23  35  51  73 102 133 166 208 256 305
#     4   8  16  33  56  76  96 125 169 213 248 293
#     4  10  19  31  50  76 109 139 169 207 252 297
#     4  10  20  35  54  76 100 128 164 209 255 301
#
# _framework density 18.452137
#
# number of rings (size 3 to 8) (size 9 to 14) (size 15 to 20)
#    0.000    2.250    0.000    6.000    0.000    0.000 
#    0.000    1.250    0.000   34.500    0.000    0.000 
#    0.000    0.000    0.000    0.000    0.000    0.000 
#
# Total GULP energy -396652.730383 kJ/mol
# GULP energy per Si atom -12395.397824 kJ/mol
# Density = 1.841014 g / cm^3
# Si number density = 18.452137 Si / 1000 Ang^3
#
#
#
# Elastic Constant Matrix: (Units=GPa)
#
#
# Indices 1 2 3 4 5 6 
#
# 1 64.1216 27.7191 62.5129 0.0000 -12.8263 0.0000
# 2 27.7191 122.2136 48.6639 0.0000 5.5819 0.0000
# 3 62.5129 48.6639 175.0876 0.0000 5.9918 0.0000
# 4 0.0000 0.0000 0.0000 34.0163 0.0000 6.1836
# 5 -12.8263 5.5819 5.9918 0.0000 32.2089 0.0000
# 6 0.0000 0.0000 0.0000 6.1836 0.0000 17.3651
#
#
#
# Elastic Compliance Matrix: (Units=1/GPa)
#
#
# Indices 1 2 3 4 5 6 
#
# 1 0.029910 -0.003365 -0.010236 0.000000 0.014398 0.000000
# 2 -0.003365 0.009620 -0.001378 0.000000 -0.002751 0.000000
# 3 -0.010236 -0.001378 0.009944 0.000000 -0.005687 0.000000
# 4 0.000000 0.000000 0.000000 0.031432 0.000000 -0.011193
# 5 0.014398 -0.002751 -0.005687 0.000000 0.038316 0.000000
# 6 0.000000 0.000000 0.000000 -0.011193 0.000000 0.061573
#
#
# Mechanical properties :
#
#
# Convention : Reuss Voigt Hill
#
# Bulk Modulus (GPa) = 51.24505 71.02385 61.13445
# Shear Modulus (GPa) = 23.01405 31.55319 27.28362
#
# Velocity S-wave (km/s) = 3.53544 4.13970 3.84945
# Velocity P-wave (km/s) = 6.67068 7.83734 7.27743
#
# Compressibility (1/GPa) = 0.01951408
#
# Stress axis : x y z
#
# Youngs Moduli (GPa) = 33.43392 103.94914 100.56516
#
# Poissons Ratio (x) = 0.34984 1.02941
# Poissons Ratio (y) = 0.11252 0.13859
# Poissons Ratio (z) = 0.34224 0.14325
#
# Static dielectric constant tensor:
#      x y z
#    x 3.448040 0.000000 -0.169360 
#    y 0.000000 3.206270 0.000000 
#    z -0.169360 0.000000 3.871330 
# 
# 
# High freq. dielectric constant tensor:
#      x y z
#    x 1.685060 0.000000 -0.001040 
#    y 0.000000 1.709190 0.000000 
#    z -0.001040 0.000000 1.732990 
# 
# From -- ./inp_files/70340.got.cif
#   From: 2010.06.25/outbox.cif.g09.slc.cpg/sg11_36_cif.got.tgz:70340.got - 2010.06.27 23:14:04.
