data_PCOD8070642
_publ_section_title
;
Structure prediction by ZEFSAII (Michael W. Deem and Ramdas Pophale) SiO2 
 PCOD8070642
Probable space group: P 21/M
;
_chemical_formula_sum "Si O2"
_cell_formula_units_Z 20
_cell_length_a 9.153576
_cell_length_b 9.256902
_cell_length_c 22.702814
_cell_angle_alpha 90.000000
_cell_angle_beta 145.651068
_cell_angle_gamma 90.000000
_cell_volume 1085.408861
_symmetry_space_group_name_H-M "P 21/M"
_symmetry_group_IT_number 11
_symmetry_cell_setting 'monoclinic'
loop_
_space_group_symop_operation_xyz
x,y,z
-x,1/2+y,-z
-x,-y,-z
x,1/2-y,z
loop_
_atom_site_type_symbol
_atom_site_label
_atom_site_fract_x
_atom_site_fract_y
_atom_site_fract_z
Si Si1 0.371267 0.084211 0.009826
Si Si2 0.414670 0.917803 0.791923
Si Si3 0.000617 0.911394 0.410830
Si Si4 0.787039 0.420442 0.830005
Si Si5 0.625771 0.909544 0.397357
O O1 0.355668 0.250000 0.985738
O O2 0.081544 0.026422 0.924786
O O3 0.543617 0.062165 0.124972
O O4 0.500000 0.000000 0.000000
O O5 0.403136 0.750000 0.769762
O O6 0.141267 0.992822 0.685799
O O7 0.652891 0.991624 0.837630
O O8 0.048059 0.750000 0.402094
O O9 0.825262 0.907131 0.410001
O O10 0.278848 0.980890 0.520265
O O11 0.760110 0.250000 0.835328
O O12 0.651114 0.456702 0.721872
O O13 0.608282 0.750000 0.419784
#
# Coordination Sequence:
#
# PCOD8070642 Si02
#       5
#     4   4   4   4   4
#     4  10  22  37  52  72  99 131 166 204 247 294
#     4  10  19  31  50  76 102 129 164 203 242 288
#     4   9  16  26  43  69 100 130 159 195 241 289
#     4   9  18  33  52  75 101 129 163 202 245 291
#     4   8  14  25  43  68  98 127 155 194 242 288
#
# _framework density 18.426234999999998
#
# number of rings (size 3 to 8) (size 9 to 14) (size 15 to 20)
#    0.000    2.800    0.000    3.000    0.000    7.200 
#    0.000    0.000    0.000    1.200    0.000    0.000 
#    0.000    0.000    0.000    0.000    0.000    0.000 
#
# Total GULP energy -247959.030716 kJ/mol
# GULP energy per Si atom -12397.951536 kJ/mol
# Density = 1.838430 g / cm^3
# Si number density = 18.426235 Si / 1000 Ang^3
#
#
#
# Elastic Constant Matrix: (Units=GPa)
#
#
# Indices 1 2 3 4 5 6 
#
# 1 43.3130 35.6101 21.8918 0.0000 -12.5633 0.0000
# 2 35.6101 109.7031 56.0925 0.0000 -10.5175 0.0000
# 3 21.8918 56.0925 108.8385 0.0000 -9.5876 0.0000
# 4 0.0000 0.0000 0.0000 32.1616 0.0000 -1.6204
# 5 -12.5633 -10.5175 -9.5876 0.0000 8.0395 0.0000
# 6 0.0000 0.0000 0.0000 -1.6204 0.0000 23.4926
#
#
#
# Elastic Compliance Matrix: (Units=1/GPa)
#
#
# Indices 1 2 3 4 5 6 
#
# 1 0.050487 -0.010619 0.001167 0.000000 0.066395 0.000000
# 2 -0.010619 0.015310 -0.006092 0.000000 -0.003831 0.000000
# 3 0.001167 -0.006092 0.012907 0.000000 0.009246 0.000000
# 4 0.000000 0.000000 0.000000 0.031201 0.000000 0.002152
# 5 0.066395 -0.003831 0.009246 0.000000 0.234156 0.000000
# 6 0.000000 0.000000 0.000000 0.002152 0.000000 0.042715
#
#
# Mechanical properties :
#
#
# Convention : Reuss Voigt Hill
#
# Bulk Modulus (GPa) = 21.00159 54.33815 37.66987
# Shear Modulus (GPa) = 11.52768 22.62275 17.07522
#
# Velocity S-wave (km/s) = 2.50394 3.50772 3.04744
# Velocity P-wave (km/s) = 4.44770 6.77931 5.73328
#
# Compressibility (1/GPa) = 0.04761545
#
# Stress axis : x y z
#
# Youngs Moduli (GPa) = 19.80697 65.31562 77.47501
#
# Poissons Ratio (x) = 0.69362 -0.09039
# Poissons Ratio (y) = 0.21034 0.47197
# Poissons Ratio (z) = -0.02311 0.39790
#
# Static dielectric constant tensor:
#      x y z
#    x 2.799560 0.000000 0.100210 
#    y 0.000000 3.566600 0.000000 
#    z 0.100210 0.000000 3.766130 
# 
# 
# High freq. dielectric constant tensor:
#      x y z
#    x 1.653000 0.000000 0.002990 
#    y 0.000000 1.720180 0.000000 
#    z 0.002990 0.000000 1.735550 
# 
# From -- ./inp_files/20181.got.cif
#   From: 2010.06.25/outbox.cif.g09.slc.cpg/sg11_11_cif.got.tgz:20181.got - 2010.06.27 23:14:04.
