data_PCOD8070930
_publ_section_title
;
Structure prediction by ZEFSAII (Michael W. Deem and Ramdas Pophale) SiO2 
 PCOD8070930
Probable space group: P 21/M
;
_chemical_formula_sum "Si O2"
_cell_formula_units_Z 28
_cell_length_a 6.512924
_cell_length_b 13.958438
_cell_length_c 19.093008
_cell_angle_alpha 90.000000
_cell_angle_beta 54.827874
_cell_angle_gamma 90.000000
_cell_volume 1418.845888
_symmetry_space_group_name_H-M "P 21/M"
_symmetry_group_IT_number 11
_symmetry_cell_setting 'monoclinic'
loop_
_space_group_symop_operation_xyz
x,y,z
-x,1/2+y,-z
-x,-y,-z
x,1/2-y,z
loop_
_atom_site_type_symbol
_atom_site_label
_atom_site_fract_x
_atom_site_fract_y
_atom_site_fract_z
Si Si1 0.688530 0.588033 0.969440
Si Si2 0.943171 0.859553 0.488630
Si Si3 0.828877 0.641103 0.091109
Si Si4 0.784685 0.033687 0.444705
Si Si5 0.626123 0.360609 0.346409
Si Si6 0.344446 0.646839 0.929743
Si Si7 0.749712 0.038606 0.180137
O O1 0.579139 0.663309 0.934926
O O2 0.968558 0.571289 0.888926
O O3 0.500000 0.500000 0.000000
O O4 0.667033 0.629345 0.052108
O O5 0.003042 0.750000 0.452633
O O6 0.664215 0.865170 0.575041
O O7 0.148544 0.892398 0.505727
O O8 0.953380 0.936164 0.421528
O O9 0.825532 0.750000 0.118414
O O10 0.725214 0.576663 0.175888
O O11 0.108909 0.601306 0.018580
O O12 0.817768 0.092128 0.365614
O O13 0.500000 0.000000 0.500000
O O14 0.706730 0.250000 0.317875
O O15 0.648145 0.425726 0.273581
O O16 0.253021 0.750000 0.919220
O O17 0.421418 0.582805 0.848235
#
# Coordination Sequence:
#
# PCOD8070930 Si02
#       7
#     4   4   4   4   4   4   4
#     4  11  18  34  54  75  97 138 186 238 282 320
#     4   9  18  35  60  88 116 147 183 218 263 321
#     4  10  20  34  51  70  96 136 185 233 277 323
#     4   9  18  35  59  85 112 148 183 218 263 316
#     4  10  21  35  53  83 119 149 178 221 278 333
#     4  10  19  32  51  73  99 132 179 232 279 326
#     4  11  21  34  51  76 112 143 182 224 276 331
#
# _framework density 19.734349999999999
#
# number of rings (size 3 to 8) (size 9 to 14) (size 15 to 20)
#    0.000    2.000    2.857    2.143    0.000    3.429 
#    0.000    0.714    0.000    4.286    0.000    0.000 
#    0.000    0.000    0.000    0.000    0.000    0.000 
#
# Total GULP energy -346878.792818 kJ/mol
# GULP energy per Si atom -12388.528315 kJ/mol
# Density = 1.968943 g / cm^3
# Si number density = 19.734350 Si / 1000 Ang^3
#
#
#
# Elastic Constant Matrix: (Units=GPa)
#
#
# Indices 1 2 3 4 5 6 
#
# 1 108.1822 40.0103 20.3496 0.0000 27.0620 0.0000
# 2 40.0103 128.2346 36.8570 0.0000 22.9168 0.0000
# 3 20.3496 36.8570 52.0218 0.0000 22.3062 0.0000
# 4 0.0000 0.0000 0.0000 24.9060 0.0000 5.5547
# 5 27.0620 22.9168 22.3062 0.0000 27.7489 0.0000
# 6 0.0000 0.0000 0.0000 5.5547 0.0000 29.3327
#
#
#
# Elastic Compliance Matrix: (Units=1/GPa)
#
#
# Indices 1 2 3 4 5 6 
#
# 1 0.012769 -0.002368 0.001806 0.000000 -0.011949 0.000000
# 2 -0.002368 0.010506 -0.005779 0.000000 -0.001722 0.000000
# 3 0.001806 -0.005779 0.032533 0.000000 -0.023141 0.000000
# 4 0.000000 0.000000 0.000000 0.041921 0.000000 -0.007939
# 5 -0.011949 -0.001722 -0.023141 0.000000 0.067715 0.000000
# 6 0.000000 0.000000 0.000000 -0.007939 0.000000 0.035595
#
#
# Mechanical properties :
#
#
# Convention : Reuss Voigt Hill
#
# Bulk Modulus (GPa) = 23.18725 53.65248 38.41987
# Shear Modulus (GPa) = 21.92080 29.14564 25.53322
#
# Velocity S-wave (km/s) = 3.33647 3.84721 3.60091
# Velocity P-wave (km/s) = 5.15926 6.85428 6.06626
#
# Compressibility (1/GPa) = 0.04312715
#
# Stress axis : x y z
#
# Youngs Moduli (GPa) = 78.31664 95.18803 30.73835
#
# Poissons Ratio (x) = 0.22537 -0.05552
# Poissons Ratio (y) = 0.18543 0.17762
# Poissons Ratio (z) = -0.14147 0.55005
#
# Static dielectric constant tensor:
#      x y z
#    x 4.337540 0.000000 0.304050 
#    y 0.000000 4.043410 0.000000 
#    z 0.304050 0.000000 3.133350 
# 
# 
# High freq. dielectric constant tensor:
#      x y z
#    x 1.784990 0.000000 0.017110 
#    y 0.000000 1.792070 0.000000 
#    z 0.017110 0.000000 1.707420 
# 
# From -- ./inp_files/7927.got.cif
#   From: 2010.06.25/outbox.cif.g09.slc.cpg/sg11_4_cif.got.tgz:7927.got - 2010.06.27 23:14:04.
