data_PCOD8070814
_publ_section_title
;
Structure prediction by ZEFSAII (Michael W. Deem and Ramdas Pophale) SiO2 
 PCOD8070814
Probable space group: P 21/M
;
_chemical_formula_sum "Si O2"
_cell_formula_units_Z 32
_cell_length_a 17.762682
_cell_length_b 8.777696
_cell_length_c 19.086587
_cell_angle_alpha 90.000000
_cell_angle_beta 36.237724
_cell_angle_gamma 90.000000
_cell_volume 1759.160176
_symmetry_space_group_name_H-M "P 21/M"
_symmetry_group_IT_number 11
_symmetry_cell_setting 'monoclinic'
loop_
_space_group_symop_operation_xyz
x,y,z
-x,1/2+y,-z
-x,-y,-z
x,1/2-y,z
loop_
_atom_site_type_symbol
_atom_site_label
_atom_site_fract_x
_atom_site_fract_y
_atom_site_fract_z
Si Si1 0.882124 0.931182 0.790523
Si Si2 0.106931 0.929635 0.371537
Si Si3 0.367712 0.571630 0.028697
Si Si4 0.623768 0.921202 0.491033
Si Si5 0.888029 0.429376 0.128771
Si Si6 0.370799 0.421490 0.679830
Si Si7 0.118851 0.571012 0.706341
Si Si8 0.357306 0.074911 0.185851
O O1 0.867153 0.750000 0.800525
O O2 0.000624 0.983097 0.748590
O O3 0.903707 0.994456 0.696511
O O4 0.756183 0.009883 0.920178
O O5 0.089862 0.750000 0.378822
O O6 0.245208 0.970217 0.302387
O O7 0.000000 0.000000 0.500000
O O8 0.350931 0.750000 0.061387
O O9 0.371542 0.465033 0.093789
O O10 0.501502 0.548272 0.885949
O O11 0.618989 0.750000 0.522913
O O12 0.621923 0.927986 0.408978
O O13 0.499936 0.006949 0.614643
O O14 0.753268 0.997584 0.421659
O O15 0.893761 0.250000 0.117335
O O16 0.752022 0.485762 0.201330
O O17 0.905497 0.483410 0.195894
O O18 0.000000 0.500000 0.000000
O O19 0.358704 0.250000 0.716684
O O20 0.139099 0.750000 0.688468
O O21 0.315554 0.250000 0.225305
#
# Coordination Sequence:
#
# PCOD8070814 Si02
#       8
#     4   4   4   4   4   4   4   4
#     4  10  19  32  50  72  98 128 161 195 235 284
#     4  11  21  33  50  72  98 127 159 197 240 285
#     4   9  16  26  43  68  95 122 154 194 236 275
#     4   9  16  26  44  69  94 121 156 198 239 279
#     4  10  19  32  49  71  98 127 161 199 240 286
#     4   9  16  27  44  67  94 123 156 196 240 283
#     4   9  19  33  49  70  98 130 160 194 237 285
#     4   9  16  27  44  67  94 122 155 195 236 278
#
# _framework density 18.190498999999999
#
# number of rings (size 3 to 8) (size 9 to 14) (size 15 to 20)
#    0.000    2.500    0.000    4.875    0.000    6.000 
#    0.000    0.000    0.000    1.500    0.000    5.250 
#    0.000    0.000    0.000    0.000    0.000    0.000 
#
# Total GULP energy -396589.061481 kJ/mol
# GULP energy per Si atom -12393.408171 kJ/mol
# Density = 1.814910 g / cm^3
# Si number density = 18.190499 Si / 1000 Ang^3
#
#
#
# Elastic Constant Matrix: (Units=GPa)
#
#
# Indices 1 2 3 4 5 6 
#
# 1 69.9417 33.7366 54.9104 0.0000 -34.1410 0.0000
# 2 33.7366 87.7453 54.9364 0.0000 -17.3210 0.0000
# 3 54.9104 54.9364 151.3126 0.0000 -40.9420 0.0000
# 4 0.0000 0.0000 0.0000 36.9667 0.0000 -9.5304
# 5 -34.1410 -17.3210 -40.9420 0.0000 33.8471 0.0000
# 6 0.0000 0.0000 0.0000 -9.5304 0.0000 20.8579
#
#
#
# Elastic Compliance Matrix: (Units=1/GPa)
#
#
# Indices 1 2 3 4 5 6 
#
# 1 0.031596 -0.005483 -0.002395 0.000000 0.026167 0.000000
# 2 -0.005483 0.015759 -0.004528 0.000000 -0.002944 0.000000
# 3 -0.002395 -0.004528 0.011656 0.000000 0.009367 0.000000
# 4 0.000000 0.000000 0.000000 0.030664 0.000000 0.014011
# 5 0.026167 -0.002944 0.009367 0.000000 0.065763 0.000000
# 6 0.000000 0.000000 0.000000 0.014011 0.000000 0.054345
#
#
# Mechanical properties :
#
#
# Convention : Reuss Voigt Hill
#
# Bulk Modulus (GPa) = 29.24091 66.24068 47.74080
# Shear Modulus (GPa) = 20.32561 29.36208 24.84385
#
# Velocity S-wave (km/s) = 3.34634 4.02200 3.69963
# Velocity P-wave (km/s) = 5.57139 7.61989 6.67469
#
# Compressibility (1/GPa) = 0.03419866
#
# Stress axis : x y z
#
# Youngs Moduli (GPa) = 31.64970 63.45675 85.78973
#
# Poissons Ratio (x) = 0.34795 0.20545
# Poissons Ratio (y) = 0.17354 0.38847
# Poissons Ratio (z) = 0.07579 0.28734
#
# Static dielectric constant tensor:
#      x y z
#    x 3.147330 0.000000 -0.597200 
#    y 0.000000 3.478400 0.000000 
#    z -0.597200 0.000000 3.700810 
# 
# 
# High freq. dielectric constant tensor:
#      x y z
#    x 1.654110 0.000000 -0.046900 
#    y 0.000000 1.720440 0.000000 
#    z -0.046900 0.000000 1.708260 
# 
# From -- ./inp_files/69737.got.cif
#   From: 2010.06.25/outbox.cif.g09.slc.cpg/sg11_35_cif.got.tgz:69737.got - 2010.06.27 23:14:04.
