data_PCOD8070759
_publ_section_title
;
Structure prediction by ZEFSAII (Michael W. Deem and Ramdas Pophale) SiO2 
 PCOD8070759
Probable space group: P 21/M
;
_chemical_formula_sum "Si O2"
_cell_formula_units_Z 24
_cell_length_a 13.125055
_cell_length_b 10.911002
_cell_length_c 20.772972
_cell_angle_alpha 90.000000
_cell_angle_beta 156.169724
_cell_angle_gamma 90.000000
_cell_volume 1201.922983
_symmetry_space_group_name_H-M "P 21/M"
_symmetry_group_IT_number 11
_symmetry_cell_setting 'monoclinic'
loop_
_space_group_symop_operation_xyz
x,y,z
-x,1/2+y,-z
-x,-y,-z
x,1/2-y,z
loop_
_atom_site_type_symbol
_atom_site_label
_atom_site_fract_x
_atom_site_fract_y
_atom_site_fract_z
Si Si1 0.861010 0.032743 0.518762
Si Si2 0.505167 0.386020 0.416015
Si Si3 0.212829 0.884855 0.812906
Si Si4 0.663333 0.526741 0.995324
Si Si5 0.688148 0.613121 0.301993
Si Si6 0.799126 0.112692 0.715845
O O1 0.731635 0.929504 0.400058
O O2 0.016909 0.974543 0.666894
O O3 0.646816 0.113685 0.429101
O O4 0.045348 0.115016 0.581824
O O5 0.375691 0.250000 0.347269
O O6 0.310851 0.500531 0.304931
O O7 0.706351 0.403856 0.589289
O O8 0.098415 0.750000 0.742292
O O9 0.242194 0.915675 0.905147
O O10 0.483432 0.887180 0.934098
O O11 0.898539 0.605435 0.106565
O O12 0.514060 0.475785 0.847647
O O13 0.579391 0.750000 0.240365
O O14 0.722954 0.250000 0.697377
#
# Coordination Sequence:
#
# PCOD8070759 Si02
#       6
#     4   4   4   4   4   4
#     4  10  20  37  56  83 114 152 194 231 287 342
#     4  10  21  38  60  86 115 153 195 239 289 341
#     4  10  19  31  54  82 111 147 190 237 284 340
#     4  10  20  35  52  83 114 149 187 233 295 341
#     4  10  21  35  56  84 119 154 189 237 289 345
#     4  10  21  38  59  86 118 152 192 241 290 340
#
# _framework density 19.968001000000001
#
# number of rings (size 3 to 8) (size 9 to 14) (size 15 to 20)
#    0.000    2.000    1.667    2.000    0.000    2.667 
#    0.000    3.333    0.000    0.000    0.000    0.000 
#    0.000    0.000    0.000    0.000    0.000    0.000 
#
# Total GULP energy -297543.532195 kJ/mol
# GULP energy per Si atom -12397.647175 kJ/mol
# Density = 1.992255 g / cm^3
# Si number density = 19.968001 Si / 1000 Ang^3
#
#
#
# Elastic Constant Matrix: (Units=GPa)
#
#
# Indices 1 2 3 4 5 6 
#
# 1 72.0455 33.2941 24.8486 0.0000 2.7818 0.0000
# 2 33.2941 123.0377 16.9016 0.0000 10.5704 0.0000
# 3 24.8486 16.9016 68.3386 0.0000 1.7409 0.0000
# 4 0.0000 0.0000 0.0000 15.0787 0.0000 2.0859
# 5 2.7818 10.5704 1.7409 0.0000 23.1855 0.0000
# 6 0.0000 0.0000 0.0000 2.0859 0.0000 14.5494
#
#
#
# Elastic Compliance Matrix: (Units=1/GPa)
#
#
# Indices 1 2 3 4 5 6 
#
# 1 0.017603 -0.004032 -0.005407 0.000000 0.000132 0.000000
# 2 -0.004032 0.009664 -0.000826 0.000000 -0.003860 0.000000
# 3 -0.005407 -0.000826 0.016809 0.000000 -0.000237 0.000000
# 4 0.000000 0.000000 0.000000 0.067661 0.000000 -0.009700
# 5 0.000132 -0.003860 -0.000237 0.000000 0.044892 0.000000
# 6 0.000000 0.000000 0.000000 -0.009700 0.000000 0.070122
#
#
# Mechanical properties :
#
#
# Convention : Reuss Voigt Hill
#
# Bulk Modulus (GPa) = 42.46810 45.94557 44.20684
# Shear Modulus (GPa) = 19.59794 23.12123 21.35958
#
# Velocity S-wave (km/s) = 3.13624 3.40651 3.27416
# Velocity P-wave (km/s) = 5.86761 6.20741 6.03990
#
# Compressibility (1/GPa) = 0.02354709
#
# Stress axis : x y z
#
# Youngs Moduli (GPa) = 56.80806 103.48005 59.49112
#
# Poissons Ratio (x) = 0.41724 0.32166
# Poissons Ratio (y) = 0.22905 0.04912
# Poissons Ratio (z) = 0.30715 0.08544
#
# Static dielectric constant tensor:
#      x y z
#    x 3.479260 0.000000 0.026210 
#    y 0.000000 3.570360 0.000000 
#    z 0.026210 0.000000 3.450850 
# 
# 
# High freq. dielectric constant tensor:
#      x y z
#    x 1.759750 0.000000 -0.001030 
#    y 0.000000 1.782390 0.000000 
#    z -0.001030 0.000000 1.762970 
# 
# From -- ./inp_files/16956.got.cif
#   From: 2010.06.25/outbox.cif.g09.slc.cpg/sg11_9_cif.got.tgz:16956.got - 2010.06.27 23:14:04.
