data_PCOD8070001
_publ_section_title
;
Structure prediction by ZEFSAII (Michael W. Deem and Ramdas Pophale) SiO2 
 PCOD8070001
Probable space group: P 21/M
;
_chemical_formula_sum "Si O2"
_cell_formula_units_Z 32
_cell_length_a 16.222026
_cell_length_b 9.159860
_cell_length_c 21.627574
_cell_angle_alpha 90.000000
_cell_angle_beta 141.205700
_cell_angle_gamma 90.000000
_cell_volume 2013.450819
_symmetry_space_group_name_H-M "P 21/M"
_symmetry_group_IT_number 11
_symmetry_cell_setting 'monoclinic'
loop_
_space_group_symop_operation_xyz
x,y,z
-x,1/2+y,-z
-x,-y,-z
x,1/2-y,z
loop_
_atom_site_type_symbol
_atom_site_label
_atom_site_fract_x
_atom_site_fract_y
_atom_site_fract_z
Si Si1 0.758984 0.921632 0.483872
Si Si2 0.139625 0.923477 0.576255
Si Si3 0.513531 0.589938 0.415658
Si Si4 0.313140 0.410224 0.361427
Si Si5 0.198415 0.080183 0.854747
Si Si6 0.927969 0.578554 0.701901
Si Si7 0.557997 0.081665 0.975726
Si Si8 0.287206 0.085046 0.766927
O O1 0.757325 0.750000 0.465521
O O2 0.615984 0.973660 0.425273
O O3 0.870136 0.951651 0.600083
O O4 0.787759 0.021566 0.442320
O O5 0.121553 0.750000 0.563647
O O6 0.226549 0.966312 0.685992
O O7 0.000000 0.000000 0.500000
O O8 0.469980 0.750000 0.368664
O O9 0.378412 0.499463 0.343231
O O10 0.586067 0.599084 0.523290
O O11 0.286239 0.250000 0.318970
O O12 0.175892 0.475877 0.306619
O O13 0.201173 0.250000 0.872902
O O14 0.232413 0.051638 0.803117
O O15 0.056882 0.015846 0.787636
O O16 0.304785 0.997884 0.961021
O O17 0.957767 0.750000 0.726943
O O18 0.585713 0.250000 0.008577
O O19 0.446593 0.070187 0.857314
O O20 0.500000 0.000000 0.000000
O O21 0.246696 0.250000 0.723671
#
# Coordination Sequence:
#
# PCOD8070001 Si02
#       8
#     4   4   4   4   4   4   4   4
#     4   9  18  32  46  60  83 115 150 185 216 251
#     4  12  24  34  46  63  85 115 149 184 219 252
#     4   8  14  25  41  59  79 107 141 175 213 252
#     4   8  14  24  38  58  83 110 140 173 209 251
#     4  10  19  29  44  66  89 113 142 177 216 258
#     4   9  17  28  42  61  87 119 149 176 212 255
#     4   9  17  30  48  66  84 108 138 174 215 259
#     4   9  19  34  48  63  84 111 145 181 216 254
#
# _framework density 15.893112
#
# number of rings (size 3 to 8) (size 9 to 14) (size 15 to 20)
#    0.000    2.750    0.000    4.875    0.000    6.500 
#    0.000    2.500    0.000    0.000    0.000    0.000 
#    0.000    1.000    0.000    3.250    0.000    4.000 
#
# Total GULP energy -396578.095559 kJ/mol
# GULP energy per Si atom -12393.065486 kJ/mol
# Density = 1.585694 g / cm^3
# Si number density = 15.893112 Si / 1000 Ang^3
#
#
#
# Elastic Constant Matrix: (Units=GPa)
#
#
# Indices 1 2 3 4 5 6 
#
# 1 92.0905 50.4473 38.5146 0.0000 22.5604 0.0000
# 2 50.4473 101.0638 47.3027 0.0000 15.6511 0.0000
# 3 38.5146 47.3027 71.8244 0.0000 21.2064 0.0000
# 4 0.0000 0.0000 0.0000 25.1512 0.0000 5.6127
# 5 22.5604 15.6511 21.2064 0.0000 22.5347 0.0000
# 6 0.0000 0.0000 0.0000 5.6127 0.0000 27.6573
#
#
#
# Elastic Compliance Matrix: (Units=1/GPa)
#
#
# Indices 1 2 3 4 5 6 
#
# 1 0.018006 -0.006177 -0.002121 0.000000 -0.011740 0.000000
# 2 -0.006177 0.016459 -0.008278 0.000000 0.002543 0.000000
# 3 -0.002121 -0.008278 0.025185 0.000000 -0.015828 0.000000
# 4 0.000000 0.000000 0.000000 0.041646 0.000000 -0.008451
# 5 -0.011740 0.002543 -0.015828 0.000000 0.069258 0.000000
# 6 0.000000 0.000000 0.000000 -0.008451 0.000000 0.037872
#
#
# Mechanical properties :
#
#
# Convention : Reuss Voigt Hill
#
# Bulk Modulus (GPa) = 37.73877 59.72311 48.73094
# Shear Modulus (GPa) = 19.96724 23.64959 21.80841
#
# Velocity S-wave (km/s) = 3.54834 3.86170 3.70833
# Velocity P-wave (km/s) = 6.37060 7.58572 7.00456
#
# Compressibility (1/GPa) = 0.02649795
#
# Stress axis : x y z
#
# Youngs Moduli (GPa) = 55.53767 60.75768 39.70587
#
# Poissons Ratio (x) = 0.37530 0.08421
# Poissons Ratio (y) = 0.34306 0.32869
# Poissons Ratio (z) = 0.11778 0.50296
#
# Static dielectric constant tensor:
#      x y z
#    x 2.998420 0.000000 0.217410 
#    y 0.000000 3.255090 0.000000 
#    z 0.217410 0.000000 2.587520 
# 
# 
# High freq. dielectric constant tensor:
#      x y z
#    x 1.594440 0.000000 0.030640 
#    y 0.000000 1.617130 0.000000 
#    z 0.030640 0.000000 1.577480 
# 
# From -- ./inp_files/65258.got.cif
#   From: 2010.06.25/outbox.cif.g09.slc.cpg/sg11_33_cif.got.tgz:65258.got - 2010.06.27 23:14:04.
