data_PCOD8070538
_publ_section_title
;
Structure prediction by ZEFSAII (Michael W. Deem and Ramdas Pophale) SiO2 
 PCOD8070538
Probable space group: P 21/M
;
_chemical_formula_sum "Si O2"
_cell_formula_units_Z 32
_cell_length_a 20.178147
_cell_length_b 9.089185
_cell_length_c 12.221830
_cell_angle_alpha 90.000000
_cell_angle_beta 125.100222
_cell_angle_gamma 90.000000
_cell_volume 1833.893306
_symmetry_space_group_name_H-M "P 21/M"
_symmetry_group_IT_number 11
_symmetry_cell_setting 'monoclinic'
loop_
_space_group_symop_operation_xyz
x,y,z
-x,1/2+y,-z
-x,-y,-z
x,1/2-y,z
loop_
_atom_site_type_symbol
_atom_site_label
_atom_site_fract_x
_atom_site_fract_y
_atom_site_fract_z
Si Si1 0.796918 0.923928 0.066192
Si Si2 0.364358 0.923098 0.687882
Si Si3 0.044082 0.080917 0.888951
Si Si4 0.320264 0.075666 0.861406
Si Si5 0.722590 0.076854 0.619202
Si Si6 0.891437 0.919031 0.806781
Si Si7 0.545536 0.923954 0.843052
Si Si8 0.664635 0.924096 0.771559
O O1 0.791914 0.750000 0.053202
O O2 0.890113 0.974720 0.138632
O O3 0.760625 0.973633 0.148681
O O4 0.741426 0.982410 0.914225
O O5 0.366699 0.750000 0.710320
O O6 0.317736 0.964135 0.533819
O O7 0.455430 0.989538 0.767924
O O8 0.316446 0.997628 0.741459
O O9 0.019027 0.250000 0.846129
O O10 0.086413 0.061199 0.046030
O O11 0.964489 0.981556 0.801732
O O12 0.322742 0.250000 0.847065
O O13 0.398662 0.019350 0.003950
O O14 0.729011 0.250000 0.643495
O O15 0.811460 0.009028 0.704950
O O16 0.664719 0.008643 0.656984
O O17 0.877052 0.750000 0.762098
O O18 0.543086 0.750000 0.846667
O O19 0.583781 0.968193 0.762026
O O20 0.669510 0.750000 0.753984
#
# Coordination Sequence:
#
# PCOD8070538 Si02
#       8
#     4   4   4   4   4   4   4   4
#     4   8  14  28  50  75 100 124 154 196 247 294
#     4  10  21  35  48  68 100 136 167 201 249 292
#     4   9  16  29  50  75 102 127 153 192 246 296
#     4   9  17  31  54  77  94 122 167 209 241 286
#     4  11  22  33  46  67 102 139 167 198 240 291
#     4  10  19  31  49  73 100 130 163 197 235 289
#     4   8  16  32  54  74  96 126 161 206 255 297
#     4   9  16  31  52  72  95 128 165 199 243 295
#
# _framework density 17.449214999999999
#
# number of rings (size 3 to 8) (size 9 to 14) (size 15 to 20)
#    0.000    2.750    1.250    2.625    0.000    2.000 
#    0.000    3.750    0.000    0.750    0.000    0.000 
#    0.000    0.000    0.000    0.000    0.000    0.000 
#
# Total GULP energy -396683.893179 kJ/mol
# GULP energy per Si atom -12396.371662 kJ/mol
# Density = 1.740950 g / cm^3
# Si number density = 17.449215 Si / 1000 Ang^3
#
#
#
# Elastic Constant Matrix: (Units=GPa)
#
#
# Indices 1 2 3 4 5 6 
#
# 1 135.3099 35.1329 45.6611 0.0000 -18.0587 0.0000
# 2 35.1329 46.7725 33.5196 0.0000 -11.5863 0.0000
# 3 45.6611 33.5196 63.6714 0.0000 -20.5736 0.0000
# 4 0.0000 0.0000 0.0000 20.5673 0.0000 -1.2530
# 5 -18.0587 -11.5863 -20.5736 0.0000 23.3044 0.0000
# 6 0.0000 0.0000 0.0000 -1.2530 0.0000 25.6765
#
#
#
# Elastic Compliance Matrix: (Units=1/GPa)
#
#
# Indices 1 2 3 4 5 6 
#
# 1 0.010226 -0.003847 -0.004709 0.000000 0.001854 0.000000
# 2 -0.003847 0.035821 -0.015821 0.000000 0.000861 0.000000
# 3 -0.004709 -0.015821 0.033146 0.000000 0.017747 0.000000
# 4 0.000000 0.000000 0.000000 0.048766 0.000000 0.002380
# 5 0.001854 0.000861 0.017747 0.000000 0.060443 0.000000
# 6 0.000000 0.000000 0.000000 0.002380 0.000000 0.039062
#
#
# Mechanical properties :
#
#
# Convention : Reuss Voigt Hill
#
# Bulk Modulus (GPa) = 32.85211 52.70900 42.78055
# Shear Modulus (GPa) = 17.46031 22.67233 20.06632
#
# Velocity S-wave (km/s) = 3.16671 3.60854 3.39482
# Velocity P-wave (km/s) = 5.67793 6.90179 6.31956
#
# Compressibility (1/GPa) = 0.03043945
#
# Stress axis : x y z
#
# Youngs Moduli (GPa) = 97.79138 27.91654 30.16968
#
# Poissons Ratio (x) = 0.10740 0.14206
# Poissons Ratio (y) = 0.37622 0.47730
# Poissons Ratio (z) = 0.46049 0.44166
#
# Static dielectric constant tensor:
#      x y z
#    x 3.705900 0.000000 0.097800 
#    y 0.000000 2.999890 0.000000 
#    z 0.097800 0.000000 3.014790 
# 
# 
# High freq. dielectric constant tensor:
#      x y z
#    x 1.691680 0.000000 0.001930 
#    y 0.000000 1.650290 0.000000 
#    z 0.001930 0.000000 1.642280 
# 
# From -- ./inp_files/42929.got.cif
#   From: 2010.06.25/outbox.cif.g09.slc.cpg/sg11_22_cif.got.tgz:42929.got - 2010.06.27 23:14:04.
