data_PCOD8070508
_publ_section_title
;
Structure prediction by ZEFSAII (Michael W. Deem and Ramdas Pophale) SiO2 
 PCOD8070508
Probable space group: P 21/M
;
_chemical_formula_sum "Si O2"
_cell_formula_units_Z 20
_cell_length_a 10.126144
_cell_length_b 9.024550
_cell_length_c 24.832473
_cell_angle_alpha 90.000000
_cell_angle_beta 145.971064
_cell_angle_gamma 90.000000
_cell_volume 1269.919735
_symmetry_space_group_name_H-M "P 21/M"
_symmetry_group_IT_number 11
_symmetry_cell_setting 'monoclinic'
loop_
_space_group_symop_operation_xyz
x,y,z
-x,1/2+y,-z
-x,-y,-z
x,1/2-y,z
loop_
_atom_site_type_symbol
_atom_site_label
_atom_site_fract_x
_atom_site_fract_y
_atom_site_fract_z
Si Si1 0.192309 0.082448 0.280637
Si Si2 0.088773 0.075542 0.732667
Si Si3 0.973292 0.921923 0.410711
Si Si4 0.673249 0.082432 0.098336
Si Si5 0.637244 0.577019 0.393633
O O1 0.273589 0.250000 0.320872
O O2 0.940085 0.081758 0.163810
O O3 0.384861 0.002556 0.308806
O O4 0.152763 0.994296 0.323888
O O5 0.089056 0.250000 0.742695
O O6 0.106452 0.034690 0.676034
O O7 0.314716 0.002531 0.839738
O O8 0.043197 0.750000 0.438864
O O9 0.756626 0.960640 0.376833
O O10 0.201926 0.016913 0.503449
O O11 0.583439 0.250000 0.077092
O O12 0.500000 0.000000 0.000000
O O13 0.599149 0.750000 0.389074
#
# Coordination Sequence:
#
# PCOD8070508 Si02
#       5
#     4   4   4   4   4
#     4   9  19  32  47  71  97 123 158 197 235 280
#     4   9  17  31  50  71  95 124 157 197 237 277
#     4   9  19  33  48  69  97 129 162 195 234 279
#     4   9  18  31  50  73  96 121 154 194 239 285
#     4  10  19  31  49  70  95 130 164 194 233 279
#
# _framework density 15.749026000000001
#
# number of rings (size 3 to 8) (size 9 to 14) (size 15 to 20)
#    1.200    1.600    0.000    1.800    0.000    3.200 
#    0.000    0.000    0.000    1.200    0.000    0.000 
#    0.000    0.000    0.000    0.000    0.000    0.000 
#
# Total GULP energy -247837.682687 kJ/mol
# GULP energy per Si atom -12391.884134 kJ/mol
# Density = 1.571318 g / cm^3
# Si number density = 15.749026 Si / 1000 Ang^3
#
#
#
# Elastic Constant Matrix: (Units=GPa)
#
#
# Indices 1 2 3 4 5 6 
#
# 1 77.0762 45.8899 49.3265 0.0000 -2.3550 0.0000
# 2 45.8899 111.2577 52.8343 0.0000 0.2322 0.0000
# 3 49.3265 52.8343 91.3423 0.0000 -4.8031 0.0000
# 4 0.0000 0.0000 0.0000 29.7027 0.0000 4.2152
# 5 -2.3550 0.2322 -4.8031 0.0000 12.7940 0.0000
# 6 0.0000 0.0000 0.0000 4.2152 0.0000 24.7145
#
#
#
# Elastic Compliance Matrix: (Units=1/GPa)
#
#
# Indices 1 2 3 4 5 6 
#
# 1 0.021417 -0.004633 -0.008849 0.000000 0.000704 0.000000
# 2 -0.004633 0.013506 -0.005476 0.000000 -0.003154 0.000000
# 3 -0.008849 -0.005476 0.019192 0.000000 0.005676 0.000000
# 4 0.000000 0.000000 0.000000 0.034502 0.000000 -0.005885
# 5 0.000704 -0.003154 0.005676 0.000000 0.080480 0.000000
# 6 0.000000 0.000000 0.000000 -0.005885 0.000000 0.041466
#
#
# Mechanical properties :
#
#
# Convention : Reuss Voigt Hill
#
# Bulk Modulus (GPa) = 61.72980 63.97528 62.85254
# Shear Modulus (GPa) = 19.69444 22.21728 20.95586
#
# Velocity S-wave (km/s) = 3.54010 3.76001 3.65171
# Velocity P-wave (km/s) = 7.48270 7.71753 7.60102
#
# Compressibility (1/GPa) = 0.01619963
#
# Stress axis : x y z
#
# Youngs Moduli (GPa) = 46.69168 74.03964 52.10453
#
# Poissons Ratio (x) = 0.34304 0.46105
# Poissons Ratio (y) = 0.21633 0.28533
# Poissons Ratio (z) = 0.41316 0.40545
#
# Static dielectric constant tensor:
#      x y z
#    x 2.857810 0.000000 0.005810 
#    y 0.000000 3.132630 0.000000 
#    z 0.005810 0.000000 2.776470 
# 
# 
# High freq. dielectric constant tensor:
#      x y z
#    x 1.584520 0.000000 0.001100 
#    y 0.000000 1.625220 0.000000 
#    z 0.001100 0.000000 1.583490 
# 
# From -- ./inp_files/23616.got.cif
#   From: 2010.06.25/outbox.cif.g09.slc.cpg/sg11_12_cif.got.tgz:23616.got - 2010.06.27 23:14:04.
