data_PCOD8070785
_publ_section_title
;
Structure prediction by ZEFSAII (Michael W. Deem and Ramdas Pophale) SiO2 
 PCOD8070785
Probable space group: P 21/M
;
_chemical_formula_sum "Si O2"
_cell_formula_units_Z 28
_cell_length_a 13.371445
_cell_length_b 9.296780
_cell_length_c 22.644964
_cell_angle_alpha 90.000000
_cell_angle_beta 147.360964
_cell_angle_gamma 90.000000
_cell_volume 1518.269573
_symmetry_space_group_name_H-M "P 21/M"
_symmetry_group_IT_number 11
_symmetry_cell_setting 'monoclinic'
loop_
_space_group_symop_operation_xyz
x,y,z
-x,1/2+y,-z
-x,-y,-z
x,1/2-y,z
loop_
_atom_site_type_symbol
_atom_site_label
_atom_site_fract_x
_atom_site_fract_y
_atom_site_fract_z
Si Si1 0.694908 0.581931 0.443955
Si Si2 0.082997 0.581657 0.677638
Si Si3 0.713102 0.420675 0.753815
Si Si4 0.708910 0.919055 0.319368
Si Si5 0.943523 0.079848 0.109869
Si Si6 0.694378 0.419509 0.096877
Si Si7 0.708195 0.419021 0.884719
O O1 0.665649 0.750000 0.419473
O O2 0.494914 0.526356 0.367999
O O3 0.744907 0.522216 0.403623
O O4 0.861653 0.546652 0.572304
O O5 0.113827 0.750000 0.683290
O O6 0.156527 0.501769 0.657111
O O7 0.185350 0.528256 0.787284
O O8 0.738465 0.250000 0.759423
O O9 0.749355 0.474682 0.839159
O O10 0.858745 0.501575 0.784027
O O11 0.747802 0.750000 0.332357
O O12 0.498527 0.959092 0.197240
O O13 0.976095 0.250000 0.124963
O O14 0.810220 0.035901 0.097115
O O15 0.851129 0.017982 0.003772
O O16 0.655852 0.250000 0.079444
O O17 0.500000 0.500000 0.000000
O O18 0.728735 0.250000 0.894424
#
# Coordination Sequence:
#
# PCOD8070785 Si02
#       7
#     4   4   4   4   4   4   4
#     4   8  16  31  50  71  99 130 159 193 240 291
#     4  10  19  32  49  71  98 129 162 199 241 284
#     4   9  17  31  50  71  92 121 159 195 232 285
#     4   9  16  29  50  74  98 128 161 195 237 289
#     4  10  19  32  48  68  95 126 156 195 242 281
#     4  10  22  37  53  72  97 128 162 198 239 285
#     4   8  15  28  47  69  95 124 154 189 238 291
#
# _framework density 18.442046000000001
#
# number of rings (size 3 to 8) (size 9 to 14) (size 15 to 20)
#    0.000    2.857    0.000    3.429    0.000    2.286 
#    0.000    5.000    0.000    0.000    0.000    0.000 
#    0.000    0.000    0.000    0.000    0.000    0.000 
#
# Total GULP energy -347039.838323 kJ/mol
# GULP energy per Si atom -12394.279940 kJ/mol
# Density = 1.840007 g / cm^3
# Si number density = 18.442046 Si / 1000 Ang^3
#
#
#
# Elastic Constant Matrix: (Units=GPa)
#
#
# Indices 1 2 3 4 5 6 
#
# 1 101.4640 34.8836 66.5214 0.0000 23.6988 0.0000
# 2 34.8836 30.7825 37.5057 0.0000 9.8261 0.0000
# 3 66.5214 37.5057 151.1872 0.0000 14.2159 0.0000
# 4 0.0000 0.0000 0.0000 22.8856 0.0000 7.0926
# 5 23.6988 9.8261 14.2159 0.0000 27.2785 0.0000
# 6 0.0000 0.0000 0.0000 7.0926 0.0000 25.8142
#
#
#
# Elastic Compliance Matrix: (Units=1/GPa)
#
#
# Indices 1 2 3 4 5 6 
#
# 1 0.019827 -0.014059 -0.004304 0.000000 -0.009918 0.000000
# 2 -0.014059 0.060098 -0.008239 0.000000 -0.005140 0.000000
# 3 -0.004304 -0.008239 0.010432 0.000000 0.001270 0.000000
# 4 0.000000 0.000000 0.000000 0.047763 0.000000 -0.013123
# 5 -0.009918 -0.005140 0.001270 0.000000 0.046465 0.000000
# 6 0.000000 0.000000 0.000000 -0.013123 0.000000 0.042344
#
#
# Mechanical properties :
#
#
# Convention : Reuss Voigt Hill
#
# Bulk Modulus (GPa) = 26.91556 62.36167 44.63862
# Shear Modulus (GPa) = 17.09287 24.83053 20.96170
#
# Velocity S-wave (km/s) = 3.04771 3.67333 3.37505
# Velocity P-wave (km/s) = 5.19722 7.20274 6.28055
#
# Compressibility (1/GPa) = 0.03715323
#
# Stress axis : x y z
#
# Youngs Moduli (GPa) = 50.43503 16.63939 95.85485
#
# Poissons Ratio (x) = 0.23394 0.41252
# Poissons Ratio (y) = 0.70909 0.78980
# Poissons Ratio (z) = 0.21705 0.13710
#
# Static dielectric constant tensor:
#      x y z
#    x 3.311010 0.000000 -0.018480 
#    y 0.000000 2.816080 0.000000 
#    z -0.018480 0.000000 3.813470 
# 
# 
# High freq. dielectric constant tensor:
#      x y z
#    x 1.704210 0.000000 0.012780 
#    y 0.000000 1.677590 0.000000 
#    z 0.012780 0.000000 1.727740 
# 
# From -- ./inp_files/64657.got.cif
#   From: 2010.06.25/outbox.cif.g09.slc.cpg/sg11_33_cif.got.tgz:64657.got - 2010.06.27 23:14:04.
