data_PCOD8070241
_publ_section_title
;
Structure prediction by ZEFSAII (Michael W. Deem and Ramdas Pophale) SiO2 
 PCOD8070241
Probable space group: P 21/M
;
_chemical_formula_sum "Si O2"
_cell_formula_units_Z 32
_cell_length_a 17.645870
_cell_length_b 9.038898
_cell_length_c 24.042237
_cell_angle_alpha 90.000000
_cell_angle_beta 28.042174
_cell_angle_gamma 90.000000
_cell_volume 1802.782820
_symmetry_space_group_name_H-M "P 21/M"
_symmetry_group_IT_number 11
_symmetry_cell_setting 'monoclinic'
loop_
_space_group_symop_operation_xyz
x,y,z
-x,1/2+y,-z
-x,-y,-z
x,1/2-y,z
loop_
_atom_site_type_symbol
_atom_site_label
_atom_site_fract_x
_atom_site_fract_y
_atom_site_fract_z
Si Si1 0.339902 0.076438 0.843765
Si Si2 0.865729 0.919640 0.120533
Si Si3 0.059486 0.576384 0.095410
Si Si4 0.906582 0.919667 0.814282
Si Si5 0.264510 0.073680 0.276608
Si Si6 0.008967 0.923169 0.629772
Si Si7 0.531557 0.579341 0.037326
Si Si8 0.299054 0.923806 0.366567
O O1 0.325232 0.250000 0.866566
O O2 0.303214 0.043306 0.801356
O O3 0.520856 0.020563 0.736993
O O4 0.216863 0.993982 0.964427
O O5 0.905035 0.750000 0.087113
O O6 0.893799 0.959499 0.167492
O O7 0.000000 0.000000 0.000000
O O8 0.091602 0.750000 0.079597
O O9 0.026195 0.511316 0.177532
O O10 0.958608 0.750000 0.788792
O O11 0.984808 0.988812 0.707345
O O12 0.715677 0.935294 0.935009
O O13 0.278246 0.250000 0.267865
O O14 0.125191 0.014121 0.325729
O O15 0.433159 0.001962 0.149309
O O16 0.224749 0.015266 0.363757
O O17 0.976182 0.750000 0.655422
O O18 0.187794 0.959439 0.492063
O O19 0.479099 0.750000 0.066402
O O20 0.500000 0.500000 0.000000
O O21 0.293462 0.750000 0.355944
#
# Coordination Sequence:
#
# PCOD8070241 Si02
#       8
#     4   4   4   4   4   4   4   4
#     4   9  17  31  51  74  99 128 158 194 241 292
#     4   8  15  28  46  70 100 127 153 188 237 290
#     4  10  19  30  48  76 103 127 156 195 240 291
#     4  10  20  35  51  68  96 132 164 198 239 287
#     4  11  21  35  52  72 100 130 162 204 252 292
#     4   9  19  36  52  67  93 130 170 207 241 285
#     4  11  21  34  52  73  98 128 162 200 244 290
#     4  10  20  34  53  74  94 124 169 210 243 286
#
# _framework density 17.750335
#
# number of rings (size 3 to 8) (size 9 to 14) (size 15 to 20)
#    0.000    2.250    1.250    2.250    0.000    5.000 
#    0.000    1.250    0.000    0.750    0.000    0.000 
#    0.000    0.000    0.000    0.000    0.000    0.625 
#
# Total GULP energy -396588.749247 kJ/mol
# GULP energy per Si atom -12393.398414 kJ/mol
# Density = 1.770993 g / cm^3
# Si number density = 17.750335 Si / 1000 Ang^3
#
#
#
# Elastic Constant Matrix: (Units=GPa)
#
#
# Indices 1 2 3 4 5 6 
#
# 1 152.7340 43.3342 54.3298 0.0000 16.3801 0.0000
# 2 43.3342 54.9059 25.8330 0.0000 7.1694 0.0000
# 3 54.3298 25.8330 88.9980 0.0000 14.7779 0.0000
# 4 0.0000 0.0000 0.0000 18.4931 0.0000 4.7298
# 5 16.3801 7.1694 14.7779 0.0000 19.0834 0.0000
# 6 0.0000 0.0000 0.0000 4.7298 0.0000 27.9705
#
#
#
# Elastic Compliance Matrix: (Units=1/GPa)
#
#
# Indices 1 2 3 4 5 6 
#
# 1 0.009845 -0.005517 -0.003844 0.000000 -0.003401 0.000000
# 2 -0.005517 0.024410 -0.003421 0.000000 -0.001786 0.000000
# 3 -0.003844 -0.003421 0.015853 0.000000 -0.007692 0.000000
# 4 0.000000 0.000000 0.000000 0.056518 0.000000 -0.009557
# 5 -0.003401 -0.001786 -0.007692 0.000000 0.061948 0.000000
# 6 0.000000 0.000000 0.000000 -0.009557 0.000000 0.037368
#
#
# Mechanical properties :
#
#
# Convention : Reuss Voigt Hill
#
# Bulk Modulus (GPa) = 40.74296 60.40356 50.57326
# Shear Modulus (GPa) = 20.86055 24.65214 22.75635
#
# Velocity S-wave (km/s) = 3.43187 3.73074 3.58442
# Velocity P-wave (km/s) = 6.22148 7.25681 6.75900
#
# Compressibility (1/GPa) = 0.02454412
#
# Stress axis : x y z
#
# Youngs Moduli (GPa) = 101.57738 40.96645 63.08081
#
# Poissons Ratio (x) = 0.22603 0.24246
# Poissons Ratio (y) = 0.56045 0.21578
# Poissons Ratio (z) = 0.39042 0.14014
#
# Static dielectric constant tensor:
#      x y z
#    x 4.255790 0.000000 -0.061710 
#    y 0.000000 3.210540 0.000000 
#    z -0.061710 0.000000 3.286690 
# 
# 
# High freq. dielectric constant tensor:
#      x y z
#    x 1.699970 0.000000 0.005350 
#    y 0.000000 1.678390 0.000000 
#    z 0.005350 0.000000 1.659950 
# 
# From -- ./inp_files/69428.got.cif
#   From: 2010.06.25/outbox.cif.g09.slc.cpg/sg11_35_cif.got.tgz:69428.got - 2010.06.27 23:14:04.
