data_PCOD8070749
_publ_section_title
;
Structure prediction by ZEFSAII (Michael W. Deem and Ramdas Pophale) SiO2 
 PCOD8070749
Probable space group: P 21/M
;
_chemical_formula_sum "Si O2"
_cell_formula_units_Z 32
_cell_length_a 11.977937
_cell_length_b 8.668610
_cell_length_c 30.040659
_cell_angle_alpha 90.000000
_cell_angle_beta 33.649579
_cell_angle_gamma 90.000000
_cell_volume 1728.377344
_symmetry_space_group_name_H-M "P 21/M"
_symmetry_group_IT_number 11
_symmetry_cell_setting 'monoclinic'
loop_
_space_group_symop_operation_xyz
x,y,z
-x,1/2+y,-z
-x,-y,-z
x,1/2-y,z
loop_
_atom_site_type_symbol
_atom_site_label
_atom_site_fract_x
_atom_site_fract_y
_atom_site_fract_z
Si Si1 0.242834 0.072154 0.832032
Si Si2 0.297586 0.427282 0.710913
Si Si3 0.111870 0.070779 0.168789
Si Si4 0.129675 0.928663 0.396632
Si Si5 0.167203 0.070238 0.048860
Si Si6 0.583293 0.430006 0.865367
Si Si7 0.398540 0.070423 0.235850
Si Si8 0.296898 0.072877 0.428763
O O1 0.266936 0.250000 0.837089
O O2 0.311569 0.039941 0.758877
O O3 0.382424 0.973854 0.818298
O O4 0.011755 0.022685 0.915695
O O5 0.249178 0.250000 0.716852
O O6 0.511959 0.473545 0.618372
O O7 0.123479 0.530886 0.746864
O O8 0.148437 0.250000 0.167068
O O9 0.181325 0.025769 0.096048
O O10 0.237653 0.965495 0.160239
O O11 0.177654 0.750000 0.390749
O O12 0.889090 0.958337 0.476002
O O13 0.220625 0.976588 0.319213
O O14 0.233406 0.030149 0.399980
O O15 0.120372 0.250000 0.058946
O O16 0.373612 0.020135 0.957353
O O17 0.584286 0.250000 0.852936
O O18 0.614724 0.530875 0.811366
O O19 0.360303 0.250000 0.255663
O O20 0.362622 0.250000 0.407051
#
# Coordination Sequence:
#
# PCOD8070749 Si02
#       8
#     4   4   4   4   4   4   4   4
#     4  10  20  34  54  80 110 144 180 223 273 325
#     4  10  19  32  54  82 113 145 180 223 272 321
#     4  10  20  36  58  83 110 138 181 231 274 321
#     4  10  20  34  52  79 113 146 180 219 267 322
#     4   9  20  37  58  82 108 140 178 228 277 324
#     4  11  23  39  57  78 107 144 186 226 274 328
#     4  12  24  37  55  77 109 149 186 224 271 326
#     4  10  19  31  53  83 113 144 178 220 268 319
#
# _framework density 18.514475999999998
#
# number of rings (size 3 to 8) (size 9 to 14) (size 15 to 20)
#    0.000    1.750    1.250    3.750    0.000    4.500 
#    0.000    0.000    0.000    0.750    0.000    0.000 
#    0.000    0.000    0.000    0.000    0.000    0.000 
#
# Total GULP energy -396958.064881 kJ/mol
# GULP energy per Si atom -12404.939528 kJ/mol
# Density = 1.847234 g / cm^3
# Si number density = 18.514476 Si / 1000 Ang^3
#
#
#
# Elastic Constant Matrix: (Units=GPa)
#
#
# Indices 1 2 3 4 5 6 
#
# 1 48.9530 18.6076 61.5342 0.0000 10.1244 0.0000
# 2 18.6076 53.3090 25.8282 0.0000 -2.5386 0.0000
# 3 61.5342 25.8282 99.9978 0.0000 -22.9280 0.0000
# 4 0.0000 0.0000 0.0000 29.0534 0.0000 -4.7938
# 5 10.1244 -2.5386 -22.9280 0.0000 12.2955 0.0000
# 6 0.0000 0.0000 0.0000 -4.7938 0.0000 30.6170
#
#
#
# Elastic Compliance Matrix: (Units=1/GPa)
#
#
# Indices 1 2 3 4 5 6 
#
# 1 -0.013492 -0.002678 0.019940 0.000000 0.047738 0.000000
# 2 -0.002678 0.021685 -0.004229 0.000000 -0.001203 0.000000
# 3 0.019940 -0.004229 -0.008983 0.000000 -0.034042 0.000000
# 4 0.000000 0.000000 0.000000 0.035332 0.000000 0.005532
# 5 0.047738 -0.001203 -0.034042 0.000000 -0.021707 0.000000
# 6 0.000000 0.000000 0.000000 0.005532 0.000000 0.033528
#
#
# Mechanical properties :
#
#
# Convention : Reuss Voigt Hill
#
# Bulk Modulus (GPa) = 39.56380 46.02221 42.79300
# Shear Modulus (GPa) = 174.07420 20.81251 97.44336
#
# Velocity S-wave (km/s) = 9.70694 3.35643 7.26259
# Velocity P-wave (km/s) = 12.12635 6.31919 9.66904
#
# Compressibility (1/GPa) = 0.02527563
#
# Stress axis : x y z
#
# Youngs Moduli (GPa) = -74.12039 46.11496 -111.32354
#
# Poissons Ratio (x) = 0.12350 2.21974
# Poissons Ratio (y) = -0.19850 -0.47077
# Poissons Ratio (z) = 1.47793 0.19501
#
# Static dielectric constant tensor:
#      x y z
#    x 3.127760 0.000000 -0.145690 
#    y 0.000000 3.432830 0.000000 
#    z -0.145690 0.000000 3.553840 
# 
# 
# High freq. dielectric constant tensor:
#      x y z
#    x 1.691170 0.000000 -0.018870 
#    y 0.000000 1.730990 0.000000 
#    z -0.018870 0.000000 1.721580 
# 
# From -- ./inp_files/64439.got.cif
#   From: 2010.06.25/outbox.cif.g09.slc.cpg/sg11_33_cif.got.tgz:64439.got - 2010.06.27 23:14:04.
