data_PCOD8070332
_publ_section_title
;
Structure prediction by ZEFSAII (Michael W. Deem and Ramdas Pophale) SiO2 
 PCOD8070332
Probable space group: P 21/M
;
_chemical_formula_sum "Si O2"
_cell_formula_units_Z 32
_cell_length_a 15.754084
_cell_length_b 9.130483
_cell_length_c 21.186889
_cell_angle_alpha 90.000000
_cell_angle_beta 138.036782
_cell_angle_gamma 90.000000
_cell_volume 2037.769950
_symmetry_space_group_name_H-M "P 21/M"
_symmetry_group_IT_number 11
_symmetry_cell_setting 'monoclinic'
loop_
_space_group_symop_operation_xyz
x,y,z
-x,1/2+y,-z
-x,-y,-z
x,1/2-y,z
loop_
_atom_site_type_symbol
_atom_site_label
_atom_site_fract_x
_atom_site_fract_y
_atom_site_fract_z
Si Si1 0.783415 0.078730 0.099878
Si Si2 0.305647 0.921530 0.404102
Si Si3 0.596597 0.081741 0.096598
Si Si4 0.416336 0.078729 0.099876
Si Si5 0.383849 0.077388 0.224070
Si Si6 0.502558 0.921530 0.404103
Si Si7 0.064290 0.077390 0.224071
Si Si8 0.099018 0.078952 0.099018
O O1 0.775480 0.250000 0.079931
O O2 0.737335 0.043941 0.147231
O O3 0.927730 0.025617 0.174223
O O4 0.696196 0.999999 0.000002
O O5 0.296795 0.750000 0.413449
O O6 0.382642 0.954303 0.382642
O O7 0.373063 0.000001 0.499999
O O8 0.166363 0.989089 0.321088
O O9 0.569739 0.250000 0.069743
O O10 0.557122 0.043937 0.147230
O O11 0.500000 0.000000 0.000000
O O12 0.384379 0.250000 0.079930
O O13 0.420709 0.025614 0.174219
O O14 0.403847 0.250000 0.246128
O O15 0.239517 0.030669 0.156947
O O16 0.475817 0.989092 0.321090
O O17 0.530104 0.750000 0.413449
O O18 0.088415 0.250000 0.246136
O O19 0.074368 0.030680 0.156942
O O20 0.078618 0.250000 0.078612
O O21 0.000000 0.000000 0.000000
#
# Coordination Sequence:
#
# PCOD8070332 Si02
#       8
#     4   4   4   4   4   4   4   4
#     4   9  17  28  44  65  91 122 154 188 224 262
#     4  10  20  33  50  69  88 114 147 186 227 267
#     4   8  14  26  42  62  87 116 151 188 225 262
#     4   9  17  28  44  65  91 122 154 188 224 262
#     4  10  19  31  45  64  90 121 152 184 222 263
#     4  10  20  33  50  69  88 114 147 186 227 267
#     4  10  19  31  45  64  90 121 152 184 222 263
#     4  10  20  30  41  58  87 122 153 182 212 252
#
# _framework density 15.703441
#
# number of rings (size 3 to 8) (size 9 to 14) (size 15 to 20)
#    0.000    2.500    1.250    1.500    0.000    3.000 
#    0.000    0.000    0.000    0.000    0.000    0.875 
#    0.000    0.000    0.000    0.000    0.000    0.000 
#
# Total GULP energy -396619.415127 kJ/mol
# GULP energy per Si atom -12394.356723 kJ/mol
# Density = 1.566770 g / cm^3
# Si number density = 15.703441 Si / 1000 Ang^3
#
#
#
# Elastic Constant Matrix: (Units=GPa)
#
#
# Indices 1 2 3 4 5 6 
#
# 1 143.5501 38.8655 71.3106 0.0000 2.0313 0.0000
# 2 38.8655 49.8008 49.6424 0.0000 -0.4343 0.0000
# 3 71.3106 49.6424 120.4731 0.0000 -1.0908 0.0000
# 4 0.0000 0.0000 0.0000 31.1096 0.0000 -0.7484
# 5 2.0313 -0.4343 -1.0908 0.0000 11.1416 0.0000
# 6 0.0000 0.0000 0.0000 -0.7484 0.0000 12.5478
#
#
#
# Elastic Compliance Matrix: (Units=1/GPa)
#
#
# Indices 1 2 3 4 5 6 
#
# 1 0.010242 -0.003308 -0.004722 0.000000 -0.002459 0.000000
# 2 -0.003308 0.035146 -0.012517 0.000000 0.000748 0.000000
# 3 -0.004722 -0.012517 0.016271 0.000000 0.001966 0.000000
# 4 0.000000 0.000000 0.000000 0.032191 0.000000 0.001920
# 5 -0.002459 0.000748 0.001966 0.000000 0.090423 0.000000
# 6 0.000000 0.000000 0.000000 0.001920 0.000000 0.079810
#
#
# Mechanical properties :
#
#
# Convention : Reuss Voigt Hill
#
# Bulk Modulus (GPa) = 48.62638 70.38456 59.50547
# Shear Modulus (GPa) = 16.02400 21.22685 18.62542
#
# Velocity S-wave (km/s) = 3.19786 3.68058 3.44768
# Velocity P-wave (km/s) = 6.68339 7.93603 7.33650
#
# Compressibility (1/GPa) = 0.02056497
#
# Stress axis : x y z
#
# Youngs Moduli (GPa) = 97.63523 28.45302 61.45796
#
# Poissons Ratio (x) = 0.09412 0.29019
# Poissons Ratio (y) = 0.32297 0.76930
# Poissons Ratio (z) = 0.46101 0.35616
#
# Static dielectric constant tensor:
#      x y z
#    x 3.504940 0.000000 0.029390 
#    y 0.000000 2.960900 0.000000 
#    z 0.029390 0.000000 2.776900 
# 
# 
# High freq. dielectric constant tensor:
#      x y z
#    x 1.602270 0.000000 0.000950 
#    y 0.000000 1.606510 0.000000 
#    z 0.000950 0.000000 1.578760 
# 
# From -- ./inp_files/51300.got.cif
#   From: 2010.06.25/outbox.cif.g09.slc.cpg/sg11_26_cif.got.tgz:51300.got - 2010.06.27 23:14:04.
