data_PCOD8070620
_publ_section_title
;
Structure prediction by ZEFSAII (Michael W. Deem and Ramdas Pophale) SiO2 
 PCOD8070620
Probable space group: P 21/M
;
_chemical_formula_sum "Si O2"
_cell_formula_units_Z 28
_cell_length_a 22.285655
_cell_length_b 9.143116
_cell_length_c 24.725468
_cell_angle_alpha 90.000000
_cell_angle_beta 162.391442
_cell_angle_gamma 90.000000
_cell_volume 1524.077792
_symmetry_space_group_name_H-M "P 21/M"
_symmetry_group_IT_number 11
_symmetry_cell_setting 'monoclinic'
loop_
_space_group_symop_operation_xyz
x,y,z
-x,1/2+y,-z
-x,-y,-z
x,1/2-y,z
loop_
_atom_site_type_symbol
_atom_site_label
_atom_site_fract_x
_atom_site_fract_y
_atom_site_fract_z
Si Si1 0.111317 0.923112 0.733367
Si Si2 0.041950 0.579172 0.980319
Si Si3 0.523711 0.423448 0.674916
Si Si4 0.307112 0.079632 0.812909
Si Si5 0.499319 0.919676 0.127513
Si Si6 0.324633 0.075986 0.611684
Si Si7 0.357842 0.420987 0.419549
O O1 0.126989 0.750000 0.737057
O O2 0.906164 0.968781 0.585335
O O3 0.121533 0.001274 0.682992
O O4 0.291258 0.983443 0.925736
O O5 0.053601 0.750000 0.003503
O O6 0.870691 0.543330 0.789918
O O7 0.000000 0.500000 0.000000
O O8 0.248825 0.522628 0.133072
O O9 0.514039 0.250000 0.670093
O O10 0.422900 0.490948 0.641962
O O11 0.403165 0.478708 0.518808
O O12 0.310655 0.250000 0.831306
O O13 0.315645 0.057912 0.755163
O O14 0.500000 0.000000 0.000000
O O15 0.460801 0.750000 0.104016
O O16 0.560770 0.991178 0.237669
O O17 0.342594 0.250000 0.627817
O O18 0.500000 0.500000 0.500000
O O19 0.403921 0.250000 0.454391
#
# Coordination Sequence:
#
# PCOD8070620 Si02
#       7
#     4   4   4   4   4   4   4
#     4   9  17  29  47  70  94 123 160 197 239 286
#     4  10  19  31  50  74  98 125 156 195 241 288
#     4   9  18  31  46  70 100 124 159 203 239 284
#     4   9  16  28  47  71  97 124 158 201 243 283
#     4   8  15  27  43  66  94 121 155 196 236 277
#     4   9  17  29  46  68  96 128 158 196 239 281
#     4  10  19  31  50  75  99 125 158 196 243 292
#
# _framework density 18.371765
#
# number of rings (size 3 to 8) (size 9 to 14) (size 15 to 20)
#    0.000    2.857    1.429    1.286    0.000    1.714 
#    0.000    5.714    0.000    5.143    0.000    4.000 
#    0.000    0.000    0.000    0.000    0.000    0.000 
#
# Total GULP energy -346998.352793 kJ/mol
# GULP energy per Si atom -12392.798314 kJ/mol
# Density = 1.832995 g / cm^3
# Si number density = 18.371765 Si / 1000 Ang^3
#
#
#
# Elastic Constant Matrix: (Units=GPa)
#
#
# Indices 1 2 3 4 5 6 
#
# 1 183.3740 30.4659 92.9564 0.0000 7.8795 0.0000
# 2 30.4659 29.9770 22.9583 0.0000 3.1005 0.0000
# 3 92.9564 22.9583 143.3748 0.0000 4.7456 0.0000
# 4 0.0000 0.0000 0.0000 14.2559 0.0000 3.0249
# 5 7.8795 3.1005 4.7456 0.0000 35.7282 0.0000
# 6 0.0000 0.0000 0.0000 3.0249 0.0000 21.5559
#
#
#
# Elastic Compliance Matrix: (Units=1/GPa)
#
#
# Indices 1 2 3 4 5 6 
#
# 1 0.008807 -0.005142 -0.004859 0.000000 -0.000851 0.000000
# 2 -0.005142 0.041247 -0.003204 0.000000 -0.002020 0.000000
# 3 -0.004859 -0.003204 0.010640 0.000000 -0.000064 0.000000
# 4 0.000000 0.000000 0.000000 0.072299 0.000000 -0.010146
# 5 -0.000851 -0.002020 -0.000064 0.000000 0.028361 0.000000
# 6 0.000000 0.000000 0.000000 -0.010146 0.000000 0.047815
#
#
# Mechanical properties :
#
#
# Convention : Reuss Voigt Hill
#
# Bulk Modulus (GPa) = 29.16710 72.16521 50.66616
# Shear Modulus (GPa) = 20.24240 28.33102 24.28671
#
# Velocity S-wave (km/s) = 3.32297 3.93121 3.63982
# Velocity P-wave (km/s) = 5.53474 7.74414 6.73071
#
# Compressibility (1/GPa) = 0.03428520
#
# Stress axis : x y z
#
# Youngs Moduli (GPa) = 113.54575 24.24391 93.98559
#
# Poissons Ratio (x) = 0.12466 0.45663
# Poissons Ratio (y) = 0.58382 0.30117
# Poissons Ratio (z) = 0.55166 0.07769
#
# Static dielectric constant tensor:
#      x y z
#    x 1.920230 0.000000 -0.815680 
#    y 0.000000 3.232270 0.000000 
#    z -0.815680 0.000000 3.188840 
# 
# 
# High freq. dielectric constant tensor:
#      x y z
#    x 1.716680 0.000000 0.000250 
#    y 0.000000 1.660880 0.000000 
#    z 0.000250 0.000000 1.715990 
# 
# From -- ./inp_files/66734.got.cif
#   From: 2010.06.25/outbox.cif.g09.slc.cpg/sg11_34_cif.got.tgz:66734.got - 2010.06.27 23:14:04.
