data_PCOD8070054
_publ_section_title
;
Structure prediction by ZEFSAII (Michael W. Deem and Ramdas Pophale) SiO2 
 PCOD8070054
Probable space group: P 21/M
;
_chemical_formula_sum "Si O2"
_cell_formula_units_Z 24
_cell_length_a 7.615044
_cell_length_b 22.740598
_cell_length_c 8.880173
_cell_angle_alpha 90.000000
_cell_angle_beta 125.666615
_cell_angle_gamma 90.000000
_cell_volume 1249.332827
_symmetry_space_group_name_H-M "P 21/M"
_symmetry_group_IT_number 11
_symmetry_cell_setting 'monoclinic'
loop_
_space_group_symop_operation_xyz
x,y,z
-x,1/2+y,-z
-x,-y,-z
x,1/2-y,z
loop_
_atom_site_type_symbol
_atom_site_label
_atom_site_fract_x
_atom_site_fract_y
_atom_site_fract_z
Si Si1 0.342461 0.946558 0.421231
Si Si2 0.851848 0.110818 0.927747
Si Si3 0.896290 0.013958 0.198145
Si Si4 0.358960 0.681759 0.929480
Si Si5 0.800009 0.609290 0.150005
Si Si6 0.148152 0.889182 0.575898
O O1 0.357589 0.905529 0.280806
O O2 0.357589 0.905529 0.576782
O O3 0.500000 0.000000 0.500000
O O4 0.103997 0.972625 0.301999
O O5 0.061742 0.126156 0.931425
O O6 0.895796 0.053499 0.050509
O O7 0.784625 0.166220 0.995631
O O8 0.895796 0.053499 0.345287
O O9 0.721125 0.960059 0.110563
O O10 0.412945 0.750000 0.956473
O O11 0.215376 0.666220 0.711006
O O12 0.581335 0.646187 0.040668
O O13 0.938258 0.626156 0.369683
#
# Coordination Sequence:
#
# PCOD8070054 Si02
#       6
#     4   4   4   4   4   4
#     4  10  19  29  57  89 117 143 171 226 295 355
#     4   9  21  37  56  87 118 146 185 238 281 350
#     4   9  18  34  55  88 121 143 176 228 298 356
#     4  11  25  40  59  80 109 161 209 233 275 324
#     4  10  20  38  61  85 117 149 184 235 297 336
#     4   9  21  37  56  87 118 146 185 238 281 350
#
# _framework density 19.210253000000002
#
# number of rings (size 3 to 8) (size 9 to 14) (size 15 to 20)
#    0.000    2.667    0.000    4.000    9.333    2.667 
#    0.000    2.500    0.000    0.000    0.000    0.000 
#    0.000    0.000    0.000    0.000    0.000    0.000 
#
# Total GULP energy -297336.320387 kJ/mol
# GULP energy per Si atom -12389.013349 kJ/mol
# Density = 1.916653 g / cm^3
# Si number density = 19.210253 Si / 1000 Ang^3
#
#
#
# Elastic Constant Matrix: (Units=GPa)
#
#
# Indices 1 2 3 4 5 6 
#
# 1 67.4548 31.7422 40.8441 0.0000 -16.7958 0.0000
# 2 31.7422 109.8351 34.1896 0.0000 -3.1629 0.0000
# 3 40.8441 34.1896 99.1479 0.0000 -24.1633 0.0000
# 4 0.0000 0.0000 0.0000 16.4044 0.0000 4.6969
# 5 -16.7958 -3.1629 -24.1633 0.0000 29.3249 0.0000
# 6 0.0000 0.0000 0.0000 4.6969 0.0000 20.0388
#
#
#
# Elastic Compliance Matrix: (Units=1/GPa)
#
#
# Indices 1 2 3 4 5 6 
#
# 1 0.022301 -0.004411 -0.005842 0.000000 0.007483 0.000000
# 2 -0.004411 0.011192 -0.002958 0.000000 -0.003756 0.000000
# 3 -0.005842 -0.002958 0.015790 0.000000 0.009346 0.000000
# 4 0.000000 0.000000 0.000000 0.065344 0.000000 -0.015316
# 5 0.007483 -0.003756 0.009346 0.000000 0.045683 0.000000
# 6 0.000000 0.000000 0.000000 -0.015316 0.000000 0.053493
#
#
# Mechanical properties :
#
#
# Convention : Reuss Voigt Hill
#
# Bulk Modulus (GPa) = 43.74155 54.44331 49.09243
# Shear Modulus (GPa) = 20.17387 24.46441 22.31914
#
# Velocity S-wave (km/s) = 3.24414 3.57250 3.41227
# Velocity P-wave (km/s) = 6.07057 6.73938 6.41370
#
# Compressibility (1/GPa) = 0.02286156
#
# Stress axis : x y z
#
# Youngs Moduli (GPa) = 44.84068 89.35092 63.33037
#
# Poissons Ratio (x) = 0.39412 0.36999
# Poissons Ratio (y) = 0.19779 0.18731
# Poissons Ratio (z) = 0.26197 0.26427
#
# Static dielectric constant tensor:
#      x y z
#    x 3.102600 0.000000 -0.681610 
#    y 0.000000 2.809740 0.000000 
#    z -0.681610 0.000000 3.630010 
# 
# 
# High freq. dielectric constant tensor:
#      x y z
#    x 1.743140 0.000000 -0.021180 
#    y 0.000000 1.721660 0.000000 
#    z -0.021180 0.000000 1.759530 
# 
# From -- ./inp_files/14850.got.cif
#   From: 2010.06.25/outbox.cif.g09.slc.cpg/sg11_8_cif.got.tgz:14850.got - 2010.06.27 23:14:04.
