data_PCOD8070652
_publ_section_title
;
Structure prediction by ZEFSAII (Michael W. Deem and Ramdas Pophale) SiO2 
 PCOD8070652
Probable space group: P 21/M
;
_chemical_formula_sum "Si O2"
_cell_formula_units_Z 24
_cell_length_a 16.338921
_cell_length_b 8.720529
_cell_length_c 15.142093
_cell_angle_alpha 90.000000
_cell_angle_beta 142.180402
_cell_angle_gamma 90.000000
_cell_volume 1322.933989
_symmetry_space_group_name_H-M "P 21/M"
_symmetry_group_IT_number 11
_symmetry_cell_setting 'monoclinic'
loop_
_space_group_symop_operation_xyz
x,y,z
-x,1/2+y,-z
-x,-y,-z
x,1/2-y,z
loop_
_atom_site_type_symbol
_atom_site_label
_atom_site_fract_x
_atom_site_fract_y
_atom_site_fract_z
Si Si1 0.144234 0.568974 0.108442
Si Si2 0.635563 0.569185 0.578625
Si Si3 0.405539 0.927300 0.638231
Si Si4 0.283967 0.427303 0.066107
Si Si5 0.637204 0.922424 0.220041
Si Si6 0.676870 0.077560 0.078942
O O1 0.141416 0.750000 0.118300
O O2 0.240591 0.496121 0.262698
O O3 0.192316 0.528577 0.051176
O O4 0.000000 0.500000 0.000000
O O5 0.500000 0.500000 0.500000
O O6 0.630154 0.750000 0.586536
O O7 0.654457 0.526192 0.492512
O O8 0.372575 0.750000 0.594596
O O9 0.563277 0.956534 0.777305
O O10 0.333720 0.982032 0.666568
O O11 0.245244 0.250000 0.042834
O O12 0.256198 0.479890 0.942274
O O13 0.690838 0.750000 0.277697
O O14 0.715005 0.000958 0.204948
O O15 0.481151 0.921659 0.067080
O O16 0.733519 0.250000 0.125063
#
# Coordination Sequence:
#
# PCOD8070652 Si02
#       6
#     4   4   4   4   4   4
#     4  12  25  41  59  80 110 145 185 230 277 328
#     4  12  23  37  57  82 110 144 185 227 275 328
#     4  10  19  31  50  76 107 141 179 222 271 323
#     4  10  19  32  51  75 105 140 181 223 271 324
#     4   9  16  26  41  66 101 137 174 217 268 320
#     4   9  16  26  42  66  99 137 176 216 267 322
#
# _framework density 18.141494999999999
#
# number of rings (size 3 to 8) (size 9 to 14) (size 15 to 20)
#    0.000    1.667    1.667    5.000    0.000    5.333 
#    0.000    0.000    0.000    0.000    0.000    1.167 
#    0.000    0.000    0.000    0.000    0.000    0.000 
#
# Total GULP energy -297668.837172 kJ/mol
# GULP energy per Si atom -12402.868216 kJ/mol
# Density = 1.810020 g / cm^3
# Si number density = 18.141495 Si / 1000 Ang^3
#
#
#
# Elastic Constant Matrix: (Units=GPa)
#
#
# Indices 1 2 3 4 5 6 
#
# 1 111.9722 58.1893 60.6850 0.0000 -32.3568 0.0000
# 2 58.1893 160.7619 51.2484 0.0000 -8.8634 0.0000
# 3 60.6850 51.2484 79.2754 0.0000 -9.9636 0.0000
# 4 0.0000 0.0000 0.0000 25.3404 0.0000 -8.9241
# 5 -32.3568 -8.8634 -9.9636 0.0000 26.3228 0.0000
# 6 0.0000 0.0000 0.0000 -8.9241 0.0000 36.8437
#
#
#
# Elastic Compliance Matrix: (Units=1/GPa)
#
#
# Indices 1 2 3 4 5 6 
#
# 1 0.025661 -0.003338 -0.014345 0.000000 0.024990 0.000000
# 2 -0.003338 0.008284 -0.003113 0.000000 -0.002492 0.000000
# 3 -0.014345 -0.003113 0.024422 0.000000 -0.009438 0.000000
# 4 0.000000 0.000000 0.000000 0.043143 0.000000 0.010450
# 5 0.024990 -0.002492 -0.009438 0.000000 0.064297 0.000000
# 6 0.000000 0.000000 0.000000 0.010450 0.000000 0.029673
#
#
# Mechanical properties :
#
#
# Convention : Reuss Voigt Hill
#
# Bulk Modulus (GPa) = 59.61378 76.91720 68.26549
# Shear Modulus (GPa) = 20.60477 29.82715 25.21596
#
# Velocity S-wave (km/s) = 3.37379 4.05920 3.73226
# Velocity P-wave (km/s) = 6.93602 8.02870 7.50228
#
# Compressibility (1/GPa) = 0.01677464
#
# Stress axis : x y z
#
# Youngs Moduli (GPa) = 38.96947 120.72173 40.94698
#
# Poissons Ratio (x) = 0.40291 0.58739
# Poissons Ratio (y) = 0.13006 0.12748
# Poissons Ratio (z) = 0.55902 0.37584
#
# Static dielectric constant tensor:
#      x y z
#    x 3.439140 0.000000 -0.342980 
#    y 0.000000 3.593880 0.000000 
#    z -0.342980 0.000000 3.026500 
# 
# 
# High freq. dielectric constant tensor:
#      x y z
#    x 1.702810 0.000000 -0.039420 
#    y 0.000000 1.725500 0.000000 
#    z -0.039420 0.000000 1.656260 
# 
# From -- ./inp_files/46504.got.cif
#   From: 2010.06.25/outbox.cif.g09.slc.cpg/sg11_24_cif.got.tgz:46504.got - 2010.06.27 23:14:04.
