data_PCOD8070223
_publ_section_title
;
Structure prediction by ZEFSAII (Michael W. Deem and Ramdas Pophale) SiO2 
 PCOD8070223
Probable space group: P 21/M
;
_chemical_formula_sum "Si O2"
_cell_formula_units_Z 24
_cell_length_a 23.489211
_cell_length_b 9.031814
_cell_length_c 13.401891
_cell_angle_alpha 90.000000
_cell_angle_beta 149.746797
_cell_angle_gamma 90.000000
_cell_volume 1432.474348
_symmetry_space_group_name_H-M "P 21/M"
_symmetry_group_IT_number 11
_symmetry_cell_setting 'monoclinic'
loop_
_space_group_symop_operation_xyz
x,y,z
-x,1/2+y,-z
-x,-y,-z
x,1/2-y,z
loop_
_atom_site_type_symbol
_atom_site_label
_atom_site_fract_x
_atom_site_fract_y
_atom_site_fract_z
Si Si1 0.157247 0.079268 0.186060
Si Si2 0.619502 0.922013 0.797967
Si Si3 0.037088 0.577679 0.406235
Si Si4 0.044384 0.421798 0.219411
Si Si5 0.392357 0.420531 0.449949
Si Si6 0.833840 0.422652 0.198541
O O1 0.130656 0.250000 0.119331
O O2 0.133882 0.046773 0.266914
O O3 0.287035 0.040187 0.361031
O O4 0.079354 0.977647 0.999192
O O5 0.630002 0.750000 0.839456
O O6 0.641924 0.955447 0.715702
O O7 0.495375 0.977419 0.641251
O O8 0.709585 0.010784 0.999817
O O9 0.013451 0.750000 0.355976
O O10 0.917536 0.501432 0.247980
O O11 0.088157 0.509358 0.382515
O O12 0.126806 0.546313 0.629060
O O13 0.035977 0.250000 0.232962
O O14 0.429250 0.250000 0.516345
O O15 0.832707 0.250000 0.171524
#
# Coordination Sequence:
#
# PCOD8070223 Si02
#       6
#     4   4   4   4   4   4
#     4   9  18  32  49  70  97 129 162 196 235 278
#     4  10  19  30  48  73  98 124 154 192 237 282
#     4  10  20  33  49  70  97 127 157 193 237 282
#     4  10  19  30  48  73  98 126 160 197 236 280
#     4   9  18  32  48  67  95 128 158 190 231 279
#     4  10  20  33  50  71  95 125 159 194 234 282
#
# _framework density 16.754227
#
# number of rings (size 3 to 8) (size 9 to 14) (size 15 to 20)
#    0.000    2.333    0.000    3.000    0.000    5.333 
#    0.000    0.000    0.000    1.000    0.000    0.000 
#    0.000    0.000    0.000    0.000    0.000    0.000 
#
# Total GULP energy -297701.871257 kJ/mol
# GULP energy per Si atom -12404.244636 kJ/mol
# Density = 1.671609 g / cm^3
# Si number density = 16.754227 Si / 1000 Ang^3
#
#
#
# Elastic Constant Matrix: (Units=GPa)
#
#
# Indices 1 2 3 4 5 6 
#
# 1 104.8980 51.0142 54.3299 0.0000 4.3143 0.0000
# 2 51.0142 98.4478 58.0340 0.0000 0.2662 0.0000
# 3 54.3299 58.0340 95.1276 0.0000 6.8213 0.0000
# 4 0.0000 0.0000 0.0000 32.6456 0.0000 -0.0861
# 5 4.3143 0.2662 6.8213 0.0000 23.6707 0.0000
# 6 0.0000 0.0000 0.0000 -0.0861 0.0000 27.9366
#
#
#
# Elastic Compliance Matrix: (Units=1/GPa)
#
#
# Indices 1 2 3 4 5 6 
#
# 1 0.014555 -0.004185 -0.005690 0.000000 -0.000966 0.000000
# 2 -0.004185 0.017232 -0.008335 0.000000 0.002971 0.000000
# 3 -0.005690 -0.008335 0.019162 0.000000 -0.004391 0.000000
# 4 0.000000 0.000000 0.000000 0.030632 0.000000 0.000094
# 5 -0.000966 0.002971 -0.004391 0.000000 0.043654 0.000000
# 6 0.000000 0.000000 0.000000 0.000094 0.000000 0.035796
#
#
# Mechanical properties :
#
#
# Convention : Reuss Voigt Hill
#
# Bulk Modulus (GPa) = 68.83546 69.46999 69.15272
# Shear Modulus (GPa) = 24.71618 25.85693 25.28656
#
# Velocity S-wave (km/s) = 3.84503 3.93276 3.88914
# Velocity P-wave (km/s) = 7.80301 7.88519 7.84421
#
# Compressibility (1/GPa) = 0.01452740
#
# Stress axis : x y z
#
# Youngs Moduli (GPa) = 68.70265 58.03146 52.18633
#
# Poissons Ratio (x) = 0.24288 0.29696
# Poissons Ratio (y) = 0.28755 0.43499
# Poissons Ratio (z) = 0.39095 0.48371
#
# Static dielectric constant tensor:
#      x y z
#    x 3.131870 0.000000 -0.033930 
#    y 0.000000 3.252230 0.000000 
#    z -0.033930 0.000000 2.984980 
# 
# 
# High freq. dielectric constant tensor:
#      x y z
#    x 1.635770 0.000000 -0.000240 
#    y 0.000000 1.660130 0.000000 
#    z -0.000240 0.000000 1.631440 
# 
# From -- ./inp_files/37236.got.cif
#   From: 2010.06.25/outbox.cif.g09.slc.cpg/sg11_19_cif.got.tgz:37236.got - 2010.06.27 23:14:04.
