data_PCOD8070935
_publ_section_title
;
Structure prediction by ZEFSAII (Michael W. Deem and Ramdas Pophale) SiO2 
 PCOD8070935
Probable space group: P 21/M
;
_chemical_formula_sum "Si O2"
_cell_formula_units_Z 32
_cell_length_a 12.171022
_cell_length_b 9.092905
_cell_length_c 21.880912
_cell_angle_alpha 90.000000
_cell_angle_beta 134.070728
_cell_angle_gamma 90.000000
_cell_volume 1739.846190
_symmetry_space_group_name_H-M "P 21/M"
_symmetry_group_IT_number 11
_symmetry_cell_setting 'monoclinic'
loop_
_space_group_symop_operation_xyz
x,y,z
-x,1/2+y,-z
-x,-y,-z
x,1/2-y,z
loop_
_atom_site_type_symbol
_atom_site_label
_atom_site_fract_x
_atom_site_fract_y
_atom_site_fract_z
Si Si1 0.599896 0.581418 0.589096
Si Si2 0.866949 0.423694 0.282972
Si Si3 0.616996 0.080255 0.385233
Si Si4 0.965462 0.421516 0.891158
Si Si5 0.064094 0.075141 0.248522
Si Si6 0.772500 0.920932 0.914927
Si Si7 0.081187 0.076226 0.475319
Si Si8 0.566314 0.076136 0.228158
O O1 0.500000 0.500000 0.500000
O O2 0.599185 0.750000 0.568512
O O3 0.532482 0.560791 0.631020
O O4 0.774036 0.522585 0.660066
O O5 0.854055 0.250000 0.277066
O O6 0.700472 0.490992 0.236781
O O7 0.927104 0.477598 0.240367
O O8 0.990906 0.473056 0.380407
O O9 0.670471 0.250000 0.403697
O O10 0.582697 0.019351 0.304082
O O11 0.747674 0.981753 0.466238
O O12 0.935368 0.250000 0.870410
O O13 0.970073 0.499625 0.828401
O O14 0.829794 0.486142 0.879572
O O15 0.127753 0.453084 0.986505
O O16 0.067050 0.250000 0.240253
O O17 0.780697 0.750000 0.899148
O O18 0.598737 0.970495 0.862229
O O19 0.080691 0.250000 0.484691
O O20 0.000000 0.000000 0.500000
O O21 0.582227 0.250000 0.235313
#
# Coordination Sequence:
#
# PCOD8070935 Si02
#       8
#     4   4   4   4   4   4   4   4
#     4  10  21  35  52  75 105 141 179 220 265 314
#     4   9  18  32  53  76  99 134 180 218 247 301
#     4  10  19  32  51  74 101 134 174 217 262 309
#     4  10  20  34  54  82 109 134 169 217 269 314
#     4  10  20  36  56  76 102 143 184 211 252 316
#     4   9  18  34  58  81 104 136 172 213 264 321
#     4  11  20  33  52  75 103 135 173 216 258 305
#     4   9  16  31  54  77 100 130 173 217 254 305
#
# _framework density 18.392430999999998
#
# number of rings (size 3 to 8) (size 9 to 14) (size 15 to 20)
#    0.000    2.250    1.250    2.250    0.000    4.500 
#    0.000    3.750    0.000    0.000    0.000    0.000 
#    0.000    0.000    0.000    0.000    0.000    0.000 
#
# Total GULP energy -396756.534008 kJ/mol
# GULP energy per Si atom -12398.641688 kJ/mol
# Density = 1.835057 g / cm^3
# Si number density = 18.392431 Si / 1000 Ang^3
#
#
#
# Elastic Constant Matrix: (Units=GPa)
#
#
# Indices 1 2 3 4 5 6 
#
# 1 149.0127 37.7433 85.3550 0.0000 5.1292 0.0000
# 2 37.7433 48.6614 40.6801 0.0000 -3.0194 0.0000
# 3 85.3550 40.6801 123.7308 0.0000 2.0068 0.0000
# 4 0.0000 0.0000 0.0000 29.0829 0.0000 -1.8290
# 5 5.1292 -3.0194 2.0068 0.0000 36.7135 0.0000
# 6 0.0000 0.0000 0.0000 -1.8290 0.0000 21.1922
#
#
#
# Elastic Compliance Matrix: (Units=1/GPa)
#
#
# Indices 1 2 3 4 5 6 
#
# 1 0.011514 -0.003316 -0.006828 0.000000 -0.001508 0.000000
# 2 -0.003316 0.029594 -0.007496 0.000000 0.003307 0.000000
# 3 -0.006828 -0.007496 0.015265 0.000000 -0.000497 0.000000
# 4 0.000000 0.000000 0.000000 0.034572 0.000000 0.002984
# 5 -0.001508 0.003307 -0.000497 0.000000 0.027748 0.000000
# 6 0.000000 0.000000 0.000000 0.002984 0.000000 0.047445
#
#
# Mechanical properties :
#
#
# Convention : Reuss Voigt Hill
#
# Bulk Modulus (GPa) = 47.40994 72.10686 59.75840
# Shear Modulus (GPa) = 23.98681 27.90616 25.94648
#
# Velocity S-wave (km/s) = 3.61524 3.89943 3.76002
# Velocity P-wave (km/s) = 6.57719 7.71776 7.17019
#
# Compressibility (1/GPa) = 0.02109263
#
# Stress axis : x y z
#
# Youngs Moduli (GPa) = 86.85268 33.79082 65.50945
#
# Poissons Ratio (x) = 0.11205 0.44730
# Poissons Ratio (y) = 0.28799 0.49106
# Poissons Ratio (z) = 0.59303 0.25330
#
# Static dielectric constant tensor:
#      x y z
#    x 3.793440 0.000000 0.193870 
#    y 0.000000 3.293310 0.000000 
#    z 0.193870 0.000000 3.369220 
# 
# 
# High freq. dielectric constant tensor:
#      x y z
#    x 1.724160 0.000000 0.005150 
#    y 0.000000 1.685050 0.000000 
#    z 0.005150 0.000000 1.710670 
# 
# From -- ./inp_files/64390.got.cif
#   From: 2010.06.25/outbox.cif.g09.slc.cpg/sg11_33_cif.got.tgz:64390.got - 2010.06.27 23:14:04.
