data_PCOD8070369
_publ_section_title
;
Structure prediction by ZEFSAII (Michael W. Deem and Ramdas Pophale) SiO2 
 PCOD8070369
Probable space group: P 21/M
;
_chemical_formula_sum "Si O2"
_cell_formula_units_Z 32
_cell_length_a 29.021568
_cell_length_b 9.302805
_cell_length_c 14.602804
_cell_angle_alpha 90.000000
_cell_angle_beta 152.153428
_cell_angle_gamma 90.000000
_cell_volume 1841.560673
_symmetry_space_group_name_H-M "P 21/M"
_symmetry_group_IT_number 11
_symmetry_cell_setting 'monoclinic'
loop_
_space_group_symop_operation_xyz
x,y,z
-x,1/2+y,-z
-x,-y,-z
x,1/2-y,z
loop_
_atom_site_type_symbol
_atom_site_label
_atom_site_fract_x
_atom_site_fract_y
_atom_site_fract_z
Si Si1 0.534005 0.584571 0.471313
Si Si2 0.123771 0.583754 0.040221
Si Si3 0.712852 0.082888 0.813631
Si Si4 0.257232 0.579913 0.741908
Si Si5 0.396555 0.920663 0.824068
Si Si6 0.323766 0.914662 0.048555
Si Si7 0.782649 0.080177 0.609024
Si Si8 0.921427 0.080535 0.692921
O O1 0.500000 0.500000 0.500000
O O2 0.557696 0.750000 0.535536
O O3 0.633470 0.505199 0.612165
O O4 0.442149 0.572140 0.240046
O O5 0.097486 0.750000 0.009787
O O6 0.180806 0.560318 0.044988
O O7 0.192866 0.528071 0.245252
O O8 0.024567 0.495627 0.860159
O O9 0.681092 0.250000 0.757116
O O10 0.712530 0.019837 0.917444
O O11 0.266305 0.750000 0.764379
O O12 0.342305 0.528330 0.821778
O O13 0.149159 0.536820 0.515853
O O14 0.272932 0.510375 0.870820
O O15 0.414333 0.750000 0.853371
O O16 0.325624 0.971644 0.614949
O O17 0.500000 0.000000 0.000000
O O18 0.290842 0.750000 0.994158
O O19 0.781705 0.250000 0.598652
O O20 0.869572 0.024055 0.694739
O O21 0.940067 0.250000 0.728760
#
# Coordination Sequence:
#
# PCOD8070369 Si02
#       8
#     4   4   4   4   4   4   4   4
#     4   9  16  27  45  66  89 117 148 182 217 255
#     4  10  19  31  47  66  91 120 145 180 231 272
#     4   9  18  30  44  65  92 120 149 180 219 266
#     4   8  15  29  48  65  85 117 151 180 215 261
#     4   9  17  30  47  68  93 118 145 178 216 259
#     4   8  14  27  46  65  85 115 152 180 207 255
#     4   8  16  31  48  65  89 121 150 176 218 275
#     4   9  17  31  50  68  84 110 152 192 222 261
#
# _framework density 17.376566
#
# number of rings (size 3 to 8) (size 9 to 14) (size 15 to 20)
#    0.000    3.250    0.000    3.000    0.000    1.500 
#    0.000    3.750    0.000    6.750    0.000    0.000 
#    0.000    0.000    0.000    0.000    0.000    0.000 
#
# Total GULP energy -396460.611440 kJ/mol
# GULP energy per Si atom -12389.394107 kJ/mol
# Density = 1.733702 g / cm^3
# Si number density = 17.376566 Si / 1000 Ang^3
#
#
#
# Elastic Constant Matrix: (Units=GPa)
#
#
# Indices 1 2 3 4 5 6 
#
# 1 98.8902 26.4468 76.6980 0.0000 -5.0463 0.0000
# 2 26.4468 43.9023 42.6089 0.0000 6.0930 0.0000
# 3 76.6980 42.6089 141.8029 0.0000 3.0065 0.0000
# 4 0.0000 0.0000 0.0000 30.0374 0.0000 8.7593
# 5 -5.0463 6.0930 3.0065 0.0000 31.1527 0.0000
# 6 0.0000 0.0000 0.0000 8.7593 0.0000 16.5294
#
#
#
# Elastic Compliance Matrix: (Units=1/GPa)
#
#
# Indices 1 2 3 4 5 6 
#
# 1 0.018083 -0.002700 -0.009061 0.000000 0.004332 0.000000
# 2 -0.002700 0.033480 -0.008469 0.000000 -0.006168 0.000000
# 3 -0.009061 -0.008469 0.014523 0.000000 -0.001213 0.000000
# 4 0.000000 0.000000 0.000000 0.039377 0.000000 -0.020867
# 5 0.004332 -0.006168 -0.001213 0.000000 0.034125 0.000000
# 6 0.000000 0.000000 0.000000 -0.020867 0.000000 0.071556
#
#
# Mechanical properties :
#
#
# Convention : Reuss Voigt Hill
#
# Bulk Modulus (GPa) = 39.02287 64.01140 51.51713
# Shear Modulus (GPa) = 19.21993 24.80002 22.00998
#
# Velocity S-wave (km/s) = 3.32939 3.78194 3.56286
# Velocity P-wave (km/s) = 6.10620 7.48255 6.82914
#
# Compressibility (1/GPa) = 0.02562600
#
# Stress axis : x y z
#
# Youngs Moduli (GPa) = 55.29979 29.86883 68.85395
#
# Poissons Ratio (x) = 0.08065 0.62391
# Poissons Ratio (y) = 0.14932 0.58310
# Poissons Ratio (z) = 0.50109 0.25295
#
# Static dielectric constant tensor:
#      x y z
#    x 3.449770 0.000000 -0.188310 
#    y 0.000000 3.025200 0.000000 
#    z -0.188310 0.000000 3.601420 
# 
# 
# High freq. dielectric constant tensor:
#      x y z
#    x 1.662480 0.000000 -0.002840 
#    y 0.000000 1.632440 0.000000 
#    z -0.002840 0.000000 1.674780 
# 
# From -- ./inp_files/51379.got.cif
#   From: 2010.06.25/outbox.cif.g09.slc.cpg/sg11_26_cif.got.tgz:51379.got - 2010.06.27 23:14:04.
