data_PCOD8070157
_publ_section_title
;
Structure prediction by ZEFSAII (Michael W. Deem and Ramdas Pophale) SiO2 
 PCOD8070157
Probable space group: P 21/M
;
_chemical_formula_sum "Si O2"
_cell_formula_units_Z 28
_cell_length_a 11.878384
_cell_length_b 9.660405
_cell_length_c 15.137045
_cell_angle_alpha 90.000000
_cell_angle_beta 59.286365
_cell_angle_gamma 90.000000
_cell_volume 1493.331608
_symmetry_space_group_name_H-M "P 21/M"
_symmetry_group_IT_number 11
_symmetry_cell_setting 'monoclinic'
loop_
_space_group_symop_operation_xyz
x,y,z
-x,1/2+y,-z
-x,-y,-z
x,1/2-y,z
loop_
_atom_site_type_symbol
_atom_site_label
_atom_site_fract_x
_atom_site_fract_y
_atom_site_fract_z
Si Si1 0.591925 0.097666 0.016852
Si Si2 0.626736 0.411668 0.200531
Si Si3 0.612760 0.409345 0.684314
Si Si4 0.074621 0.585481 0.893394
Si Si5 0.889954 0.409970 0.494351
Si Si6 0.764662 0.099000 0.790908
Si Si7 0.992946 0.592254 0.731962
O O1 0.527152 0.250000 0.048516
O O2 0.625434 0.041704 0.099329
O O3 0.726948 0.103341 0.908692
O O4 0.500000 0.000000 0.000000
O O5 0.597575 0.250000 0.226801
O O6 0.512399 0.498626 0.295604
O O7 0.771632 0.450742 0.174310
O O8 0.578106 0.250000 0.677858
O O9 0.744057 0.456918 0.580655
O O10 0.639983 0.435098 0.778078
O O11 0.054160 0.750000 0.918579
O O12 0.025450 0.535856 0.816621
O O13 0.000000 0.500000 0.000000
O O14 0.914436 0.250000 0.510924
O O15 0.891759 0.426175 0.386494
O O16 0.000000 0.500000 0.500000
O O17 0.819690 0.250000 0.739844
O O18 0.874052 0.985839 0.733168
O O19 0.950130 0.750000 0.759225
#
# Coordination Sequence:
#
# PCOD8070157 Si02
#       7
#     4   4   4   4   4   4   4
#     4  10  19  30  46  71 102 135 169 212 266 322
#     4  10  21  36  54  76 108 146 183 227 276 327
#     4  10  20  34  53  79 111 144 179 224 277 328
#     4  10  22  41  61  83 111 147 189 232 276 327
#     4  10  20  35  55  82 114 147 183 228 279 332
#     4  10  19  32  51  78 111 143 177 223 275 327
#     4  10  21  36  57  82 109 144 186 229 276 329
#
# _framework density 18.750021
#
# number of rings (size 3 to 8) (size 9 to 14) (size 15 to 20)
#    0.000    2.000    2.857    0.857    0.000    4.000 
#    0.000    0.714    0.000    0.000    0.000    0.000 
#    0.000    0.000    0.000    0.000    0.000    0.000 
#
# Total GULP energy -346986.346753 kJ/mol
# GULP energy per Si atom -12392.369527 kJ/mol
# Density = 1.870734 g / cm^3
# Si number density = 18.750021 Si / 1000 Ang^3
#
#
#
# Elastic Constant Matrix: (Units=GPa)
#
#
# Indices 1 2 3 4 5 6 
#
# 1 89.6564 48.3350 33.2046 0.0000 -16.3987 0.0000
# 2 48.3350 65.7915 34.0534 0.0000 -11.9697 0.0000
# 3 33.2046 34.0534 98.5962 0.0000 -7.4402 0.0000
# 4 0.0000 0.0000 0.0000 26.2632 0.0000 -7.7934
# 5 -16.3987 -11.9697 -7.4402 0.0000 33.0507 0.0000
# 6 0.0000 0.0000 0.0000 -7.7934 0.0000 28.7977
#
#
#
# Elastic Compliance Matrix: (Units=1/GPa)
#
#
# Indices 1 2 3 4 5 6 
#
# 1 0.019415 -0.012429 -0.001891 0.000000 0.004706 0.000000
# 2 -0.012429 0.027446 -0.005095 0.000000 0.002626 0.000000
# 3 -0.001891 -0.005095 0.012542 0.000000 0.000040 0.000000
# 4 0.000000 0.000000 0.000000 0.041401 0.000000 0.011204
# 5 0.004706 0.002626 0.000040 0.000000 0.033552 0.000000
# 6 0.000000 0.000000 0.000000 0.011204 0.000000 0.037757
#
#
# Mechanical properties :
#
#
# Convention : Reuss Voigt Hill
#
# Bulk Modulus (GPa) = 48.60734 53.91446 51.26090
# Shear Modulus (GPa) = 22.95676 26.85241 24.90458
#
# Velocity S-wave (km/s) = 3.50288 3.78845 3.64846
# Velocity P-wave (km/s) = 6.50695 6.92483 6.71914
#
# Compressibility (1/GPa) = 0.02057302
#
# Stress axis : x y z
#
# Youngs Moduli (GPa) = 51.50551 36.43532 79.73222
#
# Poissons Ratio (x) = 0.45286 0.15075
# Poissons Ratio (y) = 0.64017 0.40627
# Poissons Ratio (z) = 0.09738 0.18565
#
# Static dielectric constant tensor:
#      x y z
#    x 3.309030 0.000000 0.066850 
#    y 0.000000 3.434050 0.000000 
#    z 0.066850 0.000000 3.779970 
# 
# 
# High freq. dielectric constant tensor:
#      x y z
#    x 1.706170 0.000000 -0.003060 
#    y 0.000000 1.724870 0.000000 
#    z -0.003060 0.000000 1.735700 
# 
# From -- ./inp_files/37676.got.cif
#   From: 2010.06.25/outbox.cif.g09.slc.cpg/sg11_19_cif.got.tgz:37676.got - 2010.06.27 23:14:04.
