data_PCOD8070640
_publ_section_title
;
Structure prediction by ZEFSAII (Michael W. Deem and Ramdas Pophale) SiO2 
 PCOD8070640
Probable space group: P 21/M
;
_chemical_formula_sum "Si O2"
_cell_formula_units_Z 28
_cell_length_a 14.300652
_cell_length_b 9.263808
_cell_length_c 13.283171
_cell_angle_alpha 90.000000
_cell_angle_beta 121.730452
_cell_angle_gamma 90.000000
_cell_volume 1496.709985
_symmetry_space_group_name_H-M "P 21/M"
_symmetry_group_IT_number 11
_symmetry_cell_setting 'monoclinic'
loop_
_space_group_symop_operation_xyz
x,y,z
-x,1/2+y,-z
-x,-y,-z
x,1/2-y,z
loop_
_atom_site_type_symbol
_atom_site_label
_atom_site_fract_x
_atom_site_fract_y
_atom_site_fract_z
Si Si1 0.255256 0.080795 0.189072
Si Si2 0.326436 0.587693 0.933312
Si Si3 0.676566 0.917668 0.269733
Si Si4 0.442509 0.582437 0.201584
Si Si5 0.099663 0.077357 0.500979
Si Si6 0.098617 0.418625 0.273428
Si Si7 0.121525 0.584591 0.947756
O O1 0.264512 0.250000 0.172339
O O2 0.211457 0.049829 0.277256
O O3 0.375721 0.009264 0.246733
O O4 0.167725 0.013701 0.062762
O O5 0.357837 0.750000 0.920383
O O6 0.347429 0.489115 0.850075
O O7 0.199693 0.577269 0.894613
O O8 0.403225 0.534151 0.068292
O O9 0.687303 0.750000 0.253512
O O10 0.572772 0.947381 0.285119
O O11 0.787126 0.975865 0.383834
O O12 0.412600 0.750000 0.201561
O O13 0.085947 0.250000 0.499397
O O14 0.105141 0.018445 0.389662
O O15 0.000000 0.000000 0.500000
O O16 0.076382 0.250000 0.270467
O O17 0.995140 0.482344 0.152803
O O18 0.112529 0.750000 0.981542
#
# Coordination Sequence:
#
# PCOD8070640 Si02
#       7
#     4   4   4   4   4   4   4
#     4  10  19  31  50  76 100 128 166 206 243 287
#     4   9  17  29  49  74 102 133 161 195 247 299
#     4  10  20  33  52  74  97 129 169 206 242 285
#     4   9  19  35  50  70 101 134 163 198 248 298
#     4  10  21  38  56  75 100 130 163 202 243 290
#     4   9  18  33  52  72 100 135 166 197 245 298
#     4   9  17  31  50  73 102 135 162 194 246 301
#
# _framework density 18.707699000000002
#
# number of rings (size 3 to 8) (size 9 to 14) (size 15 to 20)
#    0.000    2.571    0.000    3.000    0.000    4.571 
#    0.000    3.571    0.000    0.000    0.000    0.000 
#    0.000    0.000    0.000    0.000    0.000    0.000 
#
# Total GULP energy -347151.154820 kJ/mol
# GULP energy per Si atom -12398.255529 kJ/mol
# Density = 1.866512 g / cm^3
# Si number density = 18.707699 Si / 1000 Ang^3
#
#
#
# Elastic Constant Matrix: (Units=GPa)
#
#
# Indices 1 2 3 4 5 6 
#
# 1 137.9423 47.9695 61.9593 0.0000 4.2505 0.0000
# 2 47.9695 54.1797 30.8517 0.0000 -4.2655 0.0000
# 3 61.9593 30.8517 68.7692 0.0000 -3.2092 0.0000
# 4 0.0000 0.0000 0.0000 16.2321 0.0000 -1.8823
# 5 4.2505 -4.2655 -3.2092 0.0000 33.5711 0.0000
# 6 0.0000 0.0000 0.0000 -1.8823 0.0000 31.8388
#
#
#
# Elastic Compliance Matrix: (Units=1/GPa)
#
#
# Indices 1 2 3 4 5 6 
#
# 1 0.014321 -0.007420 -0.009746 0.000000 -0.003688 0.000000
# 2 -0.007420 0.028782 -0.006040 0.000000 0.004019 0.000000
# 3 -0.009746 -0.006040 0.026170 0.000000 0.002968 0.000000
# 4 0.000000 0.000000 0.000000 0.062031 0.000000 0.003667
# 5 -0.003688 0.004019 0.002968 0.000000 0.031049 0.000000
# 6 0.000000 0.000000 0.000000 0.003667 0.000000 0.031625
#
#
# Mechanical properties :
#
#
# Convention : Reuss Voigt Hill
#
# Bulk Modulus (GPa) = 43.74052 60.27246 52.00649
# Shear Modulus (GPa) = 20.16037 24.33579 22.24808
#
# Velocity S-wave (km/s) = 3.28632 3.61063 3.45229
# Velocity P-wave (km/s) = 6.15074 7.04771 6.61445
#
# Compressibility (1/GPa) = 0.02286210
#
# Stress axis : x y z
#
# Youngs Moduli (GPa) = 69.82746 34.74361 38.21109
#
# Poissons Ratio (x) = 0.25780 0.37241
# Poissons Ratio (y) = 0.51813 0.23078
# Poissons Ratio (z) = 0.68055 0.20984
#
# Static dielectric constant tensor:
#      x y z
#    x 3.638000 0.000000 0.110160 
#    y 0.000000 3.243840 0.000000 
#    z 0.110160 0.000000 3.347040 
# 
# 
# High freq. dielectric constant tensor:
#      x y z
#    x 1.741260 0.000000 0.004340 
#    y 0.000000 1.706320 0.000000 
#    z 0.004340 0.000000 1.704640 
# 
# From -- ./inp_files/37841.got.cif
#   From: 2010.06.25/outbox.cif.g09.slc.cpg/sg11_19_cif.got.tgz:37841.got - 2010.06.27 23:14:04.
