data_PCOD8070455
_publ_section_title
;
Structure prediction by ZEFSAII (Michael W. Deem and Ramdas Pophale) SiO2 
 PCOD8070455
Probable space group: P 21/M
;
_chemical_formula_sum "Si O2"
_cell_formula_units_Z 32
_cell_length_a 18.573037
_cell_length_b 21.656556
_cell_length_c 14.841142
_cell_angle_alpha 90.000000
_cell_angle_beta 160.478896
_cell_angle_gamma 90.000000
_cell_volume 1994.740283
_symmetry_space_group_name_H-M "P 21/M"
_symmetry_group_IT_number 11
_symmetry_cell_setting 'monoclinic'
loop_
_space_group_symop_operation_xyz
x,y,z
-x,1/2+y,-z
-x,-y,-z
x,1/2-y,z
loop_
_atom_site_type_symbol
_atom_site_label
_atom_site_fract_x
_atom_site_fract_y
_atom_site_fract_z
Si Si1 0.207032 0.821390 0.344346
Si Si2 0.136602 0.083632 0.095291
Si Si3 0.636595 0.583634 0.095282
Si Si4 0.707037 0.321390 0.344350
Si Si5 0.268733 0.487541 0.623002
Si Si6 0.059913 0.411918 0.707180
Si Si7 0.559912 0.588083 0.707181
Si Si8 0.768736 0.987541 0.623006
O O1 0.206554 0.750000 0.317577
O O2 0.249995 0.832863 0.499995
O O3 0.394168 0.855011 0.509256
O O4 0.975274 0.849465 0.043960
O O5 0.351547 0.081101 0.289237
O O6 0.200703 0.070228 0.274186
O O7 0.974225 0.032030 0.867073
O O8 0.700684 0.570227 0.274164
O O9 0.851542 0.581101 0.289233
O O10 0.524728 0.650538 0.956042
O O11 0.474206 0.532036 0.867045
O O12 0.706575 0.250000 0.317599
O O13 0.894162 0.355014 0.509245
O O14 0.055780 0.525051 0.399751
O O15 0.249998 0.460905 0.499998
O O16 0.249996 0.395648 0.999996
O O17 0.444213 0.525054 0.600244
#
# Coordination Sequence:
#
# PCOD8070455 Si02
#       8
#     4   4   4   4   4   4   4   4
#     4  10  20  32  47  69  96 126 159 191 228 277
#     4  10  19  32  48  69  98 126 154 192 233 275
#     4  10  19  32  48  69  98 126 154 192 233 275
#     4  10  20  32  47  69  96 126 159 191 228 277
#     4  10  19  31  48  71  97 125 156 189 231 282
#     4  11  17  30  48  72 100 125 150 186 235 283
#     4  11  17  30  48  72 100 125 150 186 235 283
#     4  10  19  31  48  71  97 125 156 189 231 282
#
# _framework density 16.042189
#
# number of rings (size 3 to 8) (size 9 to 14) (size 15 to 20)
#    0.000    1.750    5.000    2.250    0.000    1.500 
#    0.000    0.000    0.000    0.750    0.000    1.750 
#    0.000    0.000    0.000    0.000    0.000    0.000 
#
# Total GULP energy -396891.950788 kJ/mol
# GULP energy per Si atom -12402.873462 kJ/mol
# Density = 1.600568 g / cm^3
# Si number density = 16.042189 Si / 1000 Ang^3
#
#
#
# Elastic Constant Matrix: (Units=GPa)
#
#
# Indices 1 2 3 4 5 6 
#
# 1 125.0542 44.4356 55.1123 0.0000 -0.5615 0.0000
# 2 44.4356 81.4643 34.2632 0.0000 -4.4233 0.0000
# 3 55.1123 34.2632 65.6201 0.0000 6.7433 0.0000
# 4 0.0000 0.0000 0.0000 16.5710 0.0000 -5.5431
# 5 -0.5615 -4.4233 6.7433 0.0000 35.0106 0.0000
# 6 0.0000 0.0000 0.0000 -5.5431 0.0000 15.3399
#
#
#
# Elastic Compliance Matrix: (Units=1/GPa)
#
#
# Indices 1 2 3 4 5 6 
#
# 1 0.013447 -0.003097 -0.009854 0.000000 0.001722 0.000000
# 2 -0.003097 0.016912 -0.006574 0.000000 0.003353 0.000000
# 3 -0.009854 -0.006574 0.027596 0.000000 -0.006304 0.000000
# 4 0.000000 0.000000 0.000000 0.068643 0.000000 0.024804
# 5 0.001722 0.003353 -0.006304 0.000000 0.030228 0.000000
# 6 0.000000 0.000000 0.000000 0.024804 0.000000 0.074152
#
#
# Mechanical properties :
#
#
# Convention : Reuss Voigt Hill
#
# Bulk Modulus (GPa) = 52.89610 59.97341 56.43476
# Shear Modulus (GPa) = 18.09433 22.60615 20.35024
#
# Velocity S-wave (km/s) = 3.36210 3.75796 3.56553
# Velocity P-wave (km/s) = 6.93659 7.50304 7.22537
#
# Compressibility (1/GPa) = 0.01890499
#
# Stress axis : x y z
#
# Youngs Moduli (GPa) = 74.36342 59.13117 36.23772
#
# Poissons Ratio (x) = 0.18313 0.35709
# Poissons Ratio (y) = 0.23031 0.23822
# Poissons Ratio (z) = 0.73278 0.38871
#
# Static dielectric constant tensor:
#      x y z
#    x 3.102860 0.000000 0.106630 
#    y 0.000000 2.861840 0.000000 
#    z 0.106630 0.000000 3.122670 
# 
# 
# High freq. dielectric constant tensor:
#      x y z
#    x 1.618390 0.000000 0.017380 
#    y 0.000000 1.587400 0.000000 
#    z 0.017380 0.000000 1.616070 
# 
# From -- ./inp_files/7049.got.cif
#   From: 2010.06.25/outbox.cif.g09.slc.cpg/sg11_4_cif.got.tgz:7049.got - 2010.06.27 23:14:04.
