data_PCOD8070064
_publ_section_title
;
Structure prediction by ZEFSAII (Michael W. Deem and Ramdas Pophale) SiO2 
 PCOD8070064
Probable space group: P 21/M
;
_chemical_formula_sum "Si O2"
_cell_formula_units_Z 32
_cell_length_a 16.253629
_cell_length_b 9.018233
_cell_length_c 13.851908
_cell_angle_alpha 90.000000
_cell_angle_beta 86.600085
_cell_angle_gamma 90.000000
_cell_volume 2026.825336
_symmetry_space_group_name_H-M "P 21/M"
_symmetry_group_IT_number 11
_symmetry_cell_setting 'monoclinic'
loop_
_space_group_symop_operation_xyz
x,y,z
-x,1/2+y,-z
-x,-y,-z
x,1/2-y,z
loop_
_atom_site_type_symbol
_atom_site_label
_atom_site_fract_x
_atom_site_fract_y
_atom_site_fract_z
Si Si1 0.948377 0.416720 0.639270
Si Si2 0.428787 0.574752 0.566063
Si Si3 0.420400 0.077201 0.962935
Si Si4 0.262116 0.078821 0.518017
Si Si5 0.209695 0.079066 0.302300
Si Si6 0.896577 0.417412 0.421145
Si Si7 0.466289 0.575517 0.781685
Si Si8 0.355989 0.422346 0.165019
O O1 0.962584 0.250000 0.675495
O O2 0.875031 0.490025 0.705780
O O3 0.924861 0.417341 0.529248
O O4 0.032266 0.509088 0.649348
O O5 0.500000 0.500000 0.500000
O O6 0.433221 0.750000 0.550700
O O7 0.341911 0.515087 0.537159
O O8 0.440675 0.530442 0.676456
O O9 0.437228 0.250000 0.946669
O O10 0.401478 0.002174 0.860599
O O11 0.349447 0.051804 0.049309
O O12 0.500000 0.000000 0.000000
O O13 0.274688 0.250000 0.545617
O O14 0.246147 0.060347 0.406144
O O15 0.186232 0.013343 0.584804
O O16 0.190038 0.250000 0.281214
O O17 0.276265 0.008143 0.223293
O O18 0.880646 0.250000 0.386055
O O19 0.461454 0.750000 0.800067
O O20 0.558548 0.513497 0.796906
O O21 0.355650 0.250000 0.191505
#
# Coordination Sequence:
#
# PCOD8070064 Si02
#       8
#     4   4   4   4   4   4   4   4
#     4   9  16  25  38  59  84 108 138 176 213 250
#     4  11  22  34  47  63  86 116 150 186 221 257
#     4   9  16  27  44  64  84 108 140 178 218 260
#     4  10  19  30  44  62  85 115 149 182 215 251
#     4   9  16  27  42  59  84 117 145 170 208 258
#     4   9  16  27  42  58  79 110 145 177 211 252
#     4   9  18  32  46  60  82 113 147 183 220 256
#     4   8  14  26  43  61  82 109 140 172 210 255
#
# _framework density 15.788239000000001
#
# number of rings (size 3 to 8) (size 9 to 14) (size 15 to 20)
#    0.000    2.750    0.000    3.375    0.000    6.500 
#    0.000    3.125    0.000    0.000    0.000    0.000 
#    0.000    1.000    0.000    3.000    0.000    4.625 
#
# Total GULP energy -396646.079396 kJ/mol
# GULP energy per Si atom -12395.189981 kJ/mol
# Density = 1.575230 g / cm^3
# Si number density = 15.788239 Si / 1000 Ang^3
#
#
#
# Elastic Constant Matrix: (Units=GPa)
#
#
# Indices 1 2 3 4 5 6 
#
# 1 96.9256 37.2357 38.2067 0.0000 -23.9674 0.0000
# 2 37.2357 80.5868 41.5286 0.0000 -10.7283 0.0000
# 3 38.2067 41.5286 67.0774 0.0000 -17.1829 0.0000
# 4 0.0000 0.0000 0.0000 20.8536 0.0000 -3.0963
# 5 -23.9674 -10.7283 -17.1829 0.0000 21.3542 0.0000
# 6 0.0000 0.0000 0.0000 -3.0963 0.0000 27.6887
#
#
#
# Elastic Compliance Matrix: (Units=1/GPa)
#
#
# Indices 1 2 3 4 5 6 
#
# 1 0.016673 -0.004104 -0.003389 0.000000 0.013924 0.000000
# 2 -0.004104 0.019233 -0.010423 0.000000 -0.003330 0.000000
# 3 -0.003389 -0.010423 0.026422 0.000000 0.012220 0.000000
# 4 0.000000 0.000000 0.000000 0.048763 0.000000 0.005453
# 5 0.013924 -0.003330 0.012220 0.000000 0.070618 0.000000
# 6 0.000000 0.000000 0.000000 0.005453 0.000000 0.036726
#
#
# Mechanical properties :
#
#
# Convention : Reuss Voigt Hill
#
# Bulk Modulus (GPa) = 37.74130 53.17023 45.45576
# Shear Modulus (GPa) = 19.00431 22.48722 20.74576
#
# Velocity S-wave (km/s) = 3.47320 3.77809 3.62885
# Velocity P-wave (km/s) = 6.32778 7.26513 6.81260
#
# Compressibility (1/GPa) = 0.02649617
#
# Stress axis : x y z
#
# Youngs Moduli (GPa) = 59.97808 51.99376 37.84696
#
# Poissons Ratio (x) = 0.21336 0.12827
# Poissons Ratio (y) = 0.24612 0.39449
# Poissons Ratio (z) = 0.20328 0.54194
#
# Static dielectric constant tensor:
#      x y z
#    x 3.140150 0.000000 -0.315990 
#    y 0.000000 3.122660 0.000000 
#    z -0.315990 0.000000 2.999590 
# 
# 
# High freq. dielectric constant tensor:
#      x y z
#    x 1.591500 0.000000 -0.027820 
#    y 0.000000 1.611090 0.000000 
#    z -0.027820 0.000000 1.572660 
# 
# From -- ./inp_files/51353.got.cif
#   From: 2010.06.25/outbox.cif.g09.slc.cpg/sg11_26_cif.got.tgz:51353.got - 2010.06.27 23:14:04.
