data_PCOD8070774
_publ_section_title
;
Structure prediction by ZEFSAII (Michael W. Deem and Ramdas Pophale) SiO2 
 PCOD8070774
Probable space group: P 21/M
;
_chemical_formula_sum "Si O2"
_cell_formula_units_Z 24
_cell_length_a 14.278258
_cell_length_b 9.362173
_cell_length_c 12.145351
_cell_angle_alpha 90.000000
_cell_angle_beta 110.686786
_cell_angle_gamma 90.000000
_cell_volume 1518.859493
_symmetry_space_group_name_H-M "P 21/M"
_symmetry_group_IT_number 11
_symmetry_cell_setting 'monoclinic'
loop_
_space_group_symop_operation_xyz
x,y,z
-x,1/2+y,-z
-x,-y,-z
x,1/2-y,z
loop_
_atom_site_type_symbol
_atom_site_label
_atom_site_fract_x
_atom_site_fract_y
_atom_site_fract_z
Si Si1 0.729391 0.585591 0.539594
Si Si2 0.342555 0.082358 0.254726
Si Si3 0.982463 0.415506 0.156785
Si Si4 0.516544 0.583264 0.394163
Si Si5 0.852560 0.584895 0.949922
Si Si6 0.055363 0.418375 0.427115
O O1 0.754677 0.750000 0.572291
O O2 0.703088 0.522953 0.649173
O O3 0.635405 0.566324 0.416275
O O4 0.830664 0.519707 0.530809
O O5 0.369057 0.250000 0.273666
O O6 0.263320 0.051090 0.125174
O O7 0.444967 0.992599 0.273535
O O8 0.959275 0.250000 0.133600
O O9 0.080390 0.459638 0.127397
O O10 0.000425 0.456549 0.290400
O O11 0.885126 0.498431 0.071614
O O12 0.500000 0.500000 0.500000
O O13 0.488742 0.750000 0.394805
O O14 0.867332 0.750000 0.983156
O O15 0.052495 0.250000 0.450331
O O16 0.000000 0.500000 0.500000
#
# Coordination Sequence:
#
# PCOD8070774 Si02
#       6
#     4   4   4   4   4   4
#     4   8  14  27  43  57  83 119 146 170 213 265
#     4   9  15  26  43  63  88 118 143 170 215 267
#     4   9  17  29  44  62  87 118 148 180 218 259
#     4   9  16  25  40  61  85 115 145 175 213 262
#     4   9  16  27  45  65  88 118 146 174 216 267
#     4  10  19  32  47  63  86 119 154 184 217 256
#
# _framework density 15.80133
#
# number of rings (size 3 to 8) (size 9 to 14) (size 15 to 20)
#    0.000    3.000    1.667    1.500    0.000    1.333 
#    0.000    4.167    0.000    0.000    0.000    1.167 
#    0.000    0.000    0.000    0.000    0.000    0.000 
#
# Total GULP energy -297393.194689 kJ/mol
# GULP energy per Si atom -12391.383112 kJ/mol
# Density = 1.576537 g / cm^3
# Si number density = 15.801330 Si / 1000 Ang^3
#
#
#
# Elastic Constant Matrix: (Units=GPa)
#
#
# Indices 1 2 3 4 5 6 
#
# 1 89.4380 42.6626 57.8547 0.0000 23.0783 0.0000
# 2 42.6626 60.9839 49.4566 0.0000 17.0902 0.0000
# 3 57.8547 49.4566 94.9766 0.0000 22.0360 0.0000
# 4 0.0000 0.0000 0.0000 27.9874 0.0000 6.1354
# 5 23.0783 17.0902 22.0360 0.0000 29.2741 0.0000
# 6 0.0000 0.0000 0.0000 6.1354 0.0000 23.4840
#
#
#
# Elastic Compliance Matrix: (Units=1/GPa)
#
#
# Indices 1 2 3 4 5 6 
#
# 1 0.021180 -0.006425 -0.007938 0.000000 -0.006970 0.000000
# 2 -0.006425 0.031426 -0.011351 0.000000 -0.004736 0.000000
# 3 -0.007938 -0.011351 0.022155 0.000000 -0.003792 0.000000
# 4 0.000000 0.000000 0.000000 0.037901 0.000000 -0.009902
# 5 -0.006970 -0.004736 -0.003792 0.000000 0.045274 0.000000
# 6 0.000000 0.000000 0.000000 -0.009902 0.000000 0.045169
#
#
# Mechanical properties :
#
#
# Convention : Reuss Voigt Hill
#
# Bulk Modulus (GPa) = 42.86245 60.59404 51.72824
# Shear Modulus (GPa) = 19.06126 22.51074 20.78600
#
# Velocity S-wave (km/s) = 3.47696 3.77850 3.63086
# Velocity P-wave (km/s) = 6.58056 7.58068 7.09826
#
# Compressibility (1/GPa) = 0.02333045
#
# Stress axis : x y z
#
# Youngs Moduli (GPa) = 47.21520 31.82115 45.13590
#
# Poissons Ratio (x) = 0.20446 0.35831
# Poissons Ratio (y) = 0.30338 0.51235
# Poissons Ratio (z) = 0.37482 0.36121
#
# Static dielectric constant tensor:
#      x y z
#    x 3.172140 0.000000 0.490850 
#    y 0.000000 2.962330 0.000000 
#    z 0.490850 0.000000 2.959010 
# 
# 
# High freq. dielectric constant tensor:
#      x y z
#    x 1.587340 0.000000 0.041560 
#    y 0.000000 1.595200 0.000000 
#    z 0.041560 0.000000 1.582520 
# 
# From -- ./inp_files/27558.got.cif
#   From: 2010.06.25/outbox.cif.g09.slc.cpg/sg11_14_cif.got.tgz:27558.got - 2010.06.27 23:14:04.
