data_PCOD8070676
_publ_section_title
;
Structure prediction by ZEFSAII (Michael W. Deem and Ramdas Pophale) SiO2 
 PCOD8070676
Probable space group: P 21/M
;
_chemical_formula_sum "Si O2"
_cell_formula_units_Z 28
_cell_length_a 10.004690
_cell_length_b 9.468409
_cell_length_c 20.341163
_cell_angle_alpha 90.000000
_cell_angle_beta 66.526460
_cell_angle_gamma 90.000000
_cell_volume 1767.426509
_symmetry_space_group_name_H-M "P 21/M"
_symmetry_group_IT_number 11
_symmetry_cell_setting 'monoclinic'
loop_
_space_group_symop_operation_xyz
x,y,z
-x,1/2+y,-z
-x,-y,-z
x,1/2-y,z
loop_
_atom_site_type_symbol
_atom_site_label
_atom_site_fract_x
_atom_site_fract_y
_atom_site_fract_z
Si Si1 0.106486 0.912546 0.677434
Si Si2 0.069864 0.593276 0.541147
Si Si3 0.037081 0.916745 0.181498
Si Si4 0.636484 0.093355 0.459003
Si Si5 0.326210 0.085400 0.099060
Si Si6 0.603294 0.911470 0.065155
Si Si7 0.097867 0.087119 0.931522
O O1 0.082826 0.750000 0.706023
O O2 0.016289 0.938612 0.626788
O O3 0.278464 0.938229 0.626637
O O4 0.059265 0.026638 0.739832
O O5 0.022988 0.750000 0.531317
O O6 0.245874 0.576822 0.504953
O O7 0.000000 0.500000 0.500000
O O8 0.066967 0.750000 0.183546
O O9 0.945631 0.950365 0.134038
O O10 0.188123 0.000885 0.152984
O O11 0.573511 0.250000 0.469074
O O12 0.500000 0.000000 0.500000
O O13 0.316039 0.250000 0.121020
O O14 0.470025 0.017825 0.104103
O O15 0.330970 0.065256 0.020073
O O16 0.548676 0.750000 0.083840
O O17 0.731246 0.948436 0.091692
O O18 0.068524 0.250000 0.953741
O O19 0.000000 0.000000 0.000000
#
# Coordination Sequence:
#
# PCOD8070676 Si02
#       7
#     4   4   4   4   4   4   4
#     4   8  18  34  50  72 105 135 166 203 244 297
#     4   8  16  30  50  76 101 126 159 199 238 285
#     4  11  21  32  51  76 100 130 169 211 254 303
#     4   8  16  30  50  76 102 129 163 200 238 288
#     4  10  19  31  51  72  94 129 164 202 255 303
#     4   9  18  33  49  69  96 124 162 211 254 296
#     4  10  20  33  50  74 100 128 168 213 256 300
#
# _framework density 15.842241
#
# number of rings (size 3 to 8) (size 9 to 14) (size 15 to 20)
#    0.857    2.000    1.429    0.857    0.000    3.429 
#    0.000    0.000    3.143    0.000    0.000    0.000 
#    0.000    0.000    0.000    0.000    0.000    0.000 
#
# Total GULP energy -346907.818864 kJ/mol
# GULP energy per Si atom -12389.564959 kJ/mol
# Density = 1.580618 g / cm^3
# Si number density = 15.842241 Si / 1000 Ang^3
#
#
#
# Elastic Constant Matrix: (Units=GPa)
#
#
# Indices 1 2 3 4 5 6 
#
# 1 94.6085 66.7595 58.2824 0.0000 -3.5499 0.0000
# 2 66.7595 116.7948 68.1333 0.0000 -5.4849 0.0000
# 3 58.2824 68.1333 83.5416 0.0000 -4.5485 0.0000
# 4 0.0000 0.0000 0.0000 32.1164 0.0000 -4.7019
# 5 -3.5499 -5.4849 -4.5485 0.0000 21.7291 0.0000
# 6 0.0000 0.0000 0.0000 -4.7019 0.0000 31.6729
#
#
#
# Elastic Compliance Matrix: (Units=1/GPa)
#
#
# Indices 1 2 3 4 5 6 
#
# 1 0.020873 -0.006560 -0.009222 0.000000 -0.000176 0.000000
# 2 -0.006560 0.018433 -0.010380 0.000000 0.001408 0.000000
# 3 -0.009222 -0.010380 0.026952 0.000000 0.001515 0.000000
# 4 0.000000 0.000000 0.000000 0.031828 0.000000 0.004725
# 5 -0.000176 0.001408 0.001515 0.000000 0.046665 0.000000
# 6 0.000000 0.000000 0.000000 0.004725 0.000000 0.032274
#
#
# Mechanical properties :
#
#
# Convention : Reuss Voigt Hill
#
# Bulk Modulus (GPa) = 71.76424 75.69947 73.73186
# Shear Modulus (GPa) = 21.36811 23.88835 22.62823
#
# Velocity S-wave (km/s) = 3.67659 3.88737 3.78345
# Velocity P-wave (km/s) = 7.96372 8.24839 8.10730
#
# Compressibility (1/GPa) = 0.01393452
#
# Stress axis : x y z
#
# Youngs Moduli (GPa) = 47.90907 54.25047 37.10319
#
# Poissons Ratio (x) = 0.35586 0.34216
# Poissons Ratio (y) = 0.31426 0.38514
# Poissons Ratio (z) = 0.44181 0.56314
#
# Static dielectric constant tensor:
#      x y z
#    x 2.964310 0.000000 -0.000290 
#    y 0.000000 2.984390 0.000000 
#    z -0.000290 0.000000 2.763110 
# 
# 
# High freq. dielectric constant tensor:
#      x y z
#    x 1.601690 0.000000 -0.004610 
#    y 0.000000 1.618280 0.000000 
#    z -0.004610 0.000000 1.582050 
# 
# From -- ./inp_files/64140.got.cif
#   From: 2010.06.25/outbox.cif.g09.slc.cpg/sg11_33_cif.got.tgz:64140.got - 2010.06.27 23:14:04.
