data_PCOD8070791
_publ_section_title
;
Structure prediction by ZEFSAII (Michael W. Deem and Ramdas Pophale) SiO2 
 PCOD8070791
Probable space group: P 21/M
;
_chemical_formula_sum "Si O2"
_cell_formula_units_Z 24
_cell_length_a 11.826926
_cell_length_b 8.671201
_cell_length_c 23.232293
_cell_angle_alpha 90.000000
_cell_angle_beta 145.934616
_cell_angle_gamma 90.000000
_cell_volume 1334.561886
_symmetry_space_group_name_H-M "P 21/M"
_symmetry_group_IT_number 11
_symmetry_cell_setting 'monoclinic'
loop_
_space_group_symop_operation_xyz
x,y,z
-x,1/2+y,-z
-x,-y,-z
x,1/2-y,z
loop_
_atom_site_type_symbol
_atom_site_label
_atom_site_fract_x
_atom_site_fract_y
_atom_site_fract_z
Si Si1 0.787201 0.432182 0.390176
Si Si2 0.477132 0.433404 0.356596
Si Si3 0.107652 0.566487 0.250653
Si Si4 0.300746 0.567486 0.888408
Si Si5 0.763574 0.075697 0.573524
Si Si6 0.209586 0.074134 0.728199
O O1 0.811638 0.250000 0.399376
O O2 0.607108 0.484860 0.356556
O O3 0.713562 0.492374 0.297134
O O4 0.000000 0.500000 0.500000
O O5 0.456536 0.250000 0.349923
O O6 0.254311 0.510719 0.260849
O O7 0.589757 0.501339 0.461268
O O8 0.084221 0.750000 0.241987
O O9 0.204228 0.497343 0.350713
O O10 0.885553 0.494692 0.151628
O O11 0.303816 0.750000 0.892247
O O12 0.290698 0.514049 0.818157
O O13 0.500000 0.500000 0.000000
O O14 0.699470 0.250000 0.558188
O O15 0.968121 0.068325 0.623098
O O16 0.287364 0.250000 0.763550
#
# Coordination Sequence:
#
# PCOD8070791 Si02
#       6
#     4   4   4   4   4   4
#     4  11  21  33  51  76 110 154 195 229 266 317
#     4  10  19  32  48  71 108 151 187 222 264 316
#     4  10  20  33  51  78 108 140 180 225 273 324
#     4  11  22  39  62  86 108 137 175 223 279 331
#     4   8  15  29  47  70 104 142 177 219 264 311
#     4  10  19  35  55  80 111 143 183 231 272 320
#
# _framework density 17.983429999999998
#
# number of rings (size 3 to 8) (size 9 to 14) (size 15 to 20)
#    0.000    2.000    1.667    4.500    0.000    1.333 
#    0.000    0.833    0.000    1.000    0.000    0.000 
#    0.000    0.000    0.000    0.000    0.000    0.000 
#
# Total GULP energy -297507.698301 kJ/mol
# GULP energy per Si atom -12396.154096 kJ/mol
# Density = 1.794250 g / cm^3
# Si number density = 17.983430 Si / 1000 Ang^3
#
#
#
# Elastic Constant Matrix: (Units=GPa)
#
#
# Indices 1 2 3 4 5 6 
#
# 1 124.0841 52.9814 60.7158 0.0000 22.8507 0.0000
# 2 52.9814 102.4997 44.4448 0.0000 9.5360 0.0000
# 3 60.7158 44.4448 103.4107 0.0000 15.0115 0.0000
# 4 0.0000 0.0000 0.0000 27.1609 0.0000 1.3664
# 5 22.8507 9.5360 15.0115 0.0000 20.2354 0.0000
# 6 0.0000 0.0000 0.0000 1.3664 0.0000 29.7636
#
#
#
# Elastic Compliance Matrix: (Units=1/GPa)
#
#
# Indices 1 2 3 4 5 6 
#
# 1 0.014227 -0.004204 -0.005045 0.000000 -0.010342 0.000000
# 2 -0.004204 0.013309 -0.003396 0.000000 0.000995 0.000000
# 3 -0.005045 -0.003396 0.014605 0.000000 -0.003537 0.000000
# 4 0.000000 0.000000 0.000000 0.036903 0.000000 -0.001694
# 5 -0.010342 0.000995 -0.003537 0.000000 0.063252 0.000000
# 6 0.000000 0.000000 0.000000 -0.001694 0.000000 0.033676
#
#
# Mechanical properties :
#
#
# Convention : Reuss Voigt Hill
#
# Bulk Modulus (GPa) = 59.34338 71.80874 65.57606
# Shear Modulus (GPa) = 24.16845 26.88883 25.52864
#
# Velocity S-wave (km/s) = 3.66994 3.87098 3.77180
# Velocity P-wave (km/s) = 7.14342 7.74574 7.45067
#
# Compressibility (1/GPa) = 0.01685108
#
# Stress axis : x y z
#
# Youngs Moduli (GPa) = 70.28706 75.13533 68.46751
#
# Poissons Ratio (x) = 0.31589 0.34543
# Poissons Ratio (y) = 0.29550 0.23253
# Poissons Ratio (z) = 0.35461 0.25517
#
# Static dielectric constant tensor:
#      x y z
#    x 3.475200 0.000000 0.047480 
#    y 0.000000 3.242360 0.000000 
#    z 0.047480 0.000000 3.172680 
# 
# 
# High freq. dielectric constant tensor:
#      x y z
#    x 1.698550 0.000000 0.008730 
#    y 0.000000 1.694830 0.000000 
#    z 0.008730 0.000000 1.668080 
# 
# From -- ./inp_files/42256.got.cif
#   From: 2010.06.25/outbox.cif.g09.slc.cpg/sg11_22_cif.got.tgz:42256.got - 2010.06.27 23:14:04.
