data_PCOD8070362
_publ_section_title
;
Structure prediction by ZEFSAII (Michael W. Deem and Ramdas Pophale) SiO2 
 PCOD8070362
Probable space group: P 21/M
;
_chemical_formula_sum "Si O2"
_cell_formula_units_Z 32
_cell_length_a 28.283437
_cell_length_b 8.941545
_cell_length_c 16.891703
_cell_angle_alpha 90.000000
_cell_angle_beta 24.125712
_cell_angle_gamma 90.000000
_cell_volume 1746.085048
_symmetry_space_group_name_H-M "P 21/M"
_symmetry_group_IT_number 11
_symmetry_cell_setting 'monoclinic'
loop_
_space_group_symop_operation_xyz
x,y,z
-x,1/2+y,-z
-x,-y,-z
x,1/2-y,z
loop_
_atom_site_type_symbol
_atom_site_label
_atom_site_fract_x
_atom_site_fract_y
_atom_site_fract_z
Si Si1 0.748986 0.580175 0.961537
Si Si2 0.527726 0.078707 0.252102
Si Si3 0.672471 0.575029 0.722408
Si Si4 0.599825 0.577856 0.399111
Si Si5 0.172640 0.573961 0.009486
Si Si6 0.503798 0.923845 0.120643
Si Si7 0.086570 0.418852 0.424136
Si Si8 0.082817 0.074091 0.602656
O O1 0.744468 0.750000 0.999835
O O2 0.789381 0.574455 0.808657
O O3 0.623413 0.508943 0.155981
O O4 0.831602 0.484820 0.893527
O O5 0.565618 0.250000 0.182298
O O6 0.418308 0.065210 0.478235
O O7 0.505700 0.009558 0.200377
O O8 0.659240 0.750000 0.721296
O O9 0.609391 0.477576 0.752996
O O10 0.806893 0.519075 0.514798
O O11 0.617417 0.544170 0.893545
O O12 0.500000 0.500000 0.500000
O O13 0.601935 0.750000 0.369236
O O14 0.725862 0.506744 0.193011
O O15 0.196015 0.750000 0.973134
O O16 0.044937 0.536907 0.166760
O O17 0.491903 0.750000 0.158097
O O18 0.042319 0.250000 0.501824
O O19 0.094870 0.498094 0.496631
O O20 0.000000 0.500000 0.500000
O O21 0.099499 0.250000 0.567690
#
# Coordination Sequence:
#
# PCOD8070362 Si02
#       8
#     4   4   4   4   4   4   4   4
#     4  11  21  32  50  75 107 144 181 223 270 318
#     4  11  23  37  56  79 106 142 182 227 279 333
#     4   9  18  36  59  82 113 149 182 218 268 329
#     4  11  23  38  56  78 107 143 186 232 281 329
#     4  11  21  34  53  76 106 144 185 225 269 322
#     4  10  20  35  58  87 115 141 177 227 276 324
#     4  10  19  31  46  70 105 143 179 215 258 312
#     4   9  18  33  53  75 106 147 185 220 265 325
#
# _framework density 18.326713999999999
#
# number of rings (size 3 to 8) (size 9 to 14) (size 15 to 20)
#    0.000    1.750    2.500    2.625    0.000    4.500 
#    0.000    1.875    0.000    0.750    0.000    0.000 
#    0.000    0.000    0.000    0.000    0.000    0.000 
#
# Total GULP energy -396611.730940 kJ/mol
# GULP energy per Si atom -12394.116592 kJ/mol
# Density = 1.828500 g / cm^3
# Si number density = 18.326714 Si / 1000 Ang^3
#
#
#
# Elastic Constant Matrix: (Units=GPa)
#
#
# Indices 1 2 3 4 5 6 
#
# 1 56.3238 22.6161 37.4724 0.0000 -7.5861 0.0000
# 2 22.6161 87.8761 45.3184 0.0000 -3.0718 0.0000
# 3 37.4724 45.3184 110.7650 0.0000 -18.4166 0.0000
# 4 0.0000 0.0000 0.0000 26.6402 0.0000 1.1708
# 5 -7.5861 -3.0718 -18.4166 0.0000 31.2532 0.0000
# 6 0.0000 0.0000 0.0000 1.1708 0.0000 27.8020
#
#
#
# Elastic Compliance Matrix: (Units=1/GPa)
#
#
# Indices 1 2 3 4 5 6 
#
# 1 0.023385 -0.002555 -0.006612 0.000000 0.001529 0.000000
# 2 -0.002555 0.014851 -0.005623 0.000000 -0.002474 0.000000
# 3 -0.006612 -0.005623 0.014641 0.000000 0.006470 0.000000
# 4 0.000000 0.000000 0.000000 0.037607 0.000000 -0.001584
# 5 0.001529 -0.002474 0.006470 0.000000 0.035937 0.000000
# 6 0.000000 0.000000 0.000000 -0.001584 0.000000 0.036035
#
#
# Mechanical properties :
#
#
# Convention : Reuss Voigt Hill
#
# Bulk Modulus (GPa) = 42.92333 51.75319 47.33826
# Shear Modulus (GPa) = 25.02481 27.10963 26.06722
#
# Velocity S-wave (km/s) = 3.69925 3.85026 3.77551
# Velocity P-wave (km/s) = 6.45895 6.93300 6.70017
#
# Compressibility (1/GPa) = 0.02329735
#
# Stress axis : x y z
#
# Youngs Moduli (GPa) = 42.76204 67.33746 68.30076
#
# Poissons Ratio (x) = 0.17208 0.45158
# Poissons Ratio (y) = 0.10927 0.38404
# Poissons Ratio (z) = 0.28272 0.37863
#
# Static dielectric constant tensor:
#      x y z
#    x 3.311080 0.000000 -0.010870 
#    y 0.000000 3.347820 0.000000 
#    z -0.010870 0.000000 3.642130 
# 
# 
# High freq. dielectric constant tensor:
#      x y z
#    x 1.687550 0.000000 -0.004260 
#    y 0.000000 1.709290 0.000000 
#    z -0.004260 0.000000 1.714190 
# 
# From -- ./inp_files/55553.got.cif
#   From: 2010.06.25/outbox.cif.g09.slc.cpg/sg11_28_cif.got.tgz:55553.got - 2010.06.27 23:14:04.
