data_PCOD8070626
_publ_section_title
;
Structure prediction by ZEFSAII (Michael W. Deem and Ramdas Pophale) SiO2 
 PCOD8070626
Probable space group: P 21/M
;
_chemical_formula_sum "Si O2"
_cell_formula_units_Z 32
_cell_length_a 23.026146
_cell_length_b 8.744925
_cell_length_c 14.928718
_cell_angle_alpha 90.000000
_cell_angle_beta 140.485173
_cell_angle_gamma 90.000000
_cell_volume 1912.699230
_symmetry_space_group_name_H-M "P 21/M"
_symmetry_group_IT_number 11
_symmetry_cell_setting 'monoclinic'
loop_
_space_group_symop_operation_xyz
x,y,z
-x,1/2+y,-z
-x,-y,-z
x,1/2-y,z
loop_
_atom_site_type_symbol
_atom_site_label
_atom_site_fract_x
_atom_site_fract_y
_atom_site_fract_z
Si Si1 0.191070 0.070269 0.762324
Si Si2 0.073103 0.426888 0.963454
Si Si3 0.747146 0.070514 0.487214
Si Si4 0.394108 0.428602 0.958233
Si Si5 0.424234 0.070629 0.792467
Si Si6 0.081888 0.929722 0.788132
Si Si7 0.110061 0.569153 0.491488
Si Si8 0.126010 0.927301 0.202249
O O1 0.175788 0.250000 0.726818
O O2 0.297763 0.027442 0.886877
O O3 0.154627 0.021057 0.815180
O O4 0.136638 0.974491 0.623542
O O5 0.088916 0.250000 0.959549
O O6 0.104481 0.528659 0.917351
O O7 0.967310 0.462468 0.856370
O O8 0.133453 0.472844 0.121295
O O9 0.735177 0.250000 0.465671
O O10 0.810820 0.012881 0.481571
O O11 0.791482 0.024066 0.634757
O O12 0.648005 0.994386 0.364489
O O13 0.413676 0.250000 0.985356
O O14 0.395205 0.486763 0.856863
O O15 0.474240 0.511101 0.109488
O O16 0.423066 0.250000 0.783070
O O17 0.092952 0.750000 0.785804
O O18 0.980851 0.981088 0.642644
O O19 0.092323 0.750000 0.462374
O O20 0.130409 0.750000 0.180720
#
# Coordination Sequence:
#
# PCOD8070626 Si02
#       8
#     4   4   4   4   4   4   4   4
#     4  11  22  37  53  72 100 135 176 216 251 298
#     4  10  19  34  52  74 100 131 169 211 255 297
#     4  10  19  32  51  74 104 137 168 204 250 302
#     4   9  19  34  50  71  98 132 168 207 255 299
#     4  10  19  31  50  75 101 129 167 209 252 300
#     4  12  24  36  51  72 100 138 177 213 252 298
#     4  11  21  35  51  72 102 138 176 212 248 293
#     4   9  18  33  51  74 101 132 167 206 254 302
#
# _framework density 16.730283
#
# number of rings (size 3 to 8) (size 9 to 14) (size 15 to 20)
#    0.000    1.750    2.500    3.000    0.000    3.000 
#    0.000    0.000    0.000    0.000    0.000    0.875 
#    0.000    0.000    0.000    0.000    0.000    0.000 
#
# Total GULP energy -396925.628312 kJ/mol
# GULP energy per Si atom -12403.925885 kJ/mol
# Density = 1.669220 g / cm^3
# Si number density = 16.730283 Si / 1000 Ang^3
#
#
#
# Elastic Constant Matrix: (Units=GPa)
#
#
# Indices 1 2 3 4 5 6 
#
# 1 64.3852 19.3781 42.0922 0.0000 -3.8799 0.0000
# 2 19.3781 47.2887 32.1152 0.0000 0.3994 0.0000
# 3 42.0922 32.1152 112.6425 0.0000 -0.2962 0.0000
# 4 0.0000 0.0000 0.0000 27.8378 0.0000 -2.5550
# 5 -3.8799 0.3994 -0.2962 0.0000 18.0445 0.0000
# 6 0.0000 0.0000 0.0000 -2.5550 0.0000 23.3745
#
#
#
# Elastic Compliance Matrix: (Units=1/GPa)
#
#
# Indices 1 2 3 4 5 6 
#
# 1 0.021551 -0.004228 -0.006836 0.000000 0.004615 0.000000
# 2 -0.004228 0.027063 -0.006140 0.000000 -0.001609 0.000000
# 3 -0.006836 -0.006140 0.013180 0.000000 -0.001118 0.000000
# 4 0.000000 0.000000 0.000000 0.036286 0.000000 0.003966
# 5 0.004615 -0.001609 -0.001118 0.000000 0.056428 0.000000
# 6 0.000000 0.000000 0.000000 0.003966 0.000000 0.043215
#
#
# Mechanical properties :
#
#
# Convention : Reuss Voigt Hill
#
# Bulk Modulus (GPa) = 36.51498 45.72082 41.11790
# Shear Modulus (GPa) = 20.72461 22.56676 21.64568
#
# Velocity S-wave (km/s) = 3.52340 3.67666 3.60085
# Velocity P-wave (km/s) = 6.19884 6.73879 6.47445
#
# Compressibility (1/GPa) = 0.02738602
#
# Stress axis : x y z
#
# Youngs Moduli (GPa) = 46.40168 36.95116 75.87462
#
# Poissons Ratio (x) = 0.15623 0.51865
# Poissons Ratio (y) = 0.19618 0.46588
# Poissons Ratio (z) = 0.31718 0.22689
#
# Static dielectric constant tensor:
#      x y z
#    x 3.037580 0.000000 -0.014710 
#    y 0.000000 3.139760 0.000000 
#    z -0.014710 0.000000 3.188140 
# 
# 
# High freq. dielectric constant tensor:
#      x y z
#    x 1.617420 0.000000 -0.001660 
#    y 0.000000 1.653500 0.000000 
#    z -0.001660 0.000000 1.640640 
# 
# From -- ./inp_files/54334.got.cif
#   From: 2010.06.25/outbox.cif.g09.slc.cpg/sg11_28_cif.got.tgz:54334.got - 2010.06.27 23:14:04.
