data_PCOD8070693
_publ_section_title
;
Structure prediction by ZEFSAII (Michael W. Deem and Ramdas Pophale) SiO2 
 PCOD8070693
Probable space group: P 21/M
;
_chemical_formula_sum "Si O2"
_cell_formula_units_Z 24
_cell_length_a 18.641055
_cell_length_b 9.009623
_cell_length_c 9.249047
_cell_angle_alpha 90.000000
_cell_angle_beta 116.969235
_cell_angle_gamma 90.000000
_cell_volume 1384.438655
_symmetry_space_group_name_H-M "P 21/M"
_symmetry_group_IT_number 11
_symmetry_cell_setting 'monoclinic'
loop_
_space_group_symop_operation_xyz
x,y,z
-x,1/2+y,-z
-x,-y,-z
x,1/2-y,z
loop_
_atom_site_type_symbol
_atom_site_label
_atom_site_fract_x
_atom_site_fract_y
_atom_site_fract_z
Si Si1 0.419859 0.418093 0.881790
Si Si2 0.712691 0.075429 0.391550
Si Si3 0.257944 0.416555 0.852517
Si Si4 0.127997 0.423304 0.958118
Si Si5 0.162837 0.077348 0.312493
Si Si6 0.006656 0.423489 0.351800
O O1 0.441051 0.250000 0.856514
O O2 0.376146 0.500275 0.705922
O O3 0.355824 0.422017 0.957996
O O4 0.500000 0.500000 0.000000
O O5 0.702511 0.250000 0.391938
O O6 0.766809 0.027847 0.300744
O O7 0.757299 0.014826 0.574372
O O8 0.231568 0.250000 0.780684
O O9 0.213616 0.459971 0.959770
O O10 0.106331 0.250000 0.927904
O O11 0.059077 0.515589 0.818421
O O12 0.134139 0.476281 0.128624
O O13 0.185738 0.250000 0.329750
O O14 0.093459 0.042221 0.363945
O O15 0.992403 0.250000 0.359408
O O16 0.000000 0.500000 0.500000
#
# Coordination Sequence:
#
# PCOD8070693 Si02
#       6
#     4   4   4   4   4   4
#     4   9  17  31  53  80 107 131 166 210 254 303
#     4  10  19  31  51  77 104 134 171 210 252 299
#     4   8  17  32  51  74 101 130 166 210 255 301
#     4  10  20  36  55  74 100 137 174 213 262 307
#     4  10  21  36  52  72 103 139 174 212 259 307
#     4  11  23  36  52  75 103 136 175 219 258 300
#
# _framework density 17.335545
#
# number of rings (size 3 to 8) (size 9 to 14) (size 15 to 20)
#    1.000    1.333    0.000    3.500    0.000    6.667 
#    0.000    0.000    0.000    1.000    0.000    0.000 
#    0.000    0.000    0.000    0.000    0.000    0.000 
#
# Total GULP energy -297411.684575 kJ/mol
# GULP energy per Si atom -12392.153524 kJ/mol
# Density = 1.729609 g / cm^3
# Si number density = 17.335545 Si / 1000 Ang^3
#
#
#
# Elastic Constant Matrix: (Units=GPa)
#
#
# Indices 1 2 3 4 5 6 
#
# 1 48.6930 42.3671 47.7110 0.0000 19.8967 0.0000
# 2 42.3671 113.6185 70.8599 0.0000 17.0058 0.0000
# 3 47.7110 70.8599 139.3376 0.0000 15.5960 0.0000
# 4 0.0000 0.0000 0.0000 33.4729 0.0000 7.6553
# 5 19.8967 17.0058 15.5960 0.0000 29.4530 0.0000
# 6 0.0000 0.0000 0.0000 7.6553 0.0000 22.6565
#
#
#
# Elastic Compliance Matrix: (Units=1/GPa)
#
#
# Indices 1 2 3 4 5 6 
#
# 1 0.044793 -0.008007 -0.008926 0.000000 -0.020910 0.000000
# 2 -0.008007 0.014834 -0.004729 0.000000 -0.000652 0.000000
# 3 -0.008926 -0.004729 0.012392 0.000000 0.002198 0.000000
# 4 0.000000 0.000000 0.000000 0.032377 0.000000 -0.010940
# 5 -0.020910 -0.000652 0.002198 0.000000 0.047291 0.000000
# 6 0.000000 0.000000 0.000000 -0.010940 0.000000 0.047834
#
#
# Mechanical properties :
#
#
# Convention : Reuss Voigt Hill
#
# Bulk Modulus (GPa) = 34.84759 69.28054 52.06407
# Shear Modulus (GPa) = 19.80917 26.49723 23.15320
#
# Velocity S-wave (km/s) = 3.38404 3.91383 3.65854
# Velocity P-wave (km/s) = 5.95100 7.77659 6.92422
#
# Compressibility (1/GPa) = 0.02869639
#
# Stress axis : x y z
#
# Youngs Moduli (GPa) = 22.32490 67.41268 80.69705
#
# Poissons Ratio (x) = 0.53974 0.72026
# Poissons Ratio (y) = 0.17875 0.38164
# Poissons Ratio (z) = 0.19926 0.31881
#
# Static dielectric constant tensor:
#      x y z
#    x 3.181100 0.000000 -0.017730 
#    y 0.000000 3.223870 0.000000 
#    z -0.017730 0.000000 3.136660 
# 
# 
# High freq. dielectric constant tensor:
#      x y z
#    x 1.653390 0.000000 0.010040 
#    y 0.000000 1.674550 0.000000 
#    z 0.010040 0.000000 1.657060 
# 
# From -- ./inp_files/25618.got.cif
#   From: 2010.06.25/outbox.cif.g09.slc.cpg/sg11_13_cif.got.tgz:25618.got - 2010.06.27 23:14:04.
