data_PCOD8070542
_publ_section_title
;
Structure prediction by ZEFSAII (Michael W. Deem and Ramdas Pophale) SiO2 
 PCOD8070542
Probable space group: P 21/M
;
_chemical_formula_sum "Si O2"
_cell_formula_units_Z 28
_cell_length_a 14.232205
_cell_length_b 8.830346
_cell_length_c 16.628111
_cell_angle_alpha 90.000000
_cell_angle_beta 132.445291
_cell_angle_gamma 90.000000
_cell_volume 1542.067334
_symmetry_space_group_name_H-M "P 21/M"
_symmetry_group_IT_number 11
_symmetry_cell_setting 'monoclinic'
loop_
_space_group_symop_operation_xyz
x,y,z
-x,1/2+y,-z
-x,-y,-z
x,1/2-y,z
loop_
_atom_site_type_symbol
_atom_site_label
_atom_site_fract_x
_atom_site_fract_y
_atom_site_fract_z
Si Si1 0.756159 0.071396 0.069891
Si Si2 0.476813 0.570660 0.362998
Si Si3 0.303433 0.429914 0.390985
Si Si4 0.927387 0.075301 0.385978
Si Si5 0.545767 0.072096 0.829835
Si Si6 0.324568 0.070484 0.816805
Si Si7 0.972247 0.923183 0.729585
O O1 0.761314 0.250000 0.090813
O O2 0.901321 0.005437 0.154413
O O3 0.671790 0.000290 0.092288
O O4 0.687517 0.034316 0.945593
O O5 0.459361 0.750000 0.353259
O O6 0.357685 0.499235 0.340633
O O7 0.608728 0.522062 0.482187
O O8 0.473770 0.503337 0.270544
O O9 0.301496 0.250000 0.382683
O O10 0.161234 0.499316 0.320853
O O11 0.895498 0.250000 0.385469
O O12 0.016005 0.059771 0.359101
O O13 0.799462 0.981396 0.302259
O O14 0.000000 0.000000 0.500000
O O15 0.524905 0.250000 0.811533
O O16 0.443337 0.007227 0.833766
O O17 0.327100 0.250000 0.826467
O O18 0.964538 0.750000 0.751635
#
# Coordination Sequence:
#
# PCOD8070542 Si02
#       7
#     4   4   4   4   4   4   4
#     4   9  17  33  51  71  99 130 171 206 240 295
#     4   9  18  32  50  71  94 122 162 206 248 296
#     4   9  17  32  52  70  92 123 160 200 249 302
#     4  10  20  33  49  73 103 134 167 204 243 290
#     4   9  18  31  51  73  96 133 170 204 246 298
#     4  10  19  31  49  73 101 134 168 201 247 294
#     4   8  16  30  51  70  91 129 162 193 242 299
#
# _framework density 18.157442
#
# number of rings (size 3 to 8) (size 9 to 14) (size 15 to 20)
#    0.000    2.857    0.000    2.143    2.000    0.000 
#    0.000    7.143    0.000    0.000    0.000    0.000 
#    0.000    0.000    0.000    0.000    0.000    0.000 
#
# Total GULP energy -347049.656373 kJ/mol
# GULP energy per Si atom -12394.630585 kJ/mol
# Density = 1.811612 g / cm^3
# Si number density = 18.157442 Si / 1000 Ang^3
#
#
#
# Elastic Constant Matrix: (Units=GPa)
#
#
# Indices 1 2 3 4 5 6 
#
# 1 139.8069 19.1124 72.1144 0.0000 12.7655 0.0000
# 2 19.1124 26.0290 16.7505 0.0000 -2.1158 0.0000
# 3 72.1144 16.7505 123.6238 0.0000 -6.2617 0.0000
# 4 0.0000 0.0000 0.0000 19.5153 0.0000 -2.4163
# 5 12.7655 -2.1158 -6.2617 0.0000 22.2782 0.0000
# 6 0.0000 0.0000 0.0000 -2.4163 0.0000 24.8073
#
#
#
# Elastic Compliance Matrix: (Units=1/GPa)
#
#
# Indices 1 2 3 4 5 6 
#
# 1 0.012346 -0.005363 -0.006959 0.000000 -0.009540 0.000000
# 2 -0.005363 0.044548 -0.002574 0.000000 0.006580 0.000000
# 3 -0.006959 -0.002574 0.012870 0.000000 0.007360 0.000000
# 4 0.000000 0.000000 0.000000 0.051867 0.000000 0.005052
# 5 -0.009540 0.006580 0.007360 0.000000 0.053047 0.000000
# 6 0.000000 0.000000 0.000000 0.005052 0.000000 0.040803
#
#
# Mechanical properties :
#
#
# Convention : Reuss Voigt Hill
#
# Bulk Modulus (GPa) = 25.01718 56.15716 40.58717
# Shear Modulus (GPa) = 19.33509 25.41898 22.37703
#
# Velocity S-wave (km/s) = 3.26676 3.74561 3.51435
# Velocity P-wave (km/s) = 5.29497 7.04991 6.23450
#
# Compressibility (1/GPa) = 0.03997253
#
# Stress axis : x y z
#
# Youngs Moduli (GPa) = 80.99633 22.44758 77.70083
#
# Poissons Ratio (x) = 0.12038 0.54069
# Poissons Ratio (y) = 0.43438 0.20003
# Poissons Ratio (z) = 0.56362 0.05779
#
# Static dielectric constant tensor:
#      x y z
#    x 3.517900 0.000000 0.166880 
#    y 0.000000 3.100200 0.000000 
#    z 0.166880 0.000000 3.574540 
# 
# 
# High freq. dielectric constant tensor:
#      x y z
#    x 1.697920 0.000000 0.010720 
#    y 0.000000 1.673570 0.000000 
#    z 0.010720 0.000000 1.710800 
# 
# From -- ./inp_files/49499.got.cif
#   From: 2010.06.25/outbox.cif.g09.slc.cpg/sg11_25_cif.got.tgz:49499.got - 2010.06.27 23:14:04.
