data_PCOD8070962
_publ_section_title
;
Structure prediction by ZEFSAII (Michael W. Deem and Ramdas Pophale) SiO2 
 PCOD8070962
Probable space group: P 21/M
;
_chemical_formula_sum "Si O2"
_cell_formula_units_Z 32
_cell_length_a 12.398486
_cell_length_b 8.705619
_cell_length_c 33.369462
_cell_angle_alpha 90.000000
_cell_angle_beta 149.317077
_cell_angle_gamma 90.000000
_cell_volume 1837.941547
_symmetry_space_group_name_H-M "P 21/M"
_symmetry_group_IT_number 11
_symmetry_cell_setting 'monoclinic'
loop_
_space_group_symop_operation_xyz
x,y,z
-x,1/2+y,-z
-x,-y,-z
x,1/2-y,z
loop_
_atom_site_type_symbol
_atom_site_label
_atom_site_fract_x
_atom_site_fract_y
_atom_site_fract_z
Si Si1 0.601641 0.572350 0.922017
Si Si2 0.075867 0.570870 0.187301
Si Si3 0.734421 0.428469 0.332977
Si Si4 0.492763 0.074305 0.338271
Si Si5 0.040313 0.068433 0.089264
Si Si6 0.341018 0.572518 0.917613
Si Si7 0.561041 0.431091 0.825879
Si Si8 0.908589 0.428898 0.510638
O O1 0.648856 0.750000 0.928457
O O2 0.428308 0.551607 0.901031
O O3 0.506395 0.491251 0.852592
O O4 0.816241 0.492293 0.003717
O O5 0.052049 0.750000 0.170730
O O6 0.292078 0.536115 0.280335
O O7 0.086492 0.481012 0.149125
O O8 0.881370 0.514536 0.151897
O O9 0.733542 0.250000 0.321823
O O10 0.605696 0.463788 0.332281
O O11 0.631003 0.521847 0.263968
O O12 0.977854 0.486106 0.415776
O O13 0.414989 0.250000 0.313320
O O14 0.654553 0.046044 0.427188
O O15 0.043649 0.250000 0.087621
O O16 0.218735 0.004240 0.117159
O O17 0.309229 0.750000 0.918783
O O18 0.500000 0.500000 0.000000
O O19 0.586440 0.250000 0.834040
O O20 0.964818 0.250000 0.530179
O O21 0.000000 0.500000 0.500000
#
# Coordination Sequence:
#
# PCOD8070962 Si02
#       8
#     4   4   4   4   4   4   4   4
#     4  11  24  41  58  78 104 139 183 225 270 320
#     4  12  23  34  54  81 109 142 182 223 269 319
#     4  10  19  32  51  75 107 144 178 216 263 318
#     4   9  18  32  50  74 107 143 178 216 264 315
#     4  12  23  37  56  77 108 143 180 223 268 319
#     4  11  23  39  60  79 104 138 179 226 273 321
#     4  12  24  37  55  79 109 144 182 222 267 320
#     4   9  17  29  47  72 105 141 177 216 261 317
#
# _framework density 17.410781
#
# number of rings (size 3 to 8) (size 9 to 14) (size 15 to 20)
#    0.000    1.250    2.500    6.000    0.000    4.000 
#    0.000    0.000    0.000    0.000    0.000    0.875 
#    0.000    0.000    0.000    0.000    0.000    0.000 
#
# Total GULP energy -396861.962894 kJ/mol
# GULP energy per Si atom -12401.936340 kJ/mol
# Density = 1.737115 g / cm^3
# Si number density = 17.410781 Si / 1000 Ang^3
#
#
#
# Elastic Constant Matrix: (Units=GPa)
#
#
# Indices 1 2 3 4 5 6 
#
# 1 53.3763 37.9599 15.9252 0.0000 19.1029 0.0000
# 2 37.9599 138.8214 39.0114 0.0000 13.2329 0.0000
# 3 15.9252 39.0114 76.3455 0.0000 39.5392 0.0000
# 4 0.0000 0.0000 0.0000 35.8895 0.0000 0.3232
# 5 19.1029 13.2329 39.5392 0.0000 -5.3554 0.0000
# 6 0.0000 0.0000 0.0000 0.3232 0.0000 22.3951
#
#
#
# Elastic Compliance Matrix: (Units=1/GPa)
#
#
# Indices 1 2 3 4 5 6 
#
# 1 0.020565 -0.004579 -0.007065 0.000000 0.009877 0.000000
# 2 -0.004579 0.009300 -0.001501 0.000000 -0.004434 0.000000
# 3 -0.007065 -0.001501 0.006284 0.000000 0.017484 0.000000
# 4 0.000000 0.000000 0.000000 0.027867 0.000000 -0.000402
# 5 0.009877 -0.004434 0.017484 0.000000 -0.033364 0.000000
# 6 0.000000 0.000000 0.000000 -0.000402 0.000000 0.044658
#
#
# Mechanical properties :
#
#
# Convention : Reuss Voigt Hill
#
# Bulk Modulus (GPa) = 101.43764 50.48179 75.95971
# Shear Modulus (GPa) = 47.67063 22.29563 34.98313
#
# Velocity S-wave (km/s) = 5.23826 3.58238 4.48736
# Velocity P-wave (km/s) = 9.74545 6.79476 8.40067
#
# Compressibility (1/GPa) = 0.00985827
#
# Stress axis : x y z
#
# Youngs Moduli (GPa) = 48.62733 107.52612 159.13940
#
# Poissons Ratio (x) = 0.49240 1.12433
# Poissons Ratio (y) = 0.22268 0.23881
# Poissons Ratio (z) = 0.34356 0.16136
#
# Static dielectric constant tensor:
#      x y z
#    x 3.058960 0.000000 0.033880 
#    y 0.000000 3.485600 0.000000 
#    z 0.033880 0.000000 3.714870 
# 
# 
# High freq. dielectric constant tensor:
#      x y z
#    x 1.631530 0.000000 0.005440 
#    y 0.000000 1.693800 0.000000 
#    z 0.005440 0.000000 1.683480 
# 
# From -- ./inp_files/64449.got.cif
#   From: 2010.06.25/outbox.cif.g09.slc.cpg/sg11_33_cif.got.tgz:64449.got - 2010.06.27 23:14:04.
