data_PCOD8070135
_publ_section_title
;
Structure prediction by ZEFSAII (Michael W. Deem and Ramdas Pophale) SiO2 
 PCOD8070135
Probable space group: P 21/M
;
_chemical_formula_sum "Si O2"
_cell_formula_units_Z 32
_cell_length_a 11.141906
_cell_length_b 11.041392
_cell_length_c 18.539546
_cell_angle_alpha 90.000000
_cell_angle_beta 51.683626
_cell_angle_gamma 90.000000
_cell_volume 1789.494157
_symmetry_space_group_name_H-M "P 21/M"
_symmetry_group_IT_number 11
_symmetry_cell_setting 'monoclinic'
loop_
_space_group_symop_operation_xyz
x,y,z
-x,1/2+y,-z
-x,-y,-z
x,1/2-y,z
loop_
_atom_site_type_symbol
_atom_site_label
_atom_site_fract_x
_atom_site_fract_y
_atom_site_fract_z
Si Si1 0.008822 0.888450 0.399448
Si Si2 0.870208 0.617988 0.005688
Si Si3 0.146958 0.494447 0.840842
Si Si4 0.659583 0.384055 0.891644
Si Si5 0.407071 0.545362 0.929443
Si Si6 0.799157 0.891354 0.611489
Si Si7 0.002376 0.888787 0.239760
Si Si8 0.547882 0.382452 0.242778
O O1 0.080845 0.750000 0.380294
O O2 0.941194 0.903617 0.344110
O O3 0.867104 0.900719 0.506167
O O4 0.125267 0.001372 0.368505
O O5 0.807902 0.750000 0.008714
O O6 0.880779 0.609752 0.088943
O O7 0.756151 0.519918 0.015419
O O8 0.037912 0.604165 0.907513
O O9 0.325729 0.528398 0.771724
O O10 0.108747 0.456227 0.773944
O O11 0.674350 0.250000 0.854315
O O12 0.546936 0.451765 0.879552
O O13 0.826836 0.445777 0.828227
O O14 0.592373 0.377424 0.997668
O O15 0.435219 0.628516 0.850042
O O16 0.820744 0.750000 0.632554
O O17 0.621144 0.926471 0.672885
O O18 0.008744 0.750000 0.212591
O O19 0.576259 0.250000 0.265042
#
# Coordination Sequence:
#
# PCOD8070135 Si02
#       8
#     4   4   4   4   4   4   4   4
#     4   9  18  34  59  83 107 136 169 211 262 316
#     4  10  19  32  48  66  93 131 174 217 251 291
#     4  10  20  33  47  70  95 132 176 212 250 299
#     4  10  19  30  46  68  98 128 157 200 251 302
#     4  10  19  31  47  70  96 127 166 202 251 303
#     4   9  18  35  57  83 108 135 170 212 262 315
#     4  10  19  33  51  73 101 134 170 210 258 307
#     4  10  20  34  52  71  99 134 170 211 254 307
#
# _framework density 17.882147
#
# number of rings (size 3 to 8) (size 9 to 14) (size 15 to 20)
#    0.000    2.250    1.250    2.250    0.000    0.000 
#    0.000    5.000    0.000    0.000    0.000    0.000 
#    0.000    0.000    0.000    0.000    0.000    0.000 
#
# Total GULP energy -396554.392887 kJ/mol
# GULP energy per Si atom -12392.324778 kJ/mol
# Density = 1.784145 g / cm^3
# Si number density = 17.882147 Si / 1000 Ang^3
#
#
#
# Elastic Constant Matrix: (Units=GPa)
#
#
# Indices 1 2 3 4 5 6 
#
# 1 101.4325 38.5263 42.4039 0.0000 -4.1739 0.0000
# 2 38.5263 84.9002 28.8837 0.0000 -4.7156 0.0000
# 3 42.4039 28.8837 78.5057 0.0000 -5.3192 0.0000
# 4 0.0000 0.0000 0.0000 11.1623 0.0000 -3.1894
# 5 -4.1739 -4.7156 -5.3192 0.0000 32.1131 0.0000
# 6 0.0000 0.0000 0.0000 -3.1894 0.0000 16.3844
#
#
#
# Elastic Compliance Matrix: (Units=1/GPa)
#
#
# Indices 1 2 3 4 5 6 
#
# 1 0.013997 -0.004313 -0.005960 0.000000 0.000199 0.000000
# 2 -0.004313 0.014836 -0.003054 0.000000 0.001112 0.000000
# 3 -0.005960 -0.003054 0.017191 0.000000 0.001624 0.000000
# 4 0.000000 0.000000 0.000000 0.094863 0.000000 0.018466
# 5 0.000199 0.001112 0.001624 0.000000 0.031598 0.000000
# 6 0.000000 0.000000 0.000000 0.018466 0.000000 0.064628
#
#
# Mechanical properties :
#
#
# Convention : Reuss Voigt Hill
#
# Bulk Modulus (GPa) = 51.62399 53.82957 52.72678
# Shear Modulus (GPa) = 18.50325 22.26693 20.38509
#
# Velocity S-wave (km/s) = 3.22022 3.53257 3.38001
# Velocity P-wave (km/s) = 6.53897 6.84153 6.69196
#
# Compressibility (1/GPa) = 0.01937084
#
# Stress axis : x y z
#
# Youngs Moduli (GPa) = 71.44608 67.40234 58.17123
#
# Poissons Ratio (x) = 0.29069 0.34669
# Poissons Ratio (y) = 0.30813 0.17764
# Poissons Ratio (z) = 0.42581 0.20582
#
# Static dielectric constant tensor:
#      x y z
#    x 3.208570 0.000000 -0.037960 
#    y 0.000000 3.300370 0.000000 
#    z -0.037960 0.000000 3.251400 
# 
# 
# High freq. dielectric constant tensor:
#      x y z
#    x 1.681080 0.000000 -0.003870 
#    y 0.000000 1.687050 0.000000 
#    z -0.003870 0.000000 1.685660 
# 
# From -- ./inp_files/44779.got.cif
#   From: 2010.06.25/outbox.cif.g09.slc.cpg/sg11_23_cif.got.tgz:44779.got - 2010.06.27 23:14:04.
