data_PCOD8070577
_publ_section_title
;
Structure prediction by ZEFSAII (Michael W. Deem and Ramdas Pophale) SiO2 
 PCOD8070577
Probable space group: P 21/M
;
_chemical_formula_sum "Si O2"
_cell_formula_units_Z 32
_cell_length_a 22.844471
_cell_length_b 8.851682
_cell_length_c 15.164134
_cell_angle_alpha 90.000000
_cell_angle_beta 31.625809
_cell_angle_gamma 90.000000
_cell_volume 1607.910821
_symmetry_space_group_name_H-M "P 21/M"
_symmetry_group_IT_number 11
_symmetry_cell_setting 'monoclinic'
loop_
_space_group_symop_operation_xyz
x,y,z
-x,1/2+y,-z
-x,-y,-z
x,1/2-y,z
loop_
_atom_site_type_symbol
_atom_site_label
_atom_site_fract_x
_atom_site_fract_y
_atom_site_fract_z
Si Si1 0.811167 0.084662 0.678002
Si Si2 0.459151 0.074892 0.798149
Si Si3 0.158033 0.424086 0.537648
Si Si4 0.440066 0.583874 0.000889
Si Si5 0.712332 0.429234 0.475357
Si Si6 0.765454 0.072166 0.930808
Si Si7 0.909810 0.076356 0.911126
Si Si8 0.883787 0.928316 0.121800
O O1 0.871051 0.250000 0.602201
O O2 0.811581 0.010665 0.776530
O O3 0.864643 0.980339 0.533506
O O4 0.685505 0.108091 0.807988
O O5 0.440853 0.250000 0.804187
O O6 0.585365 0.026851 0.610418
O O7 0.446959 0.035661 0.914927
O O8 0.356344 0.989526 0.881847
O O9 0.193161 0.250000 0.487612
O O10 0.253886 0.511526 0.470009
O O11 0.042517 0.446323 0.738053
O O12 0.492218 0.750000 0.911708
O O13 0.500000 0.500000 0.000000
O O14 0.729522 0.250000 0.453178
O O15 0.786423 0.507393 0.306763
O O16 0.749629 0.250000 0.938842
O O17 0.855151 0.026204 0.888959
O O18 0.879460 0.250000 0.970401
O O19 0.858308 0.971725 0.053338
O O20 0.890058 0.750000 0.125775
O O21 0.000000 0.000000 0.000000
#
# Coordination Sequence:
#
# PCOD8070577 Si02
#       8
#     4   4   4   4   4   4   4   4
#     4   9  19  34  51  76 113 155 196 238 285 337
#     4  10  21  36  56  83 114 150 193 241 290 343
#     4  11  22  34  55  87 119 153 196 243 292 348
#     4  10  19  31  49  74 108 151 195 239 290 343
#     4  11  23  39  60  87 121 154 188 239 298 348
#     4   9  20  40  62  82 114 160 201 241 290 341
#     4  10  22  41  62  86 117 153 195 243 294 346
#     4  12  24  40  64  92 119 150 189 234 290 351
#
# _framework density 19.901602
#
# number of rings (size 3 to 8) (size 9 to 14) (size 15 to 20)
#    0.000    1.750    1.250    4.125    0.000    9.000 
#    0.000    0.625    0.000    0.000    0.000    0.000 
#    0.000    0.000    0.000    0.000    0.000    0.000 
#
# Total GULP energy -396599.249543 kJ/mol
# GULP energy per Si atom -12393.726548 kJ/mol
# Density = 1.985630 g / cm^3
# Si number density = 19.901602 Si / 1000 Ang^3
#
#
#
# Elastic Constant Matrix: (Units=GPa)
#
#
# Indices 1 2 3 4 5 6 
#
# 1 76.5861 28.7220 11.3705 0.0000 9.9462 0.0000
# 2 28.7220 83.5008 36.8113 0.0000 3.7542 0.0000
# 3 11.3705 36.8113 77.5518 0.0000 11.9597 0.0000
# 4 0.0000 0.0000 0.0000 32.9166 0.0000 2.8568
# 5 9.9462 3.7542 11.9597 0.0000 26.5677 0.0000
# 6 0.0000 0.0000 0.0000 2.8568 0.0000 28.8085
#
#
#
# Elastic Compliance Matrix: (Units=1/GPa)
#
#
# Indices 1 2 3 4 5 6 
#
# 1 0.015751 -0.005729 0.001284 0.000000 -0.005665 0.000000
# 2 -0.005729 0.017263 -0.007854 0.000000 0.003241 0.000000
# 3 0.001284 -0.007854 0.017556 0.000000 -0.007274 0.000000
# 4 0.000000 0.000000 0.000000 0.030644 0.000000 -0.003039
# 5 -0.005665 0.003241 -0.007274 0.000000 0.042577 0.000000
# 6 0.000000 0.000000 0.000000 -0.003039 0.000000 0.035013
#
#
# Mechanical properties :
#
#
# Convention : Reuss Voigt Hill
#
# Bulk Modulus (GPa) = 38.50397 43.49402 40.99900
# Shear Modulus (GPa) = 26.03347 28.37423 27.20385
#
# Velocity S-wave (km/s) = 3.62070 3.77997 3.70120
# Velocity P-wave (km/s) = 6.07194 6.39945 6.23784
#
# Compressibility (1/GPa) = 0.02597135
#
# Stress axis : x y z
#
# Youngs Moduli (GPa) = 63.48838 57.92613 56.95987
#
# Poissons Ratio (x) = 0.33186 -0.07312
# Poissons Ratio (y) = 0.36373 0.44737
# Poissons Ratio (z) = -0.08150 0.45496
#
# Static dielectric constant tensor:
#      x y z
#    x 3.525750 0.000000 -0.009830 
#    y 0.000000 3.829380 0.000000 
#    z -0.009830 0.000000 3.667900 
# 
# 
# High freq. dielectric constant tensor:
#      x y z
#    x 1.772010 0.000000 -0.002030 
#    y 0.000000 1.778500 0.000000 
#    z -0.002030 0.000000 1.769110 
# 
# From -- ./inp_files/55518.got.cif
#   From: 2010.06.25/outbox.cif.g09.slc.cpg/sg11_28_cif.got.tgz:55518.got - 2010.06.27 23:14:04.
