data_PCOD8070762
_publ_section_title
;
Structure prediction by ZEFSAII (Michael W. Deem and Ramdas Pophale) SiO2 
 PCOD8070762
Probable space group: P 21/M
;
_chemical_formula_sum "Si O2"
_cell_formula_units_Z 32
_cell_length_a 29.731735
_cell_length_b 9.028477
_cell_length_c 20.685760
_cell_angle_alpha 90.000000
_cell_angle_beta 18.654011
_cell_angle_gamma 90.000000
_cell_volume 1776.053796
_symmetry_space_group_name_H-M "P 21/M"
_symmetry_group_IT_number 11
_symmetry_cell_setting 'monoclinic'
loop_
_space_group_symop_operation_xyz
x,y,z
-x,1/2+y,-z
-x,-y,-z
x,1/2-y,z
loop_
_atom_site_type_symbol
_atom_site_label
_atom_site_fract_x
_atom_site_fract_y
_atom_site_fract_z
Si Si1 0.090916 0.575079 0.689780
Si Si2 0.356174 0.920954 0.626971
Si Si3 0.902407 0.924520 0.824572
Si Si4 0.343267 0.581007 0.154101
Si Si5 0.657392 0.579471 0.712165
Si Si6 0.056088 0.921039 0.486290
Si Si7 0.949875 0.075999 0.003320
Si Si8 0.364670 0.576580 0.763774
O O1 0.090360 0.750000 0.702026
O O2 0.249995 0.520205 0.461788
O O3 0.997756 0.527078 0.755313
O O4 0.033203 0.494772 0.831034
O O5 0.400015 0.750000 0.563345
O O6 0.331116 0.967189 0.735487
O O7 0.481780 0.016814 0.425266
O O8 0.215877 0.955372 0.778200
O O9 0.879663 0.750000 0.855724
O O10 0.978681 0.980786 0.655905
O O11 0.751472 0.002157 0.032817
O O12 0.328845 0.750000 0.200160
O O13 0.321817 0.470101 0.242433
O O14 0.222979 0.548725 0.265194
O O15 0.494096 0.556997 0.914749
O O16 0.703563 0.750000 0.643200
O O17 0.022440 0.750000 0.523563
O O18 0.000000 0.000000 0.500000
O O19 0.981623 0.250000 0.962016
O O20 0.000000 0.000000 0.000000
O O21 0.360725 0.750000 0.781199
#
# Coordination Sequence:
#
# PCOD8070762 Si02
#       8
#     4   4   4   4   4   4   4   4
#     4  11  21  36  58  83 113 149 188 231 280 331
#     4   9  19  35  54  80 114 146 179 225 277 329
#     4  10  20  35  56  80 111 147 185 230 280 329
#     4   9  18  35  54  78 113 147 181 226 283 336
#     4  10  19  31  55  85 111 142 184 234 279 327
#     4  10  21  38  56  79 111 148 185 225 276 332
#     4  11  23  40  59  84 116 149 188 230 278 336
#     4  10  19  32  55  85 112 140 183 232 275 324
#
# _framework density 18.017472000000001
#
# number of rings (size 3 to 8) (size 9 to 14) (size 15 to 20)
#    0.000    2.000    2.500    1.500    0.000    3.500 
#    0.000    1.250    0.000    3.000    0.000    0.000 
#    0.000    0.000    0.000    0.000    0.000    0.000 
#
# Total GULP energy -396889.472733 kJ/mol
# GULP energy per Si atom -12402.796023 kJ/mol
# Density = 1.797646 g / cm^3
# Si number density = 18.017472 Si / 1000 Ang^3
#
#
#
# Elastic Constant Matrix: (Units=GPa)
#
#
# Indices 1 2 3 4 5 6 
#
# 1 120.4312 51.0338 67.6514 0.0000 -1.6068 0.0000
# 2 51.0338 73.6558 62.0735 0.0000 -0.0850 0.0000
# 3 67.6514 62.0735 141.7504 0.0000 -2.7864 0.0000
# 4 0.0000 0.0000 0.0000 34.2767 0.0000 1.9856
# 5 -1.6068 -0.0850 -2.7864 0.0000 24.3856 0.0000
# 6 0.0000 0.0000 0.0000 1.9856 0.0000 30.5220
#
#
#
# Elastic Compliance Matrix: (Units=1/GPa)
#
#
# Indices 1 2 3 4 5 6 
#
# 1 0.012779 -0.005897 -0.003508 0.000000 0.000421 0.000000
# 2 -0.005897 0.024264 -0.007834 0.000000 -0.001199 0.000000
# 3 -0.003508 -0.007834 0.012182 0.000000 0.001133 0.000000
# 4 0.000000 0.000000 0.000000 0.029285 0.000000 -0.001905
# 5 0.000421 -0.001199 0.001133 0.000000 0.041161 0.000000
# 6 0.000000 0.000000 0.000000 -0.001905 0.000000 0.032887
#
#
# Mechanical properties :
#
#
# Convention : Reuss Voigt Hill
#
# Bulk Modulus (GPa) = 67.81866 77.48387 72.65126
# Shear Modulus (GPa) = 26.04835 28.17544 27.11190
#
# Velocity S-wave (km/s) = 3.80640 3.95876 3.88333
# Velocity P-wave (km/s) = 7.55251 7.99962 7.77928
#
# Compressibility (1/GPa) = 0.01474520
#
# Stress axis : x y z
#
# Youngs Moduli (GPa) = 78.25538 41.21416 82.08887
#
# Poissons Ratio (x) = 0.24304 0.28798
# Poissons Ratio (y) = 0.46147 0.64311
# Poissons Ratio (z) = 0.27453 0.32289
#
# Static dielectric constant tensor:
#      x y z
#    x 2.923250 0.000000 -0.162260 
#    y 0.000000 3.374290 0.000000 
#    z -0.162260 0.000000 3.524190 
# 
# 
# High freq. dielectric constant tensor:
#      x y z
#    x 1.668100 0.000000 -0.008150 
#    y 0.000000 1.704460 0.000000 
#    z -0.008150 0.000000 1.711970 
# 
# From -- ./inp_files/67405.got.cif
#   From: 2010.06.25/outbox.cif.g09.slc.cpg/sg11_34_cif.got.tgz:67405.got - 2010.06.27 23:14:04.
