data_PCOD8070044
_publ_section_title
;
Structure prediction by ZEFSAII (Michael W. Deem and Ramdas Pophale) SiO2 
 PCOD8070044
Probable space group: P 21/M
;
_chemical_formula_sum "Si O2"
_cell_formula_units_Z 28
_cell_length_a 28.470157
_cell_length_b 8.739696
_cell_length_c 9.688474
_cell_angle_alpha 90.000000
_cell_angle_beta 38.809549
_cell_angle_gamma 90.000000
_cell_volume 1510.861332
_symmetry_space_group_name_H-M "P 21/M"
_symmetry_group_IT_number 11
_symmetry_cell_setting 'monoclinic'
loop_
_space_group_symop_operation_xyz
x,y,z
-x,1/2+y,-z
-x,-y,-z
x,1/2-y,z
loop_
_atom_site_type_symbol
_atom_site_label
_atom_site_fract_x
_atom_site_fract_y
_atom_site_fract_z
Si Si1 0.201923 0.429596 0.729221
Si Si2 0.557729 0.074077 0.198205
Si Si3 0.805746 0.070461 0.678564
Si Si4 0.081411 0.569534 0.803977
Si Si5 0.758918 0.430589 0.080024
Si Si6 0.309656 0.572359 0.284591
Si Si7 0.606188 0.573747 0.364443
O O1 0.191396 0.250000 0.745463
O O2 0.133537 0.507640 0.806204
O O3 0.198949 0.484016 0.893337
O O4 0.282505 0.477005 0.479489
O O5 0.570675 0.250000 0.215687
O O6 0.469866 0.042215 0.373835
O O7 0.590315 0.965544 0.241888
O O8 0.602953 0.042588 0.951845
O O9 0.799224 0.250000 0.709560
O O10 0.883611 0.023759 0.425644
O O11 0.737285 0.013876 0.740414
O O12 0.797499 0.002881 0.851498
O O13 0.076604 0.750000 0.831376
O O14 0.000000 0.500000 0.000000
O O15 0.769053 0.250000 0.074952
O O16 0.670690 0.468970 0.281120
O O17 0.292941 0.750000 0.354252
O O18 0.630906 0.750000 0.318498
#
# Coordination Sequence:
#
# PCOD8070044 Si02
#       7
#     4   4   4   4   4   4   4
#     4  11  23  37  54  82 113 142 176 224 273 322
#     4   9  17  31  50  73 105 143 185 227 274 323
#     4   8  16  31  56  81 104 136 180 219 257 310
#     4  10  20  39  63  88 112 141 174 214 260 317
#     4  11  20  36  56  77 107 148 185 221 270 327
#     4   9  16  33  55  76 101 141 188 228 267 323
#     4  10  19  29  47  78 110 140 178 232 279 318
#
# _framework density 18.532475000000002
#
# number of rings (size 3 to 8) (size 9 to 14) (size 15 to 20)
#    0.000    2.286    1.429    3.429    0.000    1.143 
#    0.000    3.571    0.000    0.000    0.000    0.000 
#    0.000    0.000    0.000    0.000    0.000    0.000 
#
# Total GULP energy -347117.622488 kJ/mol
# GULP energy per Si atom -12397.057946 kJ/mol
# Density = 1.849029 g / cm^3
# Si number density = 18.532475 Si / 1000 Ang^3
#
#
#
# Elastic Constant Matrix: (Units=GPa)
#
#
# Indices 1 2 3 4 5 6 
#
# 1 79.5449 31.7079 57.5284 0.0000 7.6393 0.0000
# 2 31.7079 70.9747 46.5899 0.0000 -3.0198 0.0000
# 3 57.5284 46.5899 134.5371 0.0000 -1.0039 0.0000
# 4 0.0000 0.0000 0.0000 25.4632 0.0000 -3.2845
# 5 7.6393 -3.0198 -1.0039 0.0000 30.8583 0.0000
# 6 0.0000 0.0000 0.0000 -3.2845 0.0000 28.8470
#
#
#
# Elastic Compliance Matrix: (Units=1/GPa)
#
#
# Indices 1 2 3 4 5 6 
#
# 1 0.020008 -0.004574 -0.007013 0.000000 -0.005629 0.000000
# 2 -0.004574 0.019358 -0.004726 0.000000 0.002873 0.000000
# 3 -0.007013 -0.004726 0.012081 0.000000 0.001667 0.000000
# 4 0.000000 0.000000 0.000000 0.039858 0.000000 0.004538
# 5 -0.005629 0.002873 0.001667 0.000000 0.034135 0.000000
# 6 0.000000 0.000000 0.000000 0.004538 0.000000 0.035182
#
#
# Mechanical properties :
#
#
# Convention : Reuss Voigt Hill
#
# Bulk Modulus (GPa) = 53.13790 61.85658 57.49724
# Shear Modulus (GPa) = 25.05997 26.98240 26.02119
#
# Velocity S-wave (km/s) = 3.68124 3.81983 3.75118
# Velocity P-wave (km/s) = 6.84133 7.27356 7.06076
#
# Compressibility (1/GPa) = 0.01881896
#
# Stress axis : x y z
#
# Youngs Moduli (GPa) = 49.98107 51.65912 82.77534
#
# Poissons Ratio (x) = 0.23630 0.58053
# Poissons Ratio (y) = 0.22862 0.39121
# Poissons Ratio (z) = 0.35053 0.24415
#
# Static dielectric constant tensor:
#      x y z
#    x 3.164160 0.000000 0.041160 
#    y 0.000000 3.316770 0.000000 
#    z 0.041160 0.000000 3.770780 
# 
# 
# High freq. dielectric constant tensor:
#      x y z
#    x 1.687660 0.000000 0.000490 
#    y 0.000000 1.712410 0.000000 
#    z 0.000490 0.000000 1.727660 
# 
# From -- ./inp_files/28450.got.cif
#   From: 2010.06.25/outbox.cif.g09.slc.cpg/sg11_15_cif.got.tgz:28450.got - 2010.06.27 23:14:04.
