data_PCOD8070162
_publ_section_title
;
Structure prediction by ZEFSAII (Michael W. Deem and Ramdas Pophale) SiO2 
 PCOD8070162
Probable space group: P 21/M
;
_chemical_formula_sum "Si O2"
_cell_formula_units_Z 32
_cell_length_a 20.148144
_cell_length_b 9.221620
_cell_length_c 19.785751
_cell_angle_alpha 90.000000
_cell_angle_beta 30.372542
_cell_angle_gamma 90.000000
_cell_volume 1858.743069
_symmetry_space_group_name_H-M "P 21/M"
_symmetry_group_IT_number 11
_symmetry_cell_setting 'monoclinic'
loop_
_space_group_symop_operation_xyz
x,y,z
-x,1/2+y,-z
-x,-y,-z
x,1/2-y,z
loop_
_atom_site_type_symbol
_atom_site_label
_atom_site_fract_x
_atom_site_fract_y
_atom_site_fract_z
Si Si1 0.911625 0.581517 0.674429
Si Si2 0.363321 0.577449 0.856937
Si Si3 0.643475 0.580485 0.651445
Si Si4 0.318276 0.081293 0.618672
Si Si5 0.129088 0.577421 0.156737
Si Si6 0.163220 0.416325 0.406747
Si Si7 0.610337 0.418856 0.317368
Si Si8 0.843160 0.922207 0.365057
O O1 0.922826 0.750000 0.683326
O O2 0.843336 0.494993 0.795061
O O3 0.822496 0.556874 0.685868
O O4 0.056379 0.520891 0.533631
O O5 0.366732 0.750000 0.855435
O O6 0.498332 0.512849 0.770131
O O7 0.348196 0.523940 0.793002
O O8 0.240975 0.520061 0.007750
O O9 0.632348 0.750000 0.645916
O O10 0.697340 0.550623 0.679882
O O11 0.745488 0.512714 0.507668
O O12 0.305271 0.250000 0.645835
O O13 0.457337 0.044969 0.461953
O O14 0.205087 0.027587 0.666703
O O15 0.301298 0.998676 0.704344
O O16 0.132522 0.750000 0.162412
O O17 0.990174 0.521573 0.249351
O O18 0.119611 0.250000 0.459665
O O19 0.638431 0.250000 0.300451
O O20 0.840519 0.750000 0.371647
#
# Coordination Sequence:
#
# PCOD8070162 Si02
#       8
#     4   4   4   4   4   4   4   4
#     4  10  19  30  46  72 101 126 153 193 242 282
#     4   9  17  29  48  72  95 122 160 199 231 271
#     4   9  14  26  49  73  92 116 158 202 230 262
#     4   9  16  27  46  69  90 117 153 192 232 277
#     4  10  19  32  50  71  94 125 162 196 231 277
#     4   9  17  30  51  73  94 123 161 197 231 277
#     4   9  16  28  45  67  93 118 148 192 238 275
#     4   9  15  26  47  70  91 117 157 198 226 266
#
# _framework density 17.215935000000002
#
# number of rings (size 3 to 8) (size 9 to 14) (size 15 to 20)
#    0.000    2.750    2.500    0.375    0.000    0.500 
#    0.000    2.500    0.000    1.500    0.000    0.000 
#    0.000    0.000    0.000    0.000    0.000    0.000 
#
# Total GULP energy -396686.680787 kJ/mol
# GULP energy per Si atom -12396.458775 kJ/mol
# Density = 1.717675 g / cm^3
# Si number density = 17.215935 Si / 1000 Ang^3
#
#
#
# Elastic Constant Matrix: (Units=GPa)
#
#
# Indices 1 2 3 4 5 6 
#
# 1 159.9382 33.0002 79.5582 0.0000 8.1106 0.0000
# 2 33.0002 31.1996 25.5772 0.0000 7.2207 0.0000
# 3 79.5582 25.5772 119.4169 0.0000 5.7365 0.0000
# 4 0.0000 0.0000 0.0000 12.5685 0.0000 6.4411
# 5 8.1106 7.2207 5.7365 0.0000 28.1839 0.0000
# 6 0.0000 0.0000 0.0000 6.4411 0.0000 25.9699
#
#
#
# Elastic Compliance Matrix: (Units=1/GPa)
#
#
# Indices 1 2 3 4 5 6 
#
# 1 0.010307 -0.006344 -0.005497 0.000000 -0.000222 0.000000
# 2 -0.006344 0.044830 -0.004960 0.000000 -0.008650 0.000000
# 3 -0.005497 -0.004960 0.013090 0.000000 0.000188 0.000000
# 4 0.000000 0.000000 0.000000 0.091150 0.000000 -0.022607
# 5 -0.000222 -0.008650 0.000188 0.000000 0.037723 0.000000
# 6 0.000000 0.000000 0.000000 -0.022607 0.000000 0.044113
#
#
# Mechanical properties :
#
#
# Convention : Reuss Voigt Hill
#
# Bulk Modulus (GPa) = 28.88138 65.20288 47.04213
# Shear Modulus (GPa) = 17.46075 24.83906 21.14991
#
# Velocity S-wave (km/s) = 3.18814 3.80253 3.50881
# Velocity P-wave (km/s) = 5.51042 7.56537 6.61814
#
# Compressibility (1/GPa) = 0.03462438
#
# Stress axis : x y z
#
# Youngs Moduli (GPa) = 97.01925 22.30657 76.39517
#
# Poissons Ratio (x) = 0.14151 0.41998
# Poissons Ratio (y) = 0.61549 0.37891
# Poissons Ratio (z) = 0.53336 0.11064
#
# Static dielectric constant tensor:
#      x y z
#    x 3.512370 0.000000 0.012840 
#    y 0.000000 2.848540 0.000000 
#    z 0.012840 0.000000 3.146280 
# 
# 
# High freq. dielectric constant tensor:
#      x y z
#    x 1.683070 0.000000 0.004940 
#    y 0.000000 1.621950 0.000000 
#    z 0.004940 0.000000 1.637400 
# 
# From -- ./inp_files/66401.got.cif
#   From: 2010.06.25/outbox.cif.g09.slc.cpg/sg11_34_cif.got.tgz:66401.got - 2010.06.27 23:14:04.
