data_PCOD8070980
_publ_section_title
;
Structure prediction by ZEFSAII (Michael W. Deem and Ramdas Pophale) SiO2 
 PCOD8070980
Probable space group: P 21/M
;
_chemical_formula_sum "Si O2"
_cell_formula_units_Z 32
_cell_length_a 12.392645
_cell_length_b 8.562622
_cell_length_c 33.331822
_cell_angle_alpha 90.000000
_cell_angle_beta 149.248398
_cell_angle_gamma 90.000000
_cell_volume 1808.506880
_symmetry_space_group_name_H-M "P 21/M"
_symmetry_group_IT_number 11
_symmetry_cell_setting 'monoclinic'
loop_
_space_group_symop_operation_xyz
x,y,z
-x,1/2+y,-z
-x,-y,-z
x,1/2-y,z
loop_
_atom_site_type_symbol
_atom_site_label
_atom_site_fract_x
_atom_site_fract_y
_atom_site_fract_z
Si Si1 0.605278 0.568692 0.919264
Si Si2 0.058278 0.567940 0.182667
Si Si3 0.726787 0.070567 0.331402
Si Si4 0.490346 0.068967 0.338718
Si Si5 0.025300 0.430932 0.084750
Si Si6 0.355422 0.565710 0.918786
Si Si7 0.567902 0.429482 0.823565
Si Si8 0.872789 0.568120 0.496026
O O1 0.583722 0.750000 0.902022
O O2 0.460403 0.520433 0.910277
O O3 0.524532 0.468881 0.855904
O O4 0.848381 0.532994 0.006459
O O5 0.040739 0.750000 0.166908
O O6 0.277554 0.530646 0.274721
O O7 0.040721 0.470974 0.136287
O O8 0.871799 0.516249 0.152731
O O9 0.685881 0.250000 0.306920
O O10 0.600350 0.029425 0.331586
O O11 0.978868 0.039857 0.417543
O O12 0.645386 0.962125 0.269504
O O13 0.434792 0.250000 0.325084
O O14 0.646300 0.018673 0.425151
O O15 0.967075 0.250000 0.061479
O O16 0.246790 0.462537 0.134237
O O17 0.331766 0.750000 0.916533
O O18 0.500000 0.500000 0.000000
O O19 0.632857 0.250000 0.839483
O O20 0.833090 0.750000 0.476306
O O21 0.000000 0.500000 0.500000
#
# Coordination Sequence:
#
# PCOD8070980 Si02
#       8
#     4   4   4   4   4   4   4   4
#     4  11  24  41  58  77 104 140 183 224 270 320
#     4  12  23  35  55  81 109 142 181 222 270 321
#     4   9  18  32  50  73 106 145 178 214 262 316
#     4  10  19  32  51  76 108 142 178 218 265 317
#     4  12  23  37  56  77 108 142 180 223 268 321
#     4  11  23  39  60  80 104 138 179 226 273 319
#     4  12  24  36  54  79 109 144 183 223 267 317
#     4   9  17  29  47  72 105 141 177 215 262 316
#
# _framework density 17.694154999999999
#
# number of rings (size 3 to 8) (size 9 to 14) (size 15 to 20)
#    0.000    1.250    2.500    6.000    0.000    4.000 
#    0.000    0.000    0.000    0.000    0.000    0.875 
#    0.000    0.000    0.000    0.000    0.000    0.000 
#
# Total GULP energy -396887.332734 kJ/mol
# GULP energy per Si atom -12402.729148 kJ/mol
# Density = 1.765388 g / cm^3
# Si number density = 17.694155 Si / 1000 Ang^3
#
#
#
# Elastic Constant Matrix: (Units=GPa)
#
#
# Indices 1 2 3 4 5 6 
#
# 1 64.7152 27.8410 42.5126 0.0000 -5.9896 0.0000
# 2 27.8410 71.9118 26.9983 0.0000 0.5822 0.0000
# 3 42.5126 26.9983 120.7382 0.0000 8.0339 0.0000
# 4 0.0000 0.0000 0.0000 33.7121 0.0000 1.3650
# 5 -5.9896 0.5822 8.0339 0.0000 14.4055 0.0000
# 6 0.0000 0.0000 0.0000 1.3650 0.0000 23.5703
#
#
#
# Elastic Compliance Matrix: (Units=1/GPa)
#
#
# Indices 1 2 3 4 5 6 
#
# 1 0.025348 -0.006769 -0.008445 0.000000 0.015523 0.000000
# 2 -0.006769 0.017012 -0.001233 0.000000 -0.002814 0.000000
# 3 -0.008445 -0.001233 0.012215 0.000000 -0.010274 0.000000
# 4 0.000000 0.000000 0.000000 0.029733 0.000000 -0.001722
# 5 0.015523 -0.002814 -0.010274 0.000000 0.081715 0.000000
# 6 0.000000 0.000000 0.000000 -0.001722 0.000000 0.042526
#
#
# Mechanical properties :
#
#
# Convention : Reuss Voigt Hill
#
# Bulk Modulus (GPa) = 46.12145 50.22990 48.17567
# Shear Modulus (GPa) = 20.10684 25.00514 22.55599
#
# Velocity S-wave (km/s) = 3.37464 3.76332 3.57427
# Velocity P-wave (km/s) = 6.42704 6.87989 6.65731
#
# Compressibility (1/GPa) = 0.02168189
#
# Stress axis : x y z
#
# Youngs Moduli (GPa) = 39.45007 58.78042 81.86521
#
# Poissons Ratio (x) = 0.39789 0.69132
# Poissons Ratio (y) = 0.26704 0.10098
# Poissons Ratio (z) = 0.33314 0.07250
#
# Static dielectric constant tensor:
#      x y z
#    x 3.150400 0.000000 0.155020 
#    y 0.000000 3.407790 0.000000 
#    z 0.155020 0.000000 3.713850 
# 
# 
# High freq. dielectric constant tensor:
#      x y z
#    x 1.640760 0.000000 0.007930 
#    y 0.000000 1.700930 0.000000 
#    z 0.007930 0.000000 1.693080 
# 
# From -- ./inp_files/73174.got.cif
#   From: 2010.06.25/outbox.cif.g09.slc.cpg/sg11_37_cif.got.tgz:73174.got - 2010.06.27 23:14:04.
