data_PCOD8070997
_publ_section_title
;
Structure prediction by ZEFSAII (Michael W. Deem and Ramdas Pophale) SiO2 
 PCOD8070997
Probable space group: P 21/M
;
_chemical_formula_sum "Si O2"
_cell_formula_units_Z 32
_cell_length_a 23.045891
_cell_length_b 9.031785
_cell_length_c 21.274293
_cell_angle_alpha 90.000000
_cell_angle_beta 24.054454
_cell_angle_gamma 90.000000
_cell_volume 1804.934339
_symmetry_space_group_name_H-M "P 21/M"
_symmetry_group_IT_number 11
_symmetry_cell_setting 'monoclinic'
loop_
_space_group_symop_operation_xyz
x,y,z
-x,1/2+y,-z
-x,-y,-z
x,1/2-y,z
loop_
_atom_site_type_symbol
_atom_site_label
_atom_site_fract_x
_atom_site_fract_y
_atom_site_fract_z
Si Si1 0.979354 0.919001 0.659863
Si Si2 0.178055 0.422192 0.947266
Si Si3 0.654155 0.572556 0.341844
Si Si4 0.246342 0.080759 0.352193
Si Si5 0.736783 0.578231 0.804758
Si Si6 0.907981 0.075861 0.144315
Si Si7 0.752414 0.926320 0.984955
Si Si8 0.441349 0.579696 0.916341
O O1 0.020422 0.750000 0.629436
O O2 0.891658 0.942811 0.682422
O O3 0.887258 0.976503 0.809953
O O4 0.125111 0.006923 0.513546
O O5 0.209344 0.250000 0.919147
O O6 0.274494 0.482994 0.794279
O O7 0.227233 0.491723 0.964936
O O8 0.007215 0.448879 0.107862
O O9 0.500000 0.500000 0.500000
O O10 0.645066 0.750000 0.356596
O O11 0.754814 0.507091 0.298496
O O12 0.203726 0.250000 0.385125
O O13 0.259180 0.011454 0.269527
O O14 0.389752 0.060504 0.249547
O O15 0.690354 0.750000 0.851594
O O16 0.619991 0.488558 0.959113
O O17 0.885135 0.250000 0.153628
O O18 0.000000 0.000000 0.000000
O O19 0.735567 0.750000 0.000119
O O20 0.611632 0.996679 0.093851
O O21 0.394908 0.750000 0.959029
#
# Coordination Sequence:
#
# PCOD8070997 Si02
#       8
#     4   4   4   4   4   4   4   4
#     4   9  18  30  48  71  92 116 155 201 242 281
#     4   8  16  32  55  75  94 127 169 202 234 282
#     4  10  19  32  51  78 108 136 164 201 249 294
#     4  10  20  32  47  68  97 125 153 193 245 297
#     4   9  18  33  50  69  91 122 160 197 238 292
#     4   9  16  29  50  76 103 131 163 201 241 287
#     4   9  18  36  55  70  91 125 168 206 234 278
#     4  10  20  32  47  71  98 126 158 197 243 291
#
# _framework density 17.729177
#
# number of rings (size 3 to 8) (size 9 to 14) (size 15 to 20)
#    0.000    2.750    0.000    3.375    0.000    3.500 
#    0.000    5.000    0.000    6.000    0.000    0.000 
#    0.000    0.000    0.000    0.000    0.000    0.000 
#
# Total GULP energy -396642.328129 kJ/mol
# GULP energy per Si atom -12395.072754 kJ/mol
# Density = 1.768882 g / cm^3
# Si number density = 17.729177 Si / 1000 Ang^3
#
#
#
# Elastic Constant Matrix: (Units=GPa)
#
#
# Indices 1 2 3 4 5 6 
#
# 1 113.0359 30.6248 45.6063 0.0000 -4.0991 0.0000
# 2 30.6248 63.8080 42.4560 0.0000 -8.8840 0.0000
# 3 45.6063 42.4560 103.1289 0.0000 -15.8724 0.0000
# 4 0.0000 0.0000 0.0000 32.2476 0.0000 -5.8396
# 5 -4.0991 -8.8840 -15.8724 0.0000 17.2568 0.0000
# 6 0.0000 0.0000 0.0000 -5.8396 0.0000 21.2670
#
#
#
# Elastic Compliance Matrix: (Units=1/GPa)
#
#
# Indices 1 2 3 4 5 6 
#
# 1 0.011237 -0.003011 -0.004144 0.000000 -0.002692 0.000000
# 2 -0.003011 0.022566 -0.007316 0.000000 0.004173 0.000000
# 3 -0.004144 -0.007316 0.016087 0.000000 0.010046 0.000000
# 4 0.000000 0.000000 0.000000 0.032633 0.000000 0.008960
# 5 -0.002692 0.004173 0.010046 0.000000 0.068697 0.000000
# 6 0.000000 0.000000 0.000000 0.008960 0.000000 0.049482
#
#
# Mechanical properties :
#
#
# Convention : Reuss Voigt Hill
#
# Bulk Modulus (GPa) = 47.73747 57.48299 52.61023
# Shear Modulus (GPa) = 21.13037 24.90666 23.01851
#
# Velocity S-wave (km/s) = 3.45605 3.75219 3.60716
# Velocity P-wave (km/s) = 6.55058 7.15996 6.86204
#
# Compressibility (1/GPa) = 0.02094791
#
# Stress axis : x y z
#
# Youngs Moduli (GPa) = 88.99324 44.31449 62.16037
#
# Poissons Ratio (x) = 0.13341 0.25761
# Poissons Ratio (y) = 0.26792 0.45479
# Poissons Ratio (z) = 0.36881 0.32422
#
# Static dielectric constant tensor:
#      x y z
#    x 3.548360 0.000000 -0.166550 
#    y 0.000000 3.258810 0.000000 
#    z -0.166550 0.000000 3.213090 
# 
# 
# High freq. dielectric constant tensor:
#      x y z
#    x 1.676290 0.000000 -0.017790 
#    y 0.000000 1.677770 0.000000 
#    z -0.017790 0.000000 1.676660 
# 
# From -- ./inp_files/69937.got.cif
#   From: 2010.06.25/outbox.cif.g09.slc.cpg/sg11_35_cif.got.tgz:69937.got - 2010.06.27 23:14:04.
