data_PCOD8070399
_publ_section_title
;
Structure prediction by ZEFSAII (Michael W. Deem and Ramdas Pophale) SiO2 
 PCOD8070399
Probable space group: P 21/M
;
_chemical_formula_sum "Si O2"
_cell_formula_units_Z 28
_cell_length_a 12.075642
_cell_length_b 8.838333
_cell_length_c 22.603757
_cell_angle_alpha 90.000000
_cell_angle_beta 44.721206
_cell_angle_gamma 90.000000
_cell_volume 1697.550424
_symmetry_space_group_name_H-M "P 21/M"
_symmetry_group_IT_number 11
_symmetry_cell_setting 'monoclinic'
loop_
_space_group_symop_operation_xyz
x,y,z
-x,1/2+y,-z
-x,-y,-z
x,1/2-y,z
loop_
_atom_site_type_symbol
_atom_site_label
_atom_site_fract_x
_atom_site_fract_y
_atom_site_fract_z
Si Si1 0.503671 0.925354 0.721596
Si Si2 0.176114 0.075742 0.002113
Si Si3 0.784552 0.581723 0.543951
Si Si4 0.339509 0.928258 0.227084
Si Si5 0.169157 0.577472 0.881347
Si Si6 0.944063 0.581415 0.611170
Si Si7 0.533768 0.428940 0.050057
O O1 0.544888 0.750000 0.720820
O O2 0.604086 0.973391 0.624965
O O3 0.317059 0.947132 0.780745
O O4 0.551389 0.025384 0.759504
O O5 0.225924 0.250000 0.991702
O O6 0.189796 0.035849 0.927935
O O7 0.289401 0.972065 0.997927
O O8 0.994493 0.046765 0.091110
O O9 0.787156 0.750000 0.516356
O O10 0.868210 0.577197 0.575548
O O11 0.875733 0.477239 0.462345
O O12 0.346712 0.750000 0.215553
O O13 0.158507 0.977942 0.305941
O O14 0.404527 0.008268 0.144193
O O15 0.169373 0.750000 0.905706
O O16 0.949025 0.750000 0.635327
O O17 0.518935 0.250000 0.052459
O O18 0.500000 0.500000 0.000000
#
# Coordination Sequence:
#
# PCOD8070399 Si02
#       7
#     4   4   4   4   4   4   4
#     4   9  16  27  43  64  91 124 155 187 225 268
#     4  10  19  31  47  70  93 120 157 193 233 276
#     4   8  14  23  36  57  85 116 151 185 220 262
#     4  11  20  30  45  65  87 116 153 191 230 276
#     4   9  17  29  47  68  95 126 156 191 228 273
#     4   9  16  26  39  56  82 117 151 184 224 269
#     4  12  24  38  52  67  90 120 156 198 240 279
#
# _framework density 16.494356
#
# number of rings (size 3 to 8) (size 9 to 14) (size 15 to 20)
#    0.000    2.286    1.429    4.286    0.000    4.000 
#    0.000    0.000    0.000    0.000    0.000    0.000 
#    0.000    1.143    0.000    3.143    0.000    4.857 
#
# Total GULP energy -347038.620196 kJ/mol
# GULP energy per Si atom -12394.236436 kJ/mol
# Density = 1.645681 g / cm^3
# Si number density = 16.494356 Si / 1000 Ang^3
#
#
#
# Elastic Constant Matrix: (Units=GPa)
#
#
# Indices 1 2 3 4 5 6 
#
# 1 52.1369 31.4798 52.8854 0.0000 -13.6801 0.0000
# 2 31.4798 114.6317 52.5727 0.0000 -8.1802 0.0000
# 3 52.8854 52.5727 125.7047 0.0000 -38.3381 0.0000
# 4 0.0000 0.0000 0.0000 26.6464 0.0000 -2.2434
# 5 -13.6801 -8.1802 -38.3381 0.0000 28.4454 0.0000
# 6 0.0000 0.0000 0.0000 -2.2434 0.0000 17.8985
#
#
#
# Elastic Compliance Matrix: (Units=1/GPa)
#
#
# Indices 1 2 3 4 5 6 
#
# 1 0.034757 -0.003209 -0.014371 0.000000 -0.003577 0.000000
# 2 -0.003209 0.011537 -0.004981 0.000000 -0.004939 0.000000
# 3 -0.014371 -0.004981 0.022990 0.000000 0.022641 0.000000
# 4 0.000000 0.000000 0.000000 0.037929 0.000000 0.004754
# 5 -0.003577 -0.004939 0.022641 0.000000 0.062530 0.000000
# 6 0.000000 0.000000 0.000000 0.004754 0.000000 0.056466
#
#
# Mechanical properties :
#
#
# Convention : Reuss Voigt Hill
#
# Bulk Modulus (GPa) = 41.39035 62.92770 52.15903
# Shear Modulus (GPa) = 17.89638 24.96711 21.43174
#
# Velocity S-wave (km/s) = 3.29751 3.89482 3.60854
# Velocity P-wave (km/s) = 6.29652 7.64592 7.00379
#
# Compressibility (1/GPa) = 0.02416022
#
# Stress axis : x y z
#
# Youngs Moduli (GPa) = 28.77106 86.67809 43.49728
#
# Poissons Ratio (x) = 0.27816 0.62512
# Poissons Ratio (y) = 0.09233 0.21668
# Poissons Ratio (z) = 0.41348 0.43177
#
# Static dielectric constant tensor:
#      x y z
#    x 2.927030 0.000000 -0.411340 
#    y 0.000000 3.255610 0.000000 
#    z -0.411340 0.000000 3.516680 
# 
# 
# High freq. dielectric constant tensor:
#      x y z
#    x 1.574160 0.000000 -0.046860 
#    y 0.000000 1.646660 0.000000 
#    z -0.046860 0.000000 1.636730 
# 
# From -- ./inp_files/64151.got.cif
#   From: 2010.06.25/outbox.cif.g09.slc.cpg/sg11_33_cif.got.tgz:64151.got - 2010.06.27 23:14:04.
