data_PCOD8070986
_publ_section_title
;
Structure prediction by ZEFSAII (Michael W. Deem and Ramdas Pophale) SiO2 
 PCOD8070986
Probable space group: P 21/M
;
_chemical_formula_sum "Si O2"
_cell_formula_units_Z 24
_cell_length_a 18.753731
_cell_length_b 8.744451
_cell_length_c 9.294516
_cell_angle_alpha 90.000000
_cell_angle_beta 116.844675
_cell_angle_gamma 90.000000
_cell_volume 1359.958864
_symmetry_space_group_name_H-M "P 21/M"
_symmetry_group_IT_number 11
_symmetry_cell_setting 'monoclinic'
loop_
_space_group_symop_operation_xyz
x,y,z
-x,1/2+y,-z
-x,-y,-z
x,1/2-y,z
loop_
_atom_site_type_symbol
_atom_site_label
_atom_site_fract_x
_atom_site_fract_y
_atom_site_fract_z
Si Si1 0.418677 0.422942 0.880151
Si Si2 0.714039 0.071063 0.400150
Si Si3 0.258004 0.075919 0.854363
Si Si4 0.133964 0.430808 0.968364
Si Si5 0.155316 0.068451 0.308281
Si Si6 0.986028 0.431655 0.643533
O O1 0.436910 0.250000 0.850072
O O2 0.377033 0.509618 0.706406
O O3 0.500000 0.500000 0.000000
O O4 0.355294 0.428875 0.956676
O O5 0.713057 0.250000 0.428361
O O6 0.754631 0.984624 0.571492
O O7 0.766252 0.029126 0.304617
O O8 0.229667 0.250000 0.795598
O O9 0.214007 0.014043 0.956687
O O10 0.133340 0.250000 0.978353
O O11 0.135427 0.496809 0.131087
O O12 0.056400 0.490659 0.813195
O O13 0.148023 0.250000 0.310184
O O14 0.096660 0.990923 0.368452
O O15 0.984838 0.250000 0.631664
O O16 0.000000 0.500000 0.500000
#
# Coordination Sequence:
#
# PCOD8070986 Si02
#       6
#     4   4   4   4   4   4
#     4   9  17  30  54  81 108 134 169 215 261 310
#     4  10  19  32  51  77 106 135 174 216 257 306
#     4   8  16  32  53  76 101 133 173 215 260 306
#     4   9  19  35  54  74 101 138 178 216 260 310
#     4  11  21  35  53  74 104 141 176 215 262 311
#     4  11  22  36  55  78 104 136 177 222 262 306
#
# _framework density 17.647593000000001
#
# number of rings (size 3 to 8) (size 9 to 14) (size 15 to 20)
#    1.000    1.333    0.000    4.000    0.000    1.333 
#    0.000    5.000    0.000    1.000    0.000    0.000 
#    0.000    0.000    0.000    0.000    0.000    0.000 
#
# Total GULP energy -297383.090517 kJ/mol
# GULP energy per Si atom -12390.962105 kJ/mol
# Density = 1.760743 g / cm^3
# Si number density = 17.647593 Si / 1000 Ang^3
#
#
#
# Elastic Constant Matrix: (Units=GPa)
#
#
# Indices 1 2 3 4 5 6 
#
# 1 59.2389 25.5303 48.1897 0.0000 17.7251 0.0000
# 2 25.5303 84.5602 41.1213 0.0000 5.1272 0.0000
# 3 48.1897 41.1213 142.1614 0.0000 12.5964 0.0000
# 4 0.0000 0.0000 0.0000 25.2042 0.0000 6.3083
# 5 17.7251 5.1272 12.5964 0.0000 28.3646 0.0000
# 6 0.0000 0.0000 0.0000 6.3083 0.0000 25.4332
#
#
#
# Elastic Compliance Matrix: (Units=1/GPa)
#
#
# Indices 1 2 3 4 5 6 
#
# 1 0.028872 -0.004319 -0.007295 0.000000 -0.014022 0.000000
# 2 -0.004319 0.014423 -0.002827 0.000000 0.001348 0.000000
# 3 -0.007295 -0.002827 0.010280 0.000000 0.000505 0.000000
# 4 0.000000 0.000000 0.000000 0.042302 0.000000 -0.010492
# 5 -0.014022 0.001348 0.000505 0.000000 0.043550 0.000000
# 6 0.000000 0.000000 0.000000 -0.010492 0.000000 0.041921
#
#
# Mechanical properties :
#
#
# Convention : Reuss Voigt Hill
#
# Bulk Modulus (GPa) = 40.49858 57.29369 48.89614
# Shear Modulus (GPa) = 22.88712 27.20835 25.04773
#
# Velocity S-wave (km/s) = 3.60515 3.93078 3.77148
# Velocity P-wave (km/s) = 6.35042 7.28954 6.83612
#
# Compressibility (1/GPa) = 0.02469222
#
# Stress axis : x y z
#
# Youngs Moduli (GPa) = 34.63504 69.33306 97.27307
#
# Poissons Ratio (x) = 0.29947 0.70964
# Poissons Ratio (y) = 0.14960 0.27502
# Poissons Ratio (z) = 0.25268 0.19602
#
# Static dielectric constant tensor:
#      x y z
#    x 3.201970 0.000000 0.027190 
#    y 0.000000 3.140680 0.000000 
#    z 0.027190 0.000000 3.358080 
# 
# 
# High freq. dielectric constant tensor:
#      x y z
#    x 1.665680 0.000000 0.012190 
#    y 0.000000 1.678460 0.000000 
#    z 0.012190 0.000000 1.673310 
# 
# From -- ./inp_files/25617.got.cif
#   From: 2010.06.25/outbox.cif.g09.slc.cpg/sg11_13_cif.got.tgz:25617.got - 2010.06.27 23:14:04.
