data_PCOD8070606
_publ_section_title
;
Structure prediction by ZEFSAII (Michael W. Deem and Ramdas Pophale) SiO2 
 PCOD8070606
Probable space group: P 21/M
;
_chemical_formula_sum "Si O2"
_cell_formula_units_Z 32
_cell_length_a 22.762427
_cell_length_b 8.849015
_cell_length_c 17.189019
_cell_angle_alpha 90.000000
_cell_angle_beta 29.191028
_cell_angle_gamma 90.000000
_cell_volume 1688.642794
_symmetry_space_group_name_H-M "P 21/M"
_symmetry_group_IT_number 11
_symmetry_cell_setting 'monoclinic'
loop_
_space_group_symop_operation_xyz
x,y,z
-x,1/2+y,-z
-x,-y,-z
x,1/2-y,z
loop_
_atom_site_type_symbol
_atom_site_label
_atom_site_fract_x
_atom_site_fract_y
_atom_site_fract_z
Si Si1 0.428629 0.073638 0.231146
Si Si2 0.368934 0.927307 0.735789
Si Si3 0.265522 0.928711 0.545387
Si Si4 0.064400 0.927928 0.661275
Si Si5 0.201534 0.071544 0.054640
Si Si6 0.745382 0.427126 0.681698
Si Si7 0.709002 0.075226 0.899152
Si Si8 0.353010 0.072955 0.594744
O O1 0.403430 0.250000 0.271507
O O2 0.377057 0.987288 0.365591
O O3 0.368420 0.016648 0.221110
O O4 0.568615 0.036716 0.063671
O O5 0.349918 0.750000 0.749903
O O6 0.509002 0.969387 0.583304
O O7 0.314088 0.005826 0.722771
O O8 0.302657 0.987687 0.888207
O O9 0.276085 0.750000 0.540096
O O10 0.139933 0.978750 0.649927
O O11 0.267715 0.000811 0.628129
O O12 0.053364 0.750000 0.671411
O O13 0.134454 0.981495 0.502457
O O14 0.929360 0.993647 0.819562
O O15 0.212657 0.250000 0.029191
O O16 0.220467 0.031326 0.122812
O O17 0.720384 0.250000 0.696768
O O18 0.761164 0.464451 0.753942
O O19 0.731620 0.250000 0.894236
O O20 0.330919 0.250000 0.622247
#
# Coordination Sequence:
#
# PCOD8070606 Si02
#       8
#     4   4   4   4   4   4   4   4
#     4  10  19  31  49  77 110 136 167 215 264 310
#     4  10  21  37  56  80 111 141 167 203 255 309
#     4  10  19  34  56  78 104 140 177 210 255 311
#     4   8  18  36  54  73 100 136 177 221 260 297
#     4  11  22  36  54  75 102 137 178 219 257 301
#     4   9  18  35  55  73 100 138 176 215 263 313
#     4  10  21  34  50  75 106 138 171 214 267 317
#     4  10  20  35  57  85 112 134 165 209 253 303
#
# _framework density 18.950127999999999
#
# number of rings (size 3 to 8) (size 9 to 14) (size 15 to 20)
#    0.000    2.250    0.000    3.750    0.000    6.500 
#    0.000    6.875    0.000    0.000    0.000    0.000 
#    0.000    0.000    0.000    0.000    0.000    0.000 
#
# Total GULP energy -396866.055105 kJ/mol
# GULP energy per Si atom -12402.064222 kJ/mol
# Density = 1.890700 g / cm^3
# Si number density = 18.950128 Si / 1000 Ang^3
#
#
#
# Elastic Constant Matrix: (Units=GPa)
#
#
# Indices 1 2 3 4 5 6 
#
# 1 119.7854 37.5818 40.1845 0.0000 9.9299 0.0000
# 2 37.5818 58.7827 20.8886 0.0000 -0.9567 0.0000
# 3 40.1845 20.8886 44.7385 0.0000 -4.8101 0.0000
# 4 0.0000 0.0000 0.0000 21.2425 0.0000 5.1112
# 5 9.9299 -0.9567 -4.8101 0.0000 25.8315 0.0000
# 6 0.0000 0.0000 0.0000 5.1112 0.0000 35.2287
#
#
#
# Elastic Compliance Matrix: (Units=1/GPa)
#
#
# Indices 1 2 3 4 5 6 
#
# 1 0.014496 -0.005357 -0.011368 0.000000 -0.007888 0.000000
# 2 -0.005357 0.022403 -0.005447 0.000000 0.001875 0.000000
# 3 -0.011368 -0.005447 0.036280 0.000000 0.010924 0.000000
# 4 0.000000 0.000000 0.000000 0.048778 0.000000 -0.007077
# 5 -0.007888 0.001875 0.010924 0.000000 0.043848 0.000000
# 6 0.000000 0.000000 0.000000 -0.007077 0.000000 0.029413
#
#
# Mechanical properties :
#
#
# Convention : Reuss Voigt Hill
#
# Bulk Modulus (GPa) = 34.67804 46.73514 40.70659
# Shear Modulus (GPa) = 20.06641 24.77067 22.41854
#
# Velocity S-wave (km/s) = 3.25761 3.61938 3.44325
# Velocity P-wave (km/s) = 5.69989 6.49478 6.11028
#
# Compressibility (1/GPa) = 0.02883669
#
# Stress axis : x y z
#
# Youngs Moduli (GPa) = 68.98325 44.63757 27.56330
#
# Poissons Ratio (x) = 0.23912 0.31333
# Poissons Ratio (y) = 0.36953 0.15013
# Poissons Ratio (z) = 0.78417 0.24313
#
# Static dielectric constant tensor:
#      x y z
#    x 3.612660 0.000000 -0.028560 
#    y 0.000000 3.392380 0.000000 
#    z -0.028560 0.000000 3.505860 
# 
# 
# High freq. dielectric constant tensor:
#      x y z
#    x 1.743480 0.000000 0.006910 
#    y 0.000000 1.732410 0.000000 
#    z 0.006910 0.000000 1.724020 
# 
# From -- ./inp_files/61776.got.cif
#   From: 2010.06.25/outbox.cif.g09.slc.cpg/sg11_31_cif.got.tgz:61776.got - 2010.06.27 23:14:04.
