data_PCOD8070104
_publ_section_title
;
Structure prediction by ZEFSAII (Michael W. Deem and Ramdas Pophale) SiO2 
 PCOD8070104
Probable space group: P 21/M
;
_chemical_formula_sum "Si O2"
_cell_formula_units_Z 32
_cell_length_a 30.312868
_cell_length_b 9.267564
_cell_length_c 21.585587
_cell_angle_alpha 90.000000
_cell_angle_beta 162.256987
_cell_angle_gamma 90.000000
_cell_volume 1847.981298
_symmetry_space_group_name_H-M "P 21/M"
_symmetry_group_IT_number 11
_symmetry_cell_setting 'monoclinic'
loop_
_space_group_symop_operation_xyz
x,y,z
-x,1/2+y,-z
-x,-y,-z
x,1/2-y,z
loop_
_atom_site_type_symbol
_atom_site_label
_atom_site_fract_x
_atom_site_fract_y
_atom_site_fract_z
Si Si1 0.226790 0.585662 0.027230
Si Si2 0.362459 0.912186 0.088191
Si Si3 0.365511 0.918840 0.582823
Si Si4 0.959854 0.081846 0.623748
Si Si5 0.034397 0.581599 0.608596
Si Si6 0.859216 0.417337 0.618244
Si Si7 0.135098 0.586021 0.033018
Si Si8 0.148984 0.580791 0.188246
O O1 0.167005 0.750000 0.934392
O O2 0.365067 0.563221 0.166971
O O3 0.256564 0.565806 0.140832
O O4 0.112158 0.463760 0.856528
O O5 0.406642 0.750000 0.130506
O O6 0.475845 0.013250 0.205675
O O7 0.201384 0.946715 0.848768
O O8 0.388366 0.750000 0.607332
O O9 0.288845 0.961898 0.545074
O O10 0.269943 0.977481 0.397487
O O11 0.962346 0.250000 0.608544
O O12 0.843371 0.050401 0.523131
O O13 0.930861 0.986582 0.523653
O O14 0.998222 0.750000 0.553529
O O15 0.000000 0.500000 0.500000
O O16 0.891802 0.250000 0.672701
O O17 0.991925 0.496451 0.828055
O O18 0.081217 0.750000 0.962670
O O19 0.203366 0.545633 0.190932
O O20 0.122825 0.750000 0.164391
O O21 0.000000 0.500000 0.000000
#
# Coordination Sequence:
#
# PCOD8070104 Si02
#       8
#     4   4   4   4   4   4   4   4
#     4   8  15  29  46  65  92 123 160 206 249 288
#     4   9  19  34  50  70  97 128 160 195 236 288
#     4  10  20  32  46  67  99 134 166 204 246 290
#     4   9  16  27  47  74 100 126 158 195 237 284
#     4  10  20  35  56  81 105 126 153 193 238 284
#     4   9  17  29  45  68  98 129 162 203 245 282
#     4   9  16  27  46  68  89 121 164 210 255 294
#     4  10  19  30  45  67  95 127 166 211 254 293
#
# _framework density 17.316192999999998
#
# number of rings (size 3 to 8) (size 9 to 14) (size 15 to 20)
#    0.000    2.750    1.250    1.500    0.000    4.000 
#    0.000    0.625    0.000    0.750    0.000    0.000 
#    0.000    0.000    0.000    0.000    0.000    0.000 
#
# Total GULP energy -396464.291990 kJ/mol
# GULP energy per Si atom -12389.509125 kJ/mol
# Density = 1.727678 g / cm^3
# Si number density = 17.316193 Si / 1000 Ang^3
#
#
#
# Elastic Constant Matrix: (Units=GPa)
#
#
# Indices 1 2 3 4 5 6 
#
# 1 168.2493 59.6573 45.8626 0.0000 -3.7454 0.0000
# 2 59.6573 65.9730 27.7810 0.0000 0.8560 0.0000
# 3 45.8626 27.7810 41.6064 0.0000 4.7853 0.0000
# 4 0.0000 0.0000 0.0000 22.4063 0.0000 2.3557
# 5 -3.7454 0.8560 4.7853 0.0000 25.3789 0.0000
# 6 0.0000 0.0000 0.0000 2.3557 0.0000 28.0128
#
#
#
# Elastic Compliance Matrix: (Units=1/GPa)
#
#
# Indices 1 2 3 4 5 6 
#
# 1 0.010247 -0.006118 -0.007572 0.000000 0.003146 0.000000
# 2 -0.006118 0.024838 -0.009854 0.000000 0.000117 0.000000
# 3 -0.007572 -0.009854 0.039917 0.000000 -0.008312 0.000000
# 4 0.000000 0.000000 0.000000 0.045028 0.000000 -0.003787
# 5 0.003146 0.000117 -0.008312 0.000000 0.041430 0.000000
# 6 0.000000 0.000000 0.000000 -0.003787 0.000000 0.036016
#
#
# Mechanical properties :
#
#
# Convention : Reuss Voigt Hill
#
# Bulk Modulus (GPa) = 35.82475 60.27006 48.04740
# Shear Modulus (GPa) = 19.69509 24.66145 22.17827
#
# Velocity S-wave (km/s) = 3.37617 3.77793 3.58268
# Velocity P-wave (km/s) = 5.99429 7.34245 6.70235
#
# Compressibility (1/GPa) = 0.02791366
#
# Stress axis : x y z
#
# Youngs Moduli (GPa) = 97.58912 40.26024 25.05215
#
# Poissons Ratio (x) = 0.24633 0.18969
# Poissons Ratio (y) = 0.59709 0.24686
# Poissons Ratio (z) = 0.73893 0.39672
#
# Static dielectric constant tensor:
#      x y z
#    x 3.894270 0.000000 -0.095120 
#    y 0.000000 2.573620 0.000000 
#    z -0.095120 0.000000 2.735210 
# 
# 
# High freq. dielectric constant tensor:
#      x y z
#    x 1.695180 0.000000 -0.003920 
#    y 0.000000 1.673540 0.000000 
#    z -0.003920 0.000000 1.604560 
# 
# From -- ./inp_files/42487.got.cif
#   From: 2010.06.25/outbox.cif.g09.slc.cpg/sg11_22_cif.got.tgz:42487.got - 2010.06.27 23:14:04.
