data_PCOD8070306
_publ_section_title
;
Structure prediction by ZEFSAII (Michael W. Deem and Ramdas Pophale) SiO2 
 PCOD8070306
Probable space group: P 21/M
;
_chemical_formula_sum "Si O2"
_cell_formula_units_Z 28
_cell_length_a 12.596314
_cell_length_b 8.757637
_cell_length_c 14.780018
_cell_angle_alpha 90.000000
_cell_angle_beta 74.864776
_cell_angle_gamma 90.000000
_cell_volume 1573.885809
_symmetry_space_group_name_H-M "P 21/M"
_symmetry_group_IT_number 11
_symmetry_cell_setting 'monoclinic'
loop_
_space_group_symop_operation_xyz
x,y,z
-x,1/2+y,-z
-x,-y,-z
x,1/2-y,z
loop_
_atom_site_type_symbol
_atom_site_label
_atom_site_fract_x
_atom_site_fract_y
_atom_site_fract_z
Si Si1 0.158654 0.574431 0.902288
Si Si2 0.267726 0.569899 0.408430
Si Si3 0.697255 0.576335 0.268358
Si Si4 0.853291 0.574313 0.400507
Si Si5 0.491818 0.429236 0.402823
Si Si6 0.094933 0.930136 0.302874
Si Si7 0.937159 0.427150 0.890002
O O1 0.181322 0.750000 0.874372
O O2 0.258571 0.476005 0.839416
O O3 0.042972 0.529567 0.884086
O O4 0.153555 0.545859 0.011629
O O5 0.285193 0.750000 0.397565
O O6 0.211289 0.532014 0.515985
O O7 0.384968 0.489164 0.374258
O O8 0.192282 0.504110 0.343705
O O9 0.655407 0.750000 0.272130
O O10 0.797750 0.558906 0.315241
O O11 0.596804 0.470301 0.319699
O O12 0.849555 0.750000 0.434637
O O13 0.977031 0.509534 0.364419
O O14 0.500000 0.500000 0.500000
O O15 0.482811 0.250000 0.417523
O O16 0.092595 0.750000 0.312948
O O17 0.115715 0.977347 0.193973
O O18 0.975066 0.250000 0.879278
#
# Coordination Sequence:
#
# PCOD8070306 Si02
#       7
#     4   4   4   4   4   4   4
#     4  10  19  30  51  82 110 139 177 222 269 315
#     4  11  22  35  54  78 107 142 182 220 261 313
#     4  11  21  35  57  79 108 142 176 219 268 318
#     4  10  19  33  53  76 107 145 179 212 260 313
#     4  12  24  39  57  77 105 138 180 224 265 311
#     4   9  18  34  54  77 107 146 181 213 260 318
#     4   9  17  33  53  75 109 146 179 217 264 317
#
# _framework density 17.790362999999999
#
# number of rings (size 3 to 8) (size 9 to 14) (size 15 to 20)
#    0.000    1.714    2.857    3.000    0.000    1.143 
#    0.000    2.143    0.000    0.857    0.000    0.000 
#    0.000    0.000    0.000    0.000    0.000    0.000 
#
# Total GULP energy -347250.650576 kJ/mol
# GULP energy per Si atom -12401.808949 kJ/mol
# Density = 1.774987 g / cm^3
# Si number density = 17.790363 Si / 1000 Ang^3
#
#
#
# Elastic Constant Matrix: (Units=GPa)
#
#
# Indices 1 2 3 4 5 6 
#
# 1 99.1466 30.9824 29.0145 0.0000 -10.3698 0.0000
# 2 30.9824 77.0913 26.2000 0.0000 -3.4140 0.0000
# 3 29.0145 26.2000 91.1391 0.0000 -11.7050 0.0000
# 4 0.0000 0.0000 0.0000 22.9606 0.0000 -6.7408
# 5 -10.3698 -3.4140 -11.7050 0.0000 21.2768 0.0000
# 6 0.0000 0.0000 0.0000 -6.7408 0.0000 24.8537
#
#
#
# Elastic Compliance Matrix: (Units=1/GPa)
#
#
# Indices 1 2 3 4 5 6 
#
# 1 0.012450 -0.004050 -0.002264 0.000000 0.004173 0.000000
# 2 -0.004050 0.015693 -0.003392 0.000000 -0.001322 0.000000
# 3 -0.002264 -0.003392 0.013403 0.000000 0.005726 0.000000
# 4 0.000000 0.000000 0.000000 0.047321 0.000000 0.012834
# 5 0.004173 -0.001322 0.005726 0.000000 0.051971 0.000000
# 6 0.000000 0.000000 0.000000 0.012834 0.000000 0.043716
#
#
# Mechanical properties :
#
#
# Convention : Reuss Voigt Hill
#
# Bulk Modulus (GPa) = 45.17342 48.86343 47.01843
# Shear Modulus (GPa) = 23.65801 25.89688 24.77745
#
# Velocity S-wave (km/s) = 3.65063 3.81946 3.73600
# Velocity P-wave (km/s) = 6.57394 6.85397 6.71541
#
# Compressibility (1/GPa) = 0.02213691
#
# Stress axis : x y z
#
# Youngs Moduli (GPa) = 80.31856 63.72108 74.60833
#
# Poissons Ratio (x) = 0.25805 0.16888
# Poissons Ratio (y) = 0.32526 0.25307
# Poissons Ratio (z) = 0.18180 0.21614
#
# Static dielectric constant tensor:
#      x y z
#    x 3.388980 0.000000 0.054410 
#    y 0.000000 3.260350 0.000000 
#    z 0.054410 0.000000 3.427080 
# 
# 
# High freq. dielectric constant tensor:
#      x y z
#    x 1.669450 0.000000 -0.006260 
#    y 0.000000 1.685070 0.000000 
#    z -0.006260 0.000000 1.690120 
# 
# From -- ./inp_files/37681.got.cif
#   From: 2010.06.25/outbox.cif.g09.slc.cpg/sg11_19_cif.got.tgz:37681.got - 2010.06.27 23:14:04.
