data_PCOD8070804
_publ_section_title
;
Structure prediction by ZEFSAII (Michael W. Deem and Ramdas Pophale) SiO2 
 PCOD8070804
Probable space group: P 21/M
;
_chemical_formula_sum "Si O2"
_cell_formula_units_Z 28
_cell_length_a 15.038581
_cell_length_b 8.492585
_cell_length_c 19.139989
_cell_angle_alpha 90.000000
_cell_angle_beta 38.192154
_cell_angle_gamma 90.000000
_cell_volume 1511.430691
_symmetry_space_group_name_H-M "P 21/M"
_symmetry_group_IT_number 11
_symmetry_cell_setting 'monoclinic'
loop_
_space_group_symop_operation_xyz
x,y,z
-x,1/2+y,-z
-x,-y,-z
x,1/2-y,z
loop_
_atom_site_type_symbol
_atom_site_label
_atom_site_fract_x
_atom_site_fract_y
_atom_site_fract_z
Si Si1 0.077218 0.432419 0.211347
Si Si2 0.633692 0.066072 0.958948
Si Si3 0.241821 0.063427 0.731847
Si Si4 0.362339 0.067190 0.890982
Si Si5 0.763521 0.432640 0.418643
Si Si6 0.498243 0.437120 0.667956
Si Si7 0.928450 0.431407 0.933767
O O1 0.088842 0.250000 0.180340
O O2 0.222599 0.482333 0.162274
O O3 0.072925 0.549569 0.148802
O O4 0.927339 0.459541 0.345845
O O5 0.645863 0.250000 0.938607
O O6 0.500000 0.000000 0.000000
O O7 0.613417 0.031554 0.053825
O O8 0.243068 0.250000 0.730873
O O9 0.369878 0.992078 0.699514
O O10 0.086941 0.007751 0.860095
O O11 0.263591 0.009959 0.639169
O O12 0.378661 0.250000 0.899246
O O13 0.477637 0.011436 0.761408
O O14 0.203443 0.035758 0.955277
O O15 0.731670 0.250000 0.427773
O O16 0.651276 0.501543 0.544981
O O17 0.489625 0.250000 0.669594
O O18 0.902393 0.250000 0.969568
#
# Coordination Sequence:
#
# PCOD8070804 Si02
#       7
#     4   4   4   4   4   4   4
#     4   9  16  28  48  73  97 122 155 192 233 279
#     4  11  21  35  56  79 100 118 144 186 234 286
#     4   9  17  29  45  66  93 128 170 211 245 275
#     4  10  19  32  49  69  96 129 161 192 236 291
#     4   9  17  30  48  69  95 129 168 205 236 272
#     4   9  18  31  46  66  96 133 167 201 241 279
#     4   9  16  27  43  64  93 126 161 203 244 279
#
# _framework density 18.525493000000001
#
# number of rings (size 3 to 8) (size 9 to 14) (size 15 to 20)
#    0.000    2.571    0.000    4.714    0.000    1.714 
#    0.000    2.857    0.000    0.857    0.000    0.000 
#    0.000    0.000    0.000    0.000    0.000    0.000 
#
# Total GULP energy -346905.984319 kJ/mol
# GULP energy per Si atom -12389.499440 kJ/mol
# Density = 1.848333 g / cm^3
# Si number density = 18.525493 Si / 1000 Ang^3
#
#
#
# Elastic Constant Matrix: (Units=GPa)
#
#
# Indices 1 2 3 4 5 6 
#
# 1 95.2048 16.1549 52.7270 0.0000 -25.3817 0.0000
# 2 16.1549 43.8009 13.2914 0.0000 -4.0393 0.0000
# 3 52.7270 13.2914 116.7857 0.0000 -15.3754 0.0000
# 4 0.0000 0.0000 0.0000 19.7244 0.0000 -2.5317
# 5 -25.3817 -4.0393 -15.3754 0.0000 25.1702 0.0000
# 6 0.0000 0.0000 0.0000 -2.5317 0.0000 22.4734
#
#
#
# Elastic Compliance Matrix: (Units=1/GPa)
#
#
# Indices 1 2 3 4 5 6 
#
# 1 0.018162 -0.003597 -0.005933 0.000000 0.014114 0.000000
# 2 -0.003597 0.024487 -0.001221 0.000000 -0.000444 0.000000
# 3 -0.005933 -0.001221 0.011491 0.000000 0.000841 0.000000
# 4 0.000000 0.000000 0.000000 0.051443 0.000000 0.005795
# 5 0.014114 -0.000444 0.000841 0.000000 0.054405 0.000000
# 6 0.000000 0.000000 0.000000 0.005795 0.000000 0.045150
#
#
# Mechanical properties :
#
#
# Convention : Reuss Voigt Hill
#
# Bulk Modulus (GPa) = 30.63851 46.68200 38.66026
# Shear Modulus (GPa) = 21.05102 25.04812 23.04957
#
# Velocity S-wave (km/s) = 3.37460 3.68107 3.53116
# Velocity P-wave (km/s) = 5.63546 6.58183 6.12694
#
# Compressibility (1/GPa) = 0.03263866
#
# Stress axis : x y z
#
# Youngs Moduli (GPa) = 55.05888 40.83812 87.02579
#
# Poissons Ratio (x) = 0.14689 0.51628
# Poissons Ratio (y) = 0.19804 0.10628
# Poissons Ratio (z) = 0.32664 0.04988
#
# Static dielectric constant tensor:
#      x y z
#    x 3.407050 0.000000 -0.510880 
#    y 0.000000 3.251690 0.000000 
#    z -0.510880 0.000000 3.881120 
# 
# 
# High freq. dielectric constant tensor:
#      x y z
#    x 1.686330 0.000000 -0.028940 
#    y 0.000000 1.709060 0.000000 
#    z -0.028940 0.000000 1.719560 
# 
# From -- ./inp_files/42582.got.cif
#   From: 2010.06.25/outbox.cif.g09.slc.cpg/sg11_22_cif.got.tgz:42582.got - 2010.06.27 23:14:04.
