data_PCOD8070908
_publ_section_title
;
Structure prediction by ZEFSAII (Michael W. Deem and Ramdas Pophale) SiO2 
 PCOD8070908
Probable space group: P 21/M
;
_chemical_formula_sum "Si O2"
_cell_formula_units_Z 32
_cell_length_a 11.241464
_cell_length_b 16.935585
_cell_length_c 18.422021
_cell_angle_alpha 90.000000
_cell_angle_beta 31.437727
_cell_angle_gamma 90.000000
_cell_volume 1829.254965
_symmetry_space_group_name_H-M "P 21/M"
_symmetry_group_IT_number 11
_symmetry_cell_setting 'monoclinic'
loop_
_space_group_symop_operation_xyz
x,y,z
-x,1/2+y,-z
-x,-y,-z
x,1/2-y,z
loop_
_atom_site_type_symbol
_atom_site_label
_atom_site_fract_x
_atom_site_fract_y
_atom_site_fract_z
Si Si1 0.041139 0.933032 0.538788
Si Si2 0.307817 0.161543 0.342191
Si Si3 0.050685 0.662468 0.340519
Si Si4 0.815725 0.974921 0.397263
Si Si5 0.418572 0.656652 0.261870
Si Si6 0.218743 0.658943 0.847026
Si Si7 0.841082 0.573535 0.104389
Si Si8 0.290950 0.529017 0.700550
O O1 0.241853 0.871994 0.415034
O O2 0.800451 0.886245 0.668472
O O3 0.091053 0.965423 0.591675
O O4 0.000000 0.000000 0.500000
O O5 0.350374 0.250000 0.293929
O O6 0.548810 0.124224 0.239536
O O7 0.133579 0.155289 0.499553
O O8 0.048045 0.750000 0.308167
O O9 0.301106 0.644018 0.243932
O O10 0.977341 0.602576 0.315331
O O11 0.554832 0.951743 0.548564
O O12 0.842167 0.014511 0.305002
O O13 0.474284 0.750000 0.245196
O O14 0.641067 0.600409 0.152685
O O15 0.242140 0.750000 0.811557
O O16 0.173894 0.605467 0.798888
O O17 0.016741 0.647693 0.011482
O O18 0.732205 0.551136 0.238766
O O19 0.000000 0.500000 0.000000
#
# Coordination Sequence:
#
# PCOD8070908 Si02
#       8
#     4   4   4   4   4   4   4   4
#     4  11  17  28  53  79 105 133 170 221 269 314
#     4   9  17  29  49  78 100 125 175 224 262 304
#     4   9  17  30  51  76 104 135 172 223 271 317
#     4  11  19  31  53  76 111 143 166 210 278 318
#     4  10  19  32  50  79 107 132 175 229 275 309
#     4  10  19  35  57  74 100 142 182 220 259 311
#     4  10  21  34  54  75 102 136 180 220 258 307
#     4  10  21  34  48  78 110 140 174 213 258 330
#
# _framework density 17.493459999999999
#
# number of rings (size 3 to 8) (size 9 to 14) (size 15 to 20)
#    0.000    2.000    5.000    1.500    1.750    0.000 
#    0.000    2.500    0.000    6.750    0.000    3.500 
#    0.000    0.000    0.000    0.000    0.000    0.000 
#
# Total GULP energy -396482.899837 kJ/mol
# GULP energy per Si atom -12390.090620 kJ/mol
# Density = 1.745364 g / cm^3
# Si number density = 17.493460 Si / 1000 Ang^3
#
#
#
# Elastic Constant Matrix: (Units=GPa)
#
#
# Indices 1 2 3 4 5 6 
#
# 1 124.0764 65.4383 35.0397 0.0000 -16.9993 0.0000
# 2 65.4383 102.7927 30.0028 0.0000 -8.7277 0.0000
# 3 35.0397 30.0028 58.9180 0.0000 -19.3861 0.0000
# 4 0.0000 0.0000 0.0000 26.4035 0.0000 -9.8341
# 5 -16.9993 -8.7277 -19.3861 0.0000 24.2779 0.0000
# 6 0.0000 0.0000 0.0000 -9.8341 0.0000 29.7750
#
#
#
# Elastic Compliance Matrix: (Units=1/GPa)
#
#
# Indices 1 2 3 4 5 6 
#
# 1 0.013284 -0.007284 -0.002702 0.000000 0.004525 0.000000
# 2 -0.007284 0.015430 -0.004583 0.000000 -0.003212 0.000000
# 3 -0.002702 -0.004583 0.026787 0.000000 0.017850 0.000000
# 4 0.000000 0.000000 0.000000 0.043186 0.000000 0.014264
# 5 0.004525 -0.003212 0.017850 0.000000 0.057457 0.000000
# 6 0.000000 0.000000 0.000000 0.014264 0.000000 0.038296
#
#
# Mechanical properties :
#
#
# Convention : Reuss Voigt Hill
#
# Bulk Modulus (GPa) = 37.93120 60.74984 49.34052
# Shear Modulus (GPa) = 21.51788 26.44504 23.98146
#
# Velocity S-wave (km/s) = 3.51102 3.89229 3.70656
# Velocity P-wave (km/s) = 6.17790 7.41636 6.82528
#
# Compressibility (1/GPa) = 0.02636352
#
# Stress axis : x y z
#
# Youngs Moduli (GPa) = 75.27748 64.80876 37.33217
#
# Poissons Ratio (x) = 0.47206 0.10088
# Poissons Ratio (y) = 0.54831 0.17108
# Poissons Ratio (z) = 0.20342 0.29699
#
# Static dielectric constant tensor:
#      x y z
#    x 3.276990 0.000000 -0.333740 
#    y 0.000000 3.633620 0.000000 
#    z -0.333740 0.000000 3.256750 
# 
# 
# High freq. dielectric constant tensor:
#      x y z
#    x 1.656360 0.000000 -0.037230 
#    y 0.000000 1.686830 0.000000 
#    z -0.037230 0.000000 1.650560 
# 
# From -- ./inp_files/35901.got.cif
#   From: 2010.06.25/outbox.cif.g09.slc.cpg/sg11_18_cif.got.tgz:35901.got - 2010.06.27 23:14:04.
