data_PCOD8070910
_publ_section_title
;
Structure prediction by ZEFSAII (Michael W. Deem and Ramdas Pophale) SiO2 
 PCOD8070910
Probable space group: P 21/M
;
_chemical_formula_sum "Si O2"
_cell_formula_units_Z 28
_cell_length_a 22.885573
_cell_length_b 8.508745
_cell_length_c 18.883379
_cell_angle_alpha 90.000000
_cell_angle_beta 157.361013
_cell_angle_gamma 90.000000
_cell_volume 1415.407067
_symmetry_space_group_name_H-M "P 21/M"
_symmetry_group_IT_number 11
_symmetry_cell_setting 'monoclinic'
loop_
_space_group_symop_operation_xyz
x,y,z
-x,1/2+y,-z
-x,-y,-z
x,1/2-y,z
loop_
_atom_site_type_symbol
_atom_site_label
_atom_site_fract_x
_atom_site_fract_y
_atom_site_fract_z
Si Si1 0.161615 0.432622 0.165276
Si Si2 0.751804 0.565506 0.590856
Si Si3 0.195771 0.063530 0.905274
Si Si4 0.374532 0.433750 0.807384
Si Si5 0.475024 0.933814 0.772862
Si Si6 0.048662 0.935361 0.479405
Si Si7 0.080459 0.436070 0.926107
O O1 0.146342 0.250000 0.158043
O O2 0.273906 0.487266 0.354634
O O3 0.197120 0.474708 0.122576
O O4 0.000000 0.500000 0.000000
O O5 0.719876 0.750000 0.542946
O O6 0.635643 0.461567 0.416632
O O7 0.922732 0.527698 0.757682
O O8 0.195619 0.250000 0.905028
O O9 0.162530 0.001924 0.947275
O O10 0.066724 0.996810 0.708585
O O11 0.358832 0.002090 0.061936
O O12 0.357101 0.250000 0.800776
O O13 0.418823 0.467043 0.776488
O O14 0.216965 0.515538 0.648265
O O15 0.500000 0.500000 0.000000
O O16 0.476935 0.750000 0.794648
O O17 0.038381 0.750000 0.470087
O O18 0.000000 0.000000 0.500000
O O19 0.045441 0.250000 0.883456
#
# Coordination Sequence:
#
# PCOD8070910 Si02
#       7
#     4   4   4   4   4   4   4
#     4   8  15  27  48  75 105 137 177 226 278 332
#     4  10  19  32  50  79 112 143 180 228 280 335
#     4   9  20  36  56  79 106 140 185 232 276 326
#     4  12  25  42  63  89 117 148 185 230 281 338
#     4  11  22  38  57  80 110 148 189 230 274 330
#     4  11  22  39  62  89 118 151 188 232 282 335
#     4   9  16  32  56  79 102 139 185 232 282 334
#
# _framework density 19.782294
#
# number of rings (size 3 to 8) (size 9 to 14) (size 15 to 20)
#    0.000    2.000    0.000    4.286    0.000    2.857 
#    0.000    5.000    0.000    0.000    0.000    0.000 
#    0.000    0.000    0.000    0.000    0.000    0.000 
#
# Total GULP energy -347030.316623 kJ/mol
# GULP energy per Si atom -12393.939879 kJ/mol
# Density = 1.973727 g / cm^3
# Si number density = 19.782294 Si / 1000 Ang^3
#
#
#
# Elastic Constant Matrix: (Units=GPa)
#
#
# Indices 1 2 3 4 5 6 
#
# 1 170.0344 13.9901 71.6313 0.0000 -16.1921 0.0000
# 2 13.9901 33.0624 5.7947 0.0000 -5.0454 0.0000
# 3 71.6313 5.7947 117.9648 0.0000 -9.3457 0.0000
# 4 0.0000 0.0000 0.0000 24.6683 0.0000 -1.2933
# 5 -16.1921 -5.0454 -9.3457 0.0000 38.7342 0.0000
# 6 0.0000 0.0000 0.0000 -1.2933 0.0000 26.5612
#
#
#
# Elastic Compliance Matrix: (Units=1/GPa)
#
#
# Indices 1 2 3 4 5 6 
#
# 1 0.008265 -0.002360 -0.004744 0.000000 0.002003 0.000000
# 2 -0.002360 0.031707 0.000127 0.000000 0.003174 0.000000
# 3 -0.004744 0.000127 0.011414 0.000000 0.000787 0.000000
# 4 0.000000 0.000000 0.000000 0.040642 0.000000 0.001979
# 5 0.002003 0.003174 0.000787 0.000000 0.027258 0.000000
# 6 0.000000 0.000000 0.000000 0.001979 0.000000 0.037745
#
#
# Mechanical properties :
#
#
# Convention : Reuss Voigt Hill
#
# Bulk Modulus (GPa) = 26.71562 55.98821 41.35192
# Shear Modulus (GPa) = 27.25389 33.30245 30.27817
#
# Velocity S-wave (km/s) = 3.71575 4.10743 3.91649
# Velocity P-wave (km/s) = 5.65183 7.13150 6.43434
#
# Compressibility (1/GPa) = 0.03743128
#
# Stress axis : x y z
#
# Youngs Moduli (GPa) = 120.99904 31.53924 87.61303
#
# Poissons Ratio (x) = 0.07443 0.41562
# Poissons Ratio (y) = 0.28556 -0.01113
# Poissons Ratio (z) = 0.57400 -0.00401
#
# Static dielectric constant tensor:
#      x y z
#    x 4.225620 0.000000 -0.259140 
#    y 0.000000 2.509080 0.000000 
#    z -0.259140 0.000000 3.862900 
# 
# 
# High freq. dielectric constant tensor:
#      x y z
#    x 1.788910 0.000000 -0.022650 
#    y 0.000000 1.761520 0.000000 
#    z -0.022650 0.000000 1.764620 
# 
# From -- ./inp_files/66737.got.cif
#   From: 2010.06.25/outbox.cif.g09.slc.cpg/sg11_34_cif.got.tgz:66737.got - 2010.06.27 23:14:04.
