data_PCOD8070333
_publ_section_title
;
Structure prediction by ZEFSAII (Michael W. Deem and Ramdas Pophale) SiO2 
 PCOD8070333
Probable space group: P 21/M
;
_chemical_formula_sum "Si O2"
_cell_formula_units_Z 24
_cell_length_a 12.996225
_cell_length_b 8.948022
_cell_length_c 19.157899
_cell_angle_alpha 90.000000
_cell_angle_beta 45.097639
_cell_angle_gamma 90.000000
_cell_volume 1578.032623
_symmetry_space_group_name_H-M "P 21/M"
_symmetry_group_IT_number 11
_symmetry_cell_setting 'monoclinic'
loop_
_space_group_symop_operation_xyz
x,y,z
-x,1/2+y,-z
-x,-y,-z
x,1/2-y,z
loop_
_atom_site_type_symbol
_atom_site_label
_atom_site_fract_x
_atom_site_fract_y
_atom_site_fract_z
Si Si1 0.167342 0.419536 0.611330
Si Si2 0.882340 0.582226 0.708040
Si Si3 0.578592 0.580999 0.899622
Si Si4 0.401851 0.076355 0.604250
Si Si5 0.586086 0.574941 0.619870
Si Si6 0.337928 0.572918 0.271514
O O1 0.115190 0.250000 0.626554
O O2 0.236382 0.441775 0.655766
O O3 0.283591 0.460171 0.495962
O O4 0.028933 0.524632 0.672194
O O5 0.908303 0.750000 0.667718
O O6 0.753851 0.580988 0.828172
O O7 0.826671 0.481278 0.669217
O O8 0.518968 0.750000 0.921766
O O9 0.549741 0.492680 0.840494
O O10 0.500000 0.500000 0.000000
O O11 0.443381 0.250000 0.591241
O O12 0.500000 0.000000 0.500000
O O13 0.434735 0.992372 0.661484
O O14 0.566023 0.750000 0.642748
O O15 0.618957 0.491447 0.675111
O O16 0.345774 0.750000 0.268906
#
# Coordination Sequence:
#
# PCOD8070333 Si02
#       6
#     4   4   4   4   4   4
#     4   9  18  30  45  64  91 124 157 190 225 264
#     4   9  19  31  45  67  93 117 152 188 223 274
#     4   9  18  32  49  70  91 116 147 185 226 273
#     4   9  17  29  44  64  87 119 160 194 224 263
#     4  10  19  31  45  65  93 124 158 194 225 266
#     4  10  19  31  47  67  92 121 152 187 228 273
#
# _framework density 15.208811000000001
#
# number of rings (size 3 to 8) (size 9 to 14) (size 15 to 20)
#    1.000    1.667    0.000    4.000    0.000    4.667 
#    0.000    0.000    0.000    0.000    0.000    1.167 
#    0.000    0.000    0.000    0.000    0.000    0.000 
#
# Total GULP energy -297323.408018 kJ/mol
# GULP energy per Si atom -12388.475334 kJ/mol
# Density = 1.517420 g / cm^3
# Si number density = 15.208811 Si / 1000 Ang^3
#
#
#
# Elastic Constant Matrix: (Units=GPa)
#
#
# Indices 1 2 3 4 5 6 
#
# 1 114.2452 69.4529 38.5418 0.0000 8.3044 0.0000
# 2 69.4529 145.7753 43.7544 0.0000 5.7273 0.0000
# 3 38.5418 43.7544 48.4848 0.0000 2.2841 0.0000
# 4 0.0000 0.0000 0.0000 25.0589 0.0000 1.8662
# 5 8.3044 5.7273 2.2841 0.0000 -2.4804 0.0000
# 6 0.0000 0.0000 0.0000 1.8662 0.0000 32.6395
#
#
#
# Elastic Compliance Matrix: (Units=1/GPa)
#
#
# Indices 1 2 3 4 5 6 
#
# 1 0.012104 -0.004762 -0.006436 0.000000 0.023601 0.000000
# 2 -0.004762 0.010844 -0.006161 0.000000 0.003421 0.000000
# 3 -0.006436 -0.006161 0.031615 0.000000 -0.006660 0.000000
# 4 0.000000 0.000000 0.000000 0.040077 0.000000 -0.002291
# 5 0.023601 0.003421 -0.006660 0.000000 -0.322375 0.000000
# 6 0.000000 0.000000 0.000000 -0.002291 0.000000 0.030769
#
#
# Mechanical properties :
#
#
# Convention : Reuss Voigt Hill
#
# Bulk Modulus (GPa) = 50.39363 68.00039 59.19701
# Shear Modulus (GPa) = -32.12676 21.49400 -5.31638
#
# Velocity S-wave (km/s) = -4.60105 3.76341 -1.87168
# Velocity P-wave (km/s) = 2.23165 7.98077 5.85973
#
# Compressibility (1/GPa) = 0.01984378
#
# Stress axis : x y z
#
# Youngs Moduli (GPa) = 82.61777 92.21937 31.63055
#
# Poissons Ratio (x) = 0.43917 0.20357
# Poissons Ratio (y) = 0.39345 0.19488
# Poissons Ratio (z) = 0.53172 0.56819
#
# Static dielectric constant tensor:
#      x y z
#    x 3.085670 0.000000 0.058260 
#    y 0.000000 3.262800 0.000000 
#    z 0.058260 0.000000 2.554080 
# 
# 
# High freq. dielectric constant tensor:
#      x y z
#    x 1.579190 0.000000 0.007320 
#    y 0.000000 1.605600 0.000000 
#    z 0.007320 0.000000 1.535600 
# 
# From -- ./inp_files/44550.got.cif
#   From: 2010.06.25/outbox.cif.g09.slc.cpg/sg11_23_cif.got.tgz:44550.got - 2010.06.27 23:14:04.
