data_PCOD8070942
_publ_section_title
;
Structure prediction by ZEFSAII (Michael W. Deem and Ramdas Pophale) SiO2 
 PCOD8070942
Probable space group: P 21/M
;
_chemical_formula_sum "Si O2"
_cell_formula_units_Z 28
_cell_length_a 20.190744
_cell_length_b 9.133117
_cell_length_c 18.343669
_cell_angle_alpha 90.000000
_cell_angle_beta 153.207717
_cell_angle_gamma 90.000000
_cell_volume 1524.755940
_symmetry_space_group_name_H-M "P 21/M"
_symmetry_group_IT_number 11
_symmetry_cell_setting 'monoclinic'
loop_
_space_group_symop_operation_xyz
x,y,z
-x,1/2+y,-z
-x,-y,-z
x,1/2-y,z
loop_
_atom_site_type_symbol
_atom_site_label
_atom_site_fract_x
_atom_site_fract_y
_atom_site_fract_z
Si Si1 0.676261 0.919096 0.034720
Si Si2 0.317426 0.586105 0.100593
Si Si3 0.662243 0.582373 0.742265
Si Si4 0.844240 0.923491 0.345454
Si Si5 0.332459 0.412213 0.564297
Si Si6 0.636642 0.581552 0.560573
Si Si7 0.665717 0.420160 0.294551
O O1 0.697317 0.750000 0.037327
O O2 0.766652 0.967856 0.194000
O O3 0.506101 0.954790 0.882504
O O4 0.740816 0.006201 0.029157
O O5 0.256019 0.750000 0.038434
O O6 0.256186 0.510312 0.114462
O O7 0.492668 0.578779 0.273884
O O8 0.669074 0.750000 0.774103
O O9 0.731711 0.559981 0.728805
O O10 0.493353 0.535758 0.567947
O O11 0.861639 0.750000 0.370364
O O12 0.746609 0.983015 0.314863
O O13 0.000000 0.000000 0.500000
O O14 0.286988 0.250000 0.546947
O O15 0.266224 0.444097 0.417973
O O16 0.278307 0.530502 0.570138
O O17 0.575233 0.750000 0.498373
O O18 0.703289 0.250000 0.320498
#
# Coordination Sequence:
#
# PCOD8070942 Si02
#       7
#     4   4   4   4   4   4   4
#     4   9  19  34  52  73  96 124 160 199 238 282
#     4   9  16  25  39  60  87 119 155 193 233 278
#     4   9  14  20  32  51  80 117 154 191 231 275
#     4  11  23  38  54  73  98 126 156 194 240 288
#     4   8  14  25  39  58  86 119 155 193 232 274
#     4   8  14  22  32  50  79 117 156 191 230 275
#     4  10  19  32  51  74  97 124 160 198 238 284
#
# _framework density 18.363593999999999
#
# number of rings (size 3 to 8) (size 9 to 14) (size 15 to 20)
#    0.000    2.857    0.000    3.000    0.000    5.714 
#    0.000    0.000    0.000    0.000    0.000    0.000 
#    0.000    1.143    0.000    3.429    0.000   10.571 
#
# Total GULP energy -346960.061879 kJ/mol
# GULP energy per Si atom -12391.430781 kJ/mol
# Density = 1.832180 g / cm^3
# Si number density = 18.363594 Si / 1000 Ang^3
#
#
#
# Elastic Constant Matrix: (Units=GPa)
#
#
# Indices 1 2 3 4 5 6 
#
# 1 112.2875 66.7285 71.5875 0.0000 -55.0619 0.0000
# 2 66.7285 98.8297 41.9130 0.0000 -24.7833 0.0000
# 3 71.5875 41.9130 51.6566 0.0000 -24.9249 0.0000
# 4 0.0000 0.0000 0.0000 18.8364 0.0000 -7.4393
# 5 -55.0619 -24.7833 -24.9249 0.0000 30.1245 0.0000
# 6 0.0000 0.0000 0.0000 -7.4393 0.0000 31.4118
#
#
#
# Elastic Compliance Matrix: (Units=1/GPa)
#
#
# Indices 1 2 3 4 5 6 
#
# 1 -0.096368 0.005258 0.077201 0.000000 -0.107941 0.000000
# 2 0.005258 0.015418 -0.015045 0.000000 0.009846 0.000000
# 3 0.077201 -0.015045 -0.022151 0.000000 0.110404 0.000000
# 4 0.000000 0.000000 0.000000 0.058567 0.000000 0.013870
# 5 -0.107941 0.009846 0.110404 0.000000 -0.064652 0.000000
# 6 0.000000 0.000000 0.000000 0.013870 0.000000 0.035120
#
#
# Mechanical properties :
#
#
# Convention : Reuss Voigt Hill
#
# Bulk Modulus (GPa) = 31.51938 69.24798 50.38368
# Shear Modulus (GPa) = -25.21221 21.57751 -1.81735
#
# Velocity S-wave (km/s) = -3.70935 3.43157 -0.99589
# Velocity P-wave (km/s) = 1.06975 7.31383 5.11604
#
# Compressibility (1/GPa) = 0.03172651
#
# Stress axis : x y z
#
# Youngs Moduli (GPa) = -10.37691 64.85817 -45.14501
#
# Poissons Ratio (x) = -0.34100 3.48525
# Poissons Ratio (y) = 0.05456 -0.67923
# Poissons Ratio (z) = 0.80111 0.97582
#
# Static dielectric constant tensor:
#      x y z
#    x 3.616740 0.000000 -0.525250 
#    y 0.000000 3.499010 0.000000 
#    z -0.525250 0.000000 4.124640 
# 
# 
# High freq. dielectric constant tensor:
#      x y z
#    x 1.708950 0.000000 -0.055750 
#    y 0.000000 1.722890 0.000000 
#    z -0.055750 0.000000 1.658900 
# 
# From -- ./inp_files/61277.got.cif
#   From: 2010.06.25/outbox.cif.g09.slc.cpg/sg11_31_cif.got.tgz:61277.got - 2010.06.27 23:14:04.
