data_PCOD8070420
_publ_section_title
;
Structure prediction by ZEFSAII (Michael W. Deem and Ramdas Pophale) SiO2 
 PCOD8070420
Probable space group: P 21/M
;
_chemical_formula_sum "Si O2"
_cell_formula_units_Z 32
_cell_length_a 14.239987
_cell_length_b 8.807740
_cell_length_c 32.368317
_cell_angle_alpha 90.000000
_cell_angle_beta 150.796415
_cell_angle_gamma 90.000000
_cell_volume 1980.786757
_symmetry_space_group_name_H-M "P 21/M"
_symmetry_group_IT_number 11
_symmetry_cell_setting 'monoclinic'
loop_
_space_group_symop_operation_xyz
x,y,z
-x,1/2+y,-z
-x,-y,-z
x,1/2-y,z
loop_
_atom_site_type_symbol
_atom_site_label
_atom_site_fract_x
_atom_site_fract_y
_atom_site_fract_z
Si Si1 0.905931 0.929288 0.504151
Si Si2 0.108260 0.074374 0.658167
Si Si3 0.762795 0.423985 0.581262
Si Si4 0.417251 0.925168 0.404369
Si Si5 0.512816 0.570692 0.650675
Si Si6 0.910216 0.072394 0.005272
Si Si7 0.277731 0.070617 0.187467
Si Si8 0.459777 0.572025 0.176863
O O1 0.897919 0.750000 0.495930
O O2 0.693298 0.992141 0.429043
O O3 0.000000 0.000000 0.500000
O O4 0.035936 0.971092 0.593147
O O5 0.098290 0.250000 0.640297
O O6 0.324821 0.024315 0.752943
O O7 0.980884 0.047343 0.650320
O O8 0.698734 0.250000 0.548162
O O9 0.745737 0.459496 0.623618
O O10 0.625705 0.533681 0.502681
O O11 0.419859 0.750000 0.392375
O O12 0.372122 0.024854 0.346603
O O13 0.483170 0.750000 0.640947
O O14 0.636138 0.508172 0.736678
O O15 0.930048 0.250000 0.008154
O O16 0.048816 0.021876 0.096745
O O17 0.682821 0.026672 0.916708
O O18 0.000000 0.000000 0.000000
O O19 0.300015 0.250000 0.195044
O O20 0.400695 0.007887 0.196627
O O21 0.446394 0.750000 0.180396
#
# Coordination Sequence:
#
# PCOD8070420 Si02
#       8
#     4   4   4   4   4   4   4   4
#     4  12  24  35  46  63  90 126 159 187 219 264
#     4  10  19  32  48  68  92 120 150 185 227 272
#     4   9  18  32  49  66  90 118 149 190 233 275
#     4  10  19  31  48  69  88 115 153 192 233 275
#     4  11  21  33  47  66  91 122 155 191 229 269
#     4   8  14  27  44  64  88 114 146 185 222 264
#     4   9  18  30  45  64  90 122 153 183 223 267
#     4   9  17  28  46  69  92 117 148 184 224 266
#
# _framework density 16.155194999999999
#
# number of rings (size 3 to 8) (size 9 to 14) (size 15 to 20)
#    0.000    2.250    1.250    2.625    0.000    4.000 
#    0.000    0.000    0.000    0.000    0.000    0.875 
#    0.000    0.000    0.000    0.000    0.000    0.000 
#
# Total GULP energy -396529.598618 kJ/mol
# GULP energy per Si atom -12391.549957 kJ/mol
# Density = 1.611843 g / cm^3
# Si number density = 16.155195 Si / 1000 Ang^3
#
#
#
# Elastic Constant Matrix: (Units=GPa)
#
#
# Indices 1 2 3 4 5 6 
#
# 1 98.6052 21.1454 49.8588 0.0000 6.6045 0.0000
# 2 21.1454 45.1377 20.3437 0.0000 2.5622 0.0000
# 3 49.8588 20.3437 111.7842 0.0000 17.9566 0.0000
# 4 0.0000 0.0000 0.0000 11.9809 0.0000 -2.0188
# 5 6.6045 2.5622 17.9566 0.0000 15.6868 0.0000
# 6 0.0000 0.0000 0.0000 -2.0188 0.0000 21.8702
#
#
#
# Elastic Compliance Matrix: (Units=1/GPa)
#
#
# Indices 1 2 3 4 5 6 
#
# 1 0.013748 -0.003983 -0.005614 0.000000 0.001289 0.000000
# 2 -0.003983 0.025311 -0.002984 0.000000 0.000958 0.000000
# 3 -0.005614 -0.002984 0.014134 0.000000 -0.013328 0.000000
# 4 0.000000 0.000000 0.000000 0.084785 0.000000 0.007826
# 5 0.001289 0.000958 -0.013328 0.000000 0.078305 0.000000
# 6 0.000000 0.000000 0.000000 0.007826 0.000000 0.046447
#
#
# Mechanical properties :
#
#
# Convention : Reuss Voigt Hill
#
# Bulk Modulus (GPa) = 35.67534 48.69141 42.18338
# Shear Modulus (GPa) = 16.82168 20.85284 18.83726
#
# Velocity S-wave (km/s) = 3.23035 3.59664 3.41841
# Velocity P-wave (km/s) = 6.00370 6.88861 6.46132
#
# Compressibility (1/GPa) = 0.02803057
#
# Stress axis : x y z
#
# Youngs Moduli (GPa) = 72.73756 39.50886 70.75240
#
# Poissons Ratio (x) = 0.15738 0.39721
# Poissons Ratio (y) = 0.28974 0.21110
# Poissons Ratio (z) = 0.40836 0.11788
#
# Static dielectric constant tensor:
#      x y z
#    x 3.211880 0.000000 0.025900 
#    y 0.000000 3.004750 0.000000 
#    z 0.025900 0.000000 3.569040 
# 
# 
# High freq. dielectric constant tensor:
#      x y z
#    x 1.600790 0.000000 0.004360 
#    y 0.000000 1.625820 0.000000 
#    z 0.004360 0.000000 1.615050 
# 
# From -- ./inp_files/51335.got.cif
#   From: 2010.06.25/outbox.cif.g09.slc.cpg/sg11_26_cif.got.tgz:51335.got - 2010.06.27 23:14:04.
