data_PCOD8070114
_publ_section_title
;
Structure prediction by ZEFSAII (Michael W. Deem and Ramdas Pophale) SiO2 
 PCOD8070114
Probable space group: P 21/M
;
_chemical_formula_sum "Si O2"
_cell_formula_units_Z 24
_cell_length_a 26.345399
_cell_length_b 8.769295
_cell_length_c 11.397985
_cell_angle_alpha 90.000000
_cell_angle_beta 30.263186
_cell_angle_gamma 90.000000
_cell_volume 1327.102936
_symmetry_space_group_name_H-M "P 21/M"
_symmetry_group_IT_number 11
_symmetry_cell_setting 'monoclinic'
loop_
_space_group_symop_operation_xyz
x,y,z
-x,1/2+y,-z
-x,-y,-z
x,1/2-y,z
loop_
_atom_site_type_symbol
_atom_site_label
_atom_site_fract_x
_atom_site_fract_y
_atom_site_fract_z
Si Si1 0.130673 0.072390 0.849321
Si Si2 0.248345 0.927961 0.807338
Si Si3 0.094726 0.416161 0.264762
Si Si4 0.231366 0.084056 0.211616
Si Si5 0.390249 0.431293 0.714223
Si Si6 0.902487 0.427623 0.330403
O O1 0.152757 0.250000 0.814758
O O2 0.225979 0.987577 0.720275
O O3 0.132439 0.024367 0.710825
O O4 0.019601 0.032933 0.126578
O O5 0.272041 0.750000 0.759121
O O6 0.337833 0.011167 0.698581
O O7 0.142496 0.966896 0.078549
O O8 0.070001 0.250000 0.254860
O O9 0.166483 0.382491 0.227999
O O10 0.000000 0.500000 0.500000
O O11 0.249449 0.250000 0.237574
O O12 0.173758 0.967739 0.411668
O O13 0.334447 0.016534 0.947614
O O14 0.500000 0.500000 0.500000
O O15 0.394032 0.250000 0.700528
O O16 0.891669 0.250000 0.322405
#
# Coordination Sequence:
#
# PCOD8070114 Si02
#       6
#     4   4   4   4   4   4
#     4  10  20  34  51  73 106 144 179 215 253 298
#     4  11  21  33  51  75 103 135 172 213 258 309
#     4  10  19  30  45  69 101 135 170 208 253 305
#     4   9  19  33  49  71 101 134 167 207 254 306
#     4  10  21  38  58  80 104 132 170 215 267 319
#     4  10  20  32  50  76 105 140 180 215 250 299
#
# _framework density 18.084506000000001
#
# number of rings (size 3 to 8) (size 9 to 14) (size 15 to 20)
#    0.000    2.000    0.000    5.500    0.000    8.667 
#    0.000    0.000    0.000    1.000    0.000    0.000 
#    0.000    0.000    0.000    0.000    0.000    0.000 
#
# Total GULP energy -297351.785181 kJ/mol
# GULP energy per Si atom -12389.657716 kJ/mol
# Density = 1.804334 g / cm^3
# Si number density = 18.084506 Si / 1000 Ang^3
#
#
#
# Elastic Constant Matrix: (Units=GPa)
#
#
# Indices 1 2 3 4 5 6 
#
# 1 71.4491 33.4763 15.6181 0.0000 -3.1766 0.0000
# 2 33.4763 98.5540 29.8888 0.0000 -2.7830 0.0000
# 3 15.6181 29.8888 67.9524 0.0000 -0.7518 0.0000
# 4 0.0000 0.0000 0.0000 22.6331 0.0000 0.7389
# 5 -3.1766 -2.7830 -0.7518 0.0000 20.9978 0.0000
# 6 0.0000 0.0000 0.0000 0.7389 0.0000 31.8046
#
#
#
# Elastic Compliance Matrix: (Units=1/GPa)
#
#
# Indices 1 2 3 4 5 6 
#
# 1 0.016855 -0.005199 -0.001567 0.000000 0.001805 0.000000
# 2 -0.005199 0.013352 -0.004669 0.000000 0.000816 0.000000
# 3 -0.001567 -0.004669 0.017127 0.000000 -0.000243 0.000000
# 4 0.000000 0.000000 0.000000 0.044217 0.000000 -0.001027
# 5 0.001805 0.000816 -0.000243 0.000000 0.047996 0.000000
# 6 0.000000 0.000000 0.000000 -0.001027 0.000000 0.031466
#
#
# Mechanical properties :
#
#
# Convention : Reuss Voigt Hill
#
# Bulk Modulus (GPa) = 40.87655 43.99131 42.43393
# Shear Modulus (GPa) = 24.74799 25.68526 25.21662
#
# Velocity S-wave (km/s) = 3.70329 3.77276 3.73819
# Velocity P-wave (km/s) = 6.39828 6.58457 6.49209
#
# Compressibility (1/GPa) = 0.02446390
#
# Stress axis : x y z
#
# Youngs Moduli (GPa) = 59.33091 74.89742 58.38645
#
# Poissons Ratio (x) = 0.38938 0.09150
# Poissons Ratio (y) = 0.30845 0.27259
# Poissons Ratio (z) = 0.09298 0.34968
#
# Static dielectric constant tensor:
#      x y z
#    x 3.272430 0.000000 0.098430 
#    y 0.000000 3.433140 0.000000 
#    z 0.098430 0.000000 3.138430 
# 
# 
# High freq. dielectric constant tensor:
#      x y z
#    x 1.693140 0.000000 0.005110 
#    y 0.000000 1.714240 0.000000 
#    z 0.005110 0.000000 1.675410 
# 
# From -- ./inp_files/40804.got.cif
#   From: 2010.06.25/outbox.cif.g09.slc.cpg/sg11_21_cif.got.tgz:40804.got - 2010.06.27 23:14:04.
