data_PCOD8070156
_publ_section_title
;
Structure prediction by ZEFSAII (Michael W. Deem and Ramdas Pophale) SiO2 
 PCOD8070156
Probable space group: P 21/M
;
_chemical_formula_sum "Si O2"
_cell_formula_units_Z 32
_cell_length_a 21.876646
_cell_length_b 9.217983
_cell_length_c 28.213770
_cell_angle_alpha 90.000000
_cell_angle_beta 161.140541
_cell_angle_gamma 90.000000
_cell_volume 1839.134502
_symmetry_space_group_name_H-M "P 21/M"
_symmetry_group_IT_number 11
_symmetry_cell_setting 'monoclinic'
loop_
_space_group_symop_operation_xyz
x,y,z
-x,1/2+y,-z
-x,-y,-z
x,1/2-y,z
loop_
_atom_site_type_symbol
_atom_site_label
_atom_site_fract_x
_atom_site_fract_y
_atom_site_fract_z
Si Si1 0.146528 0.419638 0.075039
Si Si2 0.291177 0.085520 0.572527
Si Si3 0.700194 0.415913 0.279711
Si Si4 0.579577 0.420412 0.868022
Si Si5 0.564477 0.420710 0.407259
Si Si6 0.070462 0.419528 0.911691
Si Si7 0.647202 0.420904 0.574190
Si Si8 0.019776 0.085071 0.451406
O O1 0.122644 0.250000 0.066120
O O2 0.353703 0.474075 0.241235
O O3 0.107174 0.463833 0.992514
O O4 0.000000 0.500000 0.000000
O O5 0.329988 0.250000 0.585581
O O6 0.450026 0.037517 0.727654
O O7 0.081191 0.067025 0.441425
O O8 0.295533 0.989008 0.528704
O O9 0.642392 0.250000 0.247257
O O10 0.517449 0.515848 0.155279
O O11 0.868978 0.462249 0.438388
O O12 0.793186 0.433792 0.294905
O O13 0.602257 0.250000 0.890694
O O14 0.785736 0.491067 0.015326
O O15 0.585200 0.250000 0.417745
O O16 0.617164 0.473926 0.498372
O O17 0.105277 0.250000 0.928270
O O18 0.858184 0.465683 0.743398
O O19 0.500000 0.500000 0.500000
O O20 0.612999 0.250000 0.554232
O O21 0.080980 0.250000 0.512129
#
# Coordination Sequence:
#
# PCOD8070156 Si02
#       8
#     4   4   4   4   4   4   4   4
#     4  10  20  32  49  71  95 121 156 195 237 292
#     4   9  17  29  46  70  99 130 164 202 241 286
#     4   9  15  24  41  64  96 135 166 199 244 292
#     4  10  19  30  46  71 101 130 165 208 247 290
#     4  10  20  34  50  72  99 127 160 201 245 290
#     4  10  20  35  52  72  97 129 165 200 244 298
#     4  10  22  38  55  74  99 128 162 205 248 296
#     4   8  15  26  39  63  98 132 168 203 240 287
#
# _framework density 17.399488000000002
#
# number of rings (size 3 to 8) (size 9 to 14) (size 15 to 20)
#    0.000    2.500    1.250    2.250    0.000    4.500 
#    0.000    0.000    0.000    0.000    0.000    0.875 
#    0.000    0.000    0.000    0.000    0.000    0.000 
#
# Total GULP energy -396646.572197 kJ/mol
# GULP energy per Si atom -12395.205381 kJ/mol
# Density = 1.735989 g / cm^3
# Si number density = 17.399488 Si / 1000 Ang^3
#
#
#
# Elastic Constant Matrix: (Units=GPa)
#
#
# Indices 1 2 3 4 5 6 
#
# 1 131.9790 53.8378 66.6938 0.0000 30.5419 0.0000
# 2 53.8378 58.4420 38.1345 0.0000 16.9695 0.0000
# 3 66.6938 38.1345 98.7268 0.0000 13.3306 0.0000
# 4 0.0000 0.0000 0.0000 15.1850 0.0000 11.1149
# 5 30.5419 16.9695 13.3306 0.0000 33.4805 0.0000
# 6 0.0000 0.0000 0.0000 11.1149 0.0000 31.2566
#
#
#
# Elastic Compliance Matrix: (Units=1/GPa)
#
#
# Indices 1 2 3 4 5 6 
#
# 1 0.016112 -0.008216 -0.006646 0.000000 -0.007888 0.000000
# 2 -0.008216 0.029634 -0.005157 0.000000 -0.005471 0.000000
# 3 -0.006646 -0.005157 0.016316 0.000000 0.002180 0.000000
# 4 0.000000 0.000000 0.000000 0.089027 0.000000 -0.031658
# 5 -0.007888 -0.005471 0.002180 0.000000 0.038969 0.000000
# 6 0.000000 0.000000 0.000000 -0.031658 0.000000 0.043251
#
#
# Mechanical properties :
#
#
# Convention : Reuss Voigt Hill
#
# Bulk Modulus (GPa) = 45.40570 67.38667 56.39618
# Shear Modulus (GPa) = 17.81336 24.68321 21.24829
#
# Velocity S-wave (km/s) = 3.20314 3.77054 3.49836
# Velocity P-wave (km/s) = 6.31132 7.60060 6.98577
#
# Compressibility (1/GPa) = 0.02202367
#
# Stress axis : x y z
#
# Youngs Moduli (GPa) = 62.06475 33.74529 61.28866
#
# Poissons Ratio (x) = 0.27725 0.40732
# Poissons Ratio (y) = 0.50993 0.31609
# Poissons Ratio (z) = 0.41247 0.17404
#
# Static dielectric constant tensor:
#      x y z
#    x 3.391940 0.000000 0.297360 
#    y 0.000000 3.787050 0.000000 
#    z 0.297360 0.000000 3.060440 
# 
# 
# High freq. dielectric constant tensor:
#      x y z
#    x 1.677030 0.000000 0.033730 
#    y 0.000000 1.674530 0.000000 
#    z 0.033730 0.000000 1.635340 
# 
# From -- ./inp_files/72168.got.cif
#   From: 2010.06.25/outbox.cif.g09.slc.cpg/sg11_37_cif.got.tgz:72168.got - 2010.06.27 23:14:04.
