data_PCOD8070622
_publ_section_title
;
Structure prediction by ZEFSAII (Michael W. Deem and Ramdas Pophale) SiO2 
 PCOD8070622
Probable space group: P 21/M
;
_chemical_formula_sum "Si O2"
_cell_formula_units_Z 32
_cell_length_a 19.040151
_cell_length_b 9.322912
_cell_length_c 27.094708
_cell_angle_alpha 90.000000
_cell_angle_beta 24.092076
_cell_angle_gamma 90.000000
_cell_volume 1963.287626
_symmetry_space_group_name_H-M "P 21/M"
_symmetry_group_IT_number 11
_symmetry_cell_setting 'monoclinic'
loop_
_space_group_symop_operation_xyz
x,y,z
-x,1/2+y,-z
-x,-y,-z
x,1/2-y,z
loop_
_atom_site_type_symbol
_atom_site_label
_atom_site_fract_x
_atom_site_fract_y
_atom_site_fract_z
Si Si1 0.168865 0.416309 0.237551
Si Si2 0.561498 0.916691 0.852575
Si Si3 0.828155 0.584832 0.599500
Si Si4 0.837749 0.914983 0.481913
Si Si5 0.222505 0.419989 0.091266
Si Si6 0.600005 0.915689 0.394029
Si Si7 0.622851 0.915769 0.528143
Si Si8 0.903360 0.587617 0.264917
O O1 0.120241 0.250000 0.269096
O O2 0.338252 0.447220 0.160904
O O3 0.204368 0.470919 0.159531
O O4 0.010390 0.497153 0.363386
O O5 0.510675 0.750000 0.880710
O O6 0.676529 0.967627 0.732548
O O7 0.392645 0.012723 0.959017
O O8 0.869997 0.750000 0.583688
O O9 0.767671 0.560260 0.582041
O O10 0.000000 0.500000 0.500000
O O11 0.885479 0.750000 0.441276
O O12 0.687025 0.962648 0.541173
O O13 0.232052 0.250000 0.080254
O O14 0.060615 0.477513 0.164124
O O15 0.542821 0.750000 0.430728
O O16 0.802739 0.929128 0.277067
O O17 0.500000 0.000000 0.500000
O O18 0.546013 0.988852 0.376716
O O19 0.567907 0.750000 0.561048
O O20 0.776757 0.948758 0.391409
O O21 0.972764 0.750000 0.226103
#
# Coordination Sequence:
#
# PCOD8070622 Si02
#       8
#     4   4   4   4   4   4   4   4
#     4  10  20  33  48  70  97 127 164 203 242 285
#     4  10  21  36  50  66  95 131 165 202 246 289
#     4  10  20  34  53  73  94 125 164 205 247 289
#     4  10  19  31  50  74  98 128 163 199 242 290
#     4  11  22  32  47  72  97 126 167 204 238 285
#     4   9  17  28  44  67  96 129 161 191 232 286
#     4   9  17  29  45  69  99 128 159 193 236 288
#     4   9  17  30  46  66  95 130 159 187 236 290
#
# _framework density 16.299191
#
# number of rings (size 3 to 8) (size 9 to 14) (size 15 to 20)
#    0.000    2.250    2.500    1.875    0.000    4.500 
#    0.000    0.000    0.000    0.000    0.000    0.875 
#    0.000    0.000    0.000    0.000    0.000    0.000 
#
# Total GULP energy -396775.156922 kJ/mol
# GULP energy per Si atom -12399.223654 kJ/mol
# Density = 1.626209 g / cm^3
# Si number density = 16.299191 Si / 1000 Ang^3
#
#
#
# Elastic Constant Matrix: (Units=GPa)
#
#
# Indices 1 2 3 4 5 6 
#
# 1 92.0535 38.5173 42.7288 0.0000 -16.6810 0.0000
# 2 38.5173 68.8768 43.3750 0.0000 -11.7717 0.0000
# 3 42.7288 43.3750 83.7884 0.0000 -5.0658 0.0000
# 4 0.0000 0.0000 0.0000 27.2144 0.0000 -7.4976
# 5 -16.6810 -11.7717 -5.0658 0.0000 21.4749 0.0000
# 6 0.0000 0.0000 0.0000 -7.4976 0.0000 23.4527
#
#
#
# Elastic Compliance Matrix: (Units=1/GPa)
#
#
# Indices 1 2 3 4 5 6 
#
# 1 0.017131 -0.004157 -0.006003 0.000000 0.009612 0.000000
# 2 -0.004157 0.024556 -0.010118 0.000000 0.007845 0.000000
# 3 -0.006003 -0.010118 0.019900 0.000000 -0.005515 0.000000
# 4 0.000000 0.000000 0.000000 0.040294 0.000000 0.012882
# 5 0.009612 0.007845 -0.005515 0.000000 0.057032 0.000000
# 6 0.000000 0.000000 0.000000 0.012882 0.000000 0.046757
#
#
# Mechanical properties :
#
#
# Convention : Reuss Voigt Hill
#
# Bulk Modulus (GPa) = 47.54706 54.88455 51.21581
# Shear Modulus (GPa) = 19.74448 22.43489 21.08968
#
# Velocity S-wave (km/s) = 3.48426 3.71407 3.60100
# Velocity P-wave (km/s) = 6.73955 7.22071 6.98428
#
# Compressibility (1/GPa) = 0.02103179
#
# Stress axis : x y z
#
# Youngs Moduli (GPa) = 58.37450 40.72404 50.25022
#
# Poissons Ratio (x) = 0.16928 0.30166
# Poissons Ratio (y) = 0.24264 0.50842
# Poissons Ratio (z) = 0.35043 0.41203
#
# Static dielectric constant tensor:
#      x y z
#    x 3.517160 0.000000 -0.132450 
#    y 0.000000 -2.915440 0.000000 
#    z -0.132450 0.000000 2.834980 
# 
# 
# High freq. dielectric constant tensor:
#      x y z
#    x 1.630430 0.000000 -0.015300 
#    y 0.000000 1.632370 0.000000 
#    z -0.015300 0.000000 1.591130 
# 
# From -- ./inp_files/42828.got.cif
#   From: 2010.06.25/outbox.cif.g09.slc.cpg/sg11_22_cif.got.tgz:42828.got - 2010.06.27 23:14:04.
