data_PCOD8070852
_publ_section_title
;
Structure prediction by ZEFSAII (Michael W. Deem and Ramdas Pophale) SiO2 
 PCOD8070852
Probable space group: P 21/M
;
_chemical_formula_sum "Si O2"
_cell_formula_units_Z 28
_cell_length_a 9.378599
_cell_length_b 9.209808
_cell_length_c 26.058610
_cell_angle_alpha 90.000000
_cell_angle_beta 138.155025
_cell_angle_gamma 90.000000
_cell_volume 1501.557892
_symmetry_space_group_name_H-M "P 21/M"
_symmetry_group_IT_number 11
_symmetry_cell_setting 'monoclinic'
loop_
_space_group_symop_operation_xyz
x,y,z
-x,1/2+y,-z
-x,-y,-z
x,1/2-y,z
loop_
_atom_site_type_symbol
_atom_site_label
_atom_site_fract_x
_atom_site_fract_y
_atom_site_fract_z
Si Si1 0.620625 0.416816 0.987937
Si Si2 0.177939 0.578450 0.709898
Si Si3 0.786574 0.584281 0.179085
Si Si4 0.677747 0.412011 0.405640
Si Si5 0.889811 0.589735 0.542704
Si Si6 0.984555 0.916799 0.123566
Si Si7 0.476530 0.919855 0.263641
O O1 0.649640 0.250000 0.011201
O O2 0.855209 0.489776 0.046009
O O3 0.500000 0.500000 0.000000
O O4 0.471495 0.431117 0.897444
O O5 0.224916 0.750000 0.721177
O O6 0.135155 0.523687 0.755700
O O7 0.381557 0.495382 0.741608
O O8 0.964944 0.541472 0.619704
O O9 0.842762 0.750000 0.209183
O O10 0.913447 0.538095 0.161887
O O11 0.583606 0.250000 0.387051
O O12 0.715286 0.479933 0.472359
O O13 0.512913 0.510181 0.329437
O O14 0.900179 0.406845 0.435805
O O15 0.786344 0.750000 0.516328
O O16 0.924598 0.750000 0.098250
O O17 0.233263 0.946321 0.182208
O O18 0.533825 0.750000 0.282199
#
# Coordination Sequence:
#
# PCOD8070852 Si02
#       7
#     4   4   4   4   4   4   4
#     4   9  17  30  50  73  96 124 160 200 238 280
#     4  10  20  32  48  73 100 126 160 199 238 284
#     4   9  18  33  51  72  97 124 157 196 239 286
#     4   9  16  26  43  68  94 121 158 198 234 279
#     4   8  15  27  42  63  92 123 156 194 235 278
#     4   9  19  34  52  74  97 125 163 200 237 285
#     4  10  19  32  50  71  99 131 158 194 244 287
#
# _framework density 18.647299
#
# number of rings (size 3 to 8) (size 9 to 14) (size 15 to 20)
#    0.000    2.857    0.000    3.429    0.000    8.000 
#    0.000    0.714    0.000    0.857    0.000    0.000 
#    0.000    0.000    0.000    0.000    0.000    0.000 
#
# Total GULP energy -347063.123586 kJ/mol
# GULP energy per Si atom -12395.111557 kJ/mol
# Density = 1.860486 g / cm^3
# Si number density = 18.647299 Si / 1000 Ang^3
#
#
#
# Elastic Constant Matrix: (Units=GPa)
#
#
# Indices 1 2 3 4 5 6 
#
# 1 19.3298 5.8004 -5.0462 0.0000 -5.4087 0.0000
# 2 5.8004 87.0710 12.9114 0.0000 -6.6388 0.0000
# 3 -5.0462 12.9114 21.0894 0.0000 -13.0428 0.0000
# 4 0.0000 0.0000 0.0000 38.7194 0.0000 -4.4258
# 5 -5.4087 -6.6388 -13.0428 0.0000 22.1700 0.0000
# 6 0.0000 0.0000 0.0000 -4.4258 0.0000 21.1370
#
#
#
# Elastic Compliance Matrix: (Units=1/GPa)
#
#
# Indices 1 2 3 4 5 6 
#
# 1 0.084944 -0.010429 0.059097 0.000000 0.052368 0.000000
# 2 -0.010429 0.013933 -0.015749 0.000000 -0.007637 0.000000
# 3 0.059097 -0.015749 0.121353 0.000000 0.081095 0.000000
# 4 0.000000 0.000000 0.000000 0.026460 0.000000 0.005540
# 5 0.052368 -0.007637 0.081095 0.000000 0.103304 0.000000
# 6 0.000000 0.000000 0.000000 0.005540 0.000000 0.048471
#
#
# Mechanical properties :
#
#
# Convention : Reuss Voigt Hill
#
# Bulk Modulus (GPa) = 3.49567 17.20238 10.34902
# Shear Modulus (GPa) = 11.68275 23.99358 17.83816
#
# Velocity S-wave (km/s) = 2.50574 3.59096 3.09626
# Velocity P-wave (km/s) = 3.20161 5.14184 4.28304
#
# Compressibility (1/GPa) = 0.28606825
#
# Stress axis : x y z
#
# Youngs Moduli (GPa) = 11.77245 71.77390 8.24043
#
# Poissons Ratio (x) = 0.74855 -0.48699
# Poissons Ratio (y) = 0.12278 0.12978
# Poissons Ratio (z) = -0.69572 1.13035
#
# Static dielectric constant tensor:
#      x y z
#    x 2.920140 0.000000 -0.047270 
#    y 0.000000 3.649280 0.000000 
#    z -0.047270 0.000000 3.860210 
# 
# 
# High freq. dielectric constant tensor:
#      x y z
#    x 1.667760 0.000000 -0.008290 
#    y 0.000000 1.735120 0.000000 
#    z -0.008290 0.000000 1.730230 
# 
# From -- ./inp_files/61233.got.cif
#   From: 2010.06.25/outbox.cif.g09.slc.cpg/sg11_31_cif.got.tgz:61233.got - 2010.06.27 23:14:04.
