data_PCOD8070334
_publ_section_title
;
Structure prediction by ZEFSAII (Michael W. Deem and Ramdas Pophale) SiO2 
 PCOD8070334
Probable space group: P 21/M
;
_chemical_formula_sum "Si O2"
_cell_formula_units_Z 28
_cell_length_a 19.559171
_cell_length_b 9.088939
_cell_length_c 11.692051
_cell_angle_alpha 90.000000
_cell_angle_beta 126.636913
_cell_angle_gamma 90.000000
_cell_volume 1667.873914
_symmetry_space_group_name_H-M "P 21/M"
_symmetry_group_IT_number 11
_symmetry_cell_setting 'monoclinic'
loop_
_space_group_symop_operation_xyz
x,y,z
-x,1/2+y,-z
-x,-y,-z
x,1/2-y,z
loop_
_atom_site_type_symbol
_atom_site_label
_atom_site_fract_x
_atom_site_fract_y
_atom_site_fract_z
Si Si1 0.591818 0.424890 0.599059
Si Si2 0.657575 0.424148 0.423050
Si Si3 0.001054 0.580670 0.383479
Si Si4 0.660064 0.578527 0.885970
Si Si5 0.185205 0.576417 0.563749
Si Si6 0.816483 0.577744 0.193613
Si Si7 0.499250 0.578800 0.879794
O O1 0.500000 0.500000 0.500000
O O2 0.578374 0.250000 0.591357
O O3 0.647279 0.473041 0.544110
O O4 0.645540 0.480566 0.760104
O O5 0.656979 0.250000 0.415655
O O6 0.745014 0.486758 0.455489
O O7 0.577797 0.486913 0.272137
O O8 0.002750 0.750000 0.416192
O O9 0.910731 0.543484 0.231636
O O10 0.000000 0.500000 0.500000
O O11 0.091496 0.539574 0.413590
O O12 0.661319 0.750000 0.852216
O O13 0.586645 0.545245 0.903113
O O14 0.748299 0.526060 0.031601
O O15 0.197437 0.750000 0.593140
O O16 0.197383 0.504356 0.700213
O O17 0.804342 0.750000 0.206979
O O18 0.486294 0.750000 0.889172
O O19 0.500000 0.500000 0.000000
#
# Coordination Sequence:
#
# PCOD8070334 Si02
#       7
#     4   4   4   4   4   4   4
#     4  11  21  36  54  69  89 121 163 202 237 277
#     4   9  18  32  48  66  92 121 151 194 235 270
#     4   8  14  25  43  68  94 124 155 184 225 277
#     4  10  20  34  49  67  95 127 157 195 235 274
#     4   9  16  28  48  71  96 124 156 190 229 281
#     4   9  17  29  46  70 101 127 151 189 235 277
#     4  10  19  31  45  65  94 121 148 184 230 278
#
# _framework density 16.787839999999999
#
# number of rings (size 3 to 8) (size 9 to 14) (size 15 to 20)
#    0.000    2.571    1.429    1.286    0.000    1.143 
#    0.000    1.429    0.000    0.857    0.000    0.000 
#    0.000    0.000    0.000    0.000    0.000    0.143 
#
# Total GULP energy -346925.517301 kJ/mol
# GULP energy per Si atom -12390.197046 kJ/mol
# Density = 1.674963 g / cm^3
# Si number density = 16.787840 Si / 1000 Ang^3
#
#
#
# Elastic Constant Matrix: (Units=GPa)
#
#
# Indices 1 2 3 4 5 6 
#
# 1 117.0801 39.2312 93.6568 0.0000 19.2853 0.0000
# 2 39.2312 35.7690 39.9809 0.0000 -0.9743 0.0000
# 3 93.6568 39.9809 134.1524 0.0000 10.9230 0.0000
# 4 0.0000 0.0000 0.0000 24.5054 0.0000 -4.8008
# 5 19.2853 -0.9743 10.9230 0.0000 35.7355 0.0000
# 6 0.0000 0.0000 0.0000 -4.8008 0.0000 16.6390
#
#
#
# Elastic Compliance Matrix: (Units=1/GPa)
#
#
# Indices 1 2 3 4 5 6 
#
# 1 0.024482 -0.013357 -0.012312 0.000000 -0.009813 0.000000
# 2 -0.013357 0.050132 -0.006475 0.000000 0.010554 0.000000
# 3 -0.012312 -0.006475 0.017898 0.000000 0.000997 0.000000
# 4 0.000000 0.000000 0.000000 0.043252 0.000000 0.012479
# 5 -0.009813 0.010554 0.000997 0.000000 0.033262 0.000000
# 6 0.000000 0.000000 0.000000 0.012479 0.000000 0.063700
#
#
# Mechanical properties :
#
#
# Convention : Reuss Voigt Hill
#
# Bulk Modulus (GPa) = 35.43078 70.30437 52.86758
# Shear Modulus (GPa) = 16.31727 22.98483 19.65105
#
# Velocity S-wave (km/s) = 3.12102 3.70420 3.42505
# Velocity P-wave (km/s) = 5.84282 7.76298 6.87031
#
# Compressibility (1/GPa) = 0.02822405
#
# Stress axis : x y z
#
# Youngs Moduli (GPa) = 40.84578 19.94732 55.87146
#
# Poissons Ratio (x) = 0.26644 0.68790
# Poissons Ratio (y) = 0.54559 0.36175
# Poissons Ratio (z) = 0.50290 0.12915
#
# Static dielectric constant tensor:
#      x y z
#    x 3.439060 0.000000 0.322110 
#    y 0.000000 2.981960 0.000000 
#    z 0.322110 0.000000 3.259050 
# 
# 
# High freq. dielectric constant tensor:
#      x y z
#    x 1.649390 0.000000 0.022600 
#    y 0.000000 1.634380 0.000000 
#    z 0.022600 0.000000 1.637420 
# 
# From -- ./inp_files/42319.got.cif
#   From: 2010.06.25/outbox.cif.g09.slc.cpg/sg11_22_cif.got.tgz:42319.got - 2010.06.27 23:14:04.
