data_PCOD8070934
_publ_section_title
;
Structure prediction by ZEFSAII (Michael W. Deem and Ramdas Pophale) SiO2 
 PCOD8070934
Probable space group: P 21/M
;
_chemical_formula_sum "Si O2"
_cell_formula_units_Z 32
_cell_length_a 13.704767
_cell_length_b 18.288217
_cell_length_c 10.415645
_cell_angle_alpha 90.000000
_cell_angle_beta 40.535377
_cell_angle_gamma 90.000000
_cell_volume 1696.630924
_symmetry_space_group_name_H-M "P 21/M"
_symmetry_group_IT_number 11
_symmetry_cell_setting 'monoclinic'
loop_
_space_group_symop_operation_xyz
x,y,z
-x,1/2+y,-z
-x,-y,-z
x,1/2-y,z
loop_
_atom_site_type_symbol
_atom_site_label
_atom_site_fract_x
_atom_site_fract_y
_atom_site_fract_z
Si Si1 0.424569 0.166117 0.585639
Si Si2 0.427801 0.595769 0.324396
Si Si3 0.075435 0.166117 0.934775
Si Si4 0.926286 0.921400 0.574866
Si Si5 0.574192 0.930363 0.646921
Si Si6 0.925808 0.930363 0.295305
Si Si7 0.927802 0.404232 0.320001
Si Si8 0.426285 0.421400 0.072562
O O1 0.447956 0.250000 0.523403
O O2 0.516711 0.150048 0.621678
O O3 0.250002 0.148584 0.784727
O O4 0.494531 0.117271 0.400212
O O5 0.488705 0.513510 0.292831
O O6 0.249999 0.598301 0.491274
O O7 0.496610 0.624344 0.119561
O O8 0.052049 0.250000 0.919311
O O9 0.005471 0.117272 0.889275
O O10 0.983292 0.150048 0.155100
O O11 0.958433 0.889698 0.399374
O O12 0.750000 0.927305 0.777711
O O13 0.003391 0.875656 0.612779
O O14 0.000000 0.000000 0.500000
O O15 0.750000 0.935242 0.449156
O O16 0.541567 0.889698 0.816241
O O17 0.988705 0.013510 0.229758
O O18 0.500000 0.500000 0.000000
#
# Coordination Sequence:
#
# PCOD8070934 Si02
#       8
#     4   4   4   4   4   4   4   4
#     4  10  20  34  51  71  97 129 165 206 250 295
#     4  10  19  32  51  74 101 132 165 203 247 297
#     4  10  20  34  51  71  97 129 165 206 250 295
#     4   9  16  29  50  76 103 128 161 206 251 295
#     4   8  16  31  51  75  99 126 163 204 246 293
#     4   8  16  31  51  75  99 126 163 204 246 293
#     4  10  19  32  51  74 101 132 165 203 247 297
#     4   9  16  29  50  76 103 128 161 206 251 295
#
# _framework density 18.860907999999998
#
# number of rings (size 3 to 8) (size 9 to 14) (size 15 to 20)
#    0.000    2.750    0.000    3.750    0.000    0.500 
#    0.000    7.500    0.000    4.500    0.000    0.000 
#    0.000    0.000    0.000    0.000    0.000    0.000 
#
# Total GULP energy -396552.118954 kJ/mol
# GULP energy per Si atom -12392.253717 kJ/mol
# Density = 1.881798 g / cm^3
# Si number density = 18.860908 Si / 1000 Ang^3
#
#
#
# Elastic Constant Matrix: (Units=GPa)
#
#
# Indices 1 2 3 4 5 6 
#
# 1 96.6732 18.8967 41.2188 0.0000 14.4734 0.0000
# 2 18.8967 40.1575 19.0247 0.0000 2.8704 0.0000
# 3 41.2188 19.0247 97.9783 0.0000 14.5493 0.0000
# 4 0.0000 0.0000 0.0000 15.0273 0.0000 -3.2197
# 5 14.4734 2.8704 14.5493 0.0000 29.7508 0.0000
# 6 0.0000 0.0000 0.0000 -3.2197 0.0000 15.1729
#
#
#
# Elastic Compliance Matrix: (Units=1/GPa)
#
#
# Indices 1 2 3 4 5 6 
#
# 1 0.013595 -0.004056 -0.004321 0.000000 -0.004109 0.000000
# 2 -0.004056 0.028635 -0.004029 0.000000 0.001181 0.000000
# 3 -0.004321 -0.004029 0.013411 0.000000 -0.004067 0.000000
# 4 0.000000 0.000000 0.000000 0.069715 0.000000 0.014793
# 5 -0.004109 0.001181 -0.004067 0.000000 0.037487 0.000000
# 6 0.000000 0.000000 0.000000 0.014793 0.000000 0.069046
#
#
# Mechanical properties :
#
#
# Convention : Reuss Voigt Hill
#
# Bulk Modulus (GPa) = 32.43915 43.67660 38.05788
# Shear Modulus (GPa) = 18.72818 22.36812 20.54815
#
# Velocity S-wave (km/s) = 3.15455 3.44750 3.30427
# Velocity P-wave (km/s) = 5.52311 6.24936 5.89742
#
# Compressibility (1/GPa) = 0.03082695
#
# Stress axis : x y z
#
# Youngs Moduli (GPa) = 73.55810 34.92230 74.56761
#
# Poissons Ratio (x) = 0.14165 0.32224
# Poissons Ratio (y) = 0.29836 0.30044
# Poissons Ratio (z) = 0.31788 0.14070
#
# Static dielectric constant tensor:
#      x y z
#    x 3.754250 0.000000 0.418380 
#    y 0.000000 3.197180 0.000000 
#    z 0.418380 0.000000 3.773020 
# 
# 
# High freq. dielectric constant tensor:
#      x y z
#    x 1.735680 0.000000 0.021070 
#    y 0.000000 1.688500 0.000000 
#    z 0.021070 0.000000 1.736630 
# 
# From -- ./inp_files/19360.got.cif
#   From: 2010.06.25/outbox.cif.g09.slc.cpg/sg11_10_cif.got.tgz:19360.got - 2010.06.27 23:14:04.
