data_PCOD8070317
_publ_section_title
;
Structure prediction by ZEFSAII (Michael W. Deem and Ramdas Pophale) SiO2 
 PCOD8070317
Probable space group: P 21/M
;
_chemical_formula_sum "Si O2"
_cell_formula_units_Z 32
_cell_length_a 12.124508
_cell_length_b 9.033792
_cell_length_c 28.626899
_cell_angle_alpha 90.000000
_cell_angle_beta 145.030296
_cell_angle_gamma 90.000000
_cell_volume 1797.097642
_symmetry_space_group_name_H-M "P 21/M"
_symmetry_group_IT_number 11
_symmetry_cell_setting 'monoclinic'
loop_
_space_group_symop_operation_xyz
x,y,z
-x,1/2+y,-z
-x,-y,-z
x,1/2-y,z
loop_
_atom_site_type_symbol
_atom_site_label
_atom_site_fract_x
_atom_site_fract_y
_atom_site_fract_z
Si Si1 0.580216 0.077404 0.219730
Si Si2 0.813506 0.421150 0.494984
Si Si3 0.816249 0.921343 0.956494
Si Si4 0.679119 0.574755 0.537548
Si Si5 0.734336 0.922673 0.129310
Si Si6 0.793865 0.080313 0.383581
Si Si7 0.340388 0.419854 0.000049
Si Si8 0.926831 0.075014 0.276392
O O1 0.570628 0.250000 0.204996
O O2 0.616755 0.046233 0.287320
O O3 0.757218 0.012428 0.250908
O O4 0.376014 0.007941 0.133732
O O5 0.805876 0.250000 0.507156
O O6 0.689860 0.516901 0.488178
O O7 0.722958 0.445891 0.411922
O O8 0.033831 0.472434 0.570459
O O9 0.833668 0.750000 0.949681
O O10 0.808972 0.946755 0.009803
O O11 0.000000 0.000000 0.000000
O O12 0.500000 0.500000 0.500000
O O13 0.652478 0.750000 0.527731
O O14 0.870529 0.525439 0.631531
O O15 0.746650 0.750000 0.143767
O O16 0.765070 0.959884 0.085138
O O17 0.902381 0.003159 0.216733
O O18 0.526171 0.979781 0.073301
O O19 0.865790 0.250000 0.401706
O O20 0.412536 0.250000 0.024420
O O21 0.918814 0.250000 0.268417
#
# Coordination Sequence:
#
# PCOD8070317 Si02
#       8
#     4   4   4   4   4   4   4   4
#     4   9  16  32  56  77 100 138 180 215 256 309
#     4  10  19  31  52  82 113 140 173 220 269 317
#     4  10  20  35  54  74 103 140 175 212 258 310
#     4  11  23  39  58  78 107 144 181 221 271 331
#     4  10  19  30  52  83 109 133 174 227 265 305
#     4   9  17  32  54  80 108 140 180 220 261 315
#     4   9  18  34  52  74 108 146 175 210 268 322
#     4  10  19  35  57  78 104 140 179 217 266 322
#
# _framework density 17.806488000000002
#
# number of rings (size 3 to 8) (size 9 to 14) (size 15 to 20)
#    0.000    2.250    2.500    1.125    0.000    2.500 
#    0.000    1.875    0.000    4.500    0.000    0.000 
#    0.000    0.000    0.000    0.000    0.000    0.000 
#
# Total GULP energy -396774.673583 kJ/mol
# GULP energy per Si atom -12399.208549 kJ/mol
# Density = 1.776596 g / cm^3
# Si number density = 17.806488 Si / 1000 Ang^3
#
#
#
# Elastic Constant Matrix: (Units=GPa)
#
#
# Indices 1 2 3 4 5 6 
#
# 1 128.0245 46.1237 76.2530 0.0000 -2.9053 0.0000
# 2 46.1237 55.3853 40.5722 0.0000 -0.7484 0.0000
# 3 76.2530 40.5722 125.5113 0.0000 -5.9180 0.0000
# 4 0.0000 0.0000 0.0000 27.5233 0.0000 -0.0480
# 5 -2.9053 -0.7484 -5.9180 0.0000 31.4787 0.0000
# 6 0.0000 0.0000 0.0000 -0.0480 0.0000 31.1461
#
#
#
# Elastic Compliance Matrix: (Units=1/GPa)
#
#
# Indices 1 2 3 4 5 6 
#
# 1 0.014127 -0.007176 -0.006265 0.000000 -0.000045 0.000000
# 2 -0.007176 0.027327 -0.004515 0.000000 -0.000861 0.000000
# 3 -0.006265 -0.004515 0.013319 0.000000 0.001818 0.000000
# 4 0.000000 0.000000 0.000000 0.036333 0.000000 0.000056
# 5 -0.000045 -0.000861 0.001818 0.000000 0.032085 0.000000
# 6 0.000000 0.000000 0.000000 0.000056 0.000000 0.032107
#
#
# Mechanical properties :
#
#
# Convention : Reuss Voigt Hill
#
# Bulk Modulus (GPa) = 53.01810 70.53543 61.77677
# Shear Modulus (GPa) = 25.31716 27.76109 26.53913
#
# Velocity S-wave (km/s) = 3.77476 3.95276 3.86478
# Velocity P-wave (km/s) = 6.98839 7.78014 7.39487
#
# Compressibility (1/GPa) = 0.01886148
#
# Stress axis : x y z
#
# Youngs Moduli (GPa) = 70.78779 36.59444 75.08174
#
# Poissons Ratio (x) = 0.26259 0.47039
# Poissons Ratio (y) = 0.50794 0.33897
# Poissons Ratio (z) = 0.44349 0.16521
#
# Static dielectric constant tensor:
#      x y z
#    x 3.344880 0.000000 -0.306800 
#    y 0.000000 3.213970 0.000000 
#    z -0.306800 0.000000 3.390820 
# 
# 
# High freq. dielectric constant tensor:
#      x y z
#    x 1.683290 0.000000 -0.026130 
#    y 0.000000 1.679520 0.000000 
#    z -0.026130 0.000000 1.680110 
# 
# From -- ./inp_files/69418.got.cif
#   From: 2010.06.25/outbox.cif.g09.slc.cpg/sg11_35_cif.got.tgz:69418.got - 2010.06.27 23:14:04.
