data_PCOD8070456
_publ_section_title
;
Structure prediction by ZEFSAII (Michael W. Deem and Ramdas Pophale) SiO2 
 PCOD8070456
Probable space group: P 21/M
;
_chemical_formula_sum "Si O2"
_cell_formula_units_Z 28
_cell_length_a 19.961850
_cell_length_b 9.130054
_cell_length_c 18.249900
_cell_angle_alpha 90.000000
_cell_angle_beta 28.348989
_cell_angle_gamma 90.000000
_cell_volume 1579.365717
_symmetry_space_group_name_H-M "P 21/M"
_symmetry_group_IT_number 11
_symmetry_cell_setting 'monoclinic'
loop_
_space_group_symop_operation_xyz
x,y,z
-x,1/2+y,-z
-x,-y,-z
x,1/2-y,z
loop_
_atom_site_type_symbol
_atom_site_label
_atom_site_fract_x
_atom_site_fract_y
_atom_site_fract_z
Si Si1 0.901088 0.919379 0.193548
Si Si2 0.491987 0.916321 0.583576
Si Si3 0.637314 0.423127 0.716830
Si Si4 0.583178 0.076871 0.984498
Si Si5 0.698901 0.920860 0.509862
Si Si6 0.187189 0.916112 0.855904
Si Si7 0.150378 0.580166 0.357567
O O1 0.889165 0.750000 0.186911
O O2 0.850982 0.947586 0.325035
O O3 0.797293 0.996288 0.235209
O O4 0.060275 0.978481 0.028703
O O5 0.540002 0.750000 0.522593
O O6 0.583559 0.978720 0.562314
O O7 0.329405 0.927401 0.766264
O O8 0.500000 0.000000 0.500000
O O9 0.610947 0.250000 0.742208
O O10 0.485374 0.503544 0.877016
O O11 0.694963 0.477065 0.583946
O O12 0.756763 0.467097 0.661277
O O13 0.553523 0.250000 0.012720
O O14 0.751622 0.047930 0.809241
O O15 0.500000 0.000000 0.000000
O O16 0.675665 0.750000 0.553180
O O17 0.155277 0.750000 0.863874
O O18 0.113230 0.750000 0.397805
O O19 0.000000 0.500000 0.500000
#
# Coordination Sequence:
#
# PCOD8070456 Si02
#       7
#     4   4   4   4   4   4   4
#     4   9  17  30  47  68  94 125 162 204 253 307
#     4  10  19  31  48  71  97 126 166 213 257 303
#     4  10  21  36  53  77 107 140 177 215 258 311
#     4   9  17  32  54  80 108 138 173 209 247 299
#     4  10  20  33  49  70 100 137 172 213 263 313
#     4   9  17  29  47  69  92 121 161 210 258 303
#     4   9  19  34  55  83 109 135 170 210 251 301
#
# _framework density 17.728635000000001
#
# number of rings (size 3 to 8) (size 9 to 14) (size 15 to 20)
#    0.000    2.571    1.429    1.714    0.000    4.571 
#    0.000    1.429    0.000    3.429    0.000    0.000 
#    0.000    0.000    0.000    0.000    0.000    0.000 
#
# Total GULP energy -346917.722277 kJ/mol
# GULP energy per Si atom -12389.918653 kJ/mol
# Density = 1.768828 g / cm^3
# Si number density = 17.728635 Si / 1000 Ang^3
#
#
#
# Elastic Constant Matrix: (Units=GPa)
#
#
# Indices 1 2 3 4 5 6 
#
# 1 69.9084 32.7475 49.2778 0.0000 3.3840 0.0000
# 2 32.7475 70.0902 49.8564 0.0000 3.1032 0.0000
# 3 49.2778 49.8564 123.3973 0.0000 2.2567 0.0000
# 4 0.0000 0.0000 0.0000 30.5746 0.0000 3.2911
# 5 3.3840 3.1032 2.2567 0.0000 27.5781 0.0000
# 6 0.0000 0.0000 0.0000 3.2911 0.0000 26.7306
#
#
#
# Elastic Compliance Matrix: (Units=1/GPa)
#
#
# Indices 1 2 3 4 5 6 
#
# 1 0.021369 -0.005427 -0.006314 0.000000 -0.001495 0.000000
# 2 -0.005427 0.021470 -0.006485 0.000000 -0.001219 0.000000
# 3 -0.006314 -0.006485 0.013238 0.000000 0.000421 0.000000
# 4 0.000000 0.000000 0.000000 0.033146 0.000000 -0.004081
# 5 -0.001495 -0.001219 0.000421 0.000000 0.036547 0.000000
# 6 0.000000 0.000000 0.000000 -0.004081 0.000000 0.037913
#
#
# Mechanical properties :
#
#
# Convention : Reuss Voigt Hill
#
# Bulk Modulus (GPa) = 50.95388 58.57328 54.76358
# Shear Modulus (GPa) = 24.19247 25.74426 24.96836
#
# Velocity S-wave (km/s) = 3.69805 3.81481 3.75689
# Velocity P-wave (km/s) = 6.85839 7.24667 7.05520
#
# Compressibility (1/GPa) = 0.01962559
#
# Stress axis : x y z
#
# Youngs Moduli (GPa) = 46.79568 46.57714 75.54201
#
# Poissons Ratio (x) = 0.25277 0.47695
# Poissons Ratio (y) = 0.25396 0.48989
# Poissons Ratio (z) = 0.29546 0.30205
#
# Static dielectric constant tensor:
#      x y z
#    x 2.864550 0.000000 -0.521040 
#    y 0.000000 3.326920 0.000000 
#    z -0.521040 0.000000 3.107200 
# 
# 
# High freq. dielectric constant tensor:
#      x y z
#    x 1.645660 0.000000 -0.007060 
#    y 0.000000 1.684570 0.000000 
#    z -0.007060 0.000000 1.706360 
# 
# From -- ./inp_files/61241.got.cif
#   From: 2010.06.25/outbox.cif.g09.slc.cpg/sg11_31_cif.got.tgz:61241.got - 2010.06.27 23:14:04.
