data_PCOD8070120
_publ_section_title
;
Structure prediction by ZEFSAII (Michael W. Deem and Ramdas Pophale) SiO2 
 PCOD8070120
Probable space group: P 21/M
;
_chemical_formula_sum "Si O2"
_cell_formula_units_Z 32
_cell_length_a 15.265641
_cell_length_b 8.976419
_cell_length_c 15.011939
_cell_angle_alpha 90.000000
_cell_angle_beta 101.872345
_cell_angle_gamma 90.000000
_cell_volume 2013.093245
_symmetry_space_group_name_H-M "P 21/M"
_symmetry_group_IT_number 11
_symmetry_cell_setting 'monoclinic'
loop_
_space_group_symop_operation_xyz
x,y,z
-x,1/2+y,-z
-x,-y,-z
x,1/2-y,z
loop_
_atom_site_type_symbol
_atom_site_label
_atom_site_fract_x
_atom_site_fract_y
_atom_site_fract_z
Si Si1 0.762941 0.076164 0.251612
Si Si2 0.871975 0.576998 0.411634
Si Si3 0.204399 0.073730 0.078686
Si Si4 0.588249 0.422823 0.118069
Si Si5 0.933099 0.576557 0.806011
Si Si6 0.952887 0.920701 0.610747
Si Si7 0.880259 0.926807 0.123834
Si Si8 0.608441 0.925375 0.937527
O O1 0.784757 0.250000 0.253307
O O2 0.657691 0.043905 0.212273
O O3 0.787123 0.011543 0.354053
O O4 0.823539 0.997439 0.190993
O O5 0.857238 0.750000 0.390024
O O6 0.880530 0.541214 0.518747
O O7 0.961586 0.526676 0.379338
O O8 0.202333 0.250000 0.079637
O O9 0.150005 0.014706 0.153009
O O10 0.307919 0.016475 0.104516
O O11 0.159218 0.016386 0.978234
O O12 0.589043 0.250000 0.092158
O O13 0.487286 0.472095 0.125663
O O14 0.619638 0.511351 0.038510
O O15 0.953223 0.750000 0.830148
O O16 0.907402 0.553082 0.696979
O O17 0.018338 0.480724 0.850434
O O18 0.985687 0.750000 0.606426
O O19 0.876394 0.750000 0.132454
O O20 0.615433 0.750000 0.949469
#
# Coordination Sequence:
#
# PCOD8070120 Si02
#       8
#     4   4   4   4   4   4   4   4
#     4  11  20  30  44  66  92 121 151 183 224 269
#     4  10  19  30  46  66  88 115 149 186 227 272
#     4   9  18  30  46  66  90 120 153 184 218 260
#     4   9  18  29  45  66  89 116 148 184 225 267
#     4  10  19  32  47  64  89 122 152 182 221 264
#     4   9  18  31  46  65  89 116 147 186 227 267
#     4  11  20  30  43  65  92 122 156 185 213 255
#     4   9  16  30  47  65  89 116 147 185 223 263
#
# _framework density 15.895935
#
# number of rings (size 3 to 8) (size 9 to 14) (size 15 to 20)
#    0.000    2.250    2.500    1.500    0.000    1.000 
#    0.000    1.250    0.000    0.000    0.000    0.875 
#    0.000    0.000    0.000    0.000    0.000    0.000 
#
# Total GULP energy -396668.452073 kJ/mol
# GULP energy per Si atom -12395.889127 kJ/mol
# Density = 1.585975 g / cm^3
# Si number density = 15.895935 Si / 1000 Ang^3
#
#
#
# Elastic Constant Matrix: (Units=GPa)
#
#
# Indices 1 2 3 4 5 6 
#
# 1 122.0249 31.7676 65.8184 0.0000 10.4904 0.0000
# 2 31.7676 49.1895 30.7706 0.0000 7.9303 0.0000
# 3 65.8184 30.7706 102.2021 0.0000 11.5847 0.0000
# 4 0.0000 0.0000 0.0000 19.9110 0.0000 2.8130
# 5 10.4904 7.9303 11.5847 0.0000 22.3915 0.0000
# 6 0.0000 0.0000 0.0000 2.8130 0.0000 13.7501
#
#
#
# Elastic Compliance Matrix: (Units=1/GPa)
#
#
# Indices 1 2 3 4 5 6 
#
# 1 0.013172 -0.003822 -0.007209 0.000000 -0.001088 0.000000
# 2 -0.003822 0.026757 -0.005018 0.000000 -0.005090 0.000000
# 3 -0.007209 -0.005018 0.016310 0.000000 -0.003284 0.000000
# 4 0.000000 0.000000 0.000000 0.051718 0.000000 -0.010581
# 5 -0.001088 -0.005090 -0.003284 0.000000 0.048671 0.000000
# 6 0.000000 0.000000 0.000000 -0.010581 0.000000 0.074891
#
#
# Mechanical properties :
#
#
# Convention : Reuss Voigt Hill
#
# Bulk Modulus (GPa) = 41.42092 58.90330 50.16211
# Shear Modulus (GPa) = 18.40511 20.88118 19.64314
#
# Velocity S-wave (km/s) = 3.40641 3.62832 3.51911
# Velocity P-wave (km/s) = 6.44869 7.39520 6.93810
#
# Compressibility (1/GPa) = 0.02414239
#
# Stress axis : x y z
#
# Youngs Moduli (GPa) = 75.91977 37.37310 61.31239
#
# Poissons Ratio (x) = 0.14283 0.44198
# Poissons Ratio (y) = 0.29015 0.30765
# Poissons Ratio (z) = 0.54728 0.18753
#
# Static dielectric constant tensor:
#      x y z
#    x 3.351740 0.000000 0.109820 
#    y 0.000000 3.004360 0.000000 
#    z 0.109820 0.000000 3.155340 
# 
# 
# High freq. dielectric constant tensor:
#      x y z
#    x 1.595900 0.000000 0.014080 
#    y 0.000000 1.608300 0.000000 
#    z 0.014080 0.000000 1.597630 
# 
# From -- ./inp_files/51195.got.cif
#   From: 2010.06.25/outbox.cif.g09.slc.cpg/sg11_26_cif.got.tgz:51195.got - 2010.06.27 23:14:04.
