data_PCOD8070787
_publ_section_title
;
Structure prediction by ZEFSAII (Michael W. Deem and Ramdas Pophale) SiO2 
 PCOD8070787
Probable space group: P 21/M
;
_chemical_formula_sum "Si O2"
_cell_formula_units_Z 28
_cell_length_a 19.421554
_cell_length_b 9.151905
_cell_length_c 12.958448
_cell_angle_alpha 90.000000
_cell_angle_beta 132.449349
_cell_angle_gamma 90.000000
_cell_volume 1699.537876
_symmetry_space_group_name_H-M "P 21/M"
_symmetry_group_IT_number 11
_symmetry_cell_setting 'monoclinic'
loop_
_space_group_symop_operation_xyz
x,y,z
-x,1/2+y,-z
-x,-y,-z
x,1/2-y,z
loop_
_atom_site_type_symbol
_atom_site_label
_atom_site_fract_x
_atom_site_fract_y
_atom_site_fract_z
Si Si1 0.898356 0.921069 0.008539
Si Si2 0.896418 0.417495 0.795909
Si Si3 0.400719 0.424206 0.403571
Si Si4 0.701502 0.080595 0.515459
Si Si5 0.608580 0.921615 0.006926
Si Si6 0.288453 0.422687 0.088756
Si Si7 0.606198 0.079971 0.209133
O O1 0.886401 0.750000 0.980172
O O2 0.003133 0.962766 0.152345
O O3 0.819923 0.974211 0.010975
O O4 0.875288 0.989496 0.875174
O O5 0.901162 0.250000 0.836564
O O6 0.813624 0.442376 0.630296
O O7 0.500000 0.500000 0.500000
O O8 0.411816 0.250000 0.419768
O O9 0.345912 0.478836 0.448102
O O10 0.345271 0.476744 0.246007
O O11 0.674638 0.250000 0.509311
O O12 0.666861 0.030408 0.368359
O O13 0.623582 0.750000 0.033711
O O14 0.644489 0.995051 0.148326
O O15 0.667906 0.988659 0.971804
O O16 0.500972 0.961286 0.876649
O O17 0.297266 0.250000 0.090593
O O18 0.617665 0.250000 0.197866
#
# Coordination Sequence:
#
# PCOD8070787 Si02
#       7
#     4   4   4   4   4   4   4
#     4   9  16  29  47  68  94 124 156 189 230 280
#     4   9  17  28  46  70  95 122 155 192 228 275
#     4  11  21  32  46  68  98 129 156 187 232 283
#     4  10  19  32  48  69  97 126 155 190 236 283
#     4   9  17  31  49  66  85 116 160 199 229 272
#     4   9  17  30  48  68  93 124 154 189 235 280
#     4   9  18  32  48  65  90 121 154 196 239 276
#
# _framework density 16.475066000000002
#
# number of rings (size 3 to 8) (size 9 to 14) (size 15 to 20)
#    0.000    2.571    1.429    1.286    0.000    2.857 
#    0.000    5.000    0.000    0.857    0.000    0.000 
#    0.000    0.000    0.000    0.000    0.000    0.000 
#
# Total GULP energy -347100.688010 kJ/mol
# GULP energy per Si atom -12396.453143 kJ/mol
# Density = 1.643757 g / cm^3
# Si number density = 16.475066 Si / 1000 Ang^3
#
#
#
# Elastic Constant Matrix: (Units=GPa)
#
#
# Indices 1 2 3 4 5 6 
#
# 1 142.2857 35.9755 85.0048 0.0000 -3.0876 0.0000
# 2 35.9755 35.3175 33.5303 0.0000 -2.3290 0.0000
# 3 85.0048 33.5303 123.9382 0.0000 -5.9335 0.0000
# 4 0.0000 0.0000 0.0000 22.2352 0.0000 -3.3451
# 5 -3.0876 -2.3290 -5.9335 0.0000 26.2381 0.0000
# 6 0.0000 0.0000 0.0000 -3.3451 0.0000 22.2986
#
#
#
# Elastic Compliance Matrix: (Units=1/GPa)
#
#
# Indices 1 2 3 4 5 6 
#
# 1 0.012904 -0.006399 -0.007151 0.000000 -0.000667 0.000000
# 2 -0.006399 0.041303 -0.006719 0.000000 0.001394 0.000000
# 3 -0.007151 -0.006719 0.014883 0.000000 0.001928 0.000000
# 4 0.000000 0.000000 0.000000 0.046012 0.000000 0.006902
# 5 -0.000667 0.001394 0.001928 0.000000 0.038594 0.000000
# 6 0.000000 0.000000 0.000000 0.006902 0.000000 0.045881
#
#
# Mechanical properties :
#
#
# Convention : Reuss Voigt Hill
#
# Bulk Modulus (GPa) = 35.02256 67.84027 51.43142
# Shear Modulus (GPa) = 20.02945 23.95641 21.99293
#
# Velocity S-wave (km/s) = 3.49053 3.81740 3.65762
# Velocity P-wave (km/s) = 6.12774 7.79083 7.00879
#
# Compressibility (1/GPa) = 0.02855302
#
# Stress axis : x y z
#
# Youngs Moduli (GPa) = 77.49710 24.21107 67.19048
#
# Poissons Ratio (x) = 0.15493 0.48047
# Poissons Ratio (y) = 0.49591 0.45143
# Poissons Ratio (z) = 0.55418 0.16267
#
# Static dielectric constant tensor:
#      x y z
#    x 3.413420 0.000000 0.142710 
#    y 0.000000 3.024130 0.000000 
#    z 0.142710 0.000000 3.174060 
# 
# 
# High freq. dielectric constant tensor:
#      x y z
#    x 1.633610 0.000000 0.011690 
#    y 0.000000 1.621710 0.000000 
#    z 0.011690 0.000000 1.623140 
# 
# From -- ./inp_files/37144.got.cif
#   From: 2010.06.25/outbox.cif.g09.slc.cpg/sg11_19_cif.got.tgz:37144.got - 2010.06.27 23:14:04.
