data_PCOD8070556
_publ_section_title
;
Structure prediction by ZEFSAII (Michael W. Deem and Ramdas Pophale) SiO2 
 PCOD8070556
Probable space group: P 21/M
;
_chemical_formula_sum "Si O2"
_cell_formula_units_Z 24
_cell_length_a 11.728739
_cell_length_b 8.897138
_cell_length_c 20.866533
_cell_angle_alpha 90.000000
_cell_angle_beta 39.058154
_cell_angle_gamma 90.000000
_cell_volume 1372.042383
_symmetry_space_group_name_H-M "P 21/M"
_symmetry_group_IT_number 11
_symmetry_cell_setting 'monoclinic'
loop_
_space_group_symop_operation_xyz
x,y,z
-x,1/2+y,-z
-x,-y,-z
x,1/2-y,z
loop_
_atom_site_type_symbol
_atom_site_label
_atom_site_fract_x
_atom_site_fract_y
_atom_site_fract_z
Si Si1 0.041465 0.081879 0.221137
Si Si2 0.606631 0.572950 0.132688
Si Si3 0.390157 0.927838 0.106150
Si Si4 0.346669 0.425158 0.748840
Si Si5 0.974798 0.919961 0.918062
Si Si6 0.630752 0.427704 0.391699
O O1 0.055419 0.250000 0.243700
O O2 0.098927 0.083441 0.122153
O O3 0.835748 0.021259 0.318084
O O4 0.179370 0.974145 0.198328
O O5 0.619270 0.750000 0.117939
O O6 0.468100 0.510025 0.140028
O O7 0.545318 0.533309 0.232359
O O8 0.811289 0.512990 0.031963
O O9 0.406290 0.750000 0.092937
O O10 0.500000 0.000000 0.000000
O O11 0.363369 0.250000 0.725290
O O12 0.426751 0.517771 0.654259
O O13 0.138669 0.464928 0.852884
O O14 0.035181 0.750000 0.911042
O O15 0.500000 0.500000 0.500000
O O16 0.612522 0.250000 0.401083
#
# Coordination Sequence:
#
# PCOD8070556 Si02
#       6
#     4   4   4   4   4   4
#     4   9  18  33  51  74 104 134 165 209 257 296
#     4   9  18  31  46  67 103 143 171 206 251 293
#     4  11  20  32  49  71 103 143 181 211 242 290
#     4  10  19  31  49  74 101 131 170 208 253 308
#     4   9  16  30  47  66 102 140 169 208 253 293
#     4  10  21  38  59  79 102 127 160 212 266 310
#
# _framework density 17.492170999999999
#
# number of rings (size 3 to 8) (size 9 to 14) (size 15 to 20)
#    0.000    2.333    1.667    3.000    0.000    3.333 
#    0.000    4.167    0.000    1.000    0.000    0.000 
#    0.000    0.000    0.000    0.000    0.000    0.000 
#
# Total GULP energy -297484.514507 kJ/mol
# GULP energy per Si atom -12395.188104 kJ/mol
# Density = 1.745236 g / cm^3
# Si number density = 17.492171 Si / 1000 Ang^3
#
#
#
# Elastic Constant Matrix: (Units=GPa)
#
#
# Indices 1 2 3 4 5 6 
#
# 1 112.1137 40.2554 55.2385 0.0000 18.2681 0.0000
# 2 40.2554 62.3357 34.8889 0.0000 6.2041 0.0000
# 3 55.2385 34.8889 110.5326 0.0000 15.4354 0.0000
# 4 0.0000 0.0000 0.0000 27.5181 0.0000 -1.3840
# 5 18.2681 6.2041 15.4354 0.0000 18.3642 0.0000
# 6 0.0000 0.0000 0.0000 -1.3840 0.0000 24.9692
#
#
#
# Elastic Compliance Matrix: (Units=1/GPa)
#
#
# Indices 1 2 3 4 5 6 
#
# 1 0.014657 -0.006283 -0.004081 0.000000 -0.009028 0.000000
# 2 -0.006283 0.022219 -0.004190 0.000000 0.002265 0.000000
# 3 -0.004081 -0.004190 0.013193 0.000000 -0.005614 0.000000
# 4 0.000000 0.000000 0.000000 0.036441 0.000000 0.002020
# 5 -0.009028 0.002265 -0.005614 0.000000 0.067387 0.000000
# 6 0.000000 0.000000 0.000000 0.002020 0.000000 0.040161
#
#
# Mechanical properties :
#
#
# Convention : Reuss Voigt Hill
#
# Bulk Modulus (GPa) = 47.70542 60.63861 54.17202
# Shear Modulus (GPa) = 21.72459 24.47689 23.10074
#
# Velocity S-wave (km/s) = 3.52797 3.74479 3.63799
# Velocity P-wave (km/s) = 6.62775 7.31022 6.97733
#
# Compressibility (1/GPa) = 0.02096198
#
# Stress axis : x y z
#
# Youngs Moduli (GPa) = 68.22620 45.00655 75.79740
#
# Poissons Ratio (x) = 0.28276 0.30934
# Poissons Ratio (y) = 0.42864 0.31758
# Poissons Ratio (z) = 0.27844 0.18857
#
# Static dielectric constant tensor:
#      x y z
#    x 3.473880 0.000000 0.110260 
#    y 0.000000 3.145530 0.000000 
#    z 0.110260 0.000000 3.094250 
# 
# 
# High freq. dielectric constant tensor:
#      x y z
#    x 1.674150 0.000000 0.010820 
#    y 0.000000 1.669050 0.000000 
#    z 0.010820 0.000000 1.648120 
# 
# From -- ./inp_files/36975.got.cif
#   From: 2010.06.25/outbox.cif.g09.slc.cpg/sg11_19_cif.got.tgz:36975.got - 2010.06.27 23:14:04.
