data_PCOD8070825
_publ_section_title
;
Structure prediction by ZEFSAII (Michael W. Deem and Ramdas Pophale) SiO2 
 PCOD8070825
Probable space group: P 21/M
;
_chemical_formula_sum "Si O2"
_cell_formula_units_Z 28
_cell_length_a 9.602310
_cell_length_b 8.990394
_cell_length_c 31.940333
_cell_angle_alpha 90.000000
_cell_angle_beta 35.136989
_cell_angle_gamma 90.000000
_cell_volume 1586.954056
_symmetry_space_group_name_H-M "P 21/M"
_symmetry_group_IT_number 11
_symmetry_cell_setting 'monoclinic'
loop_
_space_group_symop_operation_xyz
x,y,z
-x,1/2+y,-z
-x,-y,-z
x,1/2-y,z
loop_
_atom_site_type_symbol
_atom_site_label
_atom_site_fract_x
_atom_site_fract_y
_atom_site_fract_z
Si Si1 0.370257 0.574351 0.303981
Si Si2 0.247968 0.925759 0.425261
Si Si3 0.142795 0.419360 0.598949
Si Si4 0.206178 0.425187 0.857785
Si Si5 0.749476 0.579472 0.061770
Si Si6 0.486564 0.081393 0.438069
Si Si7 0.683029 0.573977 0.987680
O O1 0.389629 0.750000 0.301866
O O2 0.338894 0.510471 0.358375
O O3 0.612524 0.512493 0.222409
O O4 0.135818 0.531301 0.334279
O O5 0.208995 0.750000 0.433690
O O6 0.454998 0.971279 0.406948
O O7 0.000000 0.000000 0.500000
O O8 0.174932 0.250000 0.607134
O O9 0.269467 0.533589 0.598826
O O10 0.254545 0.433741 0.525153
O O11 0.149981 0.250000 0.866250
O O12 0.352247 0.452017 0.866347
O O13 0.955520 0.513529 0.914518
O O14 0.810494 0.750000 0.040998
O O15 0.597716 0.533455 0.057016
O O16 0.000000 0.500000 0.000000
O O17 0.515541 0.250000 0.415215
O O18 0.680545 0.750000 0.980188
O O19 0.500000 0.500000 0.000000
#
# Coordination Sequence:
#
# PCOD8070825 Si02
#       7
#     4   4   4   4   4   4   4
#     4   9  18  33  53  75 100 129 169 214 260 309
#     4  11  20  33  51  74 100 133 172 215 262 313
#     4   9  17  32  50  70  96 128 164 208 257 305
#     4   9  17  33  55  76  99 131 169 213 256 300
#     4   8  15  28  49  74  97 124 161 199 237 284
#     4  10  19  32  49  72  98 126 166 214 257 304
#     4  10  19  32  51  78 109 138 168 204 244 297
#
# _framework density 17.643864000000001
#
# number of rings (size 3 to 8) (size 9 to 14) (size 15 to 20)
#    0.000    2.571    1.429    1.286    0.000    1.143 
#    0.000    3.571    0.000    5.143    0.000    0.000 
#    0.000    0.000    0.000    0.000    0.000    0.000 
#
# Total GULP energy -346890.955672 kJ/mol
# GULP energy per Si atom -12388.962703 kJ/mol
# Density = 1.760371 g / cm^3
# Si number density = 17.643864 Si / 1000 Ang^3
#
#
#
# Elastic Constant Matrix: (Units=GPa)
#
#
# Indices 1 2 3 4 5 6 
#
# 1 121.4855 42.2773 64.3257 0.0000 12.5836 0.0000
# 2 42.2773 57.3120 33.6565 0.0000 6.0580 0.0000
# 3 64.3257 33.6565 106.1128 0.0000 8.9272 0.0000
# 4 0.0000 0.0000 0.0000 18.6057 0.0000 -1.4470
# 5 12.5836 6.0580 8.9272 0.0000 25.0531 0.0000
# 6 0.0000 0.0000 0.0000 -1.4470 0.0000 30.3667
#
#
#
# Elastic Compliance Matrix: (Units=1/GPa)
#
#
# Indices 1 2 3 4 5 6 
#
# 1 0.014104 -0.006386 -0.006246 0.000000 -0.003315 0.000000
# 2 -0.006386 0.024533 -0.003794 0.000000 -0.001372 0.000000
# 3 -0.006246 -0.003794 0.014507 0.000000 -0.001115 0.000000
# 4 0.000000 0.000000 0.000000 0.053947 0.000000 0.002571
# 5 -0.003315 -0.001372 -0.001115 0.000000 0.042309 0.000000
# 6 0.000000 0.000000 0.000000 0.002571 0.000000 0.033053
#
#
# Mechanical properties :
#
#
# Convention : Reuss Voigt Hill
#
# Bulk Modulus (GPa) = 49.28108 62.82548 56.05328
# Shear Modulus (GPa) = 22.51550 24.44850 23.48200
#
# Velocity S-wave (km/s) = 3.57614 3.72649 3.65209
# Velocity P-wave (km/s) = 6.71144 7.36210 7.04428
#
# Compressibility (1/GPa) = 0.02029176
#
# Stress axis : x y z
#
# Youngs Moduli (GPa) = 70.90130 40.76222 68.93086
#
# Poissons Ratio (x) = 0.26031 0.43051
# Poissons Ratio (y) = 0.45278 0.26155
# Poissons Ratio (z) = 0.44282 0.15467
#
# Static dielectric constant tensor:
#      x y z
#    x 3.636190 0.000000 0.454040 
#    y 0.000000 3.236940 0.000000 
#    z 0.454040 0.000000 3.476310 
# 
# 
# High freq. dielectric constant tensor:
#      x y z
#    x 1.690090 0.000000 0.014350 
#    y 0.000000 1.674270 0.000000 
#    z 0.014350 0.000000 1.656600 
# 
# From -- ./inp_files/66867.got.cif
#   From: 2010.06.25/outbox.cif.g09.slc.cpg/sg11_34_cif.got.tgz:66867.got - 2010.06.27 23:14:04.
