data_PCOD8070175
_publ_section_title
;
Structure prediction by ZEFSAII (Michael W. Deem and Ramdas Pophale) SiO2 
 PCOD8070175
Probable space group: P 21/M
;
_chemical_formula_sum "Si O2"
_cell_formula_units_Z 28
_cell_length_a 9.020303
_cell_length_b 14.163185
_cell_length_c 13.525134
_cell_angle_alpha 90.000000
_cell_angle_beta 89.893105
_cell_angle_gamma 90.000000
_cell_volume 1727.916990
_symmetry_space_group_name_H-M "P 21/M"
_symmetry_group_IT_number 11
_symmetry_cell_setting 'monoclinic'
loop_
_space_group_symop_operation_xyz
x,y,z
-x,1/2+y,-z
-x,-y,-z
x,1/2-y,z
loop_
_atom_site_type_symbol
_atom_site_label
_atom_site_fract_x
_atom_site_fract_y
_atom_site_fract_z
Si Si1 0.322606 0.905410 0.709431
Si Si2 0.781011 0.358023 0.982238
Si Si3 0.570854 0.479822 0.646012
Si Si4 0.043402 0.639207 0.820803
Si Si5 0.501350 0.853945 0.894330
Si Si6 0.476996 0.854140 0.528193
Si Si7 0.758178 0.983605 0.830699
O O1 0.152405 0.913161 0.742560
O O2 0.413002 0.846641 0.791406
O O3 0.335605 0.852033 0.603460
O O4 0.407636 0.007259 0.698244
O O5 0.793371 0.250000 0.945207
O O6 0.819672 0.427982 0.892606
O O7 0.899403 0.376827 0.068317
O O8 0.614524 0.380048 0.019305
O O9 0.575195 0.384956 0.581321
O O10 0.596629 0.571104 0.572970
O O11 0.699175 0.475914 0.727030
O O12 0.034027 0.750000 0.795169
O O13 0.885155 0.591658 0.807888
O O14 0.569808 0.750000 0.914046
O O15 0.631019 0.930646 0.893110
O O16 0.547854 0.750000 0.520161
#
# Coordination Sequence:
#
# PCOD8070175 Si02
#       7
#     4   4   4   4   4   4   4
#     4   8  15  29  48  66  92 118 147 181 223 270
#     4   9  19  33  46  62  91 130 158 176 215 276
#     4   8  19  29  46  75  88 113 155 186 221 271
#     4  10  19  30  47  70  91 119 154 184 226 272
#     4   9  16  28  47  70  91 114 151 192 225 259
#     4   9  15  30  52  68  90 119 148 185 227 267
#     4  11  19  29  46  71  96 116 146 196 230 251
#
# _framework density 16.204481999999999
#
# number of rings (size 3 to 8) (size 9 to 14) (size 15 to 20)
#    0.857    2.000    0.000    3.429    0.000    1.143 
#    0.000    0.714    0.000    0.857    0.000    0.000 
#    0.000    0.000    0.000    0.000    0.000    0.000 
#
# Total GULP energy -346907.539483 kJ/mol
# GULP energy per Si atom -12389.554982 kJ/mol
# Density = 1.616760 g / cm^3
# Si number density = 16.204482 Si / 1000 Ang^3
#
#
#
# Elastic Constant Matrix: (Units=GPa)
#
#
# Indices 1 2 3 4 5 6 
#
# 1 61.1775 15.6526 18.8526 0.0000 -3.9510 0.0000
# 2 15.6526 62.1938 31.8498 0.0000 -5.8544 0.0000
# 3 18.8526 31.8498 75.9443 0.0000 -0.7278 0.0000
# 4 0.0000 0.0000 0.0000 17.2618 0.0000 3.7310
# 5 -3.9510 -5.8544 -0.7278 0.0000 10.1949 0.0000
# 6 0.0000 0.0000 0.0000 3.7310 0.0000 12.4646
#
#
#
# Elastic Compliance Matrix: (Units=1/GPa)
#
#
# Indices 1 2 3 4 5 6 
#
# 1 0.018384 -0.002284 -0.003552 0.000000 0.005559 0.000000
# 2 -0.002284 0.022111 -0.008599 0.000000 0.011198 0.000000
# 3 -0.003552 -0.008599 0.017607 0.000000 -0.005058 0.000000
# 4 0.000000 0.000000 0.000000 0.061938 0.000000 -0.018540
# 5 0.005559 0.011198 -0.005058 0.000000 0.106312 0.000000
# 6 0.000000 0.000000 0.000000 -0.018540 0.000000 0.085776
#
#
# Mechanical properties :
#
#
# Convention : Reuss Voigt Hill
#
# Bulk Modulus (GPa) = 34.20961 36.89174 35.55068
# Shear Modulus (GPa) = 14.25541 16.84831 15.55186
#
# Velocity S-wave (km/s) = 2.96923 3.22799 3.10130
# Velocity P-wave (km/s) = 5.73691 6.05879 5.90005
#
# Compressibility (1/GPa) = 0.02923155
#
# Stress axis : x y z
#
# Youngs Moduli (GPa) = 54.39481 45.22584 56.79520
#
# Poissons Ratio (x) = 0.10331 0.20176
# Poissons Ratio (y) = 0.12425 0.48837
# Poissons Ratio (z) = 0.19324 0.38889
#
# Static dielectric constant tensor:
#      x y z
#    x 2.832530 0.000000 -0.101050 
#    y 0.000000 2.915380 0.000000 
#    z -0.101050 0.000000 2.974370 
# 
# 
# High freq. dielectric constant tensor:
#      x y z
#    x 1.591680 0.000000 -0.005020 
#    y 0.000000 1.614810 0.000000 
#    z -0.005020 0.000000 1.615110 
# 
# From -- ./inp_files/47363.got.cif
#   From: 2010.06.25/outbox.cif.g09.slc.cpg/sg11_24_cif.got.tgz:47363.got - 2010.06.27 23:14:04.
