data_PCOD8070752
_publ_section_title
;
Structure prediction by ZEFSAII (Michael W. Deem and Ramdas Pophale) SiO2 
 PCOD8070752
Probable space group: P 21/M
;
_chemical_formula_sum "Si O2"
_cell_formula_units_Z 32
_cell_length_a 16.174353
_cell_length_b 8.576154
_cell_length_c 12.157842
_cell_angle_alpha 90.000000
_cell_angle_beta 87.429002
_cell_angle_gamma 90.000000
_cell_volume 1684.762176
_symmetry_space_group_name_H-M "P 21/M"
_symmetry_group_IT_number 11
_symmetry_cell_setting 'monoclinic'
loop_
_space_group_symop_operation_xyz
x,y,z
-x,1/2+y,-z
-x,-y,-z
x,1/2-y,z
loop_
_atom_site_type_symbol
_atom_site_label
_atom_site_fract_x
_atom_site_fract_y
_atom_site_fract_z
Si Si1 0.323055 0.433470 0.037522
Si Si2 0.673861 0.428997 0.629738
Si Si3 0.709841 0.931573 0.402281
Si Si4 0.885100 0.069298 0.420245
Si Si5 0.193886 0.070683 0.224453
Si Si6 0.635044 0.432302 0.188938
Si Si7 0.951780 0.070003 0.654861
Si Si8 0.541298 0.429574 0.814906
O O1 0.341928 0.250000 0.037834
O O2 0.237742 0.471446 0.106551
O O3 0.398690 0.523131 0.089654
O O4 0.312527 0.498037 0.915536
O O5 0.702848 0.250000 0.638633
O O6 0.665206 0.475333 0.503411
O O7 0.743794 0.535416 0.679846
O O8 0.586291 0.454955 0.695069
O O9 0.698087 0.750000 0.424505
O O10 0.806524 0.971146 0.386167
O O11 0.663342 0.977840 0.294861
O O12 0.863506 0.250000 0.408566
O O13 0.905567 0.024692 0.544622
O O14 0.963294 0.026522 0.339043
O O15 0.168901 0.250000 0.232227
O O16 0.109436 0.972236 0.241184
O O17 0.653158 0.250000 0.199499
O O18 0.538129 0.460936 0.175675
O O19 0.975573 0.250000 0.656667
O O20 0.514825 0.250000 0.832592
#
# Coordination Sequence:
#
# PCOD8070752 Si02
#       8
#     4   4   4   4   4   4   4   4
#     4  10  21  38  59  84 112 143 185 232 279 325
#     4  10  20  35  55  81 112 146 182 223 274 330
#     4  12  24  38  57  79 112 150 185 225 274 333
#     4  10  20  34  53  80 115 149 183 223 268 323
#     4  10  19  32  55  84 114 146 180 226 276 325
#     4  12  25  40  58  79 107 146 190 231 277 329
#     4  10  19  31  53  83 116 148 182 224 269 321
#     4  10  21  38  60  84 111 142 182 232 281 326
#
# _framework density 18.993780000000001
#
# number of rings (size 3 to 8) (size 9 to 14) (size 15 to 20)
#    0.000    1.500    1.250    4.875    0.000    4.500 
#    0.000    0.000    0.000    0.750    0.000    0.000 
#    0.000    0.000    0.000    0.000    0.000    0.000 
#
# Total GULP energy -396963.733711 kJ/mol
# GULP energy per Si atom -12405.116678 kJ/mol
# Density = 1.895055 g / cm^3
# Si number density = 18.993780 Si / 1000 Ang^3
#
#
#
# Elastic Constant Matrix: (Units=GPa)
#
#
# Indices 1 2 3 4 5 6 
#
# 1 47.6640 16.6383 17.3507 0.0000 -24.8949 0.0000
# 2 16.6383 60.6903 13.7615 0.0000 -9.5442 0.0000
# 3 17.3507 13.7615 91.5605 0.0000 -18.3361 0.0000
# 4 0.0000 0.0000 0.0000 28.9403 0.0000 -2.0795
# 5 -24.8949 -9.5442 -18.3361 0.0000 25.5887 0.0000
# 6 0.0000 0.0000 0.0000 -2.0795 0.0000 33.7816
#
#
#
# Elastic Compliance Matrix: (Units=1/GPa)
#
#
# Indices 1 2 3 4 5 6 
#
# 1 0.044497 -0.005823 0.000791 0.000000 0.041686 0.000000
# 2 -0.005823 0.018455 -0.001665 0.000000 0.000025 0.000000
# 3 0.000791 -0.001665 0.012904 0.000000 0.009395 0.000000
# 4 0.000000 0.000000 0.000000 0.034707 0.000000 0.002136
# 5 0.041686 0.000025 0.009395 0.000000 0.086377 0.000000
# 6 0.000000 0.000000 0.000000 0.002136 0.000000 0.029733
#
#
# Mechanical properties :
#
#
# Convention : Reuss Voigt Hill
#
# Bulk Modulus (GPa) = 16.00982 32.82395 24.41689
# Shear Modulus (GPa) = 19.16533 27.80642 23.48587
#
# Velocity S-wave (km/s) = 3.17997 3.83034 3.52021
# Velocity P-wave (km/s) = 4.68297 6.07297 5.42269
#
# Compressibility (1/GPa) = 0.06246166
#
# Stress axis : x y z
#
# Youngs Moduli (GPa) = 22.47332 54.18590 77.49801
#
# Poissons Ratio (x) = 0.31551 -0.06131
# Poissons Ratio (y) = 0.13086 0.12906
# Poissons Ratio (z) = -0.01778 0.09024
#
# Static dielectric constant tensor:
#      x y z
#    x 3.433390 0.000000 -0.293650 
#    y 0.000000 3.539760 0.000000 
#    z -0.293650 0.000000 3.446230 
# 
# 
# High freq. dielectric constant tensor:
#      x y z
#    x 1.729980 0.000000 -0.027410 
#    y 0.000000 1.754330 0.000000 
#    z -0.027410 0.000000 1.721470 
# 
# From -- ./inp_files/38165.got.cif
#   From: 2010.06.25/outbox.cif.g09.slc.cpg/sg11_20_cif.got.tgz:38165.got - 2010.06.27 23:14:04.
