data_PCOD8070650
_publ_section_title
;
Structure prediction by ZEFSAII (Michael W. Deem and Ramdas Pophale) SiO2 
 PCOD8070650
Probable space group: P 21/M
;
_chemical_formula_sum "Si O2"
_cell_formula_units_Z 32
_cell_length_a 5.064495
_cell_length_b 12.103949
_cell_length_c 27.358379
_cell_angle_alpha 90.000000
_cell_angle_beta 85.602893
_cell_angle_gamma 90.000000
_cell_volume 1672.143007
_symmetry_space_group_name_H-M "P 21/M"
_symmetry_group_IT_number 11
_symmetry_cell_setting 'monoclinic'
loop_
_space_group_symop_operation_xyz
x,y,z
-x,1/2+y,-z
-x,-y,-z
x,1/2-y,z
loop_
_atom_site_type_symbol
_atom_site_label
_atom_site_fract_x
_atom_site_fract_y
_atom_site_fract_z
Si Si1 0.261277 0.623287 0.532099
Si Si2 0.168204 0.371054 0.725551
Si Si3 0.082694 0.547070 0.801533
Si Si4 0.408815 0.371254 0.248507
Si Si5 0.746630 0.998404 0.564532
Si Si6 0.676570 0.452023 0.675670
Si Si7 0.007730 0.626322 0.905416
Si Si8 0.519234 0.118124 0.030029
O O1 0.192297 0.750000 0.540799
O O2 0.267027 0.597649 0.474251
O O3 0.544225 0.597703 0.551998
O O4 0.040602 0.551015 0.562658
O O5 0.061525 0.250000 0.737533
O O6 0.175199 0.429788 0.778273
O O7 0.460952 0.364256 0.697895
O O8 0.971731 0.428664 0.690050
O O9 0.299774 0.634594 0.779546
O O10 0.788824 0.572055 0.786917
O O11 0.075384 0.542399 0.860488
O O12 0.304895 0.250000 0.261022
O O13 0.416808 0.430846 0.300879
O O14 0.671643 0.048488 0.617584
O O15 0.041386 0.750000 0.883831
O O16 0.708543 0.607933 0.926686
O O17 0.197029 0.606979 0.948715
O O18 0.501987 0.250000 0.007657
O O19 0.500000 0.000000 0.000000
#
# Coordination Sequence:
#
# PCOD8070650 Si02
#       8
#     4   4   4   4   4   4   4   4
#     4  10  21  36  56  77 103 136 165 213 271 309
#     4  10  21  37  55  77 108 142 174 214 259 304
#     4  10  20  34  52  78 108 136 176 218 256 307
#     4  10  19  31  50  76 106 136 165 207 259 305
#     4  10  21  38  54  78 106 129 175 217 250 317
#     4  10  21  36  54  77 103 135 173 211 253 310
#     4  10  19  33  57  82 106 143 184 222 269 322
#     4  10  21  37  56  81 112 145 185 232 280 328
#
# _framework density 19.137117
#
# number of rings (size 3 to 8) (size 9 to 14) (size 15 to 20)
#    0.000    2.000    0.000    3.750    0.000    3.000 
#    0.000    1.250    0.000    0.000    0.000    0.000 
#    0.000    0.000    0.000    0.000    0.000    0.000 
#
# Total GULP energy -396524.796244 kJ/mol
# GULP energy per Si atom -12391.399883 kJ/mol
# Density = 1.909356 g / cm^3
# Si number density = 19.137117 Si / 1000 Ang^3
#
#
#
# Elastic Constant Matrix: (Units=GPa)
#
#
# Indices 1 2 3 4 5 6 
#
# 1 76.6751 0.5989 12.5615 0.0000 -4.9622 0.0000
# 2 0.5989 96.9313 40.7217 0.0000 -6.0853 0.0000
# 3 12.5615 40.7217 88.0400 0.0000 -10.8088 0.0000
# 4 0.0000 0.0000 0.0000 8.7218 0.0000 1.4217
# 5 -4.9622 -6.0853 -10.8088 0.0000 23.3038 0.0000
# 6 0.0000 0.0000 0.0000 1.4217 0.0000 15.5668
#
#
#
# Elastic Compliance Matrix: (Units=1/GPa)
#
#
# Indices 1 2 3 4 5 6 
#
# 1 0.013517 0.000932 -0.002096 0.000000 0.002150 0.000000
# 2 0.000932 0.012878 -0.005993 0.000000 0.000781 0.000000
# 3 -0.002096 -0.005993 0.015039 0.000000 0.004964 0.000000
# 4 0.000000 0.000000 0.000000 0.116388 0.000000 -0.010629
# 5 0.002150 0.000781 0.004964 0.000000 0.045876 0.000000
# 6 0.000000 0.000000 0.000000 -0.010629 0.000000 0.065210
#
#
# Mechanical properties :
#
#
# Convention : Reuss Voigt Hill
#
# Bulk Modulus (GPa) = 36.87392 41.04562 38.95977
# Shear Modulus (GPa) = 17.10793 23.36943 20.23868
#
# Velocity S-wave (km/s) = 2.99317 3.49830 3.25555
# Velocity P-wave (km/s) = 5.59066 6.14916 5.87655
#
# Compressibility (1/GPa) = 0.02711944
#
# Stress axis : x y z
#
# Youngs Moduli (GPa) = 73.97971 77.65304 66.49303
#
# Poissons Ratio (x) = -0.07236 0.13935
# Poissons Ratio (y) = -0.06894 0.39853
# Poissons Ratio (z) = 0.15504 0.46541
#
# Static dielectric constant tensor:
#      x y z
#    x 3.673020 0.000000 -0.021330 
#    y 0.000000 3.702470 0.000000 
#    z -0.021330 0.000000 3.291220 
# 
# 
# High freq. dielectric constant tensor:
#      x y z
#    x 1.767820 0.000000 -0.001810 
#    y 0.000000 1.734560 0.000000 
#    z -0.001810 0.000000 1.722930 
# 
# From -- ./inp_files/67583.got.cif
#   From: 2010.06.25/outbox.cif.g09.slc.cpg/sg11_34_cif.got.tgz:67583.got - 2010.06.27 23:14:04.
