data_PCOD8070699
_publ_section_title
;
Structure prediction by ZEFSAII (Michael W. Deem and Ramdas Pophale) SiO2 
 PCOD8070699
Probable space group: P 21/M
;
_chemical_formula_sum "Si O2"
_cell_formula_units_Z 32
_cell_length_a 22.976333
_cell_length_b 9.130067
_cell_length_c 12.426383
_cell_angle_alpha 90.000000
_cell_angle_beta 44.381838
_cell_angle_gamma 90.000000
_cell_volume 1823.257093
_symmetry_space_group_name_H-M "P 21/M"
_symmetry_group_IT_number 11
_symmetry_cell_setting 'monoclinic'
loop_
_space_group_symop_operation_xyz
x,y,z
-x,1/2+y,-z
-x,-y,-z
x,1/2-y,z
loop_
_atom_site_type_symbol
_atom_site_label
_atom_site_fract_x
_atom_site_fract_y
_atom_site_fract_z
Si Si1 0.190343 0.920599 0.678069
Si Si2 0.988235 0.083857 0.123114
Si Si3 0.834989 0.922564 0.062040
Si Si4 0.319773 0.919958 0.328968
Si Si5 0.468186 0.918612 0.645532
Si Si6 0.719840 0.420678 0.044250
Si Si7 0.677239 0.920778 0.888861
Si Si8 0.507026 0.082594 0.800174
O O1 0.197979 0.750000 0.701424
O O2 0.267910 0.969222 0.502469
O O3 0.106940 0.946745 0.713419
O O4 0.189562 0.016086 0.787718
O O5 0.998280 0.250000 0.076145
O O6 0.066713 0.045413 0.096552
O O7 0.000000 0.000000 0.000000
O O8 0.814020 0.750000 0.086788
O O9 0.785709 0.005848 0.035412
O O10 0.303332 0.750000 0.324724
O O11 0.416986 0.951177 0.220817
O O12 0.290051 0.014807 0.266785
O O13 0.490955 0.750000 0.604402
O O14 0.370277 0.945973 0.785369
O O15 0.500000 0.000000 0.500000
O O16 0.516820 0.980163 0.683956
O O17 0.740237 0.250000 0.003097
O O18 0.725377 0.497720 0.921090
O O19 0.698516 0.750000 0.867294
O O20 0.578559 0.951658 0.025262
O O21 0.509365 0.250000 0.756717
#
# Coordination Sequence:
#
# PCOD8070699 Si02
#       8
#     4   4   4   4   4   4   4   4
#     4   9  18  32  50  75 106 137 166 198 247 304
#     4   8  15  29  48  71 101 134 163 197 244 297
#     4  10  19  31  51  78 105 131 165 208 249 295
#     4  10  20  33  52  75 101 132 167 208 248 296
#     4  10  21  34  49  69  98 134 166 203 249 296
#     4  10  21  36  53  72  97 132 171 206 247 301
#     4  10  20  35  53  72  98 131 170 214 253 289
#     4   9  19  34  50  71  98 131 170 207 245 291
#
# _framework density 17.551007999999999
#
# number of rings (size 3 to 8) (size 9 to 14) (size 15 to 20)
#    0.000    2.500    0.000    1.875    1.750    3.500 
#    0.000    0.000    0.000    0.750    0.000    0.000 
#    0.000    0.000    0.000    0.000    0.000    0.000 
#
# Total GULP energy -396621.166783 kJ/mol
# GULP energy per Si atom -12394.411462 kJ/mol
# Density = 1.751106 g / cm^3
# Si number density = 17.551008 Si / 1000 Ang^3
#
#
#
# Elastic Constant Matrix: (Units=GPa)
#
#
# Indices 1 2 3 4 5 6 
#
# 1 120.9690 60.1118 41.2515 0.0000 4.9409 0.0000
# 2 60.1118 86.5704 27.7296 0.0000 7.5618 0.0000
# 3 41.2515 27.7296 45.9970 0.0000 3.6243 0.0000
# 4 0.0000 0.0000 0.0000 25.3896 0.0000 6.2869
# 5 4.9409 7.5618 3.6243 0.0000 20.6324 0.0000
# 6 0.0000 0.0000 0.0000 6.2869 0.0000 32.4705
#
#
#
# Elastic Compliance Matrix: (Units=1/GPa)
#
#
# Indices 1 2 3 4 5 6 
#
# 1 0.015119 -0.007688 -0.008986 0.000000 0.000775 0.000000
# 2 -0.007688 0.018522 -0.003936 0.000000 -0.004256 0.000000
# 3 -0.008986 -0.003936 0.032337 0.000000 -0.002086 0.000000
# 4 0.000000 0.000000 0.000000 0.041370 0.000000 -0.008010
# 5 0.000775 -0.004256 -0.002086 0.000000 0.050208 0.000000
# 6 0.000000 0.000000 0.000000 -0.008010 0.000000 0.032348
#
#
# Mechanical properties :
#
#
# Convention : Reuss Voigt Hill
#
# Bulk Modulus (GPa) = 40.39050 56.85802 48.62426
# Shear Modulus (GPa) = 20.88759 23.99473 22.44116
#
# Velocity S-wave (km/s) = 3.45354 3.70150 3.57967
# Velocity P-wave (km/s) = 6.24225 7.12280 6.69702
#
# Compressibility (1/GPa) = 0.02475830
#
# Stress axis : x y z
#
# Youngs Moduli (GPa) = 66.13987 53.98978 30.92465
#
# Poissons Ratio (x) = 0.41507 0.27789
# Poissons Ratio (y) = 0.50848 0.12172
# Poissons Ratio (z) = 0.59433 0.21251
#
# Static dielectric constant tensor:
#      x y z
#    x 3.716040 0.000000 -0.471840 
#    y 0.000000 3.381110 0.000000 
#    z -0.471840 0.000000 3.609980 
# 
# 
# High freq. dielectric constant tensor:
#      x y z
#    x 1.677400 0.000000 -0.007760 
#    y 0.000000 1.688880 0.000000 
#    z -0.007760 0.000000 1.655790 
# 
# From -- ./inp_files/42768.got.cif
#   From: 2010.06.25/outbox.cif.g09.slc.cpg/sg11_22_cif.got.tgz:42768.got - 2010.06.27 23:14:04.
