data_PCOD8070398
_publ_section_title
;
Structure prediction by ZEFSAII (Michael W. Deem and Ramdas Pophale) SiO2 
 PCOD8070398
Probable space group: P 21/M
;
_chemical_formula_sum "Si O2"
_cell_formula_units_Z 32
_cell_length_a 32.531273
_cell_length_b 9.337804
_cell_length_c 12.477947
_cell_angle_alpha 90.000000
_cell_angle_beta 26.572768
_cell_angle_gamma 90.000000
_cell_volume 1695.590255
_symmetry_space_group_name_H-M "P 21/M"
_symmetry_group_IT_number 11
_symmetry_cell_setting 'monoclinic'
loop_
_space_group_symop_operation_xyz
x,y,z
-x,1/2+y,-z
-x,-y,-z
x,1/2-y,z
loop_
_atom_site_type_symbol
_atom_site_label
_atom_site_fract_x
_atom_site_fract_y
_atom_site_fract_z
Si Si1 0.375309 0.584803 0.352729
Si Si2 0.572538 0.917561 0.976008
Si Si3 0.201268 0.911439 0.899645
Si Si4 0.689413 0.090883 0.871379
Si Si5 0.831799 0.591821 0.641291
Si Si6 0.584515 0.406511 0.333899
Si Si7 0.001577 0.414901 0.607870
Si Si8 0.720893 0.906244 0.110936
O O1 0.375837 0.750000 0.312972
O O2 0.381167 0.480209 0.238438
O O3 0.278535 0.544622 0.633626
O O4 0.462160 0.557419 0.229284
O O5 0.596418 0.750000 0.929279
O O6 0.615711 0.999470 0.976275
O O7 0.221263 0.750000 0.893819
O O8 0.201460 0.021842 0.997577
O O9 0.096673 0.922965 0.101158
O O10 0.703908 0.250000 0.786687
O O11 0.788695 0.010179 0.649073
O O12 0.651994 0.111550 0.077384
O O13 0.852815 0.750000 0.543305
O O14 0.923558 0.524071 0.481775
O O15 0.755362 0.610566 0.910411
O O16 0.500000 0.500000 0.500000
O O17 0.552514 0.250000 0.449677
O O18 0.633539 0.487889 0.317939
O O19 0.027743 0.250000 0.519777
O O20 0.000000 0.500000 0.500000
O O21 0.693261 0.750000 0.220940
#
# Coordination Sequence:
#
# PCOD8070398 Si02
#       8
#     4   4   4   4   4   4   4   4
#     4   9  20  37  55  79 107 136 173 216 264 317
#     4  10  20  36  58  80 103 136 173 217 268 318
#     4  10  20  33  52  78 107 141 175 217 266 313
#     4  10  21  35  53  76 101 135 175 218 263 313
#     4   9  18  33  50  73 105 140 177 215 254 304
#     4  10  21  34  47  69 101 138 177 214 257 308
#     4  10  19  32  52  77 108 144 180 217 262 310
#     4  10  19  31  47  70 103 140 177 215 254 300
#
# _framework density 18.872484
#
# number of rings (size 3 to 8) (size 9 to 14) (size 15 to 20)
#    0.000    2.250    1.250    1.500    1.750    3.500 
#    0.000    0.000    0.000    0.750    0.000    0.000 
#    0.000    0.000    0.000    0.000    0.000    0.000 
#
# Total GULP energy -396585.940147 kJ/mol
# GULP energy per Si atom -12393.310630 kJ/mol
# Density = 1.882953 g / cm^3
# Si number density = 18.872484 Si / 1000 Ang^3
#
#
#
# Elastic Constant Matrix: (Units=GPa)
#
#
# Indices 1 2 3 4 5 6 
#
# 1 59.9964 38.3651 22.3520 0.0000 -22.6615 0.0000
# 2 38.3651 123.7960 29.6488 0.0000 -16.4217 0.0000
# 3 22.3520 29.6488 79.0577 0.0000 -21.1266 0.0000
# 4 0.0000 0.0000 0.0000 19.9409 0.0000 -3.5638
# 5 -22.6615 -16.4217 -21.1266 0.0000 30.4109 0.0000
# 6 0.0000 0.0000 0.0000 -3.5638 0.0000 33.7202
#
#
#
# Elastic Compliance Matrix: (Units=1/GPa)
#
#
# Indices 1 2 3 4 5 6 
#
# 1 0.026975 -0.005961 -0.001080 0.000000 0.016132 0.000000
# 2 -0.005961 0.010428 -0.002343 0.000000 -0.000438 0.000000
# 3 -0.001080 -0.002343 0.016307 0.000000 0.009259 0.000000
# 4 0.000000 0.000000 0.000000 0.051114 0.000000 0.005402
# 5 0.016132 -0.000438 0.009259 0.000000 0.051099 0.000000
# 6 0.000000 0.000000 0.000000 0.005402 0.000000 0.030227
#
#
# Mechanical properties :
#
#
# Convention : Reuss Voigt Hill
#
# Bulk Modulus (GPa) = 28.61836 49.28690 38.95263
# Shear Modulus (GPa) = 23.08769 28.31335 25.70052
#
# Velocity S-wave (km/s) = 3.50144 3.87750 3.69426
# Velocity P-wave (km/s) = 5.61638 6.79847 6.23550
#
# Compressibility (1/GPa) = 0.03494260
#
# Stress axis : x y z
#
# Youngs Moduli (GPa) = 37.07093 95.89479 61.32296
#
# Poissons Ratio (x) = 0.57165 0.06624
# Poissons Ratio (y) = 0.22099 0.14365
# Poissons Ratio (z) = 0.04004 0.22464
#
# Static dielectric constant tensor:
#      x y z
#    x -31.431150 0.000000 -5.565620 
#    y 0.000000 3.871020 0.000000 
#    z -5.565620 0.000000 2.670340 
# 
# 
# High freq. dielectric constant tensor:
#      x y z
#    x 1.713390 0.000000 -0.031230 
#    y 0.000000 1.747800 0.000000 
#    z -0.031230 0.000000 1.706850 
# 
# From -- ./inp_files/45133.got.cif
#   From: 2010.06.25/outbox.cif.g09.slc.cpg/sg11_23_cif.got.tgz:45133.got - 2010.06.27 23:14:04.
