data_PCOD8070452
_publ_section_title
;
Structure prediction by ZEFSAII (Michael W. Deem and Ramdas Pophale) SiO2 
 PCOD8070452
Probable space group: P 21/M
;
_chemical_formula_sum "Si O2"
_cell_formula_units_Z 32
_cell_length_a 16.891211
_cell_length_b 9.174878
_cell_length_c 25.640931
_cell_angle_alpha 90.000000
_cell_angle_beta 153.584611
_cell_angle_gamma 90.000000
_cell_volume 1767.801914
_symmetry_space_group_name_H-M "P 21/M"
_symmetry_group_IT_number 11
_symmetry_cell_setting 'monoclinic'
loop_
_space_group_symop_operation_xyz
x,y,z
-x,1/2+y,-z
-x,-y,-z
x,1/2-y,z
loop_
_atom_site_type_symbol
_atom_site_label
_atom_site_fract_x
_atom_site_fract_y
_atom_site_fract_z
Si Si1 0.561477 0.078423 0.984636
Si Si2 0.421741 0.077423 0.649992
Si Si3 0.165816 0.078598 0.922635
Si Si4 0.418837 0.085257 0.165260
Si Si5 0.562075 0.578850 0.458690
Si Si6 0.057955 0.086080 0.484106
Si Si7 0.233438 0.919729 0.335731
Si Si8 0.323445 0.588832 0.772100
O O1 0.584719 0.250000 0.006766
O O2 0.405518 0.044994 0.851805
O O3 0.500000 0.000000 0.000000
O O4 0.745486 0.009991 0.072485
O O5 0.440227 0.250000 0.662900
O O6 0.447827 0.020523 0.606419
O O7 0.227315 0.021442 0.553702
O O8 0.572531 0.011742 0.777300
O O9 0.195134 0.250000 0.930209
O O10 0.958482 0.036008 0.800561
O O11 0.258502 0.033240 0.032247
O O12 0.382987 0.250000 0.162086
O O13 0.609099 0.071101 0.247835
O O14 0.599499 0.750000 0.481783
O O15 0.724118 0.503727 0.585497
O O16 0.375403 0.536943 0.375271
O O17 0.102270 0.250000 0.527912
O O18 0.888104 0.081125 0.345744
O O19 0.000000 0.000000 0.500000
O O20 0.241839 0.750000 0.353968
O O21 0.389694 0.750000 0.830772
#
# Coordination Sequence:
#
# PCOD8070452 Si02
#       8
#     4   4   4   4   4   4   4   4
#     4  11  22  35  52  75 104 137 172 215 262 310
#     4  10  20  32  49  75 108 139 172 215 263 314
#     4   9  19  36  56  77 102 136 178 218 264 315
#     4   9  17  31  50  71 100 136 173 215 256 304
#     4   9  19  35  54  80 110 138 169 216 273 319
#     4  10  19  31  48  71 101 137 174 211 251 299
#     4   9  18  36  60  79 102 137 176 217 266 325
#     4   9  18  33  49  68  99 138 177 215 256 303
#
# _framework density 18.101576000000001
#
# number of rings (size 3 to 8) (size 9 to 14) (size 15 to 20)
#    0.000    2.500    1.250    1.875    0.000    4.500 
#    0.000    1.875    0.000    0.000    0.000    0.000 
#    0.000    0.000    0.000    0.000    0.000    0.000 
#
# Total GULP energy -396661.538064 kJ/mol
# GULP energy per Si atom -12395.673064 kJ/mol
# Density = 1.806038 g / cm^3
# Si number density = 18.101576 Si / 1000 Ang^3
#
#
#
# Elastic Constant Matrix: (Units=GPa)
#
#
# Indices 1 2 3 4 5 6 
#
# 1 116.8201 45.3032 62.2562 0.0000 -15.0536 0.0000
# 2 45.3032 60.7194 36.6958 0.0000 -5.2000 0.0000
# 3 62.2562 36.6958 125.0753 0.0000 -1.3244 0.0000
# 4 0.0000 0.0000 0.0000 29.0523 0.0000 -6.5379
# 5 -15.0536 -5.2000 -1.3244 0.0000 23.5976 0.0000
# 6 0.0000 0.0000 0.0000 -6.5379 0.0000 27.0458
#
#
#
# Elastic Compliance Matrix: (Units=1/GPa)
#
#
# Indices 1 2 3 4 5 6 
#
# 1 0.015341 -0.007550 -0.005338 0.000000 0.007823 0.000000
# 2 -0.007550 0.024136 -0.003320 0.000000 0.000316 0.000000
# 3 -0.005338 -0.003320 0.011589 0.000000 -0.003486 0.000000
# 4 0.000000 0.000000 0.000000 0.036401 0.000000 0.008799
# 5 0.007823 0.000316 -0.003486 0.000000 0.047242 0.000000
# 6 0.000000 0.000000 0.000000 0.008799 0.000000 0.039101
#
#
# Mechanical properties :
#
#
# Convention : Reuss Voigt Hill
#
# Bulk Modulus (GPa) = 53.61861 65.68059 59.64960
# Shear Modulus (GPa) = 23.53580 26.49644 25.01612
#
# Velocity S-wave (km/s) = 3.60975 3.83007 3.72154
# Velocity P-wave (km/s) = 6.85996 7.47813 7.17570
#
# Compressibility (1/GPa) = 0.01865024
#
# Stress axis : x y z
#
# Youngs Moduli (GPa) = 65.18510 41.43239 86.28673
#
# Poissons Ratio (x) = 0.31281 0.46060
# Poissons Ratio (y) = 0.49215 0.28646
# Poissons Ratio (z) = 0.34796 0.13755
#
# Static dielectric constant tensor:
#      x y z
#    x 3.396280 0.000000 -0.039630 
#    y 0.000000 3.275220 0.000000 
#    z -0.039630 0.000000 3.600360 
# 
# 
# High freq. dielectric constant tensor:
#      x y z
#    x 1.686470 0.000000 -0.002640 
#    y 0.000000 1.693190 0.000000 
#    z -0.002640 0.000000 1.701250 
# 
# From -- ./inp_files/69149.got.cif
#   From: 2010.06.25/outbox.cif.g09.slc.cpg/sg11_35_cif.got.tgz:69149.got - 2010.06.27 23:14:04.
