data_PCOD8070568
_publ_section_title
;
Structure prediction by ZEFSAII (Michael W. Deem and Ramdas Pophale) SiO2 
 PCOD8070568
Probable space group: P 21/M
;
_chemical_formula_sum "Si O2"
_cell_formula_units_Z 32
_cell_length_a 15.908165
_cell_length_b 9.016508
_cell_length_c 23.263559
_cell_angle_alpha 90.000000
_cell_angle_beta 148.739616
_cell_angle_gamma 90.000000
_cell_volume 1731.577281
_symmetry_space_group_name_H-M "P 21/M"
_symmetry_group_IT_number 11
_symmetry_cell_setting 'monoclinic'
loop_
_space_group_symop_operation_xyz
x,y,z
-x,1/2+y,-z
-x,-y,-z
x,1/2-y,z
loop_
_atom_site_type_symbol
_atom_site_label
_atom_site_fract_x
_atom_site_fract_y
_atom_site_fract_z
Si Si1 0.875309 0.589139 0.810424
Si Si2 0.341392 0.416746 0.426474
Si Si3 0.244219 0.423135 0.653502
Si Si4 0.170426 0.080590 0.094559
Si Si5 0.990062 0.577148 0.584881
Si Si6 0.064447 0.573049 0.326527
Si Si7 0.587151 0.575356 0.860320
Si Si8 0.130216 0.421247 0.896438
O O1 0.959578 0.750000 0.866368
O O2 0.761379 0.588330 0.690255
O O3 0.763871 0.559998 0.801611
O O4 0.022051 0.474800 0.887164
O O5 0.500000 0.500000 0.500000
O O6 0.378508 0.250000 0.470957
O O7 0.242179 0.507853 0.416427
O O8 0.233873 0.250000 0.663851
O O9 0.172842 0.449743 0.547742
O O10 0.427403 0.477789 0.764569
O O11 0.144125 0.518975 0.640235
O O12 0.141027 0.250000 0.059224
O O13 0.301181 0.014954 0.126731
O O14 0.000000 0.000000 0.000000
O O15 0.014423 0.750000 0.612780
O O16 0.986160 0.486887 0.641401
O O17 0.074633 0.750000 0.334436
O O18 0.930860 0.514402 0.200996
O O19 0.545746 0.750000 0.829374
O O20 0.682461 0.545836 0.976827
O O21 0.097403 0.250000 0.873217
#
# Coordination Sequence:
#
# PCOD8070568 Si02
#       8
#     4   4   4   4   4   4   4   4
#     4   9  18  31  48  71 101 139 182 223 268 317
#     4  10  20  34  50  74 109 145 184 230 275 322
#     4  10  22  39  60  86 111 140 178 224 278 334
#     4  10  19  31  49  74 104 141 181 220 263 314
#     4  10  21  40  63  85 111 140 178 226 280 335
#     4  10  20  35  58  83 108 144 187 228 272 327
#     4  10  20  34  53  80 115 149 183 225 276 329
#     4   9  18  33  52  77 109 145 182 219 265 320
#
# _framework density 18.480259
#
# number of rings (size 3 to 8) (size 9 to 14) (size 15 to 20)
#    0.000    2.250    1.250    1.500    0.000    4.500 
#    0.000    1.875    0.000    0.000    0.000    0.000 
#    0.000    0.000    0.000    0.000    0.000    0.000 
#
# Total GULP energy -396520.310386 kJ/mol
# GULP energy per Si atom -12391.259700 kJ/mol
# Density = 1.843820 g / cm^3
# Si number density = 18.480259 Si / 1000 Ang^3
#
#
#
# Elastic Constant Matrix: (Units=GPa)
#
#
# Indices 1 2 3 4 5 6 
#
# 1 96.5293 37.4010 45.9901 0.0000 -4.5487 0.0000
# 2 37.4010 74.3727 42.4173 0.0000 2.3131 0.0000
# 3 45.9901 42.4173 84.4249 0.0000 12.1525 0.0000
# 4 0.0000 0.0000 0.0000 29.9277 0.0000 5.1419
# 5 -4.5487 2.3131 12.1525 0.0000 23.8510 0.0000
# 6 0.0000 0.0000 0.0000 5.1419 0.0000 33.2104
#
#
#
# Elastic Compliance Matrix: (Units=1/GPa)
#
#
# Indices 1 2 3 4 5 6 
#
# 1 0.015896 -0.003754 -0.007837 0.000000 0.007389 0.000000
# 2 -0.003754 0.019967 -0.008207 0.000000 0.001529 0.000000
# 3 -0.007837 -0.008207 0.021947 0.000000 -0.011881 0.000000
# 4 0.000000 0.000000 0.000000 0.034327 0.000000 -0.005315
# 5 0.007389 0.001529 -0.011881 0.000000 0.049241 0.000000
# 6 0.000000 0.000000 0.000000 -0.005315 0.000000 0.030934
#
#
# Mechanical properties :
#
#
# Convention : Reuss Voigt Hill
#
# Bulk Modulus (GPa) = 54.90031 56.32706 55.61369
# Shear Modulus (GPa) = 22.93795 26.03240 24.48517
#
# Velocity S-wave (km/s) = 3.52691 3.75728 3.64392
# Velocity P-wave (km/s) = 6.80863 7.02628 6.91831
#
# Compressibility (1/GPa) = 0.01821483
#
# Stress axis : x y z
#
# Youngs Moduli (GPa) = 62.90924 50.08304 45.56349
#
# Poissons Ratio (x) = 0.18802 0.35706
# Poissons Ratio (y) = 0.23617 0.37394
# Poissons Ratio (z) = 0.49299 0.41103
#
# Static dielectric constant tensor:
#      x y z
#    x 3.610650 0.000000 -0.254360 
#    y 0.000000 3.795590 0.000000 
#    z -0.254360 0.000000 3.403390 
# 
# 
# High freq. dielectric constant tensor:
#      x y z
#    x 1.712490 0.000000 -0.014140 
#    y 0.000000 1.722360 0.000000 
#    z -0.014140 0.000000 1.711150 
# 
# From -- ./inp_files/69085.got.cif
#   From: 2010.06.25/outbox.cif.g09.slc.cpg/sg11_35_cif.got.tgz:69085.got - 2010.06.27 23:14:04.
