data_PCOD8070119
_publ_section_title
;
Structure prediction by ZEFSAII (Michael W. Deem and Ramdas Pophale) SiO2 
 PCOD8070119
Probable space group: P 21/M
;
_chemical_formula_sum "Si O2"
_cell_formula_units_Z 32
_cell_length_a 25.960357
_cell_length_b 8.980754
_cell_length_c 18.171763
_cell_angle_alpha 90.000000
_cell_angle_beta 150.904421
_cell_angle_gamma 90.000000
_cell_volume 2060.137360
_symmetry_space_group_name_H-M "P 21/M"
_symmetry_group_IT_number 11
_symmetry_cell_setting 'monoclinic'
loop_
_space_group_symop_operation_xyz
x,y,z
-x,1/2+y,-z
-x,-y,-z
x,1/2-y,z
loop_
_atom_site_type_symbol
_atom_site_label
_atom_site_fract_x
_atom_site_fract_y
_atom_site_fract_z
Si Si1 0.921710 0.915291 0.501082
Si Si2 0.416099 0.577995 0.302237
Si Si3 0.008664 0.077505 0.126184
Si Si4 0.371248 0.577266 0.413622
Si Si5 0.781838 0.425224 0.042037
Si Si6 0.005930 0.073481 0.742537
Si Si7 0.153766 0.585495 0.722656
Si Si8 0.839848 0.922460 0.819224
O O1 0.885206 0.750000 0.478572
O O2 0.034668 0.910546 0.603439
O O3 0.927493 0.018175 0.580281
O O4 0.836304 0.979033 0.335830
O O5 0.449240 0.750000 0.336485
O O6 0.368770 0.545306 0.323518
O O7 0.518095 0.477129 0.413832
O O8 0.328494 0.532269 0.133227
O O9 0.989764 0.250000 0.121139
O O10 0.104755 0.053360 0.189979
O O11 0.039794 0.988640 0.238211
O O12 0.899940 0.013916 0.957303
O O13 0.355829 0.750000 0.412648
O O14 0.278495 0.483884 0.335994
O O15 0.808323 0.250000 0.067146
O O16 0.773612 0.469714 0.118322
O O17 0.874853 0.515163 0.118630
O O18 0.006304 0.250000 0.743500
O O19 0.188733 0.750000 0.740988
O O20 0.839284 0.750000 0.841386
#
# Coordination Sequence:
#
# PCOD8070119 Si02
#       8
#     4   4   4   4   4   4   4   4
#     4   9  16  26  39  55  80 113 144 174 211 253
#     4   9  18  31  45  62  85 114 147 179 213 254
#     4  10  20  33  47  64  87 113 143 178 215 255
#     4  10  19  30  46  65  87 115 144 179 218 253
#     4   9  17  29  44  61  85 117 148 181 218 254
#     4  11  20  28  42  63  87 115 147 181 213 251
#     4   8  14  24  38  57  80 108 143 177 211 252
#     4  10  20  33  49  66  85 112 144 178 215 256
#
# _framework density 15.532944000000001
#
# number of rings (size 3 to 8) (size 9 to 14) (size 15 to 20)
#    0.000    2.500    0.000    4.125    0.000    6.500 
#    0.000    0.000    0.000    0.000    0.000    0.000 
#    0.000    1.000    0.000    3.000    0.000    4.250 
#
# Total GULP energy -396804.668526 kJ/mol
# GULP energy per Si atom -12400.145891 kJ/mol
# Density = 1.549759 g / cm^3
# Si number density = 15.532944 Si / 1000 Ang^3
#
#
#
# Elastic Constant Matrix: (Units=GPa)
#
#
# Indices 1 2 3 4 5 6 
#
# 1 64.2589 47.4851 46.2597 0.0000 -13.8660 0.0000
# 2 47.4851 105.9473 45.3238 0.0000 -8.7559 0.0000
# 3 46.2597 45.3238 96.0655 0.0000 -18.5040 0.0000
# 4 0.0000 0.0000 0.0000 25.2974 0.0000 -3.3954
# 5 -13.8660 -8.7559 -18.5040 0.0000 27.3370 0.0000
# 6 0.0000 0.0000 0.0000 -3.3954 0.0000 24.4596
#
#
#
# Elastic Compliance Matrix: (Units=1/GPa)
#
#
# Indices 1 2 3 4 5 6 
#
# 1 0.030150 -0.009147 -0.008995 0.000000 0.006275 0.000000
# 2 -0.009147 0.014600 -0.002848 0.000000 -0.001891 0.000000
# 3 -0.008995 -0.002848 0.017284 0.000000 0.006224 0.000000
# 4 0.000000 0.000000 0.000000 0.040280 0.000000 0.005592
# 5 0.006275 -0.001891 0.006224 0.000000 0.043371 0.000000
# 6 0.000000 0.000000 0.000000 0.005592 0.000000 0.041660
#
#
# Mechanical properties :
#
#
# Convention : Reuss Voigt Hill
#
# Bulk Modulus (GPa) = 49.86206 60.48988 55.17597
# Shear Modulus (GPa) = 21.18559 23.89902 22.54231
#
# Velocity S-wave (km/s) = 3.69713 3.92676 3.81367
# Velocity P-wave (km/s) = 7.09898 7.71924 7.41560
#
# Compressibility (1/GPa) = 0.02005533
#
# Stress axis : x y z
#
# Youngs Moduli (GPa) = 33.16702 68.49144 57.85864
#
# Poissons Ratio (x) = 0.62648 0.52041
# Poissons Ratio (y) = 0.30337 0.16479
# Poissons Ratio (z) = 0.29832 0.19507
#
# Static dielectric constant tensor:
#      x y z
#    x 2.818020 0.000000 -0.282010 
#    y 0.000000 3.112350 0.000000 
#    z -0.282010 0.000000 2.923880 
# 
# 
# High freq. dielectric constant tensor:
#      x y z
#    x 1.567410 0.000000 -0.026490 
#    y 0.000000 1.609420 0.000000 
#    z -0.026490 0.000000 1.575410 
# 
# From -- ./inp_files/61801.got.cif
#   From: 2010.06.25/outbox.cif.g09.slc.cpg/sg11_31_cif.got.tgz:61801.got - 2010.06.27 23:14:04.
