data_PCOD8070251
_publ_section_title
;
Structure prediction by ZEFSAII (Michael W. Deem and Ramdas Pophale) SiO2 
 PCOD8070251
Probable space group: P 21/M
;
_chemical_formula_sum "Si O2"
_cell_formula_units_Z 32
_cell_length_a 14.075698
_cell_length_b 9.374268
_cell_length_c 15.420387
_cell_angle_alpha 90.000000
_cell_angle_beta 90.481059
_cell_angle_gamma 90.000000
_cell_volume 2034.638561
_symmetry_space_group_name_H-M "P 21/M"
_symmetry_group_IT_number 11
_symmetry_cell_setting 'monoclinic'
loop_
_space_group_symop_operation_xyz
x,y,z
-x,1/2+y,-z
-x,-y,-z
x,1/2-y,z
loop_
_atom_site_type_symbol
_atom_site_label
_atom_site_fract_x
_atom_site_fract_y
_atom_site_fract_z
Si Si1 0.212125 0.914649 0.678585
Si Si2 0.388373 0.084940 0.410403
Si Si3 0.602570 0.412887 0.416141
Si Si4 0.096077 0.084917 0.014307
Si Si5 0.902711 0.082762 0.491458
Si Si6 0.103414 0.583169 0.174474
Si Si7 0.222124 0.584061 0.344324
Si Si8 0.884514 0.911938 0.176639
O O1 0.193469 0.750000 0.696660
O O2 0.323015 0.945257 0.659847
O O3 0.149130 0.965854 0.596789
O O4 0.184782 0.996528 0.764930
O O5 0.360128 0.250000 0.415528
O O6 0.496579 0.064346 0.378378
O O7 0.375942 0.017902 0.505006
O O8 0.319570 0.005585 0.342198
O O9 0.616482 0.250000 0.450022
O O10 0.075843 0.250000 0.036784
O O11 0.149214 0.007989 0.095253
O O12 0.152134 0.073335 0.923325
O O13 0.000000 0.000000 0.000000
O O14 0.924643 0.250000 0.492874
O O15 0.836110 0.040061 0.571015
O O16 0.000000 0.000000 0.500000
O O17 0.110365 0.750000 0.151387
O O18 0.160683 0.542394 0.260513
O O19 0.993827 0.537402 0.187628
O O20 0.248358 0.750000 0.344808
O O21 0.877078 0.750000 0.208591
#
# Coordination Sequence:
#
# PCOD8070251 Si02
#       8
#     4   4   4   4   4   4   4   4
#     4  10  19  31  47  65  88 123 157 185 225 273
#     4  10  19  30  49  71  88 115 156 198 233 273
#     4   9  18  34  49  64  91 120 151 194 241 277
#     4   9  17  30  47  66  92 122 152 193 235 270
#     4  10  20  32  44  60  89 127 158 184 219 262
#     4   9  18  31  48  68  92 126 158 187 229 274
#     4  10  19  33  48  64  95 129 152 186 235 278
#     4   9  18  31  46  67  94 121 152 189 229 268
#
# _framework density 15.727608
#
# number of rings (size 3 to 8) (size 9 to 14) (size 15 to 20)
#    0.000    2.500    1.250    2.250    0.000    6.000 
#    0.000    0.000    0.000    0.000    0.000    0.875 
#    0.000    0.000    0.000    0.000    0.000    0.000 
#
# Total GULP energy -396736.703860 kJ/mol
# GULP energy per Si atom -12398.021996 kJ/mol
# Density = 1.569181 g / cm^3
# Si number density = 15.727608 Si / 1000 Ang^3
#
#
#
# Elastic Constant Matrix: (Units=GPa)
#
#
# Indices 1 2 3 4 5 6 
#
# 1 85.8153 43.8168 41.2898 0.0000 -7.9236 0.0000
# 2 43.8168 70.9513 49.1300 0.0000 -5.5194 0.0000
# 3 41.2898 49.1300 98.9319 0.0000 -10.3867 0.0000
# 4 0.0000 0.0000 0.0000 29.9986 0.0000 0.3245
# 5 -7.9236 -5.5194 -10.3867 0.0000 12.4339 0.0000
# 6 0.0000 0.0000 0.0000 0.3245 0.0000 26.3568
#
#
#
# Elastic Compliance Matrix: (Units=1/GPa)
#
#
# Indices 1 2 3 4 5 6 
#
# 1 0.017894 -0.008919 -0.002474 0.000000 0.005377 0.000000
# 2 -0.008919 0.025932 -0.009365 0.000000 -0.001996 0.000000
# 3 -0.002474 -0.009365 0.016650 0.000000 0.008174 0.000000
# 4 0.000000 0.000000 0.000000 0.033339 0.000000 -0.000410
# 5 0.005377 -0.001996 0.008174 0.000000 0.089794 0.000000
# 6 0.000000 0.000000 0.000000 -0.000410 0.000000 0.037946
#
#
# Mechanical properties :
#
#
# Convention : Reuss Voigt Hill
#
# Bulk Modulus (GPa) = 52.74665 58.24132 55.49398
# Shear Modulus (GPa) = 18.56043 21.85533 20.20788
#
# Velocity S-wave (km/s) = 3.43901 3.73180 3.58839
# Velocity P-wave (km/s) = 7.02705 7.46191 7.24774
#
# Compressibility (1/GPa) = 0.01895855
#
# Stress axis : x y z
#
# Youngs Moduli (GPa) = 55.88485 38.56302 60.06170
#
# Poissons Ratio (x) = 0.34394 0.14862
# Poissons Ratio (y) = 0.49843 0.56247
# Poissons Ratio (z) = 0.13829 0.36114
#
# Static dielectric constant tensor:
#      x y z
#    x 2.943320 0.000000 0.037300 
#    y 0.000000 3.086700 0.000000 
#    z 0.037300 0.000000 3.174060 
# 
# 
# High freq. dielectric constant tensor:
#      x y z
#    x 1.582080 0.000000 0.001240 
#    y 0.000000 1.610750 0.000000 
#    z 0.001240 0.000000 1.592700 
# 
# From -- ./inp_files/51303.got.cif
#   From: 2010.06.25/outbox.cif.g09.slc.cpg/sg11_26_cif.got.tgz:51303.got - 2010.06.27 23:14:04.
