data_PCOD8070604
_publ_section_title
;
Structure prediction by ZEFSAII (Michael W. Deem and Ramdas Pophale) SiO2 
 PCOD8070604
Probable space group: P 21/M
;
_chemical_formula_sum "Si O2"
_cell_formula_units_Z 32
_cell_length_a 31.251146
_cell_length_b 8.827617
_cell_length_c 14.205973
_cell_angle_alpha 90.000000
_cell_angle_beta 27.098821
_cell_angle_gamma 90.000000
_cell_volume 1785.229878
_symmetry_space_group_name_H-M "P 21/M"
_symmetry_group_IT_number 11
_symmetry_cell_setting 'monoclinic'
loop_
_space_group_symop_operation_xyz
x,y,z
-x,1/2+y,-z
-x,-y,-z
x,1/2-y,z
loop_
_atom_site_type_symbol
_atom_site_label
_atom_site_fract_x
_atom_site_fract_y
_atom_site_fract_z
Si Si1 0.151237 0.428969 0.890602
Si Si2 0.697676 0.571448 0.265362
Si Si3 0.442902 0.427925 0.299840
Si Si4 0.296888 0.924005 0.468968
Si Si5 0.401537 0.070787 0.721998
Si Si6 0.788251 0.077770 0.560997
Si Si7 0.635934 0.074009 0.008137
Si Si8 0.978809 0.572496 0.142061
O O1 0.134542 0.250000 0.919201
O O2 0.051832 0.512432 0.077012
O O3 0.201189 0.481110 0.891015
O O4 0.217743 0.474533 0.673703
O O5 0.695533 0.750000 0.271167
O O6 0.614687 0.514436 0.496165
O O7 0.677019 0.514011 0.200027
O O8 0.430389 0.250000 0.306085
O O9 0.401062 0.516892 0.291724
O O10 0.550758 0.473018 0.105849
O O11 0.284345 0.750000 0.524746
O O12 0.284908 0.942929 0.380938
O O13 0.413337 0.250000 0.696201
O O14 0.500000 0.000000 0.500000
O O15 0.365594 0.021258 0.893829
O O16 0.826261 0.250000 0.488253
O O17 0.875271 0.965307 0.381266
O O18 0.733178 0.039126 0.764748
O O19 0.625524 0.250000 0.055170
O O20 0.990603 0.750000 0.107595
O O21 0.000000 0.500000 0.000000
#
# Coordination Sequence:
#
# PCOD8070604 Si02
#       8
#     4   4   4   4   4   4   4   4
#     4  10  19  34  56  80 107 141 177 220 274 325
#     4   8  16  31  52  78 108 138 173 216 272 324
#     4   9  17  32  51  72 106 148 183 217 267 321
#     4  10  19  31  49  77 109 142 185 226 262 315
#     4  11  20  34  56  83 110 142 183 227 271 322
#     4  10  22  38  55  76 109 148 184 224 274 326
#     4  10  21  38  55  76 109 150 187 224 273 326
#     4  12  23  36  57  83 110 140 180 227 271 321
#
# _framework density 17.924862000000001
#
# number of rings (size 3 to 8) (size 9 to 14) (size 15 to 20)
#    0.000    2.000    2.500    3.000    0.000    2.000 
#    0.000    1.875    0.000    0.750    0.000    0.000 
#    0.000    0.000    0.000    0.000    0.000    0.000 
#
# Total GULP energy -396741.378335 kJ/mol
# GULP energy per Si atom -12398.168073 kJ/mol
# Density = 1.788406 g / cm^3
# Si number density = 17.924862 Si / 1000 Ang^3
#
#
#
# Elastic Constant Matrix: (Units=GPa)
#
#
# Indices 1 2 3 4 5 6 
#
# 1 129.6498 53.9411 53.3230 0.0000 -6.3999 0.0000
# 2 53.9411 87.0195 37.3879 0.0000 -4.3062 0.0000
# 3 53.3230 37.3879 79.7986 0.0000 -3.4303 0.0000
# 4 0.0000 0.0000 0.0000 23.9991 0.0000 -2.3020
# 5 -6.3999 -4.3062 -3.4303 0.0000 25.6982 0.0000
# 6 0.0000 0.0000 0.0000 -2.3020 0.0000 29.9167
#
#
#
# Elastic Compliance Matrix: (Units=1/GPa)
#
#
# Indices 1 2 3 4 5 6 
#
# 1 0.012254 -0.005050 -0.005761 0.000000 0.001437 0.000000
# 2 -0.005050 0.016528 -0.004329 0.000000 0.000934 0.000000
# 3 -0.005761 -0.004329 0.018422 0.000000 0.000299 0.000000
# 4 0.000000 0.000000 0.000000 0.041978 0.000000 0.003230
# 5 0.001437 0.000934 0.000299 0.000000 0.039468 0.000000
# 6 0.000000 0.000000 0.000000 0.003230 0.000000 0.033675
#
#
# Mechanical properties :
#
#
# Convention : Reuss Voigt Hill
#
# Bulk Modulus (GPa) = 59.08497 65.08577 62.08537
# Shear Modulus (GPa) = 25.22103 26.04384 25.63244
#
# Velocity S-wave (km/s) = 3.75513 3.81589 3.78563
# Velocity P-wave (km/s) = 7.19968 7.47020 7.33619
#
# Compressibility (1/GPa) = 0.01692478
#
# Stress axis : x y z
#
# Youngs Moduli (GPa) = 81.60347 60.50212 54.28194
#
# Poissons Ratio (x) = 0.30553 0.31271
# Poissons Ratio (y) = 0.41209 0.23501
# Poissons Ratio (z) = 0.47010 0.26194
#
# Static dielectric constant tensor:
#      x y z
#    x 3.771080 0.000000 -0.110510 
#    y 0.000000 3.276480 0.000000 
#    z -0.110510 0.000000 3.060470 
# 
# 
# High freq. dielectric constant tensor:
#      x y z
#    x 1.702740 0.000000 -0.010060 
#    y 0.000000 1.689290 0.000000 
#    z -0.010060 0.000000 1.663230 
# 
# From -- ./inp_files/45120.got.cif
#   From: 2010.06.25/outbox.cif.g09.slc.cpg/sg11_23_cif.got.tgz:45120.got - 2010.06.27 23:14:04.
