data_PCOD8070708
_publ_section_title
;
Structure prediction by ZEFSAII (Michael W. Deem and Ramdas Pophale) SiO2 
 PCOD8070708
Probable space group: P 21/M
;
_chemical_formula_sum "Si O2"
_cell_formula_units_Z 32
_cell_length_a 14.181132
_cell_length_b 8.910158
_cell_length_c 19.408956
_cell_angle_alpha 90.000000
_cell_angle_beta 46.652211
_cell_angle_gamma 90.000000
_cell_volume 1783.415913
_symmetry_space_group_name_H-M "P 21/M"
_symmetry_group_IT_number 11
_symmetry_cell_setting 'monoclinic'
loop_
_space_group_symop_operation_xyz
x,y,z
-x,1/2+y,-z
-x,-y,-z
x,1/2-y,z
loop_
_atom_site_type_symbol
_atom_site_label
_atom_site_fract_x
_atom_site_fract_y
_atom_site_fract_z
Si Si1 0.619788 0.926284 0.479829
Si Si2 0.375997 0.576939 0.095716
Si Si3 0.143662 0.424845 0.135982
Si Si4 0.755085 0.076435 0.043853
Si Si5 0.512806 0.078663 0.817647
Si Si6 0.465189 0.576317 0.346630
Si Si7 0.732181 0.420956 0.208212
Si Si8 0.148635 0.579146 0.709901
O O1 0.600033 0.750000 0.486754
O O2 0.500000 0.000000 0.500000
O O3 0.623597 0.980604 0.557161
O O4 0.756685 0.968335 0.377696
O O5 0.378048 0.750000 0.072971
O O6 0.242949 0.505641 0.136934
O O7 0.380350 0.556975 0.176395
O O8 0.500000 0.500000 0.000000
O O9 0.175430 0.250000 0.120321
O O10 0.999086 0.458344 0.235941
O O11 0.154131 0.482805 0.052521
O O12 0.770504 0.250000 0.017485
O O13 0.796467 0.041273 0.101969
O O14 0.605878 0.031210 0.106876
O O15 0.460119 0.250000 0.843402
O O16 0.576624 0.041094 0.711349
O O17 0.448117 0.750000 0.373814
O O18 0.614749 0.532800 0.282770
O O19 0.678212 0.250000 0.234099
O O20 0.838514 0.443126 0.214119
O O21 0.184291 0.750000 0.671981
#
# Coordination Sequence:
#
# PCOD8070708 Si02
#       8
#     4   4   4   4   4   4   4   4
#     4  12  23  36  57  84 111 142 181 226 271 322
#     4  11  21  35  57  83 109 142 183 229 273 321
#     4  11  23  37  53  77 111 150 186 225 274 326
#     4  10  19  31  51  78 108 144 185 227 267 316
#     4   9  19  34  54  80 110 140 178 224 273 323
#     4  10  19  33  55  83 110 140 176 222 274 324
#     4   9  18  33  52  76 107 144 186 226 265 315
#     4  10  22  39  56  76 108 148 187 227 272 323
#
# _framework density 17.943093999999999
#
# number of rings (size 3 to 8) (size 9 to 14) (size 15 to 20)
#    0.000    1.750    2.500    2.625    0.000    3.000 
#    0.000    0.000    0.000    0.750    0.000    0.000 
#    0.000    0.000    0.000    0.000    0.000    0.000 
#
# Total GULP energy -396826.726896 kJ/mol
# GULP energy per Si atom -12400.835215 kJ/mol
# Density = 1.790226 g / cm^3
# Si number density = 17.943094 Si / 1000 Ang^3
#
#
#
# Elastic Constant Matrix: (Units=GPa)
#
#
# Indices 1 2 3 4 5 6 
#
# 1 99.2952 48.3662 51.2509 0.0000 1.9815 0.0000
# 2 48.3662 115.9841 55.6021 0.0000 0.4951 0.0000
# 3 51.2509 55.6021 96.5408 0.0000 6.6233 0.0000
# 4 0.0000 0.0000 0.0000 30.7024 0.0000 1.6125
# 5 1.9815 0.4951 6.6233 0.0000 23.8824 0.0000
# 6 0.0000 0.0000 0.0000 1.6125 0.0000 25.4334
#
#
#
# Elastic Compliance Matrix: (Units=1/GPa)
#
#
# Indices 1 2 3 4 5 6 
#
# 1 0.014743 -0.003290 -0.005966 0.000000 0.000500 0.000000
# 2 -0.003290 0.012712 -0.005683 0.000000 0.001586 0.000000
# 3 -0.005966 -0.005683 0.017082 0.000000 -0.004124 0.000000
# 4 0.000000 0.000000 0.000000 0.032680 0.000000 -0.002072
# 5 0.000500 0.001586 -0.004124 0.000000 0.042941 0.000000
# 6 0.000000 0.000000 0.000000 -0.002072 0.000000 0.039450
#
#
# Mechanical properties :
#
#
# Convention : Reuss Voigt Hill
#
# Bulk Modulus (GPa) = 68.22440 69.13982 68.68211
# Shear Modulus (GPa) = 25.72391 26.44370 26.08381
#
# Velocity S-wave (km/s) = 3.79045 3.84311 3.81687
# Velocity P-wave (km/s) = 7.56716 7.63605 7.60168
#
# Compressibility (1/GPa) = 0.01465751
#
# Stress axis : x y z
#
# Youngs Moduli (GPa) = 67.82938 78.66813 58.54173
#
# Poissons Ratio (x) = 0.25881 0.34926
# Poissons Ratio (y) = 0.22315 0.33272
# Poissons Ratio (z) = 0.40467 0.44711
#
# Static dielectric constant tensor:
#      x y z
#    x 3.352900 0.000000 0.326000 
#    y 0.000000 3.432700 0.000000 
#    z 0.326000 0.000000 3.273050 
# 
# 
# High freq. dielectric constant tensor:
#      x y z
#    x 1.682900 0.000000 0.023180 
#    y 0.000000 1.706780 0.000000 
#    z 0.023180 0.000000 1.678430 
# 
# From -- ./inp_files/65197.got.cif
#   From: 2010.06.25/outbox.cif.g09.slc.cpg/sg11_33_cif.got.tgz:65197.got - 2010.06.27 23:14:04.
