data_PCOD8070999
_publ_section_title
;
Structure prediction by ZEFSAII (Michael W. Deem and Ramdas Pophale) SiO2 
 PCOD8070999
Probable space group: P 21/M
;
_chemical_formula_sum "Si O2"
_cell_formula_units_Z 32
_cell_length_a 24.442239
_cell_length_b 8.807236
_cell_length_c 24.442275
_cell_angle_alpha 90.000000
_cell_angle_beta 161.837120
_cell_angle_gamma 90.000000
_cell_volume 1640.159469
_symmetry_space_group_name_H-M "P 21/M"
_symmetry_group_IT_number 11
_symmetry_cell_setting 'monoclinic'
loop_
_space_group_symop_operation_xyz
x,y,z
-x,1/2+y,-z
-x,-y,-z
x,1/2-y,z
loop_
_atom_site_type_symbol
_atom_site_label
_atom_site_fract_x
_atom_site_fract_y
_atom_site_fract_z
Si Si1 0.480534 0.918565 0.424499
Si Si2 0.228828 0.071675 0.669636
Si Si3 0.355338 0.429039 0.527886
Si Si4 0.434881 0.430135 0.065061
Si Si5 0.027879 0.929040 0.855330
Si Si6 0.075505 0.581432 0.019469
Si Si7 0.625057 0.431336 0.874934
Si Si8 0.169629 0.928332 0.728797
O O1 0.553931 0.750000 0.503750
O O2 0.588964 0.999067 0.478230
O O3 0.282852 0.916304 0.217152
O O4 0.500000 0.000000 0.500000
O O5 0.264771 0.250000 0.708554
O O6 0.038237 0.038918 0.461763
O O7 0.377212 0.996238 0.773711
O O8 0.241580 0.000137 0.741590
O O9 0.386496 0.250000 0.553205
O O10 0.473290 0.489166 0.689616
O O11 0.152686 0.470839 0.347320
O O12 0.437839 0.250000 0.061798
O O13 0.403290 0.478717 0.096741
O O14 0.273740 0.496470 0.877255
O O15 0.053139 0.750000 0.886435
O O16 0.021783 0.999069 0.911047
O O17 0.189612 0.989150 0.973281
O O18 0.996256 0.750000 0.946074
O O19 0.000000 0.500000 0.000000
O O20 0.619848 0.250000 0.880110
O O21 0.208490 0.750000 0.764566
#
# Coordination Sequence:
#
# PCOD8070999 Si02
#       8
#     4   4   4   4   4   4   4   4
#     4  10  19  32  51  78 109 139 175 222 275 337
#     4  10  21  39  64  93 125 161 202 249 297 347
#     4   9  17  32  55  78 102 135 177 229 286 337
#     4  12  25  39  58  86 123 164 202 244 298 358
#     4   9  17  32  55  78 102 135 177 229 286 337
#     4  10  19  32  51  78 109 139 175 222 275 337
#     4  10  20  37  57  78 104 142 195 246 284 342
#     4  10  21  39  64  93 125 161 202 249 297 347
#
# _framework density 19.510297999999999
#
# number of rings (size 3 to 8) (size 9 to 14) (size 15 to 20)
#    0.000    2.000    1.250    3.000    0.000    4.000 
#    0.000    3.750    0.000    1.500    0.000    0.000 
#    0.000    0.000    0.000    0.000    0.000    0.000 
#
# Total GULP energy -396734.303934 kJ/mol
# GULP energy per Si atom -12397.946998 kJ/mol
# Density = 1.946589 g / cm^3
# Si number density = 19.510298 Si / 1000 Ang^3
#
#
#
# Elastic Constant Matrix: (Units=GPa)
#
#
# Indices 1 2 3 4 5 6 
#
# 1 166.9634 53.3748 88.5933 0.0000 -3.0848 0.0000
# 2 53.3748 82.3321 42.9671 0.0000 -1.7960 0.0000
# 3 88.5933 42.9671 146.0028 0.0000 -0.6026 0.0000
# 4 0.0000 0.0000 0.0000 21.7577 0.0000 -1.9414
# 5 -3.0848 -1.7960 -0.6026 0.0000 30.9286 0.0000
# 6 0.0000 0.0000 0.0000 -1.9414 0.0000 32.4527
#
#
#
# Elastic Compliance Matrix: (Units=1/GPa)
#
#
# Indices 1 2 3 4 5 6 
#
# 1 0.009769 -0.003812 -0.004803 0.000000 0.000659 0.000000
# 2 -0.003812 0.015855 -0.002351 0.000000 0.000495 0.000000
# 3 -0.004803 -0.002351 0.010454 0.000000 -0.000412 0.000000
# 4 0.000000 0.000000 0.000000 0.046207 0.000000 0.002764
# 5 0.000659 0.000495 -0.000412 0.000000 0.032419 0.000000
# 6 0.000000 0.000000 0.000000 0.002764 0.000000 0.030979
#
#
# Mechanical properties :
#
#
# Convention : Reuss Voigt Hill
#
# Bulk Modulus (GPa) = 70.69303 85.01876 77.85590
# Shear Modulus (GPa) = 29.01413 31.05199 30.03306
#
# Velocity S-wave (km/s) = 3.86050 3.99378 3.92770
# Velocity P-wave (km/s) = 7.49558 8.05841 7.78208
#
# Compressibility (1/GPa) = 0.01414567
#
# Stress axis : x y z
#
# Youngs Moduli (GPa) = 102.36806 63.07251 95.65967
#
# Poissons Ratio (x) = 0.24043 0.45945
# Poissons Ratio (y) = 0.39022 0.22488
# Poissons Ratio (z) = 0.49168 0.14827
#
# Static dielectric constant tensor:
#      x y z
#    x 3.565970 0.000000 0.038480 
#    y 0.000000 3.291010 0.000000 
#    z 0.038480 0.000000 3.776830 
# 
# 
# High freq. dielectric constant tensor:
#      x y z
#    x 1.765370 0.000000 0.002360 
#    y 0.000000 1.726530 0.000000 
#    z 0.002360 0.000000 1.778340 
# 
# From -- ./inp_files/70032.got.cif
#   From: 2010.06.25/outbox.cif.g09.slc.cpg/sg11_36_cif.got.tgz:70032.got - 2010.06.27 23:14:04.
