data_PCOD8070535
_publ_section_title
;
Structure prediction by ZEFSAII (Michael W. Deem and Ramdas Pophale) SiO2 
 PCOD8070535
Probable space group: P 21/M
;
_chemical_formula_sum "Si O2"
_cell_formula_units_Z 32
_cell_length_a 14.978871
_cell_length_b 28.562721
_cell_length_c 8.375875
_cell_angle_alpha 90.000000
_cell_angle_beta 29.949210
_cell_angle_gamma 90.000000
_cell_volume 1789.004196
_symmetry_space_group_name_H-M "P 21/M"
_symmetry_group_IT_number 11
_symmetry_cell_setting 'monoclinic'
loop_
_space_group_symop_operation_xyz
x,y,z
-x,1/2+y,-z
-x,-y,-z
x,1/2-y,z
loop_
_atom_site_type_symbol
_atom_site_label
_atom_site_fract_x
_atom_site_fract_y
_atom_site_fract_z
Si Si1 0.323717 0.196619 0.168089
Si Si2 0.684477 0.196619 0.807330
Si Si3 0.039613 0.625157 0.743170
Si Si4 0.322396 0.125157 0.894821
Si Si5 0.530172 0.374931 0.267978
Si Si6 0.828322 0.625069 0.373527
Si Si7 0.675557 0.946747 0.833357
Si Si8 0.684472 0.053253 0.806613
O O1 0.263231 0.250000 0.239165
O O2 0.174816 0.170816 0.507782
O O3 0.516858 0.192379 0.949425
O O4 0.334347 0.172125 0.980262
O O5 0.734373 0.250000 0.768023
O O6 0.851045 0.172125 0.463564
O O7 0.642586 0.170816 0.040013
O O8 0.148114 0.578290 0.535008
O O9 0.860190 0.625538 0.919431
O O10 0.002431 0.624801 0.991510
O O11 0.496372 0.124801 0.509688
O O12 0.331237 0.078290 0.985640
O O13 0.340671 0.373684 0.477987
O O14 0.636968 0.421407 0.047436
O O15 0.821372 0.578593 0.494224
O O16 0.736813 1.000000 0.763187
O O17 0.479654 0.943193 0.061039
#
# Coordination Sequence:
#
# PCOD8070535 Si02
#       8
#     4   4   4   4   4   4   4   4
#     4   9  18  34  53  70  93 128 165 196 230 281
#     4   9  18  34  53  70  93 128 165 196 230 281
#     4  10  19  31  49  73 100 125 153 196 242 282
#     4  10  19  31  49  73 100 125 153 196 242 282
#     4   8  16  31  49  70  96 126 157 189 236 291
#     4   8  16  31  49  70  96 126 157 189 236 291
#     4   9  18  34  53  70  93 128 165 196 230 281
#     4   9  18  34  53  70  93 128 165 196 230 281
#
# _framework density 17.887045000000001
#
# number of rings (size 3 to 8) (size 9 to 14) (size 15 to 20)
#    0.000    3.000    0.000    2.250    0.000    3.000 
#    0.000   12.500    0.000    0.000    0.000    0.000 
#    0.000    0.000    0.000    0.000    0.000    0.000 
#
# Total GULP energy -396712.251620 kJ/mol
# GULP energy per Si atom -12397.257863 kJ/mol
# Density = 1.784633 g / cm^3
# Si number density = 17.887045 Si / 1000 Ang^3
#
#
#
# Elastic Constant Matrix: (Units=GPa)
#
#
# Indices 1 2 3 4 5 6 
#
# 1 64.7245 50.1142 44.5221 0.0000 29.3603 0.0000
# 2 50.1142 192.5014 78.2967 0.0000 28.6527 0.0000
# 3 44.5221 78.2967 134.5343 0.0000 41.6139 0.0000
# 4 0.0000 0.0000 0.0000 15.4940 0.0000 -5.9694
# 5 29.3603 28.6527 41.6139 0.0000 36.9986 0.0000
# 6 0.0000 0.0000 0.0000 -5.9694 0.0000 21.3656
#
#
#
# Elastic Compliance Matrix: (Units=1/GPa)
#
#
# Indices 1 2 3 4 5 6 
#
# 1 0.027172 -0.003968 -0.001478 0.000000 -0.016827 0.000000
# 2 -0.003968 0.007423 -0.003378 0.000000 0.001200 0.000000
# 3 -0.001478 -0.003378 0.013366 0.000000 -0.011245 0.000000
# 4 0.000000 0.000000 0.000000 0.072326 0.000000 0.020208
# 5 -0.016827 0.001200 -0.011245 0.000000 0.052100 0.000000
# 6 0.000000 0.000000 0.000000 0.020208 0.000000 0.052450
#
#
# Mechanical properties :
#
#
# Convention : Reuss Voigt Hill
#
# Bulk Modulus (GPa) = 32.98829 81.95848 57.47338
# Shear Modulus (GPa) = 19.79483 29.36011 24.57747
#
# Velocity S-wave (km/s) = 3.33026 4.05584 3.71082
# Velocity P-wave (km/s) = 5.76802 8.23727 7.11065
#
# Compressibility (1/GPa) = 0.03031379
#
# Stress axis : x y z
#
# Youngs Moduli (GPa) = 36.80229 134.71292 74.81462
#
# Poissons Ratio (x) = 0.53454 0.11057
# Poissons Ratio (y) = 0.14603 0.25273
# Poissons Ratio (z) = 0.05439 0.45507
#
# Static dielectric constant tensor:
#      x y z
#    x 3.185020 0.000000 0.264760 
#    y 0.000000 3.458210 0.000000 
#    z 0.264760 0.000000 3.445430 
# 
# 
# High freq. dielectric constant tensor:
#      x y z
#    x 1.675380 0.000000 0.013800 
#    y 0.000000 1.697140 0.000000 
#    z 0.013800 0.000000 1.688960 
# 
# From -- ./inp_files/23455.got.cif
#   From: 2010.06.25/outbox.cif.g09.slc.cpg/sg11_12_cif.got.tgz:23455.got - 2010.06.27 23:14:04.
