data_PCOD8070401
_publ_section_title
;
Structure prediction by ZEFSAII (Michael W. Deem and Ramdas Pophale) SiO2 
 PCOD8070401
Probable space group: P 21/M
;
_chemical_formula_sum "Si O2"
_cell_formula_units_Z 32
_cell_length_a 15.702077
_cell_length_b 8.758022
_cell_length_c 14.675932
_cell_angle_alpha 90.000000
_cell_angle_beta 62.072738
_cell_angle_gamma 90.000000
_cell_volume 1783.185231
_symmetry_space_group_name_H-M "P 21/M"
_symmetry_group_IT_number 11
_symmetry_cell_setting 'monoclinic'
loop_
_space_group_symop_operation_xyz
x,y,z
-x,1/2+y,-z
-x,-y,-z
x,1/2-y,z
loop_
_atom_site_type_symbol
_atom_site_label
_atom_site_fract_x
_atom_site_fract_y
_atom_site_fract_z
Si Si1 0.655952 0.568857 0.274020
Si Si2 0.110257 0.428843 0.544741
Si Si3 0.440406 0.573435 0.382374
Si Si4 0.889758 0.429628 0.645956
Si Si5 0.275121 0.929910 0.140823
Si Si6 0.346698 0.928920 0.914480
Si Si7 0.450481 0.571765 0.171274
Si Si8 0.267575 0.568725 0.589385
O O1 0.661045 0.750000 0.278367
O O2 0.547296 0.504880 0.346457
O O3 0.688745 0.520419 0.156349
O O4 0.727954 0.493291 0.310059
O O5 0.128734 0.250000 0.541987
O O6 0.143777 0.486857 0.429165
O O7 0.169166 0.511760 0.594223
O O8 0.998808 0.472313 0.617172
O O9 0.445821 0.750000 0.403470
O O10 0.409766 0.546586 0.293500
O O11 0.359215 0.498837 0.487840
O O12 0.878160 0.250000 0.634580
O O13 0.822216 0.490023 0.762160
O O14 0.280247 0.750000 0.150695
O O15 0.370127 0.995106 0.143426
O O16 0.275734 0.973968 0.033778
O O17 0.343075 0.750000 0.895046
O O18 0.453842 0.973782 0.891885
O O19 0.475189 0.750000 0.143196
O O20 0.267755 0.750000 0.589066
#
# Coordination Sequence:
#
# PCOD8070401 Si02
#       8
#     4   4   4   4   4   4   4   4
#     4  10  20  35  50  67  96 130 165 203 241 280
#     4  10  20  33  51  77 104 127 155 195 242 289
#     4   8  16  29  47  70  96 128 161 193 231 281
#     4   9  18  35  55  73  98 131 162 194 237 286
#     4   9  17  30  51  73  94 127 168 204 237 282
#     4  10  19  31  47  70  98 128 165 203 241 284
#     4   9  16  29  47  69  99 131 161 193 236 285
#     4  11  20  32  52  74  97 128 164 198 238 288
#
# _framework density 17.945415000000001
#
# number of rings (size 3 to 8) (size 9 to 14) (size 15 to 20)
#    0.000    2.500    0.000    3.750    0.000    2.500 
#    0.000   10.625    0.000    0.750    0.000    0.000 
#    0.000    0.000    0.000    0.000    0.000    0.000 
#
# Total GULP energy -396766.128753 kJ/mol
# GULP energy per Si atom -12398.941524 kJ/mol
# Density = 1.790457 g / cm^3
# Si number density = 17.945415 Si / 1000 Ang^3
#
#
#
# Elastic Constant Matrix: (Units=GPa)
#
#
# Indices 1 2 3 4 5 6 
#
# 1 110.0760 35.2024 62.2217 0.0000 20.2589 0.0000
# 2 35.2024 51.2373 27.1613 0.0000 5.7159 0.0000
# 3 62.2217 27.1613 119.8846 0.0000 4.9857 0.0000
# 4 0.0000 0.0000 0.0000 21.2464 0.0000 4.6087
# 5 20.2589 5.7159 4.9857 0.0000 23.0258 0.0000
# 6 0.0000 0.0000 0.0000 4.6087 0.0000 27.1760
#
#
#
# Elastic Compliance Matrix: (Units=1/GPa)
#
#
# Indices 1 2 3 4 5 6 
#
# 1 0.017507 -0.006959 -0.007004 0.000000 -0.012159 0.000000
# 2 -0.006959 0.025410 -0.002157 0.000000 0.000282 0.000000
# 3 -0.007004 -0.002157 0.012297 0.000000 0.004035 0.000000
# 4 0.000000 0.000000 0.000000 0.048864 0.000000 -0.008287
# 5 -0.012159 0.000282 0.004035 0.000000 0.053184 0.000000
# 6 0.000000 0.000000 0.000000 -0.008287 0.000000 0.038202
#
#
# Mechanical properties :
#
#
# Convention : Reuss Voigt Hill
#
# Bulk Modulus (GPa) = 43.52589 58.92985 51.22787
# Shear Modulus (GPa) = 21.24376 24.73049 22.98713
#
# Velocity S-wave (km/s) = 3.44437 3.71630 3.58291
# Velocity P-wave (km/s) = 6.33447 7.16409 6.76201
#
# Compressibility (1/GPa) = 0.02297483
#
# Stress axis : x y z
#
# Youngs Moduli (GPa) = 57.11975 39.35453 81.31758
#
# Poissons Ratio (x) = 0.27386 0.56956
# Poissons Ratio (y) = 0.39748 0.17540
# Poissons Ratio (z) = 0.40007 0.08489
#
# Static dielectric constant tensor:
#      x y z
#    x 3.256680 0.000000 0.000940 
#    y 0.000000 3.112350 0.000000 
#    z 0.000940 0.000000 3.494330 
# 
# 
# High freq. dielectric constant tensor:
#      x y z
#    x 1.679930 0.000000 0.011190 
#    y 0.000000 1.678930 0.000000 
#    z 0.011190 0.000000 1.691600 
# 
# From -- ./inp_files/51667.got.cif
#   From: 2010.06.25/outbox.cif.g09.slc.cpg/sg11_26_cif.got.tgz:51667.got - 2010.06.27 23:14:04.
