data_PCOD8070462
_publ_section_title
;
Structure prediction by ZEFSAII (Michael W. Deem and Ramdas Pophale) SiO2 
 PCOD8070462
Probable space group: P 21/M
;
_chemical_formula_sum "Si O2"
_cell_formula_units_Z 32
_cell_length_a 11.778842
_cell_length_b 8.713185
_cell_length_c 18.245201
_cell_angle_alpha 90.000000
_cell_angle_beta 90.657868
_cell_angle_gamma 90.000000
_cell_volume 1872.403978
_symmetry_space_group_name_H-M "P 21/M"
_symmetry_group_IT_number 11
_symmetry_cell_setting 'monoclinic'
loop_
_space_group_symop_operation_xyz
x,y,z
-x,1/2+y,-z
-x,-y,-z
x,1/2-y,z
loop_
_atom_site_type_symbol
_atom_site_label
_atom_site_fract_x
_atom_site_fract_y
_atom_site_fract_z
Si Si1 0.227231 0.930754 0.358437
Si Si2 0.376881 0.568860 0.494791
Si Si3 0.396398 0.927453 0.925502
Si Si4 0.997047 0.568430 0.580945
Si Si5 0.356403 0.429522 0.227257
Si Si6 0.615966 0.071706 0.233874
Si Si7 0.366744 0.924389 0.080769
Si Si8 0.238971 0.932435 0.632793
O O1 0.207861 0.750000 0.361798
O O2 0.317311 0.986284 0.419795
O O3 0.108198 0.011811 0.372353
O O4 0.273434 0.979233 0.279952
O O5 0.500000 0.500000 0.500000
O O6 0.386305 0.750000 0.498013
O O7 0.304311 0.504830 0.562068
O O8 0.441200 0.750000 0.925597
O O9 0.332305 0.957901 0.847430
O O10 0.499625 0.046385 0.928215
O O11 0.316770 0.954041 0.997331
O O12 0.993913 0.750000 0.572534
O O13 0.000000 0.500000 0.500000
O O14 0.108718 0.513481 0.626405
O O15 0.344669 0.250000 0.242381
O O16 0.486039 0.490244 0.238585
O O17 0.315846 0.465733 0.143363
O O18 0.609230 0.250000 0.251640
O O19 0.699510 0.995239 0.294648
O O20 0.345057 0.750000 0.105302
O O21 0.243823 0.750000 0.635088
#
# Coordination Sequence:
#
# PCOD8070462 Si02
#       8
#     4   4   4   4   4   4   4   4
#     4  11  22  36  51  70  97 126 161 203 246 287
#     4  10  20  33  48  70  98 127 158 192 233 287
#     4   8  14  24  40  65  95 130 165 192 228 283
#     4  11  21  36  55  72  92 122 163 207 248 288
#     4  10  19  31  48  71  98 129 164 197 239 293
#     4   8  14  26  46  70  98 127 158 194 233 283
#     4   9  15  24  40  64  97 131 161 194 233 278
#     4   9  17  31  49  69  94 123 156 197 240 279
#
# _framework density 17.090329000000001
#
# number of rings (size 3 to 8) (size 9 to 14) (size 15 to 20)
#    0.000    2.500    1.250    3.000    0.000    2.500 
#    0.000    0.000    0.000    6.750    0.000    0.875 
#    0.000    0.000    0.000    0.000    0.000    0.000 
#
# Total GULP energy -396531.955084 kJ/mol
# GULP energy per Si atom -12391.623596 kJ/mol
# Density = 1.705143 g / cm^3
# Si number density = 17.090329 Si / 1000 Ang^3
#
#
#
# Elastic Constant Matrix: (Units=GPa)
#
#
# Indices 1 2 3 4 5 6 
#
# 1 100.6504 22.5336 54.9701 0.0000 -8.0013 0.0000
# 2 22.5336 35.8801 21.7229 0.0000 1.6327 0.0000
# 3 54.9701 21.7229 143.7882 0.0000 -10.6437 0.0000
# 4 0.0000 0.0000 0.0000 22.1453 0.0000 -4.4366
# 5 -8.0013 1.6327 -10.6437 0.0000 10.4531 0.0000
# 6 0.0000 0.0000 0.0000 -4.4366 0.0000 19.9787
#
#
#
# Elastic Compliance Matrix: (Units=1/GPa)
#
#
# Indices 1 2 3 4 5 6 
#
# 1 0.014212 -0.007012 -0.003772 0.000000 0.008133 0.000000
# 2 -0.007012 0.035194 -0.003721 0.000000 -0.014653 0.000000
# 3 -0.003772 -0.003721 0.009504 0.000000 0.007372 0.000000
# 4 0.000000 0.000000 0.000000 0.047259 0.000000 0.010495
# 5 0.008133 -0.014653 0.007372 0.000000 0.111685 0.000000
# 6 0.000000 0.000000 0.000000 0.010495 0.000000 0.052384
#
#
# Mechanical properties :
#
#
# Convention : Reuss Voigt Hill
#
# Bulk Modulus (GPa) = 33.44396 53.19685 43.32041
# Shear Modulus (GPa) = 16.17004 22.58822 19.37913
#
# Velocity S-wave (km/s) = 3.07929 3.63946 3.37103
# Velocity P-wave (km/s) = 5.67927 6.98966 6.36826
#
# Compressibility (1/GPa) = 0.02990076
#
# Stress axis : x y z
#
# Youngs Moduli (GPa) = 70.36480 28.41418 105.21392
#
# Poissons Ratio (x) = 0.19923 0.39684
# Poissons Ratio (y) = 0.49338 0.39150
# Poissons Ratio (z) = 0.26540 0.10573
#
# Static dielectric constant tensor:
#      x y z
#    x 3.021770 0.000000 0.103410 
#    y 0.000000 2.954510 0.000000 
#    z 0.103410 0.000000 3.721730 
# 
# 
# High freq. dielectric constant tensor:
#      x y z
#    x 1.613920 0.000000 -0.002940 
#    y 0.000000 1.645650 0.000000 
#    z -0.002940 0.000000 1.679020 
# 
# From -- ./inp_files/42475.got.cif
#   From: 2010.06.25/outbox.cif.g09.slc.cpg/sg11_22_cif.got.tgz:42475.got - 2010.06.27 23:14:04.
