data_PCOD8070084
_publ_section_title
;
Structure prediction by ZEFSAII (Michael W. Deem and Ramdas Pophale) SiO2 
 PCOD8070084
Probable space group: P 21/M
;
_chemical_formula_sum "Si O2"
_cell_formula_units_Z 32
_cell_length_a 14.319498
_cell_length_b 9.398034
_cell_length_c 15.383684
_cell_angle_alpha 90.000000
_cell_angle_beta 88.996944
_cell_angle_gamma 90.000000
_cell_volume 2069.944019
_symmetry_space_group_name_H-M "P 21/M"
_symmetry_group_IT_number 11
_symmetry_cell_setting 'monoclinic'
loop_
_space_group_symop_operation_xyz
x,y,z
-x,1/2+y,-z
-x,-y,-z
x,1/2-y,z
loop_
_atom_site_type_symbol
_atom_site_label
_atom_site_fract_x
_atom_site_fract_y
_atom_site_fract_z
Si Si1 0.903908 0.918562 0.998403
Si Si2 0.110842 0.417553 0.669143
Si Si3 0.791143 0.917091 0.829710
Si Si4 0.407633 0.085066 0.100371
Si Si5 0.094443 0.914405 0.508867
Si Si6 0.783010 0.918442 0.161247
Si Si7 0.106254 0.910917 0.316046
Si Si8 0.586613 0.915373 0.102001
O O1 0.920851 0.750000 0.003933
O O2 0.852328 0.962704 0.911073
O O3 0.843017 0.976843 0.079782
O O4 0.000000 0.000000 0.000000
O O5 0.122388 0.250000 0.650125
O O6 0.150288 0.506927 0.585773
O O7 0.172003 0.470403 0.749488
O O8 0.002582 0.456086 0.688629
O O9 0.796346 0.750000 0.815334
O O10 0.684465 0.965407 0.846974
O O11 0.829827 0.989577 0.743016
O O12 0.427795 0.250000 0.115686
O O13 0.495695 0.999089 0.136301
O O14 0.392017 0.053284 0.999081
O O15 0.075074 0.750000 0.533839
O O16 0.145273 0.923444 0.414396
O O17 0.000000 0.000000 0.500000
O O18 0.784213 0.750000 0.155152
O O19 0.675925 0.971073 0.155274
O O20 0.116152 0.750000 0.281938
O O21 0.567728 0.750000 0.118561
#
# Coordination Sequence:
#
# PCOD8070084 Si02
#       8
#     4   4   4   4   4   4   4   4
#     4  10  19  31  43  59  88 124 154 179 209 252
#     4   9  17  29  46  67  90 119 151 184 220 261
#     4  10  19  30  45  64  88 120 152 181 219 262
#     4   9  17  30  45  64  88 113 146 189 228 259
#     4   9  17  30  46  64  88 117 148 186 227 264
#     4   9  16  29  47  64  88 121 152 179 216 266
#     4   9  18  30  44  65  91 118 149 183 219 258
#     4   9  16  29  48  65  83 115 152 184 221 265
#
# _framework density 15.459355
#
# number of rings (size 3 to 8) (size 9 to 14) (size 15 to 20)
#    0.000    2.750    1.250    1.875    0.000    4.500 
#    0.000    1.875    0.000    0.000    0.000    0.875 
#    0.000    0.000    0.000    0.000    0.000    0.000 
#
# Total GULP energy -396681.853426 kJ/mol
# GULP energy per Si atom -12396.307920 kJ/mol
# Density = 1.542417 g / cm^3
# Si number density = 15.459355 Si / 1000 Ang^3
#
#
#
# Elastic Constant Matrix: (Units=GPa)
#
#
# Indices 1 2 3 4 5 6 
#
# 1 116.7786 41.4211 59.3779 0.0000 0.6354 0.0000
# 2 41.4211 49.4773 43.2098 0.0000 -3.5282 0.0000
# 3 59.3779 43.2098 105.1170 0.0000 0.9682 0.0000
# 4 0.0000 0.0000 0.0000 25.5321 0.0000 -2.9287
# 5 0.6354 -3.5282 0.9682 0.0000 11.8339 0.0000
# 6 0.0000 0.0000 0.0000 -2.9287 0.0000 25.3994
#
#
#
# Elastic Compliance Matrix: (Units=1/GPa)
#
#
# Indices 1 2 3 4 5 6 
#
# 1 0.013571 -0.007605 -0.004516 0.000000 -0.002627 0.000000
# 2 -0.007605 0.037144 -0.011087 0.000000 0.012389 0.000000
# 3 -0.004516 -0.011087 0.016662 0.000000 -0.004426 0.000000
# 4 0.000000 0.000000 0.000000 0.039691 0.000000 0.004577
# 5 -0.002627 0.012389 -0.004426 0.000000 0.088700 0.000000
# 6 0.000000 0.000000 0.000000 0.004577 0.000000 0.039899
#
#
# Mechanical properties :
#
#
# Convention : Reuss Voigt Hill
#
# Bulk Modulus (GPa) = 47.70479 62.15450 54.92964
# Shear Modulus (GPa) = 17.29693 21.04402 19.17048
#
# Velocity S-wave (km/s) = 3.34857 3.69351 3.52526
# Velocity P-wave (km/s) = 6.77317 7.64734 7.22349
#
# Compressibility (1/GPa) = 0.02096226
#
# Stress axis : x y z
#
# Youngs Moduli (GPa) = 73.68656 26.92242 60.01663
#
# Poissons Ratio (x) = 0.20475 0.27101
# Poissons Ratio (y) = 0.56039 0.66539
# Poissons Ratio (z) = 0.33274 0.29848
#
# Static dielectric constant tensor:
#      x y z
#    x 2.931430 0.000000 0.143600 
#    y 0.000000 2.910870 0.000000 
#    z 0.143600 0.000000 3.266270 
# 
# 
# High freq. dielectric constant tensor:
#      x y z
#    x 1.573880 0.000000 0.004110 
#    y 0.000000 1.584580 0.000000 
#    z 0.004110 0.000000 1.584920 
# 
# From -- ./inp_files/51289.got.cif
#   From: 2010.06.25/outbox.cif.g09.slc.cpg/sg11_26_cif.got.tgz:51289.got - 2010.06.27 23:14:04.
