data_PCOD8070955
_publ_section_title
;
Structure prediction by ZEFSAII (Michael W. Deem and Ramdas Pophale) SiO2 
 PCOD8070955
Probable space group: P 21/M
;
_chemical_formula_sum "Si O2"
_cell_formula_units_Z 28
_cell_length_a 14.912971
_cell_length_b 8.840952
_cell_length_c 18.825342
_cell_angle_alpha 90.000000
_cell_angle_beta 142.356630
_cell_angle_gamma 90.000000
_cell_volume 1515.883397
_symmetry_space_group_name_H-M "P 21/M"
_symmetry_group_IT_number 11
_symmetry_cell_setting 'monoclinic'
loop_
_space_group_symop_operation_xyz
x,y,z
-x,1/2+y,-z
-x,-y,-z
x,1/2-y,z
loop_
_atom_site_type_symbol
_atom_site_label
_atom_site_fract_x
_atom_site_fract_y
_atom_site_fract_z
Si Si1 0.286449 0.073515 0.259686
Si Si2 0.571526 0.429019 0.976102
Si Si3 0.193135 0.581150 0.066696
Si Si4 0.468768 0.082409 0.762955
Si Si5 0.613050 0.074024 0.422357
Si Si6 0.163143 0.427939 0.333835
Si Si7 0.129172 0.071195 0.885971
O O1 0.268043 0.250000 0.234991
O O2 0.455457 0.025443 0.354896
O O3 0.242384 0.022911 0.310659
O O4 0.178157 0.992778 0.135254
O O5 0.591270 0.250000 0.996687
O O6 0.462590 0.467059 0.841662
O O7 0.500000 0.500000 0.000000
O O8 0.730186 0.501017 0.063906
O O9 0.126177 0.750000 0.026305
O O10 0.361966 0.584601 0.151735
O O11 0.107212 0.485986 0.953187
O O12 0.401238 0.250000 0.710189
O O13 0.381509 0.964872 0.658410
O O14 0.646060 0.250000 0.454360
O O15 0.734748 0.974329 0.536983
O O16 0.132389 0.250000 0.316745
O O17 0.011513 0.518006 0.247018
O O18 0.144116 0.250000 0.894919
#
# Coordination Sequence:
#
# PCOD8070955 Si02
#       7
#     4   4   4   4   4   4   4
#     4   9  19  33  50  73 100 135 180 225 264 304
#     4  10  20  36  60  88 112 134 164 204 253 309
#     4   9  17  31  51  73 100 134 172 216 263 310
#     4   8  16  31  51  76 104 134 167 204 249 300
#     4  10  19  32  51  75 102 135 179 222 258 300
#     4  11  22  35  50  70 102 142 180 219 263 309
#     4  11  22  36  53  75 105 138 173 213 260 313
#
# _framework density 18.471077999999999
#
# number of rings (size 3 to 8) (size 9 to 14) (size 15 to 20)
#    0.000    2.286    0.000    4.286    0.000    6.286 
#    0.000    0.000    0.000    0.857    0.000    0.000 
#    0.000    0.000    0.000    0.000    0.000    0.000 
#
# Total GULP energy -347220.414407 kJ/mol
# GULP energy per Si atom -12400.729086 kJ/mol
# Density = 1.842904 g / cm^3
# Si number density = 18.471078 Si / 1000 Ang^3
#
#
#
# Elastic Constant Matrix: (Units=GPa)
#
#
# Indices 1 2 3 4 5 6 
#
# 1 77.3313 43.1057 47.9523 0.0000 -17.2666 0.0000
# 2 43.1057 104.7301 47.0541 0.0000 -4.7776 0.0000
# 3 47.9523 47.0541 102.0646 0.0000 -9.0188 0.0000
# 4 0.0000 0.0000 0.0000 34.6030 0.0000 -4.4205
# 5 -17.2666 -4.7776 -9.0188 0.0000 23.7389 0.0000
# 6 0.0000 0.0000 0.0000 -4.4205 0.0000 26.3756
#
#
#
# Elastic Compliance Matrix: (Units=1/GPa)
#
#
# Indices 1 2 3 4 5 6 
#
# 1 0.023659 -0.005884 -0.007230 0.000000 0.013278 0.000000
# 2 -0.005884 0.013509 -0.003726 0.000000 -0.002977 0.000000
# 3 -0.007230 -0.003726 0.014881 0.000000 -0.000355 0.000000
# 4 0.000000 0.000000 0.000000 0.029532 0.000000 0.004949
# 5 0.013278 -0.002977 -0.000355 0.000000 0.051049 0.000000
# 6 0.000000 0.000000 0.000000 0.004949 0.000000 0.038743
#
#
# Mechanical properties :
#
#
# Convention : Reuss Voigt Hill
#
# Bulk Modulus (GPa) = 54.44081 62.26112 58.35096
# Shear Modulus (GPa) = 23.67714 26.67774 25.17744
#
# Velocity S-wave (km/s) = 3.58418 3.80451 3.69599
# Velocity P-wave (km/s) = 6.83125 7.28558 7.06207
#
# Compressibility (1/GPa) = 0.01836857
#
# Stress axis : x y z
#
# Youngs Moduli (GPa) = 42.26768 74.02744 67.20002
#
# Poissons Ratio (x) = 0.43556 0.48583
# Poissons Ratio (y) = 0.24869 0.25042
# Poissons Ratio (z) = 0.30558 0.27586
#
# Static dielectric constant tensor:
#      x y z
#    x 3.254900 0.000000 -0.226750 
#    y 0.000000 3.467400 0.000000 
#    z -0.226750 0.000000 3.464030 
# 
# 
# High freq. dielectric constant tensor:
#      x y z
#    x 1.685020 0.000000 -0.013540 
#    y 0.000000 1.725880 0.000000 
#    z -0.013540 0.000000 1.717270 
# 
# From -- ./inp_files/42620.got.cif
#   From: 2010.06.25/outbox.cif.g09.slc.cpg/sg11_22_cif.got.tgz:42620.got - 2010.06.27 23:14:04.
