data_PCOD8070308
_publ_section_title
;
Structure prediction by ZEFSAII (Michael W. Deem and Ramdas Pophale) SiO2 
 PCOD8070308
Probable space group: P 21/M
;
_chemical_formula_sum "Si O2"
_cell_formula_units_Z 32
_cell_length_a 11.589924
_cell_length_b 9.131112
_cell_length_c 20.854889
_cell_angle_alpha 90.000000
_cell_angle_beta 128.476816
_cell_angle_gamma 90.000000
_cell_volume 1727.811005
_symmetry_space_group_name_H-M "P 21/M"
_symmetry_group_IT_number 11
_symmetry_cell_setting 'monoclinic'
loop_
_space_group_symop_operation_xyz
x,y,z
-x,1/2+y,-z
-x,-y,-z
x,1/2-y,z
loop_
_atom_site_type_symbol
_atom_site_label
_atom_site_fract_x
_atom_site_fract_y
_atom_site_fract_z
Si Si1 0.277121 0.919979 0.435513
Si Si2 0.447256 0.421388 0.385767
Si Si3 0.903301 0.920348 0.913363
Si Si4 0.997237 0.084176 0.323388
Si Si5 0.920566 0.081533 0.152632
Si Si6 0.667340 0.079941 0.222409
Si Si7 0.364931 0.423458 0.920295
Si Si8 0.416039 0.076744 0.231822
O O1 0.267400 0.750000 0.417078
O O2 0.387533 0.953337 0.532232
O O3 0.328545 0.999403 0.388809
O O4 0.115688 0.979504 0.398707
O O5 0.410462 0.250000 0.375351
O O6 0.432641 0.486934 0.309236
O O7 0.909598 0.750000 0.932461
O O8 0.734217 0.979084 0.854681
O O9 0.963313 0.951463 0.862921
O O10 0.000000 0.000000 0.000000
O O11 0.049555 0.250000 0.351715
O O12 0.992551 0.046282 0.246134
O O13 0.838000 0.059091 0.301607
O O14 0.866357 0.250000 0.132588
O O15 0.781435 0.976307 0.093489
O O16 0.639179 0.250000 0.193353
O O17 0.559968 0.028367 0.242102
O O18 0.634449 0.973606 0.152635
O O19 0.378280 0.250000 0.929790
O O20 0.500000 0.500000 0.000000
O O21 0.407501 0.250000 0.234279
#
# Coordination Sequence:
#
# PCOD8070308 Si02
#       8
#     4   4   4   4   4   4   4   4
#     4  10  19  30  51  82 112 136 172 223 265 310
#     4   9  18  34  55  79 105 140 179 216 263 314
#     4  10  21  35  53  78 105 134 171 217 265 317
#     4   9  17  32  54  76 103 138 175 217 261 311
#     4   9  19  36  54  75 103 136 178 218 258 313
#     4   9  19  36  56  78 101 135 183 221 258 314
#     4  11  22  35  54  77 103 134 173 221 270 315
#     4   9  18  36  59  76 100 140 181 215 257 320
#
# _framework density 18.520544999999998
#
# number of rings (size 3 to 8) (size 9 to 14) (size 15 to 20)
#    0.000    2.500    0.000    3.000    1.750    5.000 
#    0.000    3.125    0.000    0.000    0.000    0.000 
#    0.000    0.000    0.000    0.000    0.000    0.000 
#
# Total GULP energy -396771.961212 kJ/mol
# GULP energy per Si atom -12399.123788 kJ/mol
# Density = 1.847839 g / cm^3
# Si number density = 18.520545 Si / 1000 Ang^3
#
#
#
# Elastic Constant Matrix: (Units=GPa)
#
#
# Indices 1 2 3 4 5 6 
#
# 1 120.5167 35.1105 57.8023 0.0000 14.2216 0.0000
# 2 35.1105 71.6200 37.9031 0.0000 15.4983 0.0000
# 3 57.8023 37.9031 98.3561 0.0000 19.9373 0.0000
# 4 0.0000 0.0000 0.0000 29.8760 0.0000 6.9193
# 5 14.2216 15.4983 19.9373 0.0000 29.3975 0.0000
# 6 0.0000 0.0000 0.0000 6.9193 0.0000 24.5516
#
#
#
# Elastic Compliance Matrix: (Units=1/GPa)
#
#
# Indices 1 2 3 4 5 6 
#
# 1 0.011957 -0.002642 -0.005934 0.000000 -0.000367 0.000000
# 2 -0.002642 0.018897 -0.004602 0.000000 -0.005563 0.000000
# 3 -0.005934 -0.004602 0.016642 0.000000 -0.005990 0.000000
# 4 0.000000 0.000000 0.000000 0.035809 0.000000 -0.010092
# 5 -0.000367 -0.005563 -0.005990 0.000000 0.041189 0.000000
# 6 0.000000 0.000000 0.000000 -0.010092 0.000000 0.043575
#
#
# Mechanical properties :
#
#
# Convention : Reuss Voigt Hill
#
# Bulk Modulus (GPa) = 47.30395 61.34719 54.32557
# Shear Modulus (GPa) = 24.81734 27.41014 26.11374
#
# Velocity S-wave (km/s) = 3.66456 3.85123 3.75905
# Velocity P-wave (km/s) = 6.59561 7.27817 6.94528
#
# Compressibility (1/GPa) = 0.02113988
#
# Stress axis : x y z
#
# Youngs Moduli (GPa) = 83.63462 52.91838 60.08758
#
# Poissons Ratio (x) = 0.13979 0.35659
# Poissons Ratio (y) = 0.22092 0.27653
# Poissons Ratio (z) = 0.49633 0.24354
#
# Static dielectric constant tensor:
#      x y z
#    x 3.534050 0.000000 0.190480 
#    y 0.000000 3.255570 0.000000 
#    z 0.190480 0.000000 3.469490 
# 
# 
# High freq. dielectric constant tensor:
#      x y z
#    x 1.720450 0.000000 0.015780 
#    y 0.000000 1.700040 0.000000 
#    z 0.015780 0.000000 1.715260 
# 
# From -- ./inp_files/64434.got.cif
#   From: 2010.06.25/outbox.cif.g09.slc.cpg/sg11_33_cif.got.tgz:64434.got - 2010.06.27 23:14:04.
