data_PCOD8070696
_publ_section_title
;
Structure prediction by ZEFSAII (Michael W. Deem and Ramdas Pophale) SiO2 
 PCOD8070696
Probable space group: P 21/M
;
_chemical_formula_sum "Si O2"
_cell_formula_units_Z 32
_cell_length_a 11.876252
_cell_length_b 8.755549
_cell_length_c 18.095927
_cell_angle_alpha 90.000000
_cell_angle_beta 48.958519
_cell_angle_gamma 90.000000
_cell_volume 1419.220789
_symmetry_space_group_name_H-M "P 21/M"
_symmetry_group_IT_number 11
_symmetry_cell_setting 'monoclinic'
loop_
_space_group_symop_operation_xyz
x,y,z
-x,1/2+y,-z
-x,-y,-z
x,1/2-y,z
loop_
_atom_site_type_symbol
_atom_site_label
_atom_site_fract_x
_atom_site_fract_y
_atom_site_fract_z
Si Si1 0.585058 0.084257 0.170061
Si Si2 0.733674 0.569370 0.633332
Si Si3 0.377003 0.929803 0.455985
Si Si4 0.991604 0.568648 0.198223
Si Si5 0.316791 0.929676 0.649287
Si Si6 0.123483 0.429653 0.998846
Si Si7 0.420781 0.083717 0.098317
Si Si8 0.855901 0.072799 0.718809
O O1 0.629884 0.250000 0.186769
O O2 0.434189 0.017245 0.271968
O O3 0.548757 0.117254 0.101273
O O4 0.721422 0.966146 0.110158
O O5 0.749230 0.750000 0.622615
O O6 0.750920 0.494536 0.544550
O O7 0.861104 0.511896 0.636358
O O8 0.394860 0.750000 0.438950
O O9 0.323873 0.976416 0.560375
O O10 0.537124 0.009138 0.370970
O O11 0.999553 0.750000 0.187323
O O12 0.825921 0.508671 0.251658
O O13 0.107970 0.498451 0.088657
O O14 0.028541 0.517357 0.267271
O O15 0.305464 0.750000 0.664965
O O16 0.104401 0.250000 0.012773
O O17 0.000000 0.500000 0.000000
O O18 0.349201 0.250000 0.107203
O O19 0.303942 0.962836 0.178946
O O20 0.500000 0.000000 0.000000
O O21 0.876801 0.250000 0.693227
#
# Coordination Sequence:
#
# PCOD8070696 Si02
#       8
#     4   4   4   4   4   4   4   4
#     4   9  20  37  53  77 113 150 192 240 288 341
#     4  10  21  37  62  91 123 160 201 252 302 352
#     4  10  21  39  64  93 125 156 197 248 300 360
#     4  11  24  42  63  87 121 161 201 249 303 361
#     4  10  22  40  64  93 122 158 200 247 301 359
#     4  12  26  41  59  83 116 158 203 249 298 359
#     4  10  19  31  51  77 107 145 190 240 290 341
#     4  10  21  37  57  84 118 156 199 246 299 358
#
# _framework density 22.547585000000002
#
# number of rings (size 3 to 8) (size 9 to 14) (size 15 to 20)
#    0.000    1.750    0.000    4.875    1.750    9.500 
#    0.000    0.625    0.000    0.000    0.000    0.000 
#    0.000    0.000    0.000    0.000    0.000    0.000 
#
# Total GULP energy -396578.016044 kJ/mol
# GULP energy per Si atom -12393.063001 kJ/mol
# Density = 2.249627 g / cm^3
# Si number density = 22.547585 Si / 1000 Ang^3
#
#
#
# Elastic Constant Matrix: (Units=GPa)
#
#
# Indices 1 2 3 4 5 6 
#
# 1 82.3764 29.1395 0.7819 0.0000 18.8633 0.0000
# 2 29.1395 101.5084 4.3646 0.0000 4.3541 0.0000
# 3 0.7819 4.3646 10.7272 0.0000 3.7134 0.0000
# 4 0.0000 0.0000 0.0000 29.1048 0.0000 2.6831
# 5 18.8633 4.3541 3.7134 0.0000 38.6008 0.0000
# 6 0.0000 0.0000 0.0000 2.6831 0.0000 34.9947
#
#
#
# Elastic Compliance Matrix: (Units=1/GPa)
#
#
# Indices 1 2 3 4 5 6 
#
# 1 0.015265 -0.004204 0.003120 0.000000 -0.007286 0.000000
# 2 -0.004204 0.011206 -0.004683 0.000000 0.001241 0.000000
# 3 0.003120 -0.004683 0.098525 0.000000 -0.010474 0.000000
# 4 0.000000 0.000000 0.000000 0.034603 0.000000 -0.002653
# 5 -0.007286 0.001241 -0.010474 0.000000 0.030334 0.000000
# 6 0.000000 0.000000 0.000000 -0.002653 0.000000 0.028779
#
#
# Mechanical properties :
#
#
# Convention : Reuss Voigt Hill
#
# Bulk Modulus (GPa) = 8.81343 29.24267 19.02805
# Shear Modulus (GPa) = 18.65204 31.22845 24.94025
#
# Velocity S-wave (km/s) = 2.87928 3.72560 3.32944
# Velocity P-wave (km/s) = 3.86923 5.61287 4.82054
#
# Compressibility (1/GPa) = 0.11346324
#
# Stress axis : x y z
#
# Youngs Moduli (GPa) = 65.50888 89.23589 10.14971
#
# Poissons Ratio (x) = 0.37512 -0.03166
# Poissons Ratio (y) = 0.27538 0.04753
# Poissons Ratio (z) = -0.20437 0.41785
#
# Static dielectric constant tensor:
#      x y z
#    x 4.281830 0.000000 0.168570 
#    y 0.000000 4.049660 0.000000 
#    z 0.168570 0.000000 3.823460 
# 
# 
# High freq. dielectric constant tensor:
#      x y z
#    x 1.895020 0.000000 0.017130 
#    y 0.000000 1.891780 0.000000 
#    z 0.017130 0.000000 1.877900 
# 
# From -- ./inp_files/64339.got.cif
#   From: 2010.06.25/outbox.cif.g09.slc.cpg/sg11_33_cif.got.tgz:64339.got - 2010.06.27 23:14:04.
