data_PCOD8070873
_publ_section_title
;
Structure prediction by ZEFSAII (Michael W. Deem and Ramdas Pophale) SiO2 
 PCOD8070873
Probable space group: P 21/M
;
_chemical_formula_sum "Si O2"
_cell_formula_units_Z 32
_cell_length_a 16.110025
_cell_length_b 8.906572
_cell_length_c 25.139845
_cell_angle_alpha 90.000000
_cell_angle_beta 151.538599
_cell_angle_gamma 90.000000
_cell_volume 1719.067797
_symmetry_space_group_name_H-M "P 21/M"
_symmetry_group_IT_number 11
_symmetry_cell_setting 'monoclinic'
loop_
_space_group_symop_operation_xyz
x,y,z
-x,1/2+y,-z
-x,-y,-z
x,1/2-y,z
loop_
_atom_site_type_symbol
_atom_site_label
_atom_site_fract_x
_atom_site_fract_y
_atom_site_fract_z
Si Si1 0.033276 0.575410 0.963538
Si Si2 0.726474 0.425688 0.341943
Si Si3 0.122865 0.914446 0.214895
Si Si4 0.610054 0.424137 0.897950
Si Si5 0.954426 0.574879 0.554454
Si Si6 0.220010 0.083985 0.911765
Si Si7 0.320545 0.078886 0.408277
Si Si8 0.992465 0.928545 0.697398
O O1 0.983030 0.750000 0.935992
O O2 0.225651 0.552380 0.048190
O O3 0.000000 0.500000 0.000000
O O4 0.894744 0.477085 0.853541
O O5 0.694492 0.250000 0.330854
O O6 0.549401 0.500239 0.222553
O O7 0.790299 0.490656 0.434943
O O8 0.871453 0.462377 0.379638
O O9 0.217337 0.750000 0.268180
O O10 0.938735 0.894548 0.138458
O O11 0.223415 0.050021 0.298885
O O12 0.569373 0.250000 0.883727
O O13 0.636753 0.493023 0.972631
O O14 0.908884 0.750000 0.528404
O O15 0.990145 0.519042 0.634810
O O16 0.293820 0.250000 0.938114
O O17 0.156205 0.000693 0.821645
O O18 0.360032 0.250000 0.441326
O O19 0.194161 0.016088 0.383891
O O20 0.500000 0.000000 0.500000
O O21 0.011957 0.750000 0.714728
#
# Coordination Sequence:
#
# PCOD8070873 Si02
#       8
#     4   4   4   4   4   4   4   4
#     4  10  20  34  52  75 102 136 174 215 260 311
#     4  10  20  35  57  82 107 138 178 224 271 318
#     4   9  17  31  50  70  96 132 169 208 255 309
#     4  10  20  35  55  78 106 141 178 215 263 323
#     4   9  19  37  58  79 106 141 179 220 270 324
#     4   9  17  30  52  79 105 133 168 214 259 306
#     4  10  19  32  50  73 101 136 174 215 261 311
#     4   9  18  34  55  77 103 138 177 216 263 322
#
# _framework density 18.614740000000001
#
# number of rings (size 3 to 8) (size 9 to 14) (size 15 to 20)
#    0.000    2.500    0.000    2.250    0.000    6.000 
#    2.250    0.625    0.000    0.000    0.000    0.000 
#    0.000    0.000    0.000    0.000    0.000    0.000 
#
# Total GULP energy -396472.265883 kJ/mol
# GULP energy per Si atom -12389.758309 kJ/mol
# Density = 1.857237 g / cm^3
# Si number density = 18.614740 Si / 1000 Ang^3
#
#
#
# Elastic Constant Matrix: (Units=GPa)
#
#
# Indices 1 2 3 4 5 6 
#
# 1 85.3131 35.7059 46.0509 0.0000 -33.2742 0.0000
# 2 35.7059 92.3563 45.8338 0.0000 -11.2218 0.0000
# 3 46.0509 45.8338 92.7161 0.0000 -26.9042 0.0000
# 4 0.0000 0.0000 0.0000 36.8258 0.0000 -3.5802
# 5 -33.2742 -11.2218 -26.9042 0.0000 33.5296 0.0000
# 6 0.0000 0.0000 0.0000 -3.5802 0.0000 24.7022
#
#
#
# Elastic Compliance Matrix: (Units=1/GPa)
#
#
# Indices 1 2 3 4 5 6 
#
# 1 0.022736 -0.004758 -0.003722 0.000000 0.017984 0.000000
# 2 -0.004758 0.015378 -0.006668 0.000000 -0.004925 0.000000
# 3 -0.003722 -0.006668 0.018524 0.000000 0.008938 0.000000
# 4 0.000000 0.000000 0.000000 0.027543 0.000000 0.003992
# 5 0.017984 -0.004925 0.008938 0.000000 0.053195 0.000000
# 6 0.000000 0.000000 0.000000 0.003992 0.000000 0.041061
#
#
# Mechanical properties :
#
#
# Convention : Reuss Voigt Hill
#
# Bulk Modulus (GPa) = 37.96161 58.39631 48.17896
# Shear Modulus (GPa) = 22.98704 28.53117 25.75910
#
# Velocity S-wave (km/s) = 3.51790 3.91924 3.72398
# Velocity P-wave (km/s) = 6.07770 7.20553 6.66551
#
# Compressibility (1/GPa) = 0.02634240
#
# Stress axis : x y z
#
# Youngs Moduli (GPa) = 43.98286 65.02925 53.98263
#
# Poissons Ratio (x) = 0.30938 0.20094
# Poissons Ratio (y) = 0.20925 0.35996
# Poissons Ratio (z) = 0.16372 0.43362
#
# Static dielectric constant tensor:
#      x y z
#    x 3.331220 0.000000 -0.154770 
#    y 0.000000 3.702370 0.000000 
#    z -0.154770 0.000000 3.298590 
# 
# 
# High freq. dielectric constant tensor:
#      x y z
#    x 1.703580 0.000000 -0.018620 
#    y 0.000000 1.733420 0.000000 
#    z -0.018620 0.000000 1.721620 
# 
# From -- ./inp_files/69087.got.cif
#   From: 2010.06.25/outbox.cif.g09.slc.cpg/sg11_35_cif.got.tgz:69087.got - 2010.06.27 23:14:04.
