data_PCOD8070311
_publ_section_title
;
Structure prediction by ZEFSAII (Michael W. Deem and Ramdas Pophale) SiO2 
 PCOD8070311
Probable space group: P 21/M
;
_chemical_formula_sum "Si O2"
_cell_formula_units_Z 32
_cell_length_a 19.829687
_cell_length_b 9.302150
_cell_length_c 24.717237
_cell_angle_alpha 90.000000
_cell_angle_beta 23.605942
_cell_angle_gamma 90.000000
_cell_volume 1825.748614
_symmetry_space_group_name_H-M "P 21/M"
_symmetry_group_IT_number 11
_symmetry_cell_setting 'monoclinic'
loop_
_space_group_symop_operation_xyz
x,y,z
-x,1/2+y,-z
-x,-y,-z
x,1/2-y,z
loop_
_atom_site_type_symbol
_atom_site_label
_atom_site_fract_x
_atom_site_fract_y
_atom_site_fract_z
Si Si1 0.332212 0.582130 0.638154
Si Si2 0.822850 0.420000 0.133078
Si Si3 0.004048 0.915296 0.817305
Si Si4 0.835575 0.083506 0.637243
Si Si5 0.503542 0.584909 0.168829
Si Si6 0.215588 0.915898 0.098178
Si Si7 0.709929 0.913567 0.117757
Si Si8 0.671649 0.084420 0.867864
O O1 0.500000 0.500000 0.500000
O O2 0.369969 0.750000 0.607417
O O3 0.270626 0.538946 0.743000
O O4 0.189598 0.538108 0.699609
O O5 0.853171 0.250000 0.105868
O O6 0.704443 0.476312 0.171603
O O7 0.000000 0.500000 0.000000
O O8 0.998860 0.750000 0.802999
O O9 0.949338 0.010121 0.806177
O O10 0.878796 0.940962 0.959400
O O11 0.882417 0.250000 0.605994
O O12 0.692466 0.053669 0.697304
O O13 0.772743 0.026565 0.741619
O O14 0.000000 0.000000 0.500000
O O15 0.549577 0.750000 0.120734
O O16 0.547770 0.554662 0.199124
O O17 0.612902 0.485732 0.049375
O O18 0.215690 0.750000 0.081153
O O19 0.209480 0.935950 0.167265
O O20 0.707310 0.750000 0.141557
O O21 0.622151 0.250000 0.895456
O O22 0.500000 0.000000 0.000000
#
# Coordination Sequence:
#
# PCOD8070311 Si02
#       8
#     4   4   4   4   4   4   4   4
#     4  10  22  39  56  78 108 143 182 220 265 320
#     4  11  21  35  55  81 110 139 177 223 267 315
#     4   9  18  35  54  75 109 145 174 214 266 319
#     4  10  21  37  55  77 107 146 182 219 268 320
#     4   9  18  34  54  75 107 145 177 215 267 319
#     4  10  19  30  51  84 110 132 174 226 267 312
#     4   9  17  32  54  80 107 136 175 224 266 311
#     4  10  20  34  54  80 109 138 177 225 268 314
#
# _framework density 17.527058
#
# number of rings (size 3 to 8) (size 9 to 14) (size 15 to 20)
#    0.000    2.250    2.500    1.500    0.000    5.000 
#    0.000    1.250    0.000    6.000    0.000    0.000 
#    0.000    0.000    0.000    0.000    0.000    0.000 
#
# Total GULP energy -396821.068869 kJ/mol
# GULP energy per Si atom -12400.658402 kJ/mol
# Density = 1.748717 g / cm^3
# Si number density = 17.527058 Si / 1000 Ang^3
#
#
#
# Elastic Constant Matrix: (Units=GPa)
#
#
# Indices 1 2 3 4 5 6 
#
# 1 136.7015 66.0504 74.9520 0.0000 -9.8662 0.0000
# 2 66.0504 82.9555 60.2264 0.0000 -2.3578 0.0000
# 3 74.9520 60.2264 127.0390 0.0000 -9.1979 0.0000
# 4 0.0000 0.0000 0.0000 32.4276 0.0000 -2.6609
# 5 -9.8662 -2.3578 -9.1979 0.0000 26.3657 0.0000
# 6 0.0000 0.0000 0.0000 -2.6609 0.0000 32.2666
#
#
#
# Elastic Compliance Matrix: (Units=1/GPa)
#
#
# Indices 1 2 3 4 5 6 
#
# 1 0.013485 -0.007672 -0.004107 0.000000 0.002927 0.000000
# 2 -0.007672 0.022799 -0.006507 0.000000 -0.003102 0.000000
# 3 -0.004107 -0.006507 0.013569 0.000000 0.002615 0.000000
# 4 0.000000 0.000000 0.000000 0.031048 0.000000 0.002560
# 5 0.002927 -0.003102 0.002615 0.000000 0.039658 0.000000
# 6 0.000000 0.000000 0.000000 0.002560 0.000000 0.031203
#
#
# Mechanical properties :
#
#
# Convention : Reuss Voigt Hill
#
# Bulk Modulus (GPa) = 75.29365 83.23932 79.26649
# Shear Modulus (GPa) = 25.93880 27.90980 26.92430
#
# Velocity S-wave (km/s) = 3.85116 3.99480 3.92363
# Velocity P-wave (km/s) = 7.92635 8.29897 8.11480
#
# Compressibility (1/GPa) = 0.01328133
#
# Stress axis : x y z
#
# Youngs Moduli (GPa) = 74.15430 43.86133 73.69927
#
# Poissons Ratio (x) = 0.33652 0.30269
# Poissons Ratio (y) = 0.56894 0.47953
# Poissons Ratio (z) = 0.30456 0.28539
#
# Static dielectric constant tensor:
#      x y z
#    x 3.693080 0.000000 -0.082670 
#    y 0.000000 3.271680 0.000000 
#    z -0.082670 0.000000 3.009270 
# 
# 
# High freq. dielectric constant tensor:
#      x y z
#    x 1.693120 0.000000 -0.012940 
#    y 0.000000 1.678640 0.000000 
#    z -0.012940 0.000000 1.648000 
# 
# From -- ./inp_files/71991.got.cif
#   From: 2010.06.25/outbox.cif.g09.slc.cpg/sg11_36_cif.got.tgz:71991.got - 2010.06.27 23:14:04.
