data_PCOD8070666
_publ_section_title
;
Structure prediction by ZEFSAII (Michael W. Deem and Ramdas Pophale) SiO2 
 PCOD8070666
Probable space group: P 21/M
;
_chemical_formula_sum "Si O2"
_cell_formula_units_Z 28
_cell_length_a 13.395871
_cell_length_b 8.866509
_cell_length_c 14.522439
_cell_angle_alpha 90.000000
_cell_angle_beta 123.047535
_cell_angle_gamma 90.000000
_cell_volume 1445.840478
_symmetry_space_group_name_H-M "P 21/M"
_symmetry_group_IT_number 11
_symmetry_cell_setting 'monoclinic'
loop_
_space_group_symop_operation_xyz
x,y,z
-x,1/2+y,-z
-x,-y,-z
x,1/2-y,z
loop_
_atom_site_type_symbol
_atom_site_label
_atom_site_fract_x
_atom_site_fract_y
_atom_site_fract_z
Si Si1 0.496224 0.427597 0.397982
Si Si2 0.805985 0.427769 0.249851
Si Si3 0.289482 0.579023 0.187340
Si Si4 0.721688 0.429135 0.397521
Si Si5 0.060563 0.922994 0.188640
Si Si6 0.813862 0.427214 0.051794
Si Si7 0.924210 0.928073 0.616559
O O1 0.500000 0.500000 0.500000
O O2 0.505124 0.250000 0.415260
O O3 0.375681 0.466569 0.284018
O O4 0.605852 0.491271 0.392197
O O5 0.805812 0.250000 0.252082
O O6 0.720643 0.485736 0.289788
O O7 0.763143 0.481312 0.126424
O O8 0.941088 0.482797 0.335037
O O9 0.335120 0.750000 0.225635
O O10 0.155038 0.560651 0.154504
O O11 0.284778 0.537882 0.076003
O O12 0.725282 0.250000 0.405454
O O13 0.841208 0.492557 0.501162
O O14 0.045184 0.750000 0.211409
O O15 0.112229 0.017886 0.300050
O O16 0.935318 0.986086 0.089744
O O17 0.845111 0.250000 0.069445
O O18 0.907765 0.750000 0.601409
#
# Coordination Sequence:
#
# PCOD8070666 Si02
#       7
#     4   4   4   4   4   4   4
#     4  11  24  39  56  76 101 134 173 214 256 301
#     4   8  16  32  53  76 104 134 166 205 253 305
#     4  10  21  36  54  76 105 139 173 208 253 302
#     4  10  20  35  53  74 101 135 172 213 258 302
#     4  10  19  31  50  78 109 139 168 206 254 303
#     4   9  18  34  55  79 105 135 169 207 251 303
#     4  10  19  31  51  79 106 136 170 207 254 308
#
# _framework density 19.365898000000001
#
# number of rings (size 3 to 8) (size 9 to 14) (size 15 to 20)
#    0.000    2.286    0.000    3.857    0.000    6.286 
#    0.000    3.571    0.000    0.000    0.000    0.000 
#    0.000    0.000    0.000    0.000    0.000    0.000 
#
# Total GULP energy -347108.914102 kJ/mol
# GULP energy per Si atom -12396.746932 kJ/mol
# Density = 1.932182 g / cm^3
# Si number density = 19.365898 Si / 1000 Ang^3
#
#
#
# Elastic Constant Matrix: (Units=GPa)
#
#
# Indices 1 2 3 4 5 6 
#
# 1 112.7241 32.3066 62.9950 0.0000 -24.4608 0.0000
# 2 32.3066 25.7849 19.0217 0.0000 -3.1317 0.0000
# 3 62.9950 19.0217 128.4182 0.0000 -19.3184 0.0000
# 4 0.0000 0.0000 0.0000 28.7773 0.0000 1.5504
# 5 -24.4608 -3.1317 -19.3184 0.0000 25.1043 0.0000
# 6 0.0000 0.0000 0.0000 1.5504 0.0000 20.8618
#
#
#
# Elastic Compliance Matrix: (Units=1/GPa)
#
#
# Indices 1 2 3 4 5 6 
#
# 1 0.020373 -0.020222 -0.004967 0.000000 0.013506 0.000000
# 2 -0.020222 0.063617 -0.001440 0.000000 -0.012876 0.000000
# 3 -0.004967 -0.001440 0.010949 0.000000 0.003407 0.000000
# 4 0.000000 0.000000 0.000000 0.034889 0.000000 -0.002593
# 5 0.013506 -0.012876 0.003407 0.000000 0.054009 0.000000
# 6 0.000000 0.000000 0.000000 -0.002593 0.000000 0.048127
#
#
# Mechanical properties :
#
#
# Convention : Reuss Voigt Hill
#
# Bulk Modulus (GPa) = 23.99120 55.06376 39.52748
# Shear Modulus (GPa) = 16.71581 25.12227 20.91904
#
# Velocity S-wave (km/s) = 2.94114 3.60563 3.29020
# Velocity P-wave (km/s) = 4.89377 6.76973 5.90670
#
# Compressibility (1/GPa) = 0.04168194
#
# Stress axis : x y z
#
# Youngs Moduli (GPa) = 49.08389 15.71895 91.32923
#
# Poissons Ratio (x) = 0.31786 0.45363
# Poissons Ratio (y) = 0.99256 0.13156
# Poissons Ratio (z) = 0.24380 0.02264
#
# Static dielectric constant tensor:
#      x y z
#    x 3.823780 0.000000 -0.409980 
#    y 0.000000 3.433840 0.000000 
#    z -0.409980 0.000000 3.649210 
# 
# 
# High freq. dielectric constant tensor:
#      x y z
#    x 1.745010 0.000000 -0.022670 
#    y 0.000000 1.739950 0.000000 
#    z -0.022670 0.000000 1.756580 
# 
# From -- ./inp_files/37895.got.cif
#   From: 2010.06.25/outbox.cif.g09.slc.cpg/sg11_19_cif.got.tgz:37895.got - 2010.06.27 23:14:04.
