data_PCOD8070169
_publ_section_title
;
Structure prediction by ZEFSAII (Michael W. Deem and Ramdas Pophale) SiO2 
 PCOD8070169
Probable space group: P 21/M
;
_chemical_formula_sum "Si O2"
_cell_formula_units_Z 32
_cell_length_a 12.023918
_cell_length_b 9.172376
_cell_length_c 20.283486
_cell_angle_alpha 90.000000
_cell_angle_beta 115.293292
_cell_angle_gamma 90.000000
_cell_volume 2022.565381
_symmetry_space_group_name_H-M "P 21/M"
_symmetry_group_IT_number 11
_symmetry_cell_setting 'monoclinic'
loop_
_space_group_symop_operation_xyz
x,y,z
-x,1/2+y,-z
-x,-y,-z
x,1/2-y,z
loop_
_atom_site_type_symbol
_atom_site_label
_atom_site_fract_x
_atom_site_fract_y
_atom_site_fract_z
Si Si1 0.176877 0.081450 0.500553
Si Si2 0.067739 0.082939 0.752386
Si Si3 0.785673 0.418945 0.698663
Si Si4 0.126185 0.078258 0.015538
Si Si5 0.819841 0.912469 0.830541
Si Si6 0.369462 0.575927 0.465636
Si Si7 0.111175 0.915920 0.886787
Si Si8 0.941867 0.916143 0.395401
O O1 0.198645 0.250000 0.487061
O O2 0.162790 0.061939 0.575930
O O3 0.291904 0.984119 0.507762
O O4 0.052984 0.027515 0.434012
O O5 0.083197 0.250000 0.778401
O O6 0.119339 0.055001 0.691717
O O7 0.924133 0.038962 0.714084
O O8 0.143175 0.984976 0.823580
O O9 0.767660 0.250000 0.703432
O O10 0.749159 0.486962 0.760270
O O11 0.696716 0.475320 0.618482
O O12 0.103079 0.250000 0.998624
O O13 0.215187 0.052218 0.101795
O O14 0.180902 0.005465 0.962781
O O15 0.000000 0.000000 0.000000
O O16 0.779386 0.750000 0.802447
O O17 0.966094 0.930570 0.860805
O O18 0.500000 0.500000 0.500000
O O19 0.381168 0.750000 0.473909
O O20 0.157290 0.750000 0.900141
O O21 0.994585 0.750000 0.411128
#
# Coordination Sequence:
#
# PCOD8070169 Si02
#       8
#     4   4   4   4   4   4   4   4
#     4  10  19  30  47  68  87 112 143 179 223 265
#     4   9  15  26  41  57  80 111 139 173 212 248
#     4   9  17  28  42  57  77 104 137 174 213 255
#     4   9  15  23  33  48  70 100 134 169 203 241
#     4   8  15  24  35  51  72  97 132 172 205 241
#     4  11  22  36  49  64  86 113 147 185 225 269
#     4   9  16  23  32  51  76 103 136 171 202 245
#     4   9  17  30  46  65  89 114 144 180 218 261
#
# _framework density 15.821491999999999
#
# number of rings (size 3 to 8) (size 9 to 14) (size 15 to 20)
#    0.000    2.750    1.250    2.250    0.000    5.500 
#    0.000    0.000    0.000    0.000    0.000    0.000 
#    0.000    0.000    0.000    1.125    0.000   13.375 
#
# Total GULP energy -396585.353303 kJ/mol
# GULP energy per Si atom -12393.292291 kJ/mol
# Density = 1.578548 g / cm^3
# Si number density = 15.821492 Si / 1000 Ang^3
#
#
#
# Elastic Constant Matrix: (Units=GPa)
#
#
# Indices 1 2 3 4 5 6 
#
# 1 49.5758 32.4944 37.7385 0.0000 -12.0415 0.0000
# 2 32.4944 85.8320 54.8385 0.0000 -16.2166 0.0000
# 3 37.7385 54.8385 111.2467 0.0000 -35.6453 0.0000
# 4 0.0000 0.0000 0.0000 29.5580 0.0000 -5.3274
# 5 -12.0415 -16.2166 -35.6453 0.0000 22.2231 0.0000
# 6 0.0000 0.0000 0.0000 -5.3274 0.0000 17.1504
#
#
#
# Elastic Compliance Matrix: (Units=1/GPa)
#
#
# Indices 1 2 3 4 5 6 
#
# 1 0.029864 -0.007073 -0.006405 0.000000 0.000747 0.000000
# 2 -0.007073 0.018731 -0.007576 0.000000 -0.002316 0.000000
# 3 -0.006405 -0.007576 0.024715 0.000000 0.030644 0.000000
# 4 0.000000 0.000000 0.000000 0.035838 0.000000 0.011132
# 5 0.000747 -0.002316 0.030644 0.000000 0.092865 0.000000
# 6 0.000000 0.000000 0.000000 0.011132 0.000000 0.061766
#
#
# Mechanical properties :
#
#
# Convention : Reuss Voigt Hill
#
# Bulk Modulus (GPa) = 32.04855 55.19972 43.62413
# Shear Modulus (GPa) = 15.80839 21.89183 18.85011
#
# Velocity S-wave (km/s) = 3.16440 3.72382 3.45545
# Velocity P-wave (km/s) = 5.80099 7.31122 6.59945
#
# Compressibility (1/GPa) = 0.03120266
#
# Stress axis : x y z
#
# Youngs Moduli (GPa) = 33.48510 53.38698 40.46087
#
# Poissons Ratio (x) = 0.37758 0.25915
# Poissons Ratio (y) = 0.23683 0.30654
# Poissons Ratio (z) = 0.21447 0.40447
#
# Static dielectric constant tensor:
#      x y z
#    x 2.610470 0.000000 -0.481660 
#    y 0.000000 3.126450 0.000000 
#    z -0.481660 0.000000 3.429470 
# 
# 
# High freq. dielectric constant tensor:
#      x y z
#    x 1.537220 0.000000 -0.043360 
#    y 0.000000 1.619990 0.000000 
#    z -0.043360 0.000000 1.610170 
# 
# From -- ./inp_files/64238.got.cif
#   From: 2010.06.25/outbox.cif.g09.slc.cpg/sg11_33_cif.got.tgz:64238.got - 2010.06.27 23:14:04.
