data_PCOD8070199
_publ_section_title
;
Structure prediction by ZEFSAII (Michael W. Deem and Ramdas Pophale) SiO2 
 PCOD8070199
Probable space group: P 21/M
;
_chemical_formula_sum "Si O2"
_cell_formula_units_Z 32
_cell_length_a 11.316904
_cell_length_b 9.305271
_cell_length_c 22.119490
_cell_angle_alpha 90.000000
_cell_angle_beta 130.582576
_cell_angle_gamma 90.000000
_cell_volume 1769.057380
_symmetry_space_group_name_H-M "P 21/M"
_symmetry_group_IT_number 11
_symmetry_cell_setting 'monoclinic'
loop_
_space_group_symop_operation_xyz
x,y,z
-x,1/2+y,-z
-x,-y,-z
x,1/2-y,z
loop_
_atom_site_type_symbol
_atom_site_label
_atom_site_fract_x
_atom_site_fract_y
_atom_site_fract_z
Si Si1 0.762265 0.417840 0.396703
Si Si2 0.132603 0.918028 0.199565
Si Si3 0.539129 0.080977 0.741402
Si Si4 0.028059 0.586395 0.423455
Si Si5 0.008071 0.085288 0.722133
Si Si6 0.705797 0.417317 0.143248
Si Si7 0.150591 0.913596 0.936633
Si Si8 0.567205 0.083771 0.890419
O O1 0.742141 0.250000 0.376218
O O2 0.598086 0.495542 0.336492
O O3 0.823987 0.447322 0.485202
O O4 0.884548 0.482212 0.389871
O O5 0.118505 0.750000 0.183313
O O6 0.302695 0.972354 0.237690
O O7 0.105444 0.960547 0.260811
O O8 0.003047 0.989420 0.113574
O O9 0.512069 0.250000 0.723137
O O10 0.547419 0.039854 0.814421
O O11 0.970807 0.750000 0.415262
O O12 0.080023 0.563494 0.371101
O O13 0.060951 0.250000 0.748404
O O14 0.161796 0.988720 0.771349
O O15 0.699134 0.250000 0.156363
O O16 0.741890 0.448464 0.085375
O O17 0.541254 0.486799 0.103975
O O18 0.093003 0.750000 0.915168
O O19 0.253978 0.944503 0.030454
O O20 0.523669 0.250000 0.886812
#
# Coordination Sequence:
#
# PCOD8070199 Si02
#       8
#     4   4   4   4   4   4   4   4
#     4  10  20  33  51  76 103 128 156 194 239 285
#     4   9  19  35  53  71  93 126 166 203 237 279
#     4  10  21  36  51  69  97 131 165 199 237 283
#     4   9  18  33  53  76 101 128 157 191 236 290
#     4   9  17  32  53  72  94 128 164 195 235 288
#     4  10  19  30  47  74 103 125 154 200 245 284
#     4   9  19  34  50  70  97 127 159 200 246 285
#     4  10  20  33  49  69  96 131 164 194 238 294
#
# _framework density 18.088728
#
# number of rings (size 3 to 8) (size 9 to 14) (size 15 to 20)
#    0.000    2.500    0.000    1.875    0.000    6.500 
#    0.000    0.625    0.000    0.000    0.000    0.000 
#    0.000    0.000    0.000    0.000    0.000    0.000 
#
# Total GULP energy -396841.022312 kJ/mol
# GULP energy per Si atom -12401.281947 kJ/mol
# Density = 1.804756 g / cm^3
# Si number density = 18.088728 Si / 1000 Ang^3
#
#
#
# Elastic Constant Matrix: (Units=GPa)
#
#
# Indices 1 2 3 4 5 6 
#
# 1 82.2241 43.5540 48.5641 0.0000 24.7529 0.0000
# 2 43.5540 68.2969 45.7228 0.0000 14.2643 0.0000
# 3 48.5641 45.7228 110.4567 0.0000 14.6456 0.0000
# 4 0.0000 0.0000 0.0000 31.2977 0.0000 6.9386
# 5 24.7529 14.2643 14.6456 0.0000 23.9175 0.0000
# 6 0.0000 0.0000 0.0000 6.9386 0.0000 22.5492
#
#
#
# Elastic Compliance Matrix: (Units=1/GPa)
#
#
# Indices 1 2 3 4 5 6 
#
# 1 0.025222 -0.009050 -0.005004 0.000000 -0.017641 0.000000
# 2 -0.009050 0.024841 -0.006075 0.000000 -0.001729 0.000000
# 3 -0.005004 -0.006075 0.013714 0.000000 0.000404 0.000000
# 4 0.000000 0.000000 0.000000 0.034290 0.000000 -0.010552
# 5 -0.017641 -0.001729 0.000404 0.000000 0.060852 0.000000
# 6 0.000000 0.000000 0.000000 -0.010552 0.000000 0.047594
#
#
# Mechanical properties :
#
#
# Convention : Reuss Voigt Hill
#
# Bulk Modulus (GPa) = 42.51599 59.62884 51.07241
# Shear Modulus (GPa) = 19.63778 23.76201 21.69990
#
# Velocity S-wave (km/s) = 3.29847 3.62834 3.46733
# Velocity P-wave (km/s) = 6.16942 7.11262 6.65774
#
# Compressibility (1/GPa) = 0.02352056
#
# Stress axis : x y z
#
# Youngs Moduli (GPa) = 39.64812 40.25580 72.91593
#
# Poissons Ratio (x) = 0.36431 0.36487
# Poissons Ratio (y) = 0.35881 0.44293
# Poissons Ratio (z) = 0.19840 0.24454
#
# Static dielectric constant tensor:
#      x y z
#    x 3.243270 0.000000 -0.087810 
#    y 0.000000 3.353460 0.000000 
#    z -0.087810 0.000000 3.406300 
# 
# 
# High freq. dielectric constant tensor:
#      x y z
#    x 1.685080 0.000000 -0.006400 
#    y 0.000000 1.700530 0.000000 
#    z -0.006400 0.000000 1.704390 
# 
# From -- ./inp_files/68320.got.cif
#   From: 2010.06.25/outbox.cif.g09.slc.cpg/sg11_35_cif.got.tgz:68320.got - 2010.06.27 23:14:04.
