data_PCOD8070295
_publ_section_title
;
Structure prediction by ZEFSAII (Michael W. Deem and Ramdas Pophale) SiO2 
 PCOD8070295
Probable space group: P 21/M
;
_chemical_formula_sum "Si O2"
_cell_formula_units_Z 32
_cell_length_a 26.005184
_cell_length_b 9.020459
_cell_length_c 20.127131
_cell_angle_alpha 90.000000
_cell_angle_beta 21.427935
_cell_angle_gamma 90.000000
_cell_volume 1724.870885
_symmetry_space_group_name_H-M "P 21/M"
_symmetry_group_IT_number 11
_symmetry_cell_setting 'monoclinic'
loop_
_space_group_symop_operation_xyz
x,y,z
-x,1/2+y,-z
-x,-y,-z
x,1/2-y,z
loop_
_atom_site_type_symbol
_atom_site_label
_atom_site_fract_x
_atom_site_fract_y
_atom_site_fract_z
Si Si1 0.354204 0.574556 0.694106
Si Si2 0.587874 0.077122 0.990614
Si Si3 0.400395 0.077259 0.891359
Si Si4 0.291546 0.573635 0.515811
Si Si5 0.315224 0.922208 0.267406
Si Si6 0.906571 0.075557 0.362037
Si Si7 0.777939 0.575742 0.022088
Si Si8 0.849262 0.075293 0.180141
O O1 0.500000 0.500000 0.500000
O O2 0.375502 0.750000 0.670293
O O3 0.309380 0.515278 0.819400
O O4 0.234772 0.528771 0.784745
O O5 0.576067 0.250000 0.017713
O O6 0.653091 0.001705 0.977312
O O7 0.432864 0.015735 0.163485
O O8 0.688783 0.040997 0.806221
O O9 0.412474 0.250000 0.892209
O O10 0.551838 0.012770 0.686402
O O11 0.286921 0.043221 0.971607
O O12 0.294183 0.750000 0.510640
O O13 0.185885 0.509254 0.587040
O O14 0.240566 0.517551 0.648937
O O15 0.352116 0.750000 0.235122
O O16 0.165528 0.963852 0.480460
O O17 0.917585 0.250000 0.340097
O O18 0.063688 0.010918 0.170201
O O19 0.770382 0.750000 0.048696
O O20 0.872702 0.250000 0.155984
O O21 0.000000 0.000000 0.000000
#
# Coordination Sequence:
#
# PCOD8070295 Si02
#       8
#     4   4   4   4   4   4   4   4
#     4  11  23  39  58  81 113 149 186 229 277 330
#     4  10  19  30  50  80 109 137 176 225 268 313
#     4  10  19  34  54  76 104 138 177 222 266 318
#     4   9  16  29  52  74  96 131 174 214 254 310
#     4   9  17  32  53  77 107 142 178 216 266 322
#     4   9  16  30  54  79 102 136 180 220 262 318
#     4  10  21  36  57  81 105 139 185 227 268 324
#     4  10  21  36  55  81 109 139 178 225 276 327
#
# _framework density 18.552112999999999
#
# number of rings (size 3 to 8) (size 9 to 14) (size 15 to 20)
#    0.000    2.250    1.250    2.250    0.000    5.000 
#    0.000    1.875    0.000    0.000    0.000    0.000 
#    0.000    0.000    0.000    0.000    0.000    0.000 
#
# Total GULP energy -396807.811160 kJ/mol
# GULP energy per Si atom -12400.244099 kJ/mol
# Density = 1.850989 g / cm^3
# Si number density = 18.552113 Si / 1000 Ang^3
#
#
#
# Elastic Constant Matrix: (Units=GPa)
#
#
# Indices 1 2 3 4 5 6 
#
# 1 108.5933 41.9914 34.8960 0.0000 8.7221 0.0000
# 2 41.9914 47.0028 29.1630 0.0000 2.4647 0.0000
# 3 34.8960 29.1630 86.3361 0.0000 2.9894 0.0000
# 4 0.0000 0.0000 0.0000 22.8746 0.0000 4.7369
# 5 8.7221 2.4647 2.9894 0.0000 37.3360 0.0000
# 6 0.0000 0.0000 0.0000 4.7369 0.0000 25.2388
#
#
#
# Elastic Compliance Matrix: (Units=1/GPa)
#
#
# Indices 1 2 3 4 5 6 
#
# 1 0.014523 -0.011710 -0.001829 0.000000 -0.002473 0.000000
# 2 -0.011710 0.036400 -0.007595 0.000000 0.000941 0.000000
# 3 -0.001829 -0.007595 0.014896 0.000000 -0.000264 0.000000
# 4 0.000000 0.000000 0.000000 0.045484 0.000000 -0.008537
# 5 -0.002473 0.000941 -0.000264 0.000000 0.027321 0.000000
# 6 0.000000 0.000000 0.000000 -0.008537 0.000000 0.041224
#
#
# Mechanical properties :
#
#
# Convention : Reuss Voigt Hill
#
# Bulk Modulus (GPa) = 42.45993 50.44811 46.45402
# Shear Modulus (GPa) = 21.74226 26.14867 23.94546
#
# Velocity S-wave (km/s) = 3.42710 3.75837 3.59655
# Velocity P-wave (km/s) = 6.21261 6.78862 6.50699
#
# Compressibility (1/GPa) = 0.02355161
#
# Stress axis : x y z
#
# Youngs Moduli (GPa) = 68.85512 27.47257 67.13041
#
# Poissons Ratio (x) = 0.32171 0.12277
# Poissons Ratio (y) = 0.80632 0.50984
# Poissons Ratio (z) = 0.12593 0.20865
#
# Static dielectric constant tensor:
#      x y z
#    x 3.727280 0.000000 0.218290 
#    y 0.000000 3.188960 0.000000 
#    z 0.218290 0.000000 3.639770 
# 
# 
# High freq. dielectric constant tensor:
#      x y z
#    x 1.728600 0.000000 0.012250 
#    y 0.000000 1.690100 0.000000 
#    z 0.012250 0.000000 1.722140 
# 
# From -- ./inp_files/66942.got.cif
#   From: 2010.06.25/outbox.cif.g09.slc.cpg/sg11_34_cif.got.tgz:66942.got - 2010.06.27 23:14:04.
