data_PCOD8070051
_publ_section_title
;
Structure prediction by ZEFSAII (Michael W. Deem and Ramdas Pophale) SiO2 
 PCOD8070051
Probable space group: P 21/M
;
_chemical_formula_sum "Si O2"
_cell_formula_units_Z 32
_cell_length_a 20.133589
_cell_length_b 8.581118
_cell_length_c 12.297661
_cell_angle_alpha 90.000000
_cell_angle_beta 54.862206
_cell_angle_gamma 90.000000
_cell_volume 1737.476328
_symmetry_space_group_name_H-M "P 21/M"
_symmetry_group_IT_number 11
_symmetry_cell_setting 'monoclinic'
loop_
_space_group_symop_operation_xyz
x,y,z
-x,1/2+y,-z
-x,-y,-z
x,1/2-y,z
loop_
_atom_site_type_symbol
_atom_site_label
_atom_site_fract_x
_atom_site_fract_y
_atom_site_fract_z
Si Si1 0.707010 0.068541 0.080849
Si Si2 0.782214 0.066728 0.601134
Si Si3 0.385531 0.070434 0.195018
Si Si4 0.131362 0.567236 0.695375
Si Si5 0.825339 0.930970 0.122306
Si Si6 0.436913 0.569686 0.924789
Si Si7 0.167664 0.933131 0.215912
Si Si8 0.042895 0.931993 0.158932
O O1 0.723725 0.250000 0.088206
O O2 0.612470 0.036667 0.140554
O O3 0.735799 0.971984 0.159269
O O4 0.759199 0.007401 0.928837
O O5 0.793482 0.250000 0.591327
O O6 0.828855 0.999478 0.452487
O O7 0.822796 0.992621 0.672551
O O8 0.686914 0.028274 0.684513
O O9 0.362460 0.250000 0.228808
O O10 0.468382 0.029270 0.182758
O O11 0.398770 0.033095 0.056174
O O12 0.147161 0.750000 0.695367
O O13 0.174289 0.474855 0.751973
O O14 0.035589 0.536646 0.783904
O O15 0.844640 0.750000 0.088629
O O16 0.893169 0.031949 0.996417
O O17 0.426551 0.750000 0.969481
O O18 0.176400 0.750000 0.219354
O O19 0.081975 0.975978 0.239636
O O20 0.020134 0.750000 0.173820
#
# Coordination Sequence:
#
# PCOD8070051 Si02
#       8
#     4   4   4   4   4   4   4   4
#     4   9  16  31  55  77 104 137 171 210 257 310
#     4  10  20  36  54  72 104 146 178 208 253 314
#     4  10  19  29  48  80 111 139 173 212 250 300
#     4  11  23  37  54  75 100 137 182 217 256 310
#     4  11  22  36  55  78 105 131 169 222 267 306
#     4   9  17  31  51  76 109 143 171 206 257 307
#     4   8  15  30  52  75 100 135 168 200 252 309
#     4  10  20  36  57  78 103 133 169 215 265 311
#
# _framework density 18.417518000000001
#
# number of rings (size 3 to 8) (size 9 to 14) (size 15 to 20)
#    0.000    2.250    1.250    3.375    0.000    2.500 
#    0.000    0.625    0.000    0.750    0.000    0.000 
#    0.000    0.000    0.000    0.000    0.000    0.000 
#
# Total GULP energy -396732.356653 kJ/mol
# GULP energy per Si atom -12397.886145 kJ/mol
# Density = 1.837560 g / cm^3
# Si number density = 18.417518 Si / 1000 Ang^3
#
#
#
# Elastic Constant Matrix: (Units=GPa)
#
#
# Indices 1 2 3 4 5 6 
#
# 1 141.0300 23.0393 41.9856 0.0000 18.4612 0.0000
# 2 23.0393 35.7548 14.1567 0.0000 5.5257 0.0000
# 3 41.9856 14.1567 59.9363 0.0000 21.9149 0.0000
# 4 0.0000 0.0000 0.0000 18.7624 0.0000 -2.9545
# 5 18.4612 5.5257 21.9149 0.0000 20.9351 0.0000
# 6 0.0000 0.0000 0.0000 -2.9545 0.0000 28.7264
#
#
#
# Elastic Compliance Matrix: (Units=1/GPa)
#
#
# Indices 1 2 3 4 5 6 
#
# 1 0.009468 -0.003810 -0.004937 0.000000 -0.002175 0.000000
# 2 -0.003810 0.032396 -0.004998 0.000000 0.000041 0.000000
# 3 -0.004937 -0.004998 0.031185 0.000000 -0.026972 0.000000
# 4 0.000000 0.000000 0.000000 0.054176 0.000000 0.005572
# 5 -0.002175 0.000041 -0.026972 0.000000 0.077908 0.000000
# 6 0.000000 0.000000 0.000000 0.005572 0.000000 0.035384
#
#
# Mechanical properties :
#
#
# Convention : Reuss Voigt Hill
#
# Bulk Modulus (GPa) = 21.94938 43.89827 32.92383
# Shear Modulus (GPa) = 17.65588 24.18741 20.92165
#
# Velocity S-wave (km/s) = 3.09956 3.62786 3.37406
# Velocity P-wave (km/s) = 4.97526 6.43702 5.75276
#
# Compressibility (1/GPa) = 0.04555937
#
# Stress axis : x y z
#
# Youngs Moduli (GPa) = 105.62398 30.86823 32.06673
#
# Poissons Ratio (x) = 0.11760 0.15831
# Poissons Ratio (y) = 0.40240 0.16027
# Poissons Ratio (z) = 0.52145 0.15428
#
# Static dielectric constant tensor:
#      x y z
#    x 3.762910 0.000000 0.120370 
#    y 0.000000 3.214100 0.000000 
#    z 0.120370 0.000000 3.236590 
# 
# 
# High freq. dielectric constant tensor:
#      x y z
#    x 1.730830 0.000000 0.002390 
#    y 0.000000 1.702790 0.000000 
#    z 0.002390 0.000000 1.673860 
# 
# From -- ./inp_files/42783.got.cif
#   From: 2010.06.25/outbox.cif.g09.slc.cpg/sg11_22_cif.got.tgz:42783.got - 2010.06.27 23:14:04.
