data_PCOD8070214
_publ_section_title
;
Structure prediction by ZEFSAII (Michael W. Deem and Ramdas Pophale) SiO2 
 PCOD8070214
Probable space group: P 21/M
;
_chemical_formula_sum "Si O2"
_cell_formula_units_Z 32
_cell_length_a 15.688098
_cell_length_b 8.820307
_cell_length_c 21.232883
_cell_angle_alpha 90.000000
_cell_angle_beta 41.670404
_cell_angle_gamma 90.000000
_cell_volume 1953.363651
_symmetry_space_group_name_H-M "P 21/M"
_symmetry_group_IT_number 11
_symmetry_cell_setting 'monoclinic'
loop_
_space_group_symop_operation_xyz
x,y,z
-x,1/2+y,-z
-x,-y,-z
x,1/2-y,z
loop_
_atom_site_type_symbol
_atom_site_label
_atom_site_fract_x
_atom_site_fract_y
_atom_site_fract_z
Si Si1 0.723933 0.927499 0.090417
Si Si2 0.559966 0.428155 0.787355
Si Si3 0.604854 0.571817 0.897300
Si Si4 0.202732 0.074487 0.391082
Si Si5 0.101149 0.075661 0.900279
Si Si6 0.891490 0.927621 0.775875
Si Si7 0.932697 0.071674 0.885291
Si Si8 0.018484 0.573679 0.394530
O O1 0.742016 0.750000 0.064068
O O2 0.578036 0.978933 0.162253
O O3 0.759783 0.959736 0.145012
O O4 0.811674 0.023732 0.994727
O O5 0.567479 0.250000 0.793972
O O6 0.589673 0.510109 0.835922
O O7 0.665215 0.480556 0.677949
O O8 0.584385 0.750000 0.908134
O O9 0.743753 0.526847 0.847278
O O10 0.500000 0.500000 0.000000
O O11 0.235661 0.250000 0.363931
O O12 0.122576 0.044055 0.498891
O O13 0.123148 0.022769 0.374197
O O14 0.069799 0.250000 0.922420
O O15 0.068394 0.029161 0.846083
O O16 0.000000 0.000000 0.000000
O O17 0.913690 0.750000 0.754475
O O18 0.935190 0.976187 0.820624
O O19 0.981414 0.017607 0.677227
O O20 0.921697 0.250000 0.876198
O O21 0.055400 0.750000 0.379109
#
# Coordination Sequence:
#
# PCOD8070214 Si02
#       8
#     4   4   4   4   4   4   4   4
#     4   9  18  32  48  69  98 129 162 198 238 281
#     4  11  21  32  49  71  95 128 164 196 234 282
#     4  11  23  35  46  63  93 131 166 197 233 277
#     4  10  20  34  51  72  96 122 154 198 245 283
#     4   8  15  29  47  67  93 123 157 199 240 280
#     4  11  22  34  48  68  96 129 161 196 240 282
#     4  10  19  30  48  72  96 127 164 199 239 283
#     4  10  20  34  53  72  92 121 159 199 239 285
#
# _framework density 16.381997999999999
#
# number of rings (size 3 to 8) (size 9 to 14) (size 15 to 20)
#    0.000    2.000    1.250    3.000    0.000    7.500 
#    0.000    0.000    0.000    0.000    0.000    0.875 
#    0.000    0.000    0.000    0.000    0.000    0.000 
#
# Total GULP energy -396640.185739 kJ/mol
# GULP energy per Si atom -12395.005804 kJ/mol
# Density = 1.634471 g / cm^3
# Si number density = 16.381998 Si / 1000 Ang^3
#
#
#
# Elastic Constant Matrix: (Units=GPa)
#
#
# Indices 1 2 3 4 5 6 
#
# 1 111.3019 32.5135 42.0905 0.0000 12.2592 0.0000
# 2 32.5135 43.2287 28.4664 0.0000 1.3431 0.0000
# 3 42.0905 28.4664 86.5010 0.0000 8.8961 0.0000
# 4 0.0000 0.0000 0.0000 27.7739 0.0000 2.5814
# 5 12.2592 1.3431 8.8961 0.0000 10.7081 0.0000
# 6 0.0000 0.0000 0.0000 2.5814 0.0000 18.7617
#
#
#
# Elastic Compliance Matrix: (Units=1/GPa)
#
#
# Indices 1 2 3 4 5 6 
#
# 1 0.013781 -0.008180 -0.002730 0.000000 -0.012484 0.000000
# 2 -0.008180 0.034613 -0.008668 0.000000 0.012224 0.000000
# 3 -0.002730 -0.008668 0.016738 0.000000 -0.009693 0.000000
# 4 0.000000 0.000000 0.000000 0.036471 0.000000 -0.005018
# 5 -0.012484 0.012224 -0.009693 0.000000 0.114199 0.000000
# 6 0.000000 0.000000 0.000000 -0.005018 0.000000 0.053990
#
#
# Mechanical properties :
#
#
# Convention : Reuss Voigt Hill
#
# Bulk Modulus (GPa) = 38.49486 49.68582 44.09034
# Shear Modulus (GPa) = 15.74270 20.64615 18.19442
#
# Velocity S-wave (km/s) = 3.10332 3.55391 3.33623
# Velocity P-wave (km/s) = 6.03242 6.87283 6.46629
#
# Compressibility (1/GPa) = 0.02597749
#
# Stress axis : x y z
#
# Youngs Moduli (GPa) = 72.56109 28.89098 59.74298
#
# Poissons Ratio (x) = 0.23632 0.16311
# Poissons Ratio (y) = 0.59353 0.51783
# Poissons Ratio (z) = 0.19811 0.25042
#
# Static dielectric constant tensor:
#      x y z
#    x 3.520760 0.000000 -0.083910 
#    y 0.000000 3.166150 0.000000 
#    z -0.083910 0.000000 3.058330 
# 
# 
# High freq. dielectric constant tensor:
#      x y z
#    x 1.625220 0.000000 0.002100 
#    y 0.000000 1.646430 0.000000 
#    z 0.002100 0.000000 1.608070 
# 
# From -- ./inp_files/51321.got.cif
#   From: 2010.06.25/outbox.cif.g09.slc.cpg/sg11_26_cif.got.tgz:51321.got - 2010.06.27 23:14:04.
