data_PCOD8070418
_publ_section_title
;
Structure prediction by ZEFSAII (Michael W. Deem and Ramdas Pophale) SiO2 
 PCOD8070418
Probable space group: P 21/M
;
_chemical_formula_sum "Si O2"
_cell_formula_units_Z 32
_cell_length_a 13.823666
_cell_length_b 8.777140
_cell_length_c 20.439850
_cell_angle_alpha 90.000000
_cell_angle_beta 135.089427
_cell_angle_gamma 90.000000
_cell_volume 1750.894830
_symmetry_space_group_name_H-M "P 21/M"
_symmetry_group_IT_number 11
_symmetry_cell_setting 'monoclinic'
loop_
_space_group_symop_operation_xyz
x,y,z
-x,1/2+y,-z
-x,-y,-z
x,1/2-y,z
loop_
_atom_site_type_symbol
_atom_site_label
_atom_site_fract_x
_atom_site_fract_y
_atom_site_fract_z
Si Si1 0.928967 0.931120 0.403151
Si Si2 0.926506 0.428186 0.272066
Si Si3 0.638442 0.925972 0.105014
Si Si4 0.890609 0.427129 0.899005
Si Si5 0.640153 0.573453 0.842928
Si Si6 0.617138 0.925539 0.241639
Si Si7 0.316203 0.920435 0.002627
Si Si8 0.997000 0.582410 0.827292
O O1 0.945772 0.750000 0.409042
O O2 0.770178 0.984390 0.326740
O O3 0.998177 0.008657 0.372455
O O4 0.000000 0.000000 0.500000
O O5 0.885649 0.250000 0.259122
O O6 0.793549 0.532091 0.197003
O O7 0.036234 0.451051 0.265128
O O8 0.634059 0.750000 0.081431
O O9 0.561352 0.951493 0.139066
O O10 0.593066 0.028925 0.018939
O O11 0.893320 0.250000 0.914247
O O12 0.738715 0.488029 0.839476
O O13 0.929245 0.459114 0.842293
O O14 0.000000 0.500000 0.000000
O O15 0.652515 0.750000 0.834257
O O16 0.483625 0.517623 0.758337
O O17 0.683410 0.537783 0.937656
O O18 0.609450 0.750000 0.256826
O O19 0.362443 0.750000 0.046097
O O20 0.160688 0.919407 0.905143
O O21 0.943890 0.750000 0.823362
#
# Coordination Sequence:
#
# PCOD8070418 Si02
#       8
#     4   4   4   4   4   4   4   4
#     4  10  20  35  58  85 112 139 169 206 252 310
#     4   9  17  30  50  76 107 137 168 209 256 305
#     4   9  17  30  48  69  97 132 172 212 252 303
#     4  12  23  35  52  72  99 135 179 227 268 309
#     4  12  24  35  50  70  96 133 177 222 264 308
#     4   9  20  37  52  71 102 136 168 209 256 306
#     4  10  19  31  48  68  96 133 173 218 260 302
#     4   9  18  32  50  72 100 135 175 220 264 302
#
# _framework density 18.27637
#
# number of rings (size 3 to 8) (size 9 to 14) (size 15 to 20)
#    0.000    2.000    1.250    5.250    0.000    6.000 
#    0.000    0.000    0.000    0.000    0.000    0.875 
#    0.000    0.000    0.000    0.000    0.000    0.000 
#
# Total GULP energy -396736.560420 kJ/mol
# GULP energy per Si atom -12398.017513 kJ/mol
# Density = 1.823477 g / cm^3
# Si number density = 18.276370 Si / 1000 Ang^3
#
#
#
# Elastic Constant Matrix: (Units=GPa)
#
#
# Indices 1 2 3 4 5 6 
#
# 1 124.4391 51.6260 31.0587 0.0000 -7.0847 0.0000
# 2 51.6260 118.1316 27.1612 0.0000 -2.3019 0.0000
# 3 31.0587 27.1612 73.5518 0.0000 -11.6407 0.0000
# 4 0.0000 0.0000 0.0000 24.8922 0.0000 -2.3119
# 5 -7.0847 -2.3019 -11.6407 0.0000 20.0230 0.0000
# 6 0.0000 0.0000 0.0000 -2.3119 0.0000 32.4352
#
#
#
# Elastic Compliance Matrix: (Units=1/GPa)
#
#
# Indices 1 2 3 4 5 6 
#
# 1 0.010423 -0.003903 -0.002696 0.000000 0.001672 0.000000
# 2 -0.003903 0.010731 -0.002575 0.000000 -0.001644 0.000000
# 3 -0.002696 -0.002575 0.017057 0.000000 0.008666 0.000000
# 4 0.000000 0.000000 0.000000 0.040441 0.000000 0.002883
# 5 0.001672 -0.001644 0.008666 0.000000 0.055383 0.000000
# 6 0.000000 0.000000 0.000000 0.002883 0.000000 0.031036
#
#
# Mechanical properties :
#
#
# Convention : Reuss Voigt Hill
#
# Bulk Modulus (GPa) = 50.34200 59.53494 54.93847
# Shear Modulus (GPa) = 26.31044 29.22185 27.76615
#
# Velocity S-wave (km/s) = 3.79831 4.00295 3.90197
# Velocity P-wave (km/s) = 6.84404 7.34917 7.10110
#
# Compressibility (1/GPa) = 0.01986413
#
# Stress axis : x y z
#
# Youngs Moduli (GPa) = 95.93985 93.19039 58.62864
#
# Poissons Ratio (x) = 0.36370 0.15803
# Poissons Ratio (y) = 0.37444 0.15096
# Poissons Ratio (z) = 0.25861 0.23995
#
# Static dielectric constant tensor:
#      x y z
#    x 3.616040 0.000000 -0.108910 
#    y 0.000000 3.433320 0.000000 
#    z -0.108910 0.000000 3.198340 
# 
# 
# High freq. dielectric constant tensor:
#      x y z
#    x 1.714070 0.000000 -0.004310 
#    y 0.000000 1.718360 0.000000 
#    z -0.004310 0.000000 1.667570 
# 
# From -- ./inp_files/64429.got.cif
#   From: 2010.06.25/outbox.cif.g09.slc.cpg/sg11_33_cif.got.tgz:64429.got - 2010.06.27 23:14:04.
