data_PCOD8070012
_publ_section_title
;
Structure prediction by ZEFSAII (Michael W. Deem and Ramdas Pophale) SiO2 
 PCOD8070012
Probable space group: P 21/M
;
_chemical_formula_sum "Si O2"
_cell_formula_units_Z 32
_cell_length_a 23.518825
_cell_length_b 9.066312
_cell_length_c 29.641155
_cell_angle_alpha 90.000000
_cell_angle_beta 16.241318
_cell_angle_gamma 90.000000
_cell_volume 1767.698948
_symmetry_space_group_name_H-M "P 21/M"
_symmetry_group_IT_number 11
_symmetry_cell_setting 'monoclinic'
loop_
_space_group_symop_operation_xyz
x,y,z
-x,1/2+y,-z
-x,-y,-z
x,1/2-y,z
loop_
_atom_site_type_symbol
_atom_site_label
_atom_site_fract_x
_atom_site_fract_y
_atom_site_fract_z
Si Si1 0.072840 0.581624 0.587980
Si Si2 0.080531 0.578072 0.894392
Si Si3 0.131704 0.583356 0.646377
Si Si4 0.514461 0.420239 0.770469
Si Si5 0.320206 0.421684 0.011638
Si Si6 0.518784 0.081022 0.367375
Si Si7 0.746122 0.424392 0.103986
Si Si8 0.340200 0.925292 0.089072
O O1 0.999432 0.750000 0.636539
O O2 0.163406 0.561578 0.568855
O O3 0.251264 0.538041 0.417363
O O4 0.884268 0.473147 0.723812
O O5 0.023557 0.750000 0.938813
O O6 0.326118 0.557059 0.708604
O O7 0.000000 0.500000 0.000000
O O8 0.970758 0.500301 0.935381
O O9 0.160632 0.750000 0.639544
O O10 0.305445 0.496243 0.540856
O O11 0.905861 0.528694 0.831973
O O12 0.472344 0.250000 0.789540
O O13 0.363516 0.523415 0.857681
O O14 0.477610 0.448518 0.851426
O O15 0.312037 0.250000 0.032989
O O16 0.389327 0.519339 0.001198
O O17 0.466676 0.250000 0.399933
O O18 0.617267 0.021784 0.245621
O O19 0.775559 0.250000 0.080597
O O20 0.359017 0.750000 0.076906
O O21 0.500000 0.000000 0.000000
#
# Coordination Sequence:
#
# PCOD8070012 Si02
#       8
#     4   4   4   4   4   4   4   4
#     4   9  18  33  54  82 108 136 175 213 255 306
#     4   9  17  28  41  63  95 131 172 219 270 319
#     4   9  16  28  48  73 101 131 169 214 257 307
#     4  10  19  34  56  78 107 143 173 213 264 310
#     4   9  20  37  55  80 110 139 175 213 255 310
#     4   9  17  27  42  67  97 129 169 219 264 307
#     4  10  19  29  44  70 103 135 171 217 265 317
#     4  11  22  38  61  84 109 142 174 211 253 298
#
# _framework density 18.102630000000001
#
# number of rings (size 3 to 8) (size 9 to 14) (size 15 to 20)
#    0.000    2.500    1.250    3.375    0.000    5.500 
#    0.000    0.625    0.000    0.750    0.000    0.000 
#    0.000    0.000    0.000    0.000    0.000    0.000 
#
# Total GULP energy -396692.885873 kJ/mol
# GULP energy per Si atom -12396.652684 kJ/mol
# Density = 1.806143 g / cm^3
# Si number density = 18.102630 Si / 1000 Ang^3
#
#
#
# Elastic Constant Matrix: (Units=GPa)
#
#
# Indices 1 2 3 4 5 6 
#
# 1 72.6358 47.2256 49.8564 0.0000 -12.3033 0.0000
# 2 47.2256 95.8284 39.0924 0.0000 -14.4812 0.0000
# 3 49.8564 39.0924 90.8148 0.0000 0.5837 0.0000
# 4 0.0000 0.0000 0.0000 27.9728 0.0000 -8.7270
# 5 -12.3033 -14.4812 0.5837 0.0000 30.8015 0.0000
# 6 0.0000 0.0000 0.0000 -8.7270 0.0000 27.8378
#
#
#
# Elastic Compliance Matrix: (Units=1/GPa)
#
#
# Indices 1 2 3 4 5 6 
#
# 1 0.028832 -0.007904 -0.012478 0.000000 0.008037 0.000000
# 2 -0.007904 0.016065 -0.002605 0.000000 0.004445 0.000000
# 3 -0.012478 -0.002605 0.019025 0.000000 -0.006569 0.000000
# 4 0.000000 0.000000 0.000000 0.039624 0.000000 0.012422
# 5 0.008037 0.004445 -0.006569 0.000000 0.037891 0.000000
# 6 0.000000 0.000000 0.000000 0.012422 0.000000 0.039817
#
#
# Mechanical properties :
#
#
# Convention : Reuss Voigt Hill
#
# Bulk Modulus (GPa) = 55.71347 59.06975 57.39161
# Shear Modulus (GPa) = 21.43988 25.52939 23.48463
#
# Velocity S-wave (km/s) = 3.44517 3.75942 3.60572
# Velocity P-wave (km/s) = 6.83146 7.17953 7.00766
#
# Compressibility (1/GPa) = 0.01794898
#
# Stress axis : x y z
#
# Youngs Moduli (GPa) = 34.68314 62.24780 52.56226
#
# Poissons Ratio (x) = 0.49202 0.65587
# Poissons Ratio (y) = 0.27414 0.13690
# Poissons Ratio (z) = 0.43277 0.16213
#
# Static dielectric constant tensor:
#      x y z
#    x 3.299720 0.000000 -0.292970 
#    y 0.000000 3.345460 0.000000 
#    z -0.292970 0.000000 3.497590 
# 
# 
# High freq. dielectric constant tensor:
#      x y z
#    x 1.672510 0.000000 -0.019560 
#    y 0.000000 1.701350 0.000000 
#    z -0.019560 0.000000 1.694230 
# 
# From -- ./inp_files/66460.got.cif
#   From: 2010.06.25/outbox.cif.g09.slc.cpg/sg11_34_cif.got.tgz:66460.got - 2010.06.27 23:14:04.
