data_PCOD8070718
_publ_section_title
;
Structure prediction by ZEFSAII (Michael W. Deem and Ramdas Pophale) SiO2 
 PCOD8070718
Probable space group: P 21/M
;
_chemical_formula_sum "Si O2"
_cell_formula_units_Z 24
_cell_length_a 25.479765
_cell_length_b 10.557304
_cell_length_c 23.456996
_cell_angle_alpha 90.000000
_cell_angle_beta 169.239738
_cell_angle_gamma 90.000000
_cell_volume 1178.053860
_symmetry_space_group_name_H-M "P 21/M"
_symmetry_group_IT_number 11
_symmetry_cell_setting 'monoclinic'
loop_
_space_group_symop_operation_xyz
x,y,z
-x,1/2+y,-z
-x,-y,-z
x,1/2-y,z
loop_
_atom_site_type_symbol
_atom_site_label
_atom_site_fract_x
_atom_site_fract_y
_atom_site_fract_z
Si Si1 0.646767 0.103258 0.276083
Si Si2 0.855329 0.394982 0.616568
Si Si3 0.446557 0.104427 0.283346
Si Si4 0.025509 0.399668 0.577845
Si Si5 0.733603 0.750000 0.773625
Si Si6 0.116982 0.750000 0.074303
Si Si7 0.964751 0.007567 0.894881
O O1 0.713849 0.250000 0.352950
O O2 0.772329 0.038948 0.467661
O O3 0.790110 0.054487 0.371241
O O4 0.317558 0.077465 0.921380
O O5 0.941873 0.250000 0.697618
O O6 0.589358 0.404662 0.373759
O O7 0.134841 0.457123 0.943563
O O8 0.439148 0.250000 0.298345
O O9 0.637012 0.023836 0.530270
O O10 0.992833 0.250000 0.523984
O O11 0.000000 0.500000 0.500000
O O12 0.399496 0.750000 0.413267
O O13 0.846846 0.624887 0.928681
O O14 0.860214 0.750000 0.845327
O O15 0.087441 0.626010 0.002498
O O16 0.000000 0.000000 0.000000
#
# Coordination Sequence:
#
# PCOD8070718 Si02
#       7
#     4   4   4   4   2   2   4
#     4   9  17  31  50  76 110 141 172 215 260 299
#     4   9  18  31  51  77 102 130 170 217 263 296
#     4  10  19  32  50  76 101 126 166 219 260 307
#     4  10  19  31  51  81 113 143 174 211 251 299
#     4  10  20  36  52  72 100 124 162 200 247 310
#     4  10  22  34  52  72  96 134 160 192 247 320
#     4  10  21  37  53  77 103 133 164 209 265 317
#
# _framework density 20.372584
#
# number of rings (size 3 to 8) (size 9 to 14) (size 15 to 20)
#    0.000    2.333    0.833    2.000    0.000    9.333 
#    0.000    0.000    0.000    0.000   13.000    0.000 
#    0.000    0.000    0.000    0.000    0.000    0.000 
#
# Total GULP energy -297476.975427 kJ/mol
# GULP energy per Si atom -12394.873976 kJ/mol
# Density = 2.032621 g / cm^3
# Si number density = 20.372584 Si / 1000 Ang^3
#
#
#
# Elastic Constant Matrix: (Units=GPa)
#
#
# Indices 1 2 3 4 5 6 
#
# 1 31.1594 8.7088 1.5656 0.0000 -18.3735 0.0000
# 2 8.7088 105.8404 16.7117 0.0000 -8.7519 0.0000
# 3 1.5656 16.7117 59.6182 0.0000 -5.6149 0.0000
# 4 0.0000 0.0000 0.0000 18.4273 0.0000 -0.5934
# 5 -18.3735 -8.7519 -5.6149 0.0000 35.9108 0.0000
# 6 0.0000 0.0000 0.0000 -0.5934 0.0000 16.9532
#
#
#
# Elastic Compliance Matrix: (Units=1/GPa)
#
#
# Indices 1 2 3 4 5 6 
#
# 1 0.046469 -0.002131 0.001591 0.000000 0.023505 0.000000
# 2 -0.002131 0.010128 -0.002693 0.000000 0.000957 0.000000
# 3 0.001591 -0.002693 0.017763 0.000000 0.002935 0.000000
# 4 0.000000 0.000000 0.000000 0.054329 0.000000 0.001902
# 5 0.023505 0.000957 0.002935 0.000000 0.040565 0.000000
# 6 0.000000 0.000000 0.000000 0.001902 0.000000 0.059053
#
#
# Mechanical properties :
#
#
# Convention : Reuss Voigt Hill
#
# Bulk Modulus (GPa) = 14.72906 27.84336 21.28621
# Shear Modulus (GPa) = 19.42479 25.56705 22.49592
#
# Velocity S-wave (km/s) = 3.09119 3.54640 3.32659
# Velocity P-wave (km/s) = 4.47059 5.51961 5.02256
#
# Compressibility (1/GPa) = 0.06789300
#
# Stress axis : x y z
#
# Youngs Moduli (GPa) = 21.51988 98.73760 56.29715
#
# Poissons Ratio (x) = 0.21042 -0.08956
# Poissons Ratio (y) = 0.04586 0.15160
# Poissons Ratio (z) = -0.03423 0.26589
#
# Static dielectric constant tensor:
#      x y z
#    x 3.804150 0.000000 0.079490 
#    y 0.000000 5.356610 0.000000 
#    z 0.079490 0.000000 3.925690 
# 
# 
# High freq. dielectric constant tensor:
#      x y z
#    x 1.797930 0.000000 0.010230 
#    y 0.000000 1.743290 0.000000 
#    z 0.010230 0.000000 1.811530 
# 
# From -- ./inp_files/7711.got.cif
#   From: 2010.06.25/outbox.cif.g09.slc.cpg/sg11_4_cif.got.tgz:7711.got - 2010.06.27 23:14:04.
