data_PCOD8070379
_publ_section_title
;
Structure prediction by ZEFSAII (Michael W. Deem and Ramdas Pophale) SiO2 
 PCOD8070379
Probable space group: P 21/M
;
_chemical_formula_sum "Si O2"
_cell_formula_units_Z 28
_cell_length_a 16.669444
_cell_length_b 8.710353
_cell_length_c 21.549813
_cell_angle_alpha 90.000000
_cell_angle_beta 148.556880
_cell_angle_gamma 90.000000
_cell_volume 1632.229158
_symmetry_space_group_name_H-M "P 21/M"
_symmetry_group_IT_number 11
_symmetry_cell_setting 'monoclinic'
loop_
_space_group_symop_operation_xyz
x,y,z
-x,1/2+y,-z
-x,-y,-z
x,1/2-y,z
loop_
_atom_site_type_symbol
_atom_site_label
_atom_site_fract_x
_atom_site_fract_y
_atom_site_fract_z
Si Si1 0.249234 0.929711 0.016945
Si Si2 0.520579 0.925223 0.913131
Si Si3 0.289711 0.571405 0.855389
Si Si4 0.975602 0.071359 0.239705
Si Si5 0.297508 0.069401 0.410852
Si Si6 0.631228 0.071034 0.670952
Si Si7 0.837246 0.929957 0.910332
O O1 0.237015 0.750000 0.021887
O O2 0.421967 0.968771 0.105804
O O3 0.216053 0.018819 0.057463
O O4 0.128374 0.991503 0.885794
O O5 0.541568 0.750000 0.905937
O O6 0.342422 0.956605 0.818280
O O7 0.618004 0.957235 0.039269
O O8 0.323402 0.750000 0.896085
O O9 0.108146 0.536213 0.749230
O O10 0.989338 0.250000 0.237363
O O11 0.149882 0.007543 0.352525
O O12 0.291666 0.250000 0.391704
O O13 0.449659 0.030835 0.550619
O O14 0.293083 0.978234 0.343670
O O15 0.661408 0.250000 0.701668
O O16 0.706001 0.977747 0.775790
O O17 0.857165 0.750000 0.922098
O O18 0.000000 0.000000 0.000000
#
# Coordination Sequence:
#
# PCOD8070379 Si02
#       7
#     4   4   4   4   4   4   4
#     4  10  19  31  47  68  96 127 157 190 231 279
#     4   9  15  24  39  61  90 123 157 190 229 278
#     4   8  14  24  39  60  89 123 156 192 233 276
#     4   8  14  26  45  68  92 120 153 189 230 273
#     4   9  17  31  51  71  93 123 159 198 236 276
#     4  10  20  33  49  70  95 124 158 194 236 281
#     4  12  24  37  52  70  94 123 156 193 233 278
#
# _framework density 17.154454000000001
#
# number of rings (size 3 to 8) (size 9 to 14) (size 15 to 20)
#    0.000    2.571    0.000    4.286    0.000    2.286 
#    0.000    2.857    0.000    0.000    0.000    1.000 
#    0.000    0.000    0.000    0.000    0.000    0.000 
#
# Total GULP energy -346906.545233 kJ/mol
# GULP energy per Si atom -12389.519473 kJ/mol
# Density = 1.711541 g / cm^3
# Si number density = 17.154454 Si / 1000 Ang^3
#
#
#
# Elastic Constant Matrix: (Units=GPa)
#
#
# Indices 1 2 3 4 5 6 
#
# 1 159.8705 37.1977 62.3985 0.0000 27.6128 0.0000
# 2 37.1977 67.8224 26.8365 0.0000 1.5958 0.0000
# 3 62.3985 26.8365 70.8800 0.0000 12.9425 0.0000
# 4 0.0000 0.0000 0.0000 19.0117 0.0000 -1.4936
# 5 27.6128 1.5958 12.9425 0.0000 25.4295 0.0000
# 6 0.0000 0.0000 0.0000 -1.4936 0.0000 27.6564
#
#
#
# Elastic Compliance Matrix: (Units=1/GPa)
#
#
# Indices 1 2 3 4 5 6 
#
# 1 0.011221 -0.003119 -0.007175 0.000000 -0.008337 0.000000
# 2 -0.003119 0.018353 -0.005084 0.000000 0.004822 0.000000
# 3 -0.007175 -0.005084 0.023007 0.000000 -0.003599 0.000000
# 4 0.000000 0.000000 0.000000 0.052823 0.000000 0.002853
# 5 -0.008337 0.004822 -0.003599 0.000000 0.049906 0.000000
# 6 0.000000 0.000000 0.000000 0.002853 0.000000 0.036312
#
#
# Mechanical properties :
#
#
# Convention : Reuss Voigt Hill
#
# Bulk Modulus (GPa) = 45.81782 61.27093 53.54438
# Shear Modulus (GPa) = 21.77184 25.89554 23.83369
#
# Velocity S-wave (km/s) = 3.56640 3.88951 3.73145
# Velocity P-wave (km/s) = 6.61256 7.48103 7.06016
#
# Compressibility (1/GPa) = 0.02182557
#
# Stress axis : x y z
#
# Youngs Moduli (GPa) = 89.11581 54.48675 43.46496
#
# Poissons Ratio (x) = 0.16995 0.31188
# Poissons Ratio (y) = 0.27796 0.22096
# Poissons Ratio (z) = 0.63944 0.27699
#
# Static dielectric constant tensor:
#      x y z
#    x 3.735230 0.000000 0.405580 
#    y 0.000000 3.175340 0.000000 
#    z 0.405580 0.000000 3.038930 
# 
# 
# High freq. dielectric constant tensor:
#      x y z
#    x 1.680430 0.000000 0.025710 
#    y 0.000000 1.660700 0.000000 
#    z 0.025710 0.000000 1.609180 
# 
# From -- ./inp_files/42372.got.cif
#   From: 2010.06.25/outbox.cif.g09.slc.cpg/sg11_22_cif.got.tgz:42372.got - 2010.06.27 23:14:04.
