data_PCOD8070323
_publ_section_title
;
Structure prediction by ZEFSAII (Michael W. Deem and Ramdas Pophale) SiO2 
 PCOD8070323
Probable space group: P 21/M
;
_chemical_formula_sum "Si O2"
_cell_formula_units_Z 32
_cell_length_a 19.902135
_cell_length_b 9.000340
_cell_length_c 12.145047
_cell_angle_alpha 90.000000
_cell_angle_beta 54.810496
_cell_angle_gamma 90.000000
_cell_volume 1777.923083
_symmetry_space_group_name_H-M "P 21/M"
_symmetry_group_IT_number 11
_symmetry_cell_setting 'monoclinic'
loop_
_space_group_symop_operation_xyz
x,y,z
-x,1/2+y,-z
-x,-y,-z
x,1/2-y,z
loop_
_atom_site_type_symbol
_atom_site_label
_atom_site_fract_x
_atom_site_fract_y
_atom_site_fract_z
Si Si1 0.497859 0.921346 0.162923
Si Si2 0.457459 0.078126 0.640794
Si Si3 0.370023 0.922412 0.106033
Si Si4 0.874485 0.423814 0.117027
Si Si5 0.983280 0.924128 0.187925
Si Si6 0.728282 0.574230 0.142024
Si Si7 0.223072 0.423938 0.148152
Si Si8 0.964538 0.573445 0.642073
O O1 0.523849 0.750000 0.119872
O O2 0.489538 0.957207 0.299802
O O3 0.411024 0.956528 0.186237
O O4 0.570395 0.019982 0.045682
O O5 0.457106 0.250000 0.613810
O O6 0.364310 0.023383 0.745530
O O7 0.500000 0.000000 0.500000
O O8 0.356114 0.750000 0.100339
O O9 0.281658 0.000646 0.183699
O O10 0.869868 0.250000 0.148477
O O11 0.906431 0.509971 0.194003
O O12 0.784970 0.487302 0.174629
O O13 0.933370 0.456302 0.957768
O O14 0.969349 0.750000 0.220848
O O15 0.986659 0.008298 0.300357
O O16 0.741944 0.750000 0.142501
O O17 0.750948 0.522325 0.997653
O O18 0.234592 0.250000 0.149424
O O19 0.130448 0.473461 0.259366
O O20 0.975940 0.750000 0.628235
O O21 0.000000 0.500000 0.500000
#
# Coordination Sequence:
#
# PCOD8070323 Si02
#       8
#     4   4   4   4   4   4   4   4
#     4   9  18  35  53  76 111 147 177 218 279 331
#     4  10  21  37  56  77 109 148 183 223 275 330
#     4  10  19  30  54  85 109 137 182 232 272 318
#     4  10  20  33  55  86 115 143 182 235 281 325
#     4  10  20  35  56  83 115 148 184 228 279 335
#     4  10  19  35  57  80 108 146 187 230 277 327
#     4  10  20  36  57  80 111 147 184 225 276 329
#     4  11  23  39  59  82 112 151 189 229 281 337
#
# _framework density 17.998528
#
# number of rings (size 3 to 8) (size 9 to 14) (size 15 to 20)
#    0.000    2.000    2.500    1.500    0.000    4.000 
#    0.000    1.250    0.000    6.000    0.000    0.000 
#    0.000    0.000    0.000    0.000    0.000    0.000 
#
# Total GULP energy -396886.636694 kJ/mol
# GULP energy per Si atom -12402.707397 kJ/mol
# Density = 1.795756 g / cm^3
# Si number density = 17.998528 Si / 1000 Ang^3
#
#
#
# Elastic Constant Matrix: (Units=GPa)
#
#
# Indices 1 2 3 4 5 6 
#
# 1 150.9556 58.8976 72.4002 0.0000 7.4974 0.0000
# 2 58.8976 66.1366 47.4906 0.0000 3.2524 0.0000
# 3 72.4002 47.4906 123.0220 0.0000 6.3572 0.0000
# 4 0.0000 0.0000 0.0000 30.0459 0.0000 0.8951
# 5 7.4974 3.2524 6.3572 0.0000 25.0870 0.0000
# 6 0.0000 0.0000 0.0000 0.8951 0.0000 37.1286
#
#
#
# Elastic Compliance Matrix: (Units=1/GPa)
#
#
# Indices 1 2 3 4 5 6 
#
# 1 0.011378 -0.007342 -0.003785 0.000000 -0.001489 0.000000
# 2 -0.007342 0.025667 -0.005603 0.000000 0.000286 0.000000
# 3 -0.003785 -0.005603 0.012588 0.000000 -0.001332 0.000000
# 4 0.000000 0.000000 0.000000 0.033306 0.000000 -0.000803
# 5 -0.001489 0.000286 -0.001332 0.000000 0.040607 0.000000
# 6 0.000000 0.000000 0.000000 -0.000803 0.000000 0.026953
#
#
# Mechanical properties :
#
#
# Convention : Reuss Voigt Hill
#
# Bulk Modulus (GPa) = 61.82510 77.52121 69.67316
# Shear Modulus (GPa) = 26.40616 29.20736 27.80676
#
# Velocity S-wave (km/s) = 3.83447 4.03272 3.93484
# Velocity P-wave (km/s) = 7.35043 8.05284 7.70964
#
# Compressibility (1/GPa) = 0.01617466
#
# Stress axis : x y z
#
# Youngs Moduli (GPa) = 87.88647 38.96025 79.44138
#
# Poissons Ratio (x) = 0.28603 0.30070
# Poissons Ratio (y) = 0.64523 0.44507
# Poissons Ratio (z) = 0.33267 0.21828
#
# Static dielectric constant tensor:
#      x y z
#    x 3.579750 0.000000 0.013450 
#    y 0.000000 3.318900 0.000000 
#    z 0.013450 0.000000 3.127070 
# 
# 
# High freq. dielectric constant tensor:
#      x y z
#    x 1.713050 0.000000 0.006280 
#    y 0.000000 1.701760 0.000000 
#    z 0.006280 0.000000 1.668000 
# 
# From -- ./inp_files/42744.got.cif
#   From: 2010.06.25/outbox.cif.g09.slc.cpg/sg11_22_cif.got.tgz:42744.got - 2010.06.27 23:14:04.
