data_PCOD8070109
_publ_section_title
;
Structure prediction by ZEFSAII (Michael W. Deem and Ramdas Pophale) SiO2 
 PCOD8070109
Probable space group: P 21/M
;
_chemical_formula_sum "Si O2"
_cell_formula_units_Z 32
_cell_length_a 20.334841
_cell_length_b 9.076754
_cell_length_c 12.292892
_cell_angle_alpha 90.000000
_cell_angle_beta 55.989988
_cell_angle_gamma 90.000000
_cell_volume 1880.825170
_symmetry_space_group_name_H-M "P 21/M"
_symmetry_group_IT_number 11
_symmetry_cell_setting 'monoclinic'
loop_
_space_group_symop_operation_xyz
x,y,z
-x,1/2+y,-z
-x,-y,-z
x,1/2-y,z
loop_
_atom_site_type_symbol
_atom_site_label
_atom_site_fract_x
_atom_site_fract_y
_atom_site_fract_z
Si Si1 0.773373 0.074677 0.601990
Si Si2 0.842648 0.075196 0.763932
Si Si3 0.446879 0.578927 0.901162
Si Si4 0.836523 0.076469 0.099922
Si Si5 0.598879 0.078826 0.809882
Si Si6 0.870227 0.075522 0.309219
Si Si7 0.049957 0.074741 0.174618
Si Si8 0.290181 0.922001 0.948805
O O1 0.768943 0.250000 0.604943
O O2 0.827672 0.026394 0.653885
O O3 0.683990 0.012285 0.695493
O O4 0.813543 0.009855 0.455794
O O5 0.855227 0.250000 0.764836
O O6 0.919893 0.991951 0.738825
O O7 0.768140 0.017797 0.903752
O O8 0.464004 0.750000 0.867267
O O9 0.529527 0.496501 0.803419
O O10 0.379590 0.514811 0.880098
O O11 0.413358 0.546093 0.052023
O O12 0.855956 0.250000 0.072335
O O13 0.838299 0.020116 0.222084
O O14 0.748398 0.042932 0.133273
O O15 0.902272 0.989436 0.971591
O O16 0.594958 0.250000 0.787423
O O17 0.866549 0.250000 0.317967
O O18 0.959652 0.021861 0.244620
O O19 0.058239 0.250000 0.168278
O O20 0.298733 0.750000 0.962165
#
# Coordination Sequence:
#
# PCOD8070109 Si02
#       8
#     4   4   4   4   4   4   4   4
#     4   9  16  29  48  66  91 123 154 187 219 261
#     4   9  16  29  48  67  88 120 156 183 218 269
#     4   9  15  25  42  65  90 112 141 181 223 263
#     4   9  17  31  51  69  86 115 158 194 221 263
#     4   9  16  26  43  66  89 115 145 179 218 264
#     4   9  18  30  46  69  91 117 154 193 227 261
#     4  10  19  30  45  68  96 117 143 192 241 268
#     4   8  13  24  44  66  85 110 147 186 216 254
#
# _framework density 17.013808000000001
#
# number of rings (size 3 to 8) (size 9 to 14) (size 15 to 20)
#    0.000    3.000    1.250    1.500    0.000    0.500 
#    0.000    3.750    0.000    4.500    0.000    0.000 
#    0.000    0.000    0.000    0.000    0.000    0.000 
#
# Total GULP energy -396603.773787 kJ/mol
# GULP energy per Si atom -12393.867931 kJ/mol
# Density = 1.697508 g / cm^3
# Si number density = 17.013808 Si / 1000 Ang^3
#
#
#
# Elastic Constant Matrix: (Units=GPa)
#
#
# Indices 1 2 3 4 5 6 
#
# 1 174.1811 35.9763 75.5291 0.0000 0.7488 0.0000
# 2 35.9763 30.1140 23.9930 0.0000 -0.9427 0.0000
# 3 75.5291 23.9930 99.1452 0.0000 9.1239 0.0000
# 4 0.0000 0.0000 0.0000 12.8957 0.0000 -2.1888
# 5 0.7488 -0.9427 9.1239 0.0000 17.3750 0.0000
# 6 0.0000 0.0000 0.0000 -2.1888 0.0000 24.7269
#
#
#
# Elastic Compliance Matrix: (Units=1/GPa)
#
#
# Indices 1 2 3 4 5 6 
#
# 1 0.009727 -0.006776 -0.005987 0.000000 0.002357 0.000000
# 2 -0.006776 0.046902 -0.006776 0.000000 0.006395 0.000000
# 3 -0.005987 -0.006776 0.017124 0.000000 -0.009102 0.000000
# 4 0.000000 0.000000 0.000000 0.078728 0.000000 0.006969
# 5 0.002357 0.006395 -0.009102 0.000000 0.062579 0.000000
# 6 0.000000 0.000000 0.000000 0.006969 0.000000 0.041059
#
#
# Mechanical properties :
#
#
# Convention : Reuss Voigt Hill
#
# Bulk Modulus (GPa) = 28.84021 63.82633 46.33327
# Shear Modulus (GPa) = 16.29958 22.19564 19.24761
#
# Velocity S-wave (km/s) = 3.09855 3.61580 3.36712
# Velocity P-wave (km/s) = 5.45795 7.41808 6.51218
#
# Compressibility (1/GPa) = 0.03467381
#
# Stress axis : x y z
#
# Youngs Moduli (GPa) = 102.80981 21.32104 58.39594
#
# Poissons Ratio (x) = 0.14448 0.34961
# Poissons Ratio (y) = 0.69669 0.39571
# Poissons Ratio (z) = 0.61550 0.14448
#
# Static dielectric constant tensor:
#      x y z
#    x 3.572760 0.000000 0.012050 
#    y 0.000000 2.828600 0.000000 
#    z 0.012050 0.000000 3.122120 
# 
# 
# High freq. dielectric constant tensor:
#      x y z
#    x 1.674370 0.000000 0.000350 
#    y 0.000000 1.616500 0.000000 
#    z 0.000350 0.000000 1.626340 
# 
# From -- ./inp_files/42414.got.cif
#   From: 2010.06.25/outbox.cif.g09.slc.cpg/sg11_22_cif.got.tgz:42414.got - 2010.06.27 23:14:04.
