data_PCOD8070365
_publ_section_title
;
Structure prediction by ZEFSAII (Michael W. Deem and Ramdas Pophale) SiO2 
 PCOD8070365
Probable space group: P 21/M
;
_chemical_formula_sum "Si O2"
_cell_formula_units_Z 32
_cell_length_a 15.861960
_cell_length_b 9.272652
_cell_length_c 27.975695
_cell_angle_alpha 90.000000
_cell_angle_beta 27.258034
_cell_angle_gamma 90.000000
_cell_volume 1884.541981
_symmetry_space_group_name_H-M "P 21/M"
_symmetry_group_IT_number 11
_symmetry_cell_setting 'monoclinic'
loop_
_space_group_symop_operation_xyz
x,y,z
-x,1/2+y,-z
-x,-y,-z
x,1/2-y,z
loop_
_atom_site_type_symbol
_atom_site_label
_atom_site_fract_x
_atom_site_fract_y
_atom_site_fract_z
Si Si1 0.214321 0.083177 0.617955
Si Si2 0.211247 0.584571 0.170478
Si Si3 0.440960 0.080040 0.414084
Si Si4 0.424283 0.917842 0.157059
Si Si5 0.801230 0.419530 0.278983
Si Si6 0.809019 0.581198 0.651546
Si Si7 0.179946 0.081470 0.463926
Si Si8 0.788244 0.917082 0.924107
O O1 0.258632 0.250000 0.605704
O O2 0.331792 0.018963 0.514937
O O3 0.002470 0.060016 0.711018
O O4 0.267088 0.994739 0.638353
O O5 0.258583 0.750000 0.136151
O O6 0.320626 0.529663 0.161590
O O7 0.275393 0.497389 0.091687
O O8 0.418205 0.250000 0.425961
O O9 0.657338 0.036407 0.309339
O O10 0.349680 0.023673 0.410887
O O11 0.383152 0.750000 0.188287
O O12 0.358981 0.013066 0.234413
O O13 0.642476 0.946538 0.039853
O O14 0.792844 0.250000 0.292537
O O15 0.008757 0.468810 0.160570
O O16 0.824439 0.750000 0.654808
O O17 0.765244 0.550588 0.618190
O O18 0.999174 0.505739 0.570641
O O19 0.137445 0.250000 0.493750
O O20 0.791619 0.750000 0.908778
#
# Coordination Sequence:
#
# PCOD8070365 Si02
#       8
#     4   4   4   4   4   4   4   4
#     4   9  16  26  41  63  89 117 149 181 219 266
#     4   9  17  28  43  63  88 121 156 186 221 269
#     4   9  16  28  48  67  86 119 155 181 213 266
#     4  10  19  31  47  65  90 125 156 182 222 273
#     4   9  17  29  44  64  90 119 153 189 219 251
#     4  10  20  32  49  73  94 113 143 185 228 268
#     4   9  18  34  52  69  92 119 145 177 223 277
#     4   9  18  30  44  65  92 121 154 192 227 256
#
# _framework density 16.980253999999999
#
# number of rings (size 3 to 8) (size 9 to 14) (size 15 to 20)
#    0.000    2.750    0.000    1.875    0.000    3.500 
#    0.000    3.750    0.000    0.750    0.000    0.000 
#    0.000    0.000    0.000    0.000    0.000    0.375 
#
# Total GULP energy -396724.055123 kJ/mol
# GULP energy per Si atom -12397.626723 kJ/mol
# Density = 1.694161 g / cm^3
# Si number density = 16.980254 Si / 1000 Ang^3
#
#
#
# Elastic Constant Matrix: (Units=GPa)
#
#
# Indices 1 2 3 4 5 6 
#
# 1 115.9429 32.3936 60.8633 0.0000 -13.5055 0.0000
# 2 32.3936 44.3504 36.8400 0.0000 3.5948 0.0000
# 3 60.8633 36.8400 106.0217 0.0000 1.7692 0.0000
# 4 0.0000 0.0000 0.0000 23.8579 0.0000 5.0634
# 5 -13.5055 3.5948 1.7692 0.0000 20.4706 0.0000
# 6 0.0000 0.0000 0.0000 5.0634 0.0000 20.4613
#
#
#
# Elastic Compliance Matrix: (Units=1/GPa)
#
#
# Indices 1 2 3 4 5 6 
#
# 1 0.015397 -0.006612 -0.006740 0.000000 0.011901 0.000000
# 2 -0.006612 0.034978 -0.008195 0.000000 -0.009796 0.000000
# 3 -0.006740 -0.008195 0.016222 0.000000 -0.004409 0.000000
# 4 0.000000 0.000000 0.000000 0.044238 0.000000 -0.010947
# 5 0.011901 -0.009796 -0.004409 0.000000 0.058804 0.000000
# 6 0.000000 0.000000 0.000000 -0.010947 0.000000 0.051582
#
#
# Mechanical properties :
#
#
# Convention : Reuss Voigt Hill
#
# Bulk Modulus (GPa) = 42.54629 58.50098 50.52363
# Shear Modulus (GPa) = 18.37228 22.03916 20.20572
#
# Velocity S-wave (km/s) = 3.29291 3.60659 3.45331
# Velocity P-wave (km/s) = 6.29034 7.20211 6.76161
#
# Compressibility (1/GPa) = 0.02350381
#
# Stress axis : x y z
#
# Youngs Moduli (GPa) = 64.94965 28.58915 61.64389
#
# Poissons Ratio (x) = 0.18903 0.41546
# Poissons Ratio (y) = 0.42944 0.50517
# Poissons Ratio (z) = 0.43774 0.23429
#
# Static dielectric constant tensor:
#      x y z
#    x 3.277180 0.000000 -0.187820 
#    y 0.000000 3.067580 0.000000 
#    z -0.187820 0.000000 3.265940 
# 
# 
# High freq. dielectric constant tensor:
#      x y z
#    x 1.641210 0.000000 -0.013300 
#    y 0.000000 1.640560 0.000000 
#    z -0.013300 0.000000 1.652380 
# 
# From -- ./inp_files/51665.got.cif
#   From: 2010.06.25/outbox.cif.g09.slc.cpg/sg11_26_cif.got.tgz:51665.got - 2010.06.27 23:14:04.
