data_PCOD8070678
_publ_section_title
;
Structure prediction by ZEFSAII (Michael W. Deem and Ramdas Pophale) SiO2 
 PCOD8070678
Probable space group: P 21/M
;
_chemical_formula_sum "Si O2"
_cell_formula_units_Z 32
_cell_length_a 13.596442
_cell_length_b 13.157067
_cell_length_c 14.718557
_cell_angle_alpha 90.000000
_cell_angle_beta 44.232114
_cell_angle_gamma 90.000000
_cell_volume 1836.688085
_symmetry_space_group_name_H-M "P 21/M"
_symmetry_group_IT_number 11
_symmetry_cell_setting 'monoclinic'
loop_
_space_group_symop_operation_xyz
x,y,z
-x,1/2+y,-z
-x,-y,-z
x,1/2-y,z
loop_
_atom_site_type_symbol
_atom_site_label
_atom_site_fract_x
_atom_site_fract_y
_atom_site_fract_z
Si Si1 0.306976 0.500174 0.985015
Si Si2 0.605340 0.368657 0.242067
Si Si3 0.657600 0.495403 0.561646
Si Si4 0.968898 0.508776 0.414542
Si Si5 0.221378 0.635391 0.200814
Si Si6 0.949967 0.866189 0.794200
Si Si7 0.742905 0.135437 0.341899
Si Si8 0.434008 0.865649 0.216809
O O1 0.317953 0.568226 0.887649
O O2 0.440409 0.428360 0.910942
O O3 0.309451 0.572395 0.069984
O O4 0.166746 0.431696 0.075628
O O5 0.595114 0.250000 0.222247
O O6 0.447651 0.409080 0.366320
O O7 0.700419 0.386543 0.267184
O O8 0.806472 0.534261 0.502378
O O9 0.668834 0.449267 0.453475
O O10 0.599151 0.403629 0.660754
O O11 0.000000 0.500000 0.500000
O O12 0.059309 0.601548 0.314455
O O13 0.017495 0.406464 0.329495
O O14 0.224218 0.750000 0.164947
O O15 0.293143 0.621111 0.251108
O O16 0.898885 0.750000 0.818381
O O17 0.089068 0.875165 0.763240
O O18 0.697102 0.250000 0.401308
O O19 0.483568 0.750000 0.189688
#
# Coordination Sequence:
#
# PCOD8070678 Si02
#       8
#     4   4   4   4   4   4   4   4
#     4  10  20  34  51  71 103 132 170 213 249 298
#     4  10  21  35  52  74 102 138 173 209 255 305
#     4  10  19  33  54  76 105 131 166 211 253 303
#     4  10  19  33  51  75 105 131 164 206 250 304
#     4  10  20  33  50  70  98 136 170 201 245 297
#     4   9  19  34  54  77 101 132 169 215 257 297
#     4   9  18  34  55  78 102 130 168 211 259 307
#     4  10  19  31  51  74  98 131 166 206 250 297
#
# _framework density 17.422664999999999
#
# number of rings (size 3 to 8) (size 9 to 14) (size 15 to 20)
#    0.000    2.250    1.250    1.875    0.000    2.000 
#    0.000    0.000    0.000    0.750    0.000    0.000 
#    0.000    0.000    0.000    0.000    0.000    0.000 
#
# Total GULP energy -396823.261669 kJ/mol
# GULP energy per Si atom -12400.726927 kJ/mol
# Density = 1.738301 g / cm^3
# Si number density = 17.422665 Si / 1000 Ang^3
#
#
#
# Elastic Constant Matrix: (Units=GPa)
#
#
# Indices 1 2 3 4 5 6 
#
# 1 81.6087 49.7174 29.8971 0.0000 -2.2912 0.0000
# 2 49.7174 126.6313 52.1991 0.0000 -3.9577 0.0000
# 3 29.8971 52.1991 82.0061 0.0000 -9.2217 0.0000
# 4 0.0000 0.0000 0.0000 23.4516 0.0000 -0.1258
# 5 -2.2912 -3.9577 -9.2217 0.0000 23.9704 0.0000
# 6 0.0000 0.0000 0.0000 -0.1258 0.0000 26.0794
#
#
#
# Elastic Compliance Matrix: (Units=1/GPa)
#
#
# Indices 1 2 3 4 5 6 
#
# 1 0.016497 -0.005413 -0.002604 0.000000 -0.000319 0.000000
# 2 -0.005413 0.012501 -0.006072 0.000000 -0.000790 0.000000
# 3 -0.002604 -0.006072 0.017631 0.000000 0.005531 0.000000
# 4 0.000000 0.000000 0.000000 0.042642 0.000000 0.000206
# 5 -0.000319 -0.000790 0.005531 0.000000 0.043685 0.000000
# 6 0.000000 0.000000 0.000000 0.000206 0.000000 0.038345
#
#
# Mechanical properties :
#
#
# Convention : Reuss Voigt Hill
#
# Bulk Modulus (GPa) = 54.20546 61.54148 57.87347
# Shear Modulus (GPa) = 24.31551 25.26245 24.78898
#
# Velocity S-wave (km/s) = 3.73986 3.81199 3.77610
# Velocity P-wave (km/s) = 7.05892 7.40097 7.23196
#
# Compressibility (1/GPa) = 0.01844833
#
# Stress axis : x y z
#
# Youngs Moduli (GPa) = 60.61865 79.99590 56.71873
#
# Poissons Ratio (x) = 0.43303 0.14772
# Poissons Ratio (y) = 0.32814 0.34441
# Poissons Ratio (z) = 0.15787 0.48576
#
# Static dielectric constant tensor:
#      x y z
#    x 3.223310 0.000000 -0.070430 
#    y 0.000000 3.293720 0.000000 
#    z -0.070430 0.000000 3.277640 
# 
# 
# High freq. dielectric constant tensor:
#      x y z
#    x 1.670840 0.000000 -0.002670 
#    y 0.000000 1.677040 0.000000 
#    z -0.002670 0.000000 1.678790 
# 
# From -- ./inp_files/38913.got.cif
#   From: 2010.06.25/outbox.cif.g09.slc.cpg/sg11_20_cif.got.tgz:38913.got - 2010.06.27 23:14:04.
