data_PCOD8070292
_publ_section_title
;
Structure prediction by ZEFSAII (Michael W. Deem and Ramdas Pophale) SiO2 
 PCOD8070292
Probable space group: P 21/M
;
_chemical_formula_sum "Si O2"
_cell_formula_units_Z 32
_cell_length_a 20.845380
_cell_length_b 9.510471
_cell_length_c 12.206147
_cell_angle_alpha 90.000000
_cell_angle_beta 134.331977
_cell_angle_gamma 90.000000
_cell_volume 1730.933502
_symmetry_space_group_name_H-M "P 21/M"
_symmetry_group_IT_number 11
_symmetry_cell_setting 'monoclinic'
loop_
_space_group_symop_operation_xyz
x,y,z
-x,1/2+y,-z
-x,-y,-z
x,1/2-y,z
loop_
_atom_site_type_symbol
_atom_site_label
_atom_site_fract_x
_atom_site_fract_y
_atom_site_fract_z
Si Si1 0.451534 0.412286 0.034260
Si Si2 0.674569 0.091536 0.824671
Si Si3 0.979506 0.913860 0.147912
Si Si4 0.488181 0.091248 0.695082
Si Si5 0.265870 0.409687 0.903833
Si Si6 0.115111 0.408083 0.186946
Si Si7 0.936445 0.587267 0.344140
Si Si8 0.690887 0.908547 0.639265
O O1 0.478827 0.250000 0.054931
O O2 0.342682 0.430219 0.901979
O O3 0.500000 0.500000 0.000000
O O4 0.489413 0.471698 0.191966
O O5 0.711080 0.250000 0.864223
O O6 0.566314 0.088929 0.697612
O O7 0.708372 0.012068 0.759241
O O8 0.717143 0.019776 0.980813
O O9 0.001103 0.750000 0.176404
O O10 0.945213 0.962380 0.227224
O O11 0.907546 0.951143 0.966552
O O12 0.071035 0.993087 0.225622
O O13 0.481408 0.250000 0.737822
O O14 0.394883 0.044026 0.531607
O O15 0.272006 0.250000 0.957917
O O16 0.166179 0.436623 0.737940
O O17 0.080296 0.250000 0.166065
O O18 0.221614 0.418038 0.332859
O O19 0.963709 0.750000 0.387420
O O20 0.000000 0.500000 0.500000
O O21 0.677496 0.750000 0.668175
#
# Coordination Sequence:
#
# PCOD8070292 Si02
#       8
#     4   4   4   4   4   4   4   4
#     4  10  20  36  58  79 102 138 179 221 265 313
#     4  10  19  30  50  79 108 137 172 219 263 306
#     4   9  18  34  54  75 104 135 169 219 270 313
#     4   9  19  34  50  73 106 139 174 215 260 312
#     4   9  19  37  58  78 102 139 182 216 260 324
#     4   9  18  33  54  77 100 137 181 215 255 316
#     4  10  21  38  58  81 109 141 178 225 276 326
#     4  10  19  32  50  74 106 143 175 208 256 316
#
# _framework density 18.487134000000001
#
# number of rings (size 3 to 8) (size 9 to 14) (size 15 to 20)
#    0.000    2.500    0.000    1.875    0.000    5.000 
#    2.250    2.500    0.000    0.000    0.000    0.000 
#    0.000    0.000    0.000    0.000    0.000    0.000 
#
# Total GULP energy -396688.366720 kJ/mol
# GULP energy per Si atom -12396.511460 kJ/mol
# Density = 1.844506 g / cm^3
# Si number density = 18.487134 Si / 1000 Ang^3
#
#
#
# Elastic Constant Matrix: (Units=GPa)
#
#
# Indices 1 2 3 4 5 6 
#
# 1 102.6270 51.4262 42.6366 0.0000 5.7849 0.0000
# 2 51.4262 91.0908 36.6725 0.0000 2.5234 0.0000
# 3 42.6366 36.6725 66.9646 0.0000 16.2137 0.0000
# 4 0.0000 0.0000 0.0000 29.1060 0.0000 -3.1954
# 5 5.7849 2.5234 16.2137 0.0000 28.4699 0.0000
# 6 0.0000 0.0000 0.0000 -3.1954 0.0000 33.8379
#
#
#
# Elastic Compliance Matrix: (Units=1/GPa)
#
#
# Indices 1 2 3 4 5 6 
#
# 1 0.015575 -0.006040 -0.006927 0.000000 0.001316 0.000000
# 2 -0.006040 0.016760 -0.006113 0.000000 0.003223 0.000000
# 3 -0.006927 -0.006113 0.025773 0.000000 -0.012729 0.000000
# 4 0.000000 0.000000 0.000000 0.034717 0.000000 0.003278
# 5 0.001316 0.003223 -0.012729 0.000000 0.041821 0.000000
# 6 0.000000 0.000000 0.000000 0.003278 0.000000 0.029862
#
#
# Mechanical properties :
#
#
# Convention : Reuss Voigt Hill
#
# Bulk Modulus (GPa) = 50.13223 58.01701 54.07462
# Shear Modulus (GPa) = 23.88716 26.94590 25.41653
#
# Velocity S-wave (km/s) = 3.59847 3.82193 3.71188
# Velocity P-wave (km/s) = 6.66645 7.13629 6.90537
#
# Compressibility (1/GPa) = 0.01994725
#
# Stress axis : x y z
#
# Youngs Moduli (GPa) = 64.20740 59.66595 38.79999
#
# Poissons Ratio (x) = 0.36041 0.26876
# Poissons Ratio (y) = 0.38784 0.23718
# Poissons Ratio (z) = 0.44476 0.36473
#
# Static dielectric constant tensor:
#      x y z
#    x 3.585340 0.000000 0.154520 
#    y 0.000000 3.468410 0.000000 
#    z 0.154520 0.000000 3.196790 
# 
# 
# High freq. dielectric constant tensor:
#      x y z
#    x 1.717940 0.000000 0.016940 
#    y 0.000000 1.722610 0.000000 
#    z 0.016940 0.000000 1.694470 
# 
# From -- ./inp_files/42843.got.cif
#   From: 2010.06.25/outbox.cif.g09.slc.cpg/sg11_22_cif.got.tgz:42843.got - 2010.06.27 23:14:04.
