data_PCOD8070099
_publ_section_title
;
Structure prediction by ZEFSAII (Michael W. Deem and Ramdas Pophale) SiO2 
 PCOD8070099
Probable space group: P 21/M
;
_chemical_formula_sum "Si O2"
_cell_formula_units_Z 32
_cell_length_a 11.771409
_cell_length_b 9.029062
_cell_length_c 17.240917
_cell_angle_alpha 90.000000
_cell_angle_beta 93.558331
_cell_angle_gamma 90.000000
_cell_volume 1828.914379
_symmetry_space_group_name_H-M "P 21/M"
_symmetry_group_IT_number 11
_symmetry_cell_setting 'monoclinic'
loop_
_space_group_symop_operation_xyz
x,y,z
-x,1/2+y,-z
-x,-y,-z
x,1/2-y,z
loop_
_atom_site_type_symbol
_atom_site_label
_atom_site_fract_x
_atom_site_fract_y
_atom_site_fract_z
Si Si1 0.390115 0.577317 0.962410
Si Si2 0.363186 0.926244 0.786998
Si Si3 0.875225 0.079536 0.276153
Si Si4 0.917022 0.920996 0.809922
Si Si5 0.412662 0.579376 0.242221
Si Si6 0.757636 0.421922 0.901241
Si Si7 0.033777 0.073677 0.421617
Si Si8 0.792876 0.421493 0.667440
O O1 0.417071 0.750000 0.961907
O O2 0.363123 0.516614 0.875644
O O3 0.500000 0.500000 0.000000
O O4 0.282692 0.543428 0.013332
O O5 0.362148 0.750000 0.784494
O O6 0.249152 0.992791 0.741381
O O7 0.472915 0.984133 0.745811
O O8 0.856783 0.250000 0.294376
O O9 0.947607 0.061293 0.198973
O O10 0.944253 0.014398 0.352790
O O11 0.881113 0.750000 0.795584
O O12 0.872391 0.980241 0.891319
O O13 0.856873 0.028683 0.747021
O O14 0.447075 0.750000 0.234598
O O15 0.341441 0.529213 0.163278
O O16 0.341074 0.553795 0.319012
O O17 0.787513 0.250000 0.890763
O O18 0.035536 0.250000 0.428855
O O19 0.160740 0.018147 0.402943
O O20 0.000000 0.000000 0.500000
O O21 0.818321 0.250000 0.651387
#
# Coordination Sequence:
#
# PCOD8070099 Si02
#       8
#     4   4   4   4   4   4   4   4
#     4  10  19  30  45  66  93 126 164 207 247 288
#     4  10  19  31  49  69  92 129 168 198 238 292
#     4   8  17  33  49  70  99 126 155 195 240 285
#     4   9  16  28  47  67  90 123 163 204 243 286
#     4   9  17  29  45  67  98 128 157 200 246 279
#     4   9  17  29  43  63  94 124 157 206 255 288
#     4  10  19  33  55  80 104 127 155 193 235 282
#     4   9  17  30  48  72 102 128 155 195 241 283
#
# _framework density 17.496718999999999
#
# number of rings (size 3 to 8) (size 9 to 14) (size 15 to 20)
#    0.000    2.750    1.250    2.625    0.000    3.000 
#    0.000    4.375    0.000    0.750    0.000    0.000 
#    0.000    0.000    0.000    0.000    0.000    0.000 
#
# Total GULP energy -396531.704475 kJ/mol
# GULP energy per Si atom -12391.615765 kJ/mol
# Density = 1.745690 g / cm^3
# Si number density = 17.496719 Si / 1000 Ang^3
#
#
#
# Elastic Constant Matrix: (Units=GPa)
#
#
# Indices 1 2 3 4 5 6 
#
# 1 115.4598 41.2576 55.5355 0.0000 -15.7764 0.0000
# 2 41.2576 53.0212 34.8130 0.0000 -10.6586 0.0000
# 3 55.5355 34.8130 84.4864 0.0000 -20.1046 0.0000
# 4 0.0000 0.0000 0.0000 22.4250 0.0000 -11.3047
# 5 -15.7764 -10.6586 -20.1046 0.0000 26.1014 0.0000
# 6 0.0000 0.0000 0.0000 -11.3047 0.0000 25.4796
#
#
#
# Elastic Compliance Matrix: (Units=1/GPa)
#
#
# Indices 1 2 3 4 5 6 
#
# 1 0.014259 -0.006715 -0.006377 0.000000 0.000965 0.000000
# 2 -0.006715 0.029196 -0.007034 0.000000 0.002445 0.000000
# 3 -0.006377 -0.007034 0.021214 0.000000 0.009613 0.000000
# 4 0.000000 0.000000 0.000000 0.057440 0.000000 0.025485
# 5 0.000965 0.002445 0.009613 0.000000 0.047299 0.000000
# 6 0.000000 0.000000 0.000000 0.025485 0.000000 0.050554
#
#
# Mechanical properties :
#
#
# Convention : Reuss Voigt Hill
#
# Bulk Modulus (GPa) = 40.95468 57.35327 49.15398
# Shear Modulus (GPa) = 18.63212 22.89192 20.76202
#
# Velocity S-wave (km/s) = 3.26681 3.62104 3.44848
# Velocity P-wave (km/s) = 6.13900 7.09459 6.63402
#
# Compressibility (1/GPa) = 0.02441723
#
# Stress axis : x y z
#
# Youngs Moduli (GPa) = 70.12869 34.25145 47.13881
#
# Poissons Ratio (x) = 0.23000 0.30058
# Poissons Ratio (y) = 0.47091 0.33160
# Poissons Ratio (z) = 0.44718 0.24094
#
# Static dielectric constant tensor:
#      x y z
#    x 3.507120 0.000000 -0.339550 
#    y 0.000000 3.200560 0.000000 
#    z -0.339550 0.000000 3.267430 
# 
# 
# High freq. dielectric constant tensor:
#      x y z
#    x 1.670140 0.000000 -0.033510 
#    y 0.000000 1.668110 0.000000 
#    z -0.033510 0.000000 1.647100 
# 
# From -- ./inp_files/40681.got.cif
#   From: 2010.06.25/outbox.cif.g09.slc.cpg/sg11_21_cif.got.tgz:40681.got - 2010.06.27 23:14:04.
