data_PCOD8070564
_publ_section_title
;
Structure prediction by ZEFSAII (Michael W. Deem and Ramdas Pophale) SiO2 
 PCOD8070564
Probable space group: P 21/M
;
_chemical_formula_sum "Si O2"
_cell_formula_units_Z 32
_cell_length_a 12.112740
_cell_length_b 9.055634
_cell_length_c 21.190793
_cell_angle_alpha 90.000000
_cell_angle_beta 51.449738
_cell_angle_gamma 90.000000
_cell_volume 1817.814311
_symmetry_space_group_name_H-M "P 21/M"
_symmetry_group_IT_number 11
_symmetry_cell_setting 'monoclinic'
loop_
_space_group_symop_operation_xyz
x,y,z
-x,1/2+y,-z
-x,-y,-z
x,1/2-y,z
loop_
_atom_site_type_symbol
_atom_site_label
_atom_site_fract_x
_atom_site_fract_y
_atom_site_fract_z
Si Si1 0.550506 0.924118 0.630299
Si Si2 0.032544 0.922233 0.199821
Si Si3 0.539314 0.078589 0.890749
Si Si4 0.227224 0.424251 0.551734
Si Si5 0.717324 0.920762 0.933449
Si Si6 0.715232 0.919662 0.326013
Si Si7 0.356097 0.079241 0.265446
Si Si8 0.949995 0.921319 0.674749
O O1 0.543249 0.750000 0.628743
O O2 0.659169 0.983300 0.538907
O O3 0.602904 0.977203 0.679783
O O4 0.394908 0.984353 0.673356
O O5 0.065071 0.750000 0.193735
O O6 0.869187 0.949983 0.240975
O O7 0.132740 0.995774 0.110751
O O8 0.073422 0.995697 0.251372
O O9 0.582259 0.250000 0.878837
O O10 0.641362 0.986758 0.899315
O O11 0.553060 0.018358 0.815257
O O12 0.377213 0.056110 0.970583
O O13 0.198571 0.250000 0.556499
O O14 0.283855 0.466109 0.600944
O O15 0.080748 0.507999 0.590240
O O16 0.745961 0.750000 0.909387
O O17 0.671730 0.750000 0.334694
O O18 0.396885 0.250000 0.240690
O O19 0.189013 0.055431 0.317678
O O20 0.980600 0.750000 0.677082
#
# Coordination Sequence:
#
# PCOD8070564 Si02
#       8
#     4   4   4   4   4   4   4   4
#     4  10  21  36  53  73  99 137 176 213 259 306
#     4  10  19  32  52  78 106 134 167 209 259 305
#     4  10  20  32  50  76 106 139 170 203 248 300
#     4   9  19  35  53  74 102 131 167 218 265 304
#     4  10  19  31  50  79 108 133 167 208 249 298
#     4   9  19  34  52  76 102 129 168 218 259 300
#     4  10  21  35  50  72 106 139 172 212 251 301
#     4  10  19  31  49  74 103 135 170 208 254 305
#
# _framework density 17.603560000000002
#
# number of rings (size 3 to 8) (size 9 to 14) (size 15 to 20)
#    0.000    2.250    1.250    2.625    0.000    6.000 
#    0.000    0.000    0.000    0.750    0.000    0.000 
#    0.000    0.000    0.000    0.000    0.000    0.000 
#
# Total GULP energy -396846.704373 kJ/mol
# GULP energy per Si atom -12401.459512 kJ/mol
# Density = 1.756349 g / cm^3
# Si number density = 17.603560 Si / 1000 Ang^3
#
#
#
# Elastic Constant Matrix: (Units=GPa)
#
#
# Indices 1 2 3 4 5 6 
#
# 1 98.8559 45.6567 58.1399 0.0000 -8.7303 0.0000
# 2 45.6567 81.5023 49.1149 0.0000 -11.8441 0.0000
# 3 58.1399 49.1149 97.0444 0.0000 -23.0039 0.0000
# 4 0.0000 0.0000 0.0000 31.4609 0.0000 -6.8936
# 5 -8.7303 -11.8441 -23.0039 0.0000 21.1708 0.0000
# 6 0.0000 0.0000 0.0000 -6.8936 0.0000 27.5434
#
#
#
# Elastic Compliance Matrix: (Units=1/GPa)
#
#
# Indices 1 2 3 4 5 6 
#
# 1 0.017327 -0.004985 -0.009193 0.000000 -0.005633 0.000000
# 2 -0.004985 0.019089 -0.006237 0.000000 0.001847 0.000000
# 3 -0.009193 -0.006237 0.023225 0.000000 0.017956 0.000000
# 4 0.000000 0.000000 0.000000 0.033630 0.000000 0.008417
# 5 -0.005633 0.001847 0.017956 0.000000 0.065456 0.000000
# 6 0.000000 0.000000 0.000000 0.008417 0.000000 0.038413
#
#
# Mechanical properties :
#
#
# Convention : Reuss Voigt Hill
#
# Bulk Modulus (GPa) = 53.15892 64.80285 58.98088
# Shear Modulus (GPa) = 20.47162 24.33443 22.40303
#
# Velocity S-wave (km/s) = 3.41387 3.72204 3.57128
# Velocity P-wave (km/s) = 6.76777 7.44068 7.11219
#
# Compressibility (1/GPa) = 0.01881152
#
# Stress axis : x y z
#
# Youngs Moduli (GPa) = 57.71186 52.38633 43.05710
#
# Poissons Ratio (x) = 0.26116 0.39583
# Poissons Ratio (y) = 0.28771 0.26853
# Poissons Ratio (z) = 0.53055 0.32671
#
# Static dielectric constant tensor:
#      x y z
#    x 3.061910 0.000000 -0.215840 
#    y 0.000000 3.312750 0.000000 
#    z -0.215840 0.000000 3.503560 
# 
# 
# High freq. dielectric constant tensor:
#      x y z
#    x 1.654320 0.000000 -0.022110 
#    y 0.000000 1.687750 0.000000 
#    z -0.022110 0.000000 1.683520 
# 
# From -- ./inp_files/42749.got.cif
#   From: 2010.06.25/outbox.cif.g09.slc.cpg/sg11_22_cif.got.tgz:42749.got - 2010.06.27 23:14:04.
