data_PCOD8070560
_publ_section_title
;
Structure prediction by ZEFSAII (Michael W. Deem and Ramdas Pophale) SiO2 
 PCOD8070560
Probable space group: P 21/M
;
_chemical_formula_sum "Si O2"
_cell_formula_units_Z 32
_cell_length_a 17.803671
_cell_length_b 9.113861
_cell_length_c 11.521995
_cell_angle_alpha 90.000000
_cell_angle_beta 87.723445
_cell_angle_gamma 90.000000
_cell_volume 1868.085432
_symmetry_space_group_name_H-M "P 21/M"
_symmetry_group_IT_number 11
_symmetry_cell_setting 'monoclinic'
loop_
_space_group_symop_operation_xyz
x,y,z
-x,1/2+y,-z
-x,-y,-z
x,1/2-y,z
loop_
_atom_site_type_symbol
_atom_site_label
_atom_site_fract_x
_atom_site_fract_y
_atom_site_fract_z
Si Si1 0.418930 0.584965 0.130611
Si Si2 0.919493 0.077150 0.508547
Si Si3 0.989451 0.079969 0.120018
Si Si4 0.712118 0.577505 0.157928
Si Si5 0.437214 0.915443 0.854835
Si Si6 0.127171 0.422190 0.266871
Si Si7 0.728084 0.579180 0.891202
Si Si8 0.843626 0.080445 0.270583
O O1 0.417845 0.750000 0.180042
O O2 0.486122 0.496160 0.188694
O O3 0.339850 0.508537 0.164314
O O4 0.431898 0.585313 0.993103
O O5 0.932792 0.250000 0.521613
O O6 0.873579 0.040763 0.395555
O O7 0.868313 0.014414 0.615327
O O8 0.000000 0.000000 0.500000
O O9 0.001412 0.250000 0.095241
O O10 0.051310 0.026704 0.208051
O O11 0.907849 0.043064 0.173895
O O12 0.000000 0.000000 0.000000
O O13 0.702358 0.750000 0.173662
O O14 0.633089 0.502299 0.194101
O O15 0.772631 0.519870 0.245964
O O16 0.737974 0.536013 0.025698
O O17 0.437855 0.750000 0.805782
O O18 0.126163 0.250000 0.296661
O O19 0.196552 0.464464 0.180487
O O20 0.709027 0.750000 0.881015
O O21 0.819779 0.250000 0.263620
#
# Coordination Sequence:
#
# PCOD8070560 Si02
#       8
#     4   4   4   4   4   4   4   4
#     4   9  16  26  43  68  99 133 171 206 237 287
#     4  11  22  38  57  74  94 125 168 215 258 301
#     4  10  20  34  50  71 100 131 163 201 247 299
#     4  10  19  31  49  74 102 133 169 204 244 297
#     4   9  16  27  44  67  99 136 168 200 245 292
#     4  10  20  36  53  72 100 131 166 210 255 296
#     4   9  18  31  48  71 104 137 164 202 251 298
#     4  10  21  36  51  69  98 130 162 206 256 297
#
# _framework density 17.129837999999999
#
# number of rings (size 3 to 8) (size 9 to 14) (size 15 to 20)
#    0.000    2.250    1.250    2.250    0.000    7.000 
#    0.000    0.000    0.000    0.000    0.000    0.875 
#    0.000    0.000    0.000    0.000    0.000    0.000 
#
# Total GULP energy -396864.266885 kJ/mol
# GULP energy per Si atom -12402.008340 kJ/mol
# Density = 1.709085 g / cm^3
# Si number density = 17.129838 Si / 1000 Ang^3
#
#
#
# Elastic Constant Matrix: (Units=GPa)
#
#
# Indices 1 2 3 4 5 6 
#
# 1 115.5238 63.2511 28.2212 0.0000 23.9130 0.0000
# 2 63.2511 94.9672 37.7295 0.0000 14.8724 0.0000
# 3 28.2212 37.7295 68.5571 0.0000 14.6740 0.0000
# 4 0.0000 0.0000 0.0000 25.9724 0.0000 2.0022
# 5 23.9130 14.8724 14.6740 0.0000 14.1892 0.0000
# 6 0.0000 0.0000 0.0000 2.0022 0.0000 33.0744
#
#
#
# Elastic Compliance Matrix: (Units=1/GPa)
#
#
# Indices 1 2 3 4 5 6 
#
# 1 0.017943 -0.009410 0.002766 0.000000 -0.023236 0.000000
# 2 -0.009410 0.019217 -0.007430 0.000000 0.003401 0.000000
# 3 0.002766 -0.007430 0.021663 0.000000 -0.019277 0.000000
# 4 0.000000 0.000000 0.000000 0.038683 0.000000 -0.002342
# 5 -0.023236 0.003401 -0.019277 0.000000 0.126007 0.000000
# 6 0.000000 0.000000 0.000000 -0.002342 0.000000 0.030377
#
#
# Mechanical properties :
#
#
# Convention : Reuss Voigt Hill
#
# Bulk Modulus (GPa) = 32.60083 59.71686 46.15885
# Shear Modulus (GPa) = 17.10799 24.63696 20.87247
#
# Velocity S-wave (km/s) = 3.16369 3.79654 3.49447
# Velocity P-wave (km/s) = 5.69369 7.35903 6.57926
#
# Compressibility (1/GPa) = 0.03067406
#
# Stress axis : x y z
#
# Youngs Moduli (GPa) = 55.73342 52.03771 46.16220
#
# Poissons Ratio (x) = 0.48970 -0.12770
# Poissons Ratio (y) = 0.52448 0.34298
# Poissons Ratio (z) = -0.15418 0.38664
#
# Static dielectric constant tensor:
#      x y z
#    x 3.280090 0.000000 0.031590 
#    y 0.000000 3.273320 0.000000 
#    z 0.031590 0.000000 2.927930 
# 
# 
# High freq. dielectric constant tensor:
#      x y z
#    x 1.668520 0.000000 0.005270 
#    y 0.000000 1.669710 0.000000 
#    z 0.005270 0.000000 1.621180 
# 
# From -- ./inp_files/40717.got.cif
#   From: 2010.06.25/outbox.cif.g09.slc.cpg/sg11_21_cif.got.tgz:40717.got - 2010.06.27 23:14:04.
