data_PCOD8070291
_publ_section_title
;
Structure prediction by ZEFSAII (Michael W. Deem and Ramdas Pophale) SiO2 
 PCOD8070291
Probable space group: P 21/M
;
_chemical_formula_sum "Si O2"
_cell_formula_units_Z 32
_cell_length_a 12.174911
_cell_length_b 9.106461
_cell_length_c 28.609200
_cell_angle_alpha 90.000000
_cell_angle_beta 35.163747
_cell_angle_gamma 90.000000
_cell_volume 1826.752270
_symmetry_space_group_name_H-M "P 21/M"
_symmetry_group_IT_number 11
_symmetry_cell_setting 'monoclinic'
loop_
_space_group_symop_operation_xyz
x,y,z
-x,1/2+y,-z
-x,-y,-z
x,1/2-y,z
loop_
_atom_site_type_symbol
_atom_site_label
_atom_site_fract_x
_atom_site_fract_y
_atom_site_fract_z
Si Si1 0.651506 0.922788 0.729138
Si Si2 0.991755 0.581136 0.932600
Si Si3 0.447145 0.918356 0.329364
Si Si4 0.053742 0.922830 0.633233
Si Si5 0.816437 0.576980 0.322376
Si Si6 0.890455 0.916448 0.192401
Si Si7 0.703475 0.919539 0.110756
Si Si8 0.395686 0.924626 0.450373
O O1 0.616638 0.750000 0.741315
O O2 0.857111 0.965925 0.677326
O O3 0.640100 0.980549 0.680378
O O4 0.496746 0.997254 0.816910
O O5 0.057420 0.750000 0.910129
O O6 0.974594 0.522336 0.885513
O O7 0.150594 0.485155 0.902840
O O8 0.788120 0.562502 0.029094
O O9 0.387002 0.750000 0.341226
O O10 0.674281 0.933202 0.250356
O O11 0.365486 0.976942 0.407340
O O12 0.075441 0.750000 0.632005
O O13 0.225413 0.986141 0.541538
O O14 0.059569 0.996393 0.681825
O O15 0.822988 0.750000 0.328883
O O16 0.908153 0.537265 0.240349
O O17 0.597960 0.518516 0.400106
O O18 0.960841 0.750000 0.161266
O O19 0.671677 0.750000 0.135049
O O20 0.401763 0.750000 0.447263
#
# Coordination Sequence:
#
# PCOD8070291 Si02
#       8
#     4   4   4   4   4   4   4   4
#     4  11  22  33  47  71 104 137 171 208 246 294
#     4  10  19  30  50  79 104 127 161 203 247 296
#     4   9  17  31  51  72  97 134 168 198 250 306
#     4  10  21  35  50  71 101 136 170 211 257 292
#     4   9  18  33  54  77  98 128 171 210 247 299
#     4   9  17  30  50  76 104 131 161 203 252 297
#     4  10  20  33  49  72 103 136 165 198 244 297
#     4   8  16  33  54  74  99 129 164 211 259 299
#
# _framework density 17.517429
#
# number of rings (size 3 to 8) (size 9 to 14) (size 15 to 20)
#    0.000    2.500    1.250    3.000    0.000    3.500 
#    0.000    2.500    0.000    0.750    0.000    0.000 
#    0.000    0.000    0.000    0.000    0.000    0.000 
#
# Total GULP energy -396781.135268 kJ/mol
# GULP energy per Si atom -12399.410477 kJ/mol
# Density = 1.747756 g / cm^3
# Si number density = 17.517429 Si / 1000 Ang^3
#
#
#
# Elastic Constant Matrix: (Units=GPa)
#
#
# Indices 1 2 3 4 5 6 
#
# 1 113.2903 46.8356 47.0520 0.0000 16.7754 0.0000
# 2 46.8356 66.7699 34.6545 0.0000 7.4188 0.0000
# 3 47.0520 34.6545 70.3941 0.0000 20.7515 0.0000
# 4 0.0000 0.0000 0.0000 23.7246 0.0000 3.3464
# 5 16.7754 7.4188 20.7515 0.0000 23.2245 0.0000
# 6 0.0000 0.0000 0.0000 3.3464 0.0000 28.2070
#
#
#
# Elastic Compliance Matrix: (Units=1/GPa)
#
#
# Indices 1 2 3 4 5 6 
#
# 1 0.014387 -0.007053 -0.005084 0.000000 -0.003596 0.000000
# 2 -0.007053 0.023762 -0.008481 0.000000 0.005083 0.000000
# 3 -0.005084 -0.008481 0.027013 0.000000 -0.017755 0.000000
# 4 0.000000 0.000000 0.000000 0.042868 0.000000 -0.005086
# 5 -0.003596 0.005083 -0.017755 0.000000 0.059897 0.000000
# 6 0.000000 0.000000 0.000000 -0.005086 0.000000 0.036056
#
#
# Mechanical properties :
#
#
# Convention : Reuss Voigt Hill
#
# Bulk Modulus (GPa) = 41.79838 56.39316 49.09577
# Shear Modulus (GPa) = 19.74773 23.15870 21.45322
#
# Velocity S-wave (km/s) = 3.36120 3.63993 3.50334
# Velocity P-wave (km/s) = 6.24311 7.06597 6.66724
#
# Compressibility (1/GPa) = 0.02392437
#
# Stress axis : x y z
#
# Youngs Moduli (GPa) = 69.50843 42.08457 37.01896
#
# Poissons Ratio (x) = 0.29684 0.18819
# Poissons Ratio (y) = 0.49027 0.31397
# Poissons Ratio (z) = 0.35336 0.35694
#
# Static dielectric constant tensor:
#      x y z
#    x 3.115520 0.000000 0.252380 
#    y 0.000000 3.131560 0.000000 
#    z 0.252380 0.000000 3.442040 
# 
# 
# High freq. dielectric constant tensor:
#      x y z
#    x 1.660230 0.000000 0.024140 
#    y 0.000000 1.668780 0.000000 
#    z 0.024140 0.000000 1.674340 
# 
# From -- ./inp_files/73101.got.cif
#   From: 2010.06.25/outbox.cif.g09.slc.cpg/sg11_37_cif.got.tgz:73101.got - 2010.06.27 23:14:04.
