data_PCOD8070573
_publ_section_title
;
Structure prediction by ZEFSAII (Michael W. Deem and Ramdas Pophale) SiO2 
 PCOD8070573
Probable space group: P 21/M
;
_chemical_formula_sum "Si O2"
_cell_formula_units_Z 32
_cell_length_a 15.206936
_cell_length_b 9.090707
_cell_length_c 22.396680
_cell_angle_alpha 90.000000
_cell_angle_beta 148.108268
_cell_angle_gamma 90.000000
_cell_volume 1635.748906
_symmetry_space_group_name_H-M "P 21/M"
_symmetry_group_IT_number 11
_symmetry_cell_setting 'monoclinic'
loop_
_space_group_symop_operation_xyz
x,y,z
-x,1/2+y,-z
-x,-y,-z
x,1/2-y,z
loop_
_atom_site_type_symbol
_atom_site_label
_atom_site_fract_x
_atom_site_fract_y
_atom_site_fract_z
Si Si1 0.972740 0.922652 0.170499
Si Si2 0.345560 0.581058 0.055860
Si Si3 0.796894 0.587677 0.792066
Si Si4 0.545422 0.411541 0.469199
Si Si5 0.613154 0.423053 0.784024
Si Si6 0.607944 0.581283 0.110839
Si Si7 0.980176 0.922207 0.312608
Si Si8 0.279610 0.423254 0.527031
O O1 0.979783 0.750000 0.161928
O O2 0.024477 0.958649 0.268593
O O3 0.091999 0.001357 0.191517
O O4 0.785540 0.978354 0.053148
O O5 0.285156 0.750000 0.017235
O O6 0.363749 0.530175 0.134533
O O7 0.524712 0.561856 0.127866
O O8 0.876227 0.750000 0.850866
O O9 0.615535 0.612896 0.662485
O O10 0.765316 0.498181 0.835259
O O11 0.500000 0.500000 0.500000
O O12 0.624043 0.250000 0.529182
O O13 0.676820 0.514940 0.512853
O O14 0.629633 0.250000 0.782511
O O15 0.425077 0.472834 0.656782
O O16 0.614935 0.750000 0.094765
O O17 0.795013 0.518612 0.220334
O O18 0.500000 0.500000 0.000000
O O19 0.995785 0.750000 0.334012
O O20 0.097918 0.002832 0.430004
O O21 0.258762 0.250000 0.514263
#
# Coordination Sequence:
#
# PCOD8070573 Si02
#       8
#     4   4   4   4   4   4   4   4
#     4  11  22  35  54  82 115 147 183 229 278 328
#     4  10  21  38  61  83 108 144 184 229 278 330
#     4  10  21  35  52  77 108 146 189 228 270 324
#     4  10  19  31  49  74 105 141 184 228 274 325
#     4   9  20  39  58  79 109 147 189 229 272 321
#     4  10  20  37  60  86 113 143 178 223 279 334
#     4  10  21  36  55  83 117 146 178 224 280 333
#     4  10  20  34  54  78 107 145 186 226 270 321
#
# _framework density 19.562905000000001
#
# number of rings (size 3 to 8) (size 9 to 14) (size 15 to 20)
#    0.000    2.000    1.250    2.250    0.000    6.500 
#    0.000    0.625    0.000    0.000    0.000    0.000 
#    0.000    0.000    0.000    0.000    0.000    0.000 
#
# Total GULP energy -396602.156508 kJ/mol
# GULP energy per Si atom -12393.817391 kJ/mol
# Density = 1.951838 g / cm^3
# Si number density = 19.562905 Si / 1000 Ang^3
#
#
#
# Elastic Constant Matrix: (Units=GPa)
#
#
# Indices 1 2 3 4 5 6 
#
# 1 76.3322 22.2747 6.3033 0.0000 6.6984 0.0000
# 2 22.2747 67.6272 25.4154 0.0000 1.8800 0.0000
# 3 6.3033 25.4154 68.8617 0.0000 11.8580 0.0000
# 4 0.0000 0.0000 0.0000 31.1227 0.0000 6.1130
# 5 6.6984 1.8800 11.8580 0.0000 32.4147 0.0000
# 6 0.0000 0.0000 0.0000 6.1130 0.0000 22.4963
#
#
#
# Elastic Compliance Matrix: (Units=1/GPa)
#
#
# Indices 1 2 3 4 5 6 
#
# 1 0.014806 -0.005206 0.001111 0.000000 -0.003164 0.000000
# 2 -0.005206 0.019060 -0.006993 0.000000 0.002529 0.000000
# 3 0.001111 -0.006993 0.018112 0.000000 -0.006450 0.000000
# 4 0.000000 0.000000 0.000000 0.033942 0.000000 -0.009223
# 5 -0.003164 0.002529 -0.006450 0.000000 0.033717 0.000000
# 6 0.000000 0.000000 0.000000 -0.009223 0.000000 0.046958
#
#
# Mechanical properties :
#
#
# Convention : Reuss Voigt Hill
#
# Bulk Modulus (GPa) = 33.55675 35.64532 34.60104
# Shear Modulus (GPa) = 25.16288 27.79526 26.47907
#
# Velocity S-wave (km/s) = 3.59033 3.77346 3.68303
# Velocity P-wave (km/s) = 5.86326 6.10293 5.98429
#
# Compressibility (1/GPa) = 0.02980026
#
# Stress axis : x y z
#
# Youngs Moduli (GPa) = 67.54119 52.46664 55.21216
#
# Poissons Ratio (x) = 0.27316 -0.06135
# Poissons Ratio (y) = 0.35164 0.38612
# Poissons Ratio (z) = -0.07505 0.36692
#
# Static dielectric constant tensor:
#      x y z
#    x 3.584060 0.000000 0.187470 
#    y 0.000000 3.703490 0.000000 
#    z 0.187470 0.000000 3.606320 
# 
# 
# High freq. dielectric constant tensor:
#      x y z
#    x 1.750640 0.000000 0.012070 
#    y 0.000000 1.764050 0.000000 
#    z 0.012070 0.000000 1.764400 
# 
# From -- ./inp_files/69114.got.cif
#   From: 2010.06.25/outbox.cif.g09.slc.cpg/sg11_35_cif.got.tgz:69114.got - 2010.06.27 23:14:04.
