data_PCOD8070304
_publ_section_title
;
Structure prediction by ZEFSAII (Michael W. Deem and Ramdas Pophale) SiO2 
 PCOD8070304
Probable space group: P 21/M
;
_chemical_formula_sum "Si O2"
_cell_formula_units_Z 32
_cell_length_a 30.191421
_cell_length_b 9.137408
_cell_length_c 11.998775
_cell_angle_alpha 90.000000
_cell_angle_beta 150.040681
_cell_angle_gamma 90.000000
_cell_volume 1653.023234
_symmetry_space_group_name_H-M "P 21/M"
_symmetry_group_IT_number 11
_symmetry_cell_setting 'monoclinic'
loop_
_space_group_symop_operation_xyz
x,y,z
-x,1/2+y,-z
-x,-y,-z
x,1/2-y,z
loop_
_atom_site_type_symbol
_atom_site_label
_atom_site_fract_x
_atom_site_fract_y
_atom_site_fract_z
Si Si1 0.298526 0.585753 0.688495
Si Si2 0.040767 0.920039 0.916315
Si Si3 0.261945 0.420057 0.162053
Si Si4 0.060515 0.077705 0.723181
Si Si5 0.436252 0.411594 0.439119
Si Si6 0.656912 0.086784 0.463544
Si Si7 0.491927 0.585442 0.156824
Si Si8 0.129737 0.081763 0.310926
O O1 0.284585 0.750000 0.706076
O O2 0.293237 0.588566 0.544047
O O3 0.220671 0.480118 0.562070
O O4 0.392752 0.520183 0.934075
O O5 0.066478 0.750000 0.954152
O O6 0.941602 0.935845 0.746837
O O7 0.045682 0.005918 0.811045
O O8 0.106447 0.989810 0.149925
O O9 0.280740 0.250000 0.228237
O O10 0.334646 0.473241 0.227874
O O11 0.276958 0.503684 0.309937
O O12 0.161893 0.446737 0.903270
O O13 0.037965 0.250000 0.680834
O O14 0.000000 0.000000 0.500000
O O15 0.500000 0.500000 0.500000
O O16 0.433185 0.250000 0.381541
O O17 0.477833 0.413920 0.650989
O O18 0.640887 0.250000 0.474625
O O19 0.561075 0.011049 0.237574
O O20 0.490399 0.750000 0.103102
O O21 0.140662 0.250000 0.298797
#
# Coordination Sequence:
#
# PCOD8070304 Si02
#       8
#     4   4   4   4   4   4   4   4
#     4  10  20  33  50  77 112 145 178 221 273 328
#     4  10  21  39  60  82 113 148 188 237 285 340
#     4   9  20  38  57  78 107 144 181 220 274 332
#     4  11  23  40  62  87 116 151 191 240 294 344
#     4   9  18  35  56  76 101 137 179 222 267 318
#     4  10  19  30  51  81 108 138 179 225 268 317
#     4   9  19  35  51  71 106 145 178 217 271 330
#     4  10  21  36  57  84 112 148 190 232 283 342
#
# _framework density 19.358470000000001
#
# number of rings (size 3 to 8) (size 9 to 14) (size 15 to 20)
#    0.000    2.250    0.000    3.375    0.000    8.000 
#    2.250    0.000    0.000    0.000    0.000    0.000 
#    0.000    0.000    0.000    0.000    0.000    0.000 
#
# Total GULP energy -396741.075796 kJ/mol
# GULP energy per Si atom -12398.158619 kJ/mol
# Density = 1.931441 g / cm^3
# Si number density = 19.358470 Si / 1000 Ang^3
#
#
#
# Elastic Constant Matrix: (Units=GPa)
#
#
# Indices 1 2 3 4 5 6 
#
# 1 80.5188 42.1834 34.8934 0.0000 13.0695 0.0000
# 2 42.1834 105.9761 51.9712 0.0000 14.1241 0.0000
# 3 34.8934 51.9712 118.1705 0.0000 28.2775 0.0000
# 4 0.0000 0.0000 0.0000 32.6340 0.0000 1.5882
# 5 13.0695 14.1241 28.2775 0.0000 25.3094 0.0000
# 6 0.0000 0.0000 0.0000 1.5882 0.0000 31.0453
#
#
#
# Elastic Compliance Matrix: (Units=1/GPa)
#
#
# Indices 1 2 3 4 5 6 
#
# 1 0.016499 -0.005252 -0.001672 0.000000 -0.003722 0.000000
# 2 -0.005252 0.013725 -0.004506 0.000000 0.000088 0.000000
# 3 -0.001672 -0.004506 0.013826 0.000000 -0.012069 0.000000
# 4 0.000000 0.000000 0.000000 0.030719 0.000000 -0.001572
# 5 -0.003722 0.000088 -0.012069 0.000000 0.054869 0.000000
# 6 0.000000 0.000000 0.000000 -0.001572 0.000000 0.032291
#
#
# Mechanical properties :
#
#
# Convention : Reuss Voigt Hill
#
# Bulk Modulus (GPa) = 47.19067 62.52903 54.85985
# Shear Modulus (GPa) = 26.06169 29.50558 27.78363
#
# Velocity S-wave (km/s) = 3.67313 3.90830 3.79254
# Velocity P-wave (km/s) = 6.51302 7.26203 6.89770
#
# Compressibility (1/GPa) = 0.02119063
#
# Stress axis : x y z
#
# Youngs Moduli (GPa) = 60.60862 72.86089 72.32760
#
# Poissons Ratio (x) = 0.38264 0.12091
# Poissons Ratio (y) = 0.31830 0.32593
# Poissons Ratio (z) = 0.10132 0.32834
#
# Static dielectric constant tensor:
#      x y z
#    x 13.363600 0.000000 1.424460 
#    y 0.000000 3.717220 0.000000 
#    z 1.424460 0.000000 3.737450 
# 
# 
# High freq. dielectric constant tensor:
#      x y z
#    x 1.740070 0.000000 0.021530 
#    y 0.000000 1.757740 0.000000 
#    z 0.021530 0.000000 1.756800 
# 
# From -- ./inp_files/45325.got.cif
#   From: 2010.06.25/outbox.cif.g09.slc.cpg/sg11_23_cif.got.tgz:45325.got - 2010.06.27 23:14:04.
