data_PCOD8070010
_publ_section_title
;
Structure prediction by ZEFSAII (Michael W. Deem and Ramdas Pophale) SiO2 
 PCOD8070010
Probable space group: P 21/M
;
_chemical_formula_sum "Si O2"
_cell_formula_units_Z 32
_cell_length_a 21.559813
_cell_length_b 9.096269
_cell_length_c 12.146581
_cell_angle_alpha 90.000000
_cell_angle_beta 46.288704
_cell_angle_gamma 90.000000
_cell_volume 1721.864843
_symmetry_space_group_name_H-M "P 21/M"
_symmetry_group_IT_number 11
_symmetry_cell_setting 'monoclinic'
loop_
_space_group_symop_operation_xyz
x,y,z
-x,1/2+y,-z
-x,-y,-z
x,1/2-y,z
loop_
_atom_site_type_symbol
_atom_site_label
_atom_site_fract_x
_atom_site_fract_y
_atom_site_fract_z
Si Si1 0.306204 0.081029 0.492783
Si Si2 0.231145 0.420291 0.354671
Si Si3 0.641492 0.425184 0.957170
Si Si4 0.216923 0.917845 0.042936
Si Si5 0.909623 0.421582 0.604618
Si Si6 0.565225 0.909756 0.352032
Si Si7 0.518621 0.085161 0.776632
Si Si8 0.745643 0.578414 0.204823
O O1 0.335603 0.250000 0.473651
O O2 0.238105 0.066825 0.478160
O O3 0.257778 0.024594 0.663620
O O4 0.390447 0.986849 0.362483
O O5 0.229152 0.250000 0.319458
O O6 0.314068 0.500308 0.202492
O O7 0.144373 0.501631 0.426130
O O8 0.642240 0.250000 0.941392
O O9 0.695962 0.470472 0.999618
O O10 0.542779 0.482578 0.073198
O O11 0.227889 0.750000 0.997298
O O12 0.137369 0.944173 0.221740
O O13 0.190596 0.999835 0.960236
O O14 0.920170 0.250000 0.563203
O O15 0.000000 0.500000 0.500000
O O16 0.568325 0.750000 0.404199
O O17 0.538681 0.899971 0.260157
O O18 0.658526 0.977413 0.253429
O O19 0.500000 0.000000 0.500000
O O20 0.532748 0.250000 0.809265
O O21 0.765427 0.750000 0.175138
#
# Coordination Sequence:
#
# PCOD8070010 Si02
#       8
#     4   4   4   4   4   4   4   4
#     4  10  22  37  51  72 105 148 188 223 267 316
#     4  10  21  38  58  79 107 141 178 219 265 320
#     4  10  20  34  52  73 103 141 182 232 281 320
#     4   9  19  33  52  81 111 136 168 214 267 315
#     4  10  21  39  64  93 116 136 165 207 262 319
#     4  10  19  29  44  68  98 136 183 233 274 310
#     4  11  21  31  47  73 101 139 190 235 276 319
#     4  10  19  32  50  73 105 142 181 222 266 315
#
# _framework density 18.584500999999999
#
# number of rings (size 3 to 8) (size 9 to 14) (size 15 to 20)
#    0.000    2.000    2.500    2.250    0.000    5.500 
#    0.000    0.000    0.000    0.750    0.000    0.000 
#    0.000    0.000    0.000    0.000    0.000    0.000 
#
# Total GULP energy -396528.829858 kJ/mol
# GULP energy per Si atom -12391.525933 kJ/mol
# Density = 1.854220 g / cm^3
# Si number density = 18.584501 Si / 1000 Ang^3
#
#
#
# Elastic Constant Matrix: (Units=GPa)
#
#
# Indices 1 2 3 4 5 6 
#
# 1 74.7790 40.5902 47.2616 0.0000 11.6535 0.0000
# 2 40.5902 101.7714 45.4833 0.0000 2.4026 0.0000
# 3 47.2616 45.4833 75.7761 0.0000 8.3914 0.0000
# 4 0.0000 0.0000 0.0000 34.4243 0.0000 -1.6086
# 5 11.6535 2.4026 8.3914 0.0000 27.1815 0.0000
# 6 0.0000 0.0000 0.0000 -1.6086 0.0000 23.0528
#
#
#
# Elastic Compliance Matrix: (Units=1/GPa)
#
#
# Indices 1 2 3 4 5 6 
#
# 1 0.024096 -0.004178 -0.011822 0.000000 -0.006312 0.000000
# 2 -0.004178 0.014200 -0.006189 0.000000 0.002447 0.000000
# 3 -0.011822 -0.006189 0.024500 0.000000 -0.001948 0.000000
# 4 0.000000 0.000000 0.000000 0.029144 0.000000 0.002034
# 5 -0.006312 0.002447 -0.001948 0.000000 0.039881 0.000000
# 6 0.000000 0.000000 0.000000 0.002034 0.000000 0.043521
#
#
# Mechanical properties :
#
#
# Convention : Reuss Voigt Hill
#
# Bulk Modulus (GPa) = 54.28979 57.66628 55.97804
# Shear Modulus (GPa) = 22.13770 24.86447 23.50109
#
# Velocity S-wave (km/s) = 3.45511 3.66172 3.55991
# Velocity P-wave (km/s) = 6.72256 6.99816 6.86174
#
# Compressibility (1/GPa) = 0.01841967
#
# Stress axis : x y z
#
# Youngs Moduli (GPa) = 41.50111 70.42116 40.81556
#
# Poissons Ratio (x) = 0.29421 0.48252
# Poissons Ratio (y) = 0.17339 0.25259
# Poissons Ratio (z) = 0.49062 0.43581
#
# Static dielectric constant tensor:
#      x y z
#    x 3.243920 0.000000 0.166550 
#    y 0.000000 3.558590 0.000000 
#    z 0.166550 0.000000 3.393340 
# 
# 
# High freq. dielectric constant tensor:
#      x y z
#    x 1.696800 0.000000 0.018550 
#    y 0.000000 1.729550 0.000000 
#    z 0.018550 0.000000 1.713610 
# 
# From -- ./inp_files/38186.got.cif
#   From: 2010.06.25/outbox.cif.g09.slc.cpg/sg11_20_cif.got.tgz:38186.got - 2010.06.27 23:14:04.
