data_PCOD8070166
_publ_section_title
;
Structure prediction by ZEFSAII (Michael W. Deem and Ramdas Pophale) SiO2 
 PCOD8070166
Probable space group: P 21/M
;
_chemical_formula_sum "Si O2"
_cell_formula_units_Z 32
_cell_length_a 14.594835
_cell_length_b 8.816353
_cell_length_c 15.655146
_cell_angle_alpha 90.000000
_cell_angle_beta 117.194543
_cell_angle_gamma 90.000000
_cell_volume 1791.726256
_symmetry_space_group_name_H-M "P 21/M"
_symmetry_group_IT_number 11
_symmetry_cell_setting 'monoclinic'
loop_
_space_group_symop_operation_xyz
x,y,z
-x,1/2+y,-z
-x,-y,-z
x,1/2-y,z
loop_
_atom_site_type_symbol
_atom_site_label
_atom_site_fract_x
_atom_site_fract_y
_atom_site_fract_z
Si Si1 0.580349 0.578099 0.735626
Si Si2 0.077628 0.428664 0.353072
Si Si3 0.282033 0.427604 0.356937
Si Si4 0.810862 0.571294 0.429912
Si Si5 0.342182 0.072024 0.902421
Si Si6 0.148664 0.929397 0.733128
Si Si7 0.451530 0.926885 0.101475
Si Si8 0.369462 0.575770 0.554957
O O1 0.582603 0.750000 0.772127
O O2 0.684189 0.540484 0.726292
O O3 0.570391 0.464187 0.809827
O O4 0.488130 0.556042 0.629777
O O5 0.072161 0.250000 0.353594
O O6 0.162717 0.480157 0.319114
O O7 0.112755 0.483380 0.462140
O O8 0.963488 0.489811 0.282139
O O9 0.294345 0.250000 0.384796
O O10 0.355050 0.520412 0.451951
O O11 0.816048 0.750000 0.413340
O O12 0.840333 0.479208 0.359258
O O13 0.695199 0.527973 0.407475
O O14 0.327079 0.250000 0.897388
O O15 0.432215 0.023733 0.874355
O O16 0.235026 0.999289 0.829925
O O17 0.369979 0.015998 0.008787
O O18 0.158043 0.750000 0.742626
O O19 0.435624 0.750000 0.078251
O O20 0.333821 0.750000 0.547985
#
# Coordination Sequence:
#
# PCOD8070166 Si02
#       8
#     4   4   4   4   4   4   4   4
#     4  10  20  32  50  74 101 133 166 202 245 294
#     4   8  17  32  49  69  97 133 170 207 244 283
#     4   9  18  34  51  69  98 136 172 204 243 288
#     4  10  19  32  48  69 100 137 171 202 243 293
#     4  10  21  37  55  76 102 130 158 193 243 299
#     4  11  20  31  50  75 100 128 165 207 247 288
#     4  10  21  36  55  77 101 128 158 197 243 292
#     4  10  19  30  46  73 104 133 167 206 246 287
#
# _framework density 17.859870999999998
#
# number of rings (size 3 to 8) (size 9 to 14) (size 15 to 20)
#    0.000    2.250    0.000    4.125    0.000    5.000 
#    0.000    5.625    0.000    0.750    0.000    0.000 
#    0.000    0.000    0.000    0.000    0.000    0.000 
#
# Total GULP energy -396768.532357 kJ/mol
# GULP energy per Si atom -12399.016636 kJ/mol
# Density = 1.781922 g / cm^3
# Si number density = 17.859871 Si / 1000 Ang^3
#
#
#
# Elastic Constant Matrix: (Units=GPa)
#
#
# Indices 1 2 3 4 5 6 
#
# 1 98.8603 28.6395 58.3361 0.0000 6.5597 0.0000
# 2 28.6395 57.1115 35.7537 0.0000 6.6762 0.0000
# 3 58.3361 35.7537 79.1309 0.0000 5.9084 0.0000
# 4 0.0000 0.0000 0.0000 32.1226 0.0000 -1.5013
# 5 6.5597 6.6762 5.9084 0.0000 28.1523 0.0000
# 6 0.0000 0.0000 0.0000 -1.5013 0.0000 21.8463
#
#
#
# Elastic Compliance Matrix: (Units=1/GPa)
#
#
# Indices 1 2 3 4 5 6 
#
# 1 0.017991 -0.000875 -0.012771 0.000000 -0.001304 0.000000
# 2 -0.000875 0.024809 -0.010302 0.000000 -0.003517 0.000000
# 3 -0.012771 -0.010302 0.026721 0.000000 -0.000189 0.000000
# 4 0.000000 0.000000 0.000000 0.031231 0.000000 0.002146
# 5 -0.001304 -0.003517 -0.000189 0.000000 0.036699 0.000000
# 6 0.000000 0.000000 0.000000 0.002146 0.000000 0.045922
#
#
# Mechanical properties :
#
#
# Convention : Reuss Voigt Hill
#
# Bulk Modulus (GPa) = 46.24011 53.39570 49.81790
# Shear Modulus (GPa) = 20.96655 23.91579 22.44117
#
# Velocity S-wave (km/s) = 3.43001 3.66331 3.54858
# Velocity P-wave (km/s) = 6.45239 6.91774 6.68911
#
# Compressibility (1/GPa) = 0.02162625
#
# Stress axis : x y z
#
# Youngs Moduli (GPa) = 55.58361 40.30839 37.42412
#
# Poissons Ratio (x) = 0.03525 0.47793
# Poissons Ratio (y) = 0.04861 0.38554
# Poissons Ratio (z) = 0.70983 0.41526
#
# Static dielectric constant tensor:
#      x y z
#    x 3.642920 0.000000 0.161750 
#    y 0.000000 3.291500 0.000000 
#    z 0.161750 0.000000 3.123070 
# 
# 
# High freq. dielectric constant tensor:
#      x y z
#    x 1.693090 0.000000 0.002390 
#    y 0.000000 1.690480 0.000000 
#    z 0.002390 0.000000 1.668300 
# 
# From -- ./inp_files/51647.got.cif
#   From: 2010.06.25/outbox.cif.g09.slc.cpg/sg11_26_cif.got.tgz:51647.got - 2010.06.27 23:14:04.
