data_PCOD8070170
_publ_section_title
;
Structure prediction by ZEFSAII (Michael W. Deem and Ramdas Pophale) SiO2 
 PCOD8070170
Probable space group: P 21/M
;
_chemical_formula_sum "Si O2"
_cell_formula_units_Z 28
_cell_length_a 17.557010
_cell_length_b 9.174217
_cell_length_c 16.193179
_cell_angle_alpha 90.000000
_cell_angle_beta 41.543346
_cell_angle_gamma 90.000000
_cell_volume 1729.765920
_symmetry_space_group_name_H-M "P 21/M"
_symmetry_group_IT_number 11
_symmetry_cell_setting 'monoclinic'
loop_
_space_group_symop_operation_xyz
x,y,z
-x,1/2+y,-z
-x,-y,-z
x,1/2-y,z
loop_
_atom_site_type_symbol
_atom_site_label
_atom_site_fract_x
_atom_site_fract_y
_atom_site_fract_z
Si Si1 0.441523 0.914663 0.666891
Si Si2 0.784504 0.415752 0.420428
Si Si3 0.175794 0.081643 0.323382
Si Si4 0.059140 0.916245 0.563422
Si Si5 0.592674 0.077520 0.868587
Si Si6 0.325968 0.085710 0.625872
Si Si7 0.440103 0.582352 0.294155
O O1 0.400774 0.750000 0.714325
O O2 0.557559 0.921951 0.520361
O O3 0.341176 0.998417 0.698973
O O4 0.462300 0.988830 0.738754
O O5 0.775263 0.250000 0.396863
O O6 0.903955 0.446232 0.371594
O O7 0.775785 0.516169 0.346503
O O8 0.684399 0.450867 0.567126
O O9 0.212401 0.250000 0.303153
O O10 0.077623 0.062185 0.333140
O O11 0.126310 0.027380 0.450520
O O12 0.283416 0.986107 0.207618
O O13 0.094126 0.750000 0.510348
O O14 0.592617 0.250000 0.883740
O O15 0.562800 0.037248 0.798757
O O16 0.500000 0.000000 0.000000
O O17 0.291490 0.250000 0.675790
O O18 0.473978 0.750000 0.278357
#
# Coordination Sequence:
#
# PCOD8070170 Si02
#       7
#     4   4   4   4   4   4   4
#     4   9  16  25  38  56  80 111 146 180 215 261
#     4   9  15  26  42  60  86 118 149 180 219 264
#     4  10  19  30  47  68  90 118 154 191 231 274
#     4   9  17  30  46  66  92 122 153 188 227 272
#     4  11  22  36  50  66  90 120 156 196 237 274
#     4   9  16  24  35  56  84 113 145 178 215 259
#     4   9  17  29  44  59  82 115 148 184 225 267
#
# _framework density 16.187161
#
# number of rings (size 3 to 8) (size 9 to 14) (size 15 to 20)
#    0.000    2.571    1.429    1.714    0.000    5.714 
#    0.000    0.000    0.000    0.000    0.000    0.000 
#    0.000    1.143    0.000    3.429    0.000    4.571 
#
# Total GULP energy -347165.025925 kJ/mol
# GULP energy per Si atom -12398.750926 kJ/mol
# Density = 1.615032 g / cm^3
# Si number density = 16.187161 Si / 1000 Ang^3
#
#
#
# Elastic Constant Matrix: (Units=GPa)
#
#
# Indices 1 2 3 4 5 6 
#
# 1 146.1541 76.1034 31.9041 0.0000 6.4058 0.0000
# 2 76.1034 113.8489 31.5294 0.0000 2.6390 0.0000
# 3 31.9041 31.5294 42.3338 0.0000 -4.3215 0.0000
# 4 0.0000 0.0000 0.0000 18.3330 0.0000 2.8368
# 5 6.4058 2.6390 -4.3215 0.0000 13.7806 0.0000
# 6 0.0000 0.0000 0.0000 2.8368 0.0000 32.1621
#
#
#
# Elastic Compliance Matrix: (Units=1/GPa)
#
#
# Indices 1 2 3 4 5 6 
#
# 1 0.011266 -0.006172 -0.004450 0.000000 -0.005451 0.000000
# 2 -0.006172 0.014772 -0.006556 0.000000 -0.002016 0.000000
# 3 -0.004450 -0.006556 0.033262 0.000000 0.013755 0.000000
# 4 0.000000 0.000000 0.000000 0.055301 0.000000 -0.004878
# 5 -0.005451 -0.002016 0.013755 0.000000 0.079799 0.000000
# 6 0.000000 0.000000 0.000000 -0.004878 0.000000 0.031523
#
#
# Mechanical properties :
#
#
# Convention : Reuss Voigt Hill
#
# Bulk Modulus (GPa) = 40.08983 64.60117 52.34550
# Shear Modulus (GPa) = 18.61542 23.70845 21.16193
#
# Velocity S-wave (km/s) = 3.39486 3.83122 3.61962
# Velocity P-wave (km/s) = 6.33932 7.71794 7.06235
#
# Compressibility (1/GPa) = 0.02494398
#
# Stress axis : x y z
#
# Youngs Moduli (GPa) = 88.75961 67.69628 30.06414
#
# Poissons Ratio (x) = 0.41785 0.13379
# Poissons Ratio (y) = 0.54786 0.19710
# Poissons Ratio (z) = 0.39498 0.44380
#
# Static dielectric constant tensor:
#      x y z
#    x 3.330920 0.000000 0.035160 
#    y 0.000000 3.209620 0.000000 
#    z 0.035160 0.000000 2.491440 
# 
# 
# High freq. dielectric constant tensor:
#      x y z
#    x 1.637910 0.000000 0.009120 
#    y 0.000000 1.636270 0.000000 
#    z 0.009120 0.000000 1.544610 
# 
# From -- ./inp_files/53186.got.cif
#   From: 2010.06.25/outbox.cif.g09.slc.cpg/sg11_27_cif.got.tgz:53186.got - 2010.06.27 23:14:04.
