data_PCOD8070945
_publ_section_title
;
Structure prediction by ZEFSAII (Michael W. Deem and Ramdas Pophale) SiO2 
 PCOD8070945
Probable space group: P 21/M
;
_chemical_formula_sum "Si O2"
_cell_formula_units_Z 32
_cell_length_a 19.894099
_cell_length_b 9.675617
_cell_length_c 24.764015
_cell_angle_alpha 90.000000
_cell_angle_beta 156.463060
_cell_angle_gamma 90.000000
_cell_volume 1903.562207
_symmetry_space_group_name_H-M "P 21/M"
_symmetry_group_IT_number 11
_symmetry_cell_setting 'monoclinic'
loop_
_space_group_symop_operation_xyz
x,y,z
-x,1/2+y,-z
-x,-y,-z
x,1/2-y,z
loop_
_atom_site_type_symbol
_atom_site_label
_atom_site_fract_x
_atom_site_fract_y
_atom_site_fract_z
Si Si1 0.928061 0.089638 0.152943
Si Si2 0.057587 0.591164 0.345977
Si Si3 0.442428 0.908838 0.654035
Si Si4 0.571947 0.089638 0.847067
Si Si5 0.761428 0.592241 0.342290
Si Si6 0.517266 0.592071 0.591592
Si Si7 0.738566 0.907758 0.657704
Si Si8 0.017261 0.407927 0.591586
O O1 0.916840 0.250000 0.161298
O O2 0.063088 0.065765 0.204280
O O3 0.979158 0.005571 0.243193
O O4 0.750004 0.034850 0.000005
O O5 0.046790 0.750000 0.318727
O O6 0.947704 0.566110 0.319433
O O7 0.250007 0.550177 0.500006
O O8 0.453233 0.750000 0.681288
O O9 0.552309 0.933901 0.680577
O O10 0.520854 0.005571 0.756818
O O11 0.583165 0.250000 0.838710
O O12 0.436919 0.065760 0.795727
O O13 0.807448 0.750000 0.389922
O O14 0.815825 0.556420 0.320688
O O15 0.860832 0.499331 0.457841
O O16 0.461151 0.750000 0.541194
O O17 0.360834 0.500673 0.457843
O O18 0.684174 0.556419 0.679310
O O19 0.692541 0.750000 0.610068
O O20 0.961143 0.250000 0.541182
#
# Coordination Sequence:
#
# PCOD8070945 Si02
#       8
#     4   4   4   4   4   4   4   4
#     4  10  21  35  50  71 101 134 165 198 239 290
#     4  10  19  32  51  75 100 126 161 205 246 286
#     4  10  19  32  51  75 100 126 161 205 246 286
#     4  10  21  35  50  71 101 134 165 198 239 290
#     4   9  17  30  49  71  96 128 161 196 241 286
#     4   9  17  30  49  73  98 122 157 204 245 283
#     4   9  17  30  49  71  96 128 161 196 241 286
#     4   9  17  30  49  73  98 122 157 204 245 283
#
# _framework density 16.810587999999999
#
# number of rings (size 3 to 8) (size 9 to 14) (size 15 to 20)
#    0.000    2.500    2.500    0.000    0.000    2.000 
#    0.000    1.250    0.000    0.000    0.000    0.000 
#    0.000    0.000    0.000    0.000    0.000    0.000 
#
# Total GULP energy -396700.652785 kJ/mol
# GULP energy per Si atom -12396.895400 kJ/mol
# Density = 1.677233 g / cm^3
# Si number density = 16.810588 Si / 1000 Ang^3
#
#
#
# Elastic Constant Matrix: (Units=GPa)
#
#
# Indices 1 2 3 4 5 6 
#
# 1 118.4251 47.0792 67.9050 0.0000 4.8840 0.0000
# 2 47.0792 60.0482 53.7030 0.0000 -3.3273 0.0000
# 3 67.9050 53.7030 120.3497 0.0000 3.9053 0.0000
# 4 0.0000 0.0000 0.0000 21.6862 0.0000 -4.6650
# 5 4.8840 -3.3273 3.9053 0.0000 23.5405 0.0000
# 6 0.0000 0.0000 0.0000 -4.6650 0.0000 27.7310
#
#
#
# Elastic Compliance Matrix: (Units=1/GPa)
#
#
# Indices 1 2 3 4 5 6 
#
# 1 0.014047 -0.006969 -0.004715 0.000000 -0.003117 0.000000
# 2 -0.006969 0.032040 -0.010616 0.000000 0.007736 0.000000
# 3 -0.004715 -0.010616 0.015808 0.000000 -0.003145 0.000000
# 4 0.000000 0.000000 0.000000 0.047844 0.000000 0.008048
# 5 -0.003117 0.007736 -0.003145 0.000000 0.044742 0.000000
# 6 0.000000 0.000000 0.000000 0.008048 0.000000 0.037415
#
#
# Mechanical properties :
#
#
# Convention : Reuss Voigt Hill
#
# Bulk Modulus (GPa) = 57.81761 70.68859 64.25310
# Shear Modulus (GPa) = 20.63903 23.26726 21.95315
#
# Velocity S-wave (km/s) = 3.50771 3.72436 3.61766
# Velocity P-wave (km/s) = 7.13258 7.78690 7.46691
#
# Compressibility (1/GPa) = 0.01729577
#
# Stress axis : x y z
#
# Youngs Moduli (GPa) = 71.19162 31.21091 63.25791
#
# Poissons Ratio (x) = 0.21752 0.29823
# Poissons Ratio (y) = 0.49615 0.67154
# Poissons Ratio (z) = 0.33563 0.33133
#
# Static dielectric constant tensor:
#      x y z
#    x 3.510530 0.000000 0.283360 
#    y 0.000000 3.188660 0.000000 
#    z 0.283360 0.000000 2.948730 
# 
# 
# High freq. dielectric constant tensor:
#      x y z
#    x 1.664630 0.000000 0.019230 
#    y 0.000000 1.651250 0.000000 
#    z 0.019230 0.000000 1.611390 
# 
# From -- ./inp_files/66454.got.cif
#   From: 2010.06.25/outbox.cif.g09.slc.cpg/sg11_34_cif.got.tgz:66454.got - 2010.06.27 23:14:04.
