data_PCOD8070059
_publ_section_title
;
Structure prediction by ZEFSAII (Michael W. Deem and Ramdas Pophale) SiO2 
 PCOD8070059
Probable space group: P 21/M
;
_chemical_formula_sum "Si O2"
_cell_formula_units_Z 32
_cell_length_a 15.032986
_cell_length_b 9.065575
_cell_length_c 15.032819
_cell_angle_alpha 90.000000
_cell_angle_beta 95.424963
_cell_angle_gamma 90.000000
_cell_volume 2039.536138
_symmetry_space_group_name_H-M "P 21/M"
_symmetry_group_IT_number 11
_symmetry_cell_setting 'monoclinic'
loop_
_space_group_symop_operation_xyz
x,y,z
-x,1/2+y,-z
-x,-y,-z
x,1/2-y,z
loop_
_atom_site_type_symbol
_atom_site_label
_atom_site_fract_x
_atom_site_fract_y
_atom_site_fract_z
Si Si1 0.279467 0.423322 0.585870
Si Si2 0.896752 0.083420 0.400323
Si Si3 0.387580 0.584055 0.067373
Si Si4 0.585864 0.423323 0.279470
Si Si5 0.380023 0.421444 0.242239
Si Si6 0.400327 0.083421 0.896751
Si Si7 0.242237 0.078557 0.380025
Si Si8 0.067373 0.584054 0.387581
O O1 0.281883 0.250000 0.605012
O O2 0.192892 0.491105 0.626432
O O3 0.367771 0.499993 0.632231
O O4 0.278313 0.459751 0.481266
O O5 0.884327 0.250000 0.363874
O O6 0.918407 0.083246 0.506065
O O7 0.978182 0.007138 0.354960
O O8 0.350617 0.750000 0.056459
O O9 0.348207 0.510086 0.152417
O O10 0.493932 0.583251 0.081593
O O11 0.354963 0.492855 0.978182
O O12 0.605003 0.250000 0.281898
O O13 0.481262 0.459757 0.278317
O O14 0.626424 0.491091 0.192890
O O15 0.370554 0.250000 0.218458
O O16 0.318239 0.469796 0.318242
O O17 0.363878 0.250000 0.884318
O O18 0.218455 0.250000 0.370551
O O19 0.152416 0.989915 0.348209
O O20 0.056462 0.750000 0.350620
#
# Coordination Sequence:
#
# PCOD8070059 Si02
#       8
#     4   4   4   4   4   4   4   4
#     4  10  19  30  43  60  84 114 148 183 216 252
#     4   9  16  27  43  61  81 106 136 172 216 261
#     4   9  16  26  42  63  83 104 134 174 218 259
#     4  10  19  30  43  60  84 114 148 183 216 252
#     4   9  18  31  44  59  83 116 150 181 213 251
#     4   9  16  27  43  61  81 106 136 172 216 261
#     4   9  18  31  44  59  83 116 150 181 213 251
#     4   9  16  26  42  63  83 104 134 174 218 259
#
# _framework density 15.689842000000001
#
# number of rings (size 3 to 8) (size 9 to 14) (size 15 to 20)
#    0.000    2.750    0.000    2.250    0.000    8.000 
#    0.000    0.000    0.000    0.000    0.000    0.000 
#    0.000    1.000    0.000    3.750    0.000    5.750 
#
# Total GULP energy -396801.768705 kJ/mol
# GULP energy per Si atom -12400.055272 kJ/mol
# Density = 1.565413 g / cm^3
# Si number density = 15.689842 Si / 1000 Ang^3
#
#
#
# Elastic Constant Matrix: (Units=GPa)
#
#
# Indices 1 2 3 4 5 6 
#
# 1 74.4371 47.6015 43.8386 0.0000 -18.0605 0.0000
# 2 47.6015 112.3423 47.5964 0.0000 -14.8514 0.0000
# 3 43.8386 47.5964 74.4263 0.0000 -18.0588 0.0000
# 4 0.0000 0.0000 0.0000 25.3569 0.0000 1.4396
# 5 -18.0605 -14.8514 -18.0588 0.0000 7.2431 0.0000
# 6 0.0000 0.0000 0.0000 1.4396 0.0000 25.3578
#
#
#
# Elastic Compliance Matrix: (Units=1/GPa)
#
#
# Indices 1 2 3 4 5 6 
#
# 1 0.035962 -0.005065 0.003276 0.000000 0.087455 0.000000
# 2 -0.005065 0.013519 -0.005064 0.000000 0.002464 0.000000
# 3 0.003276 -0.005064 0.035965 0.000000 0.087453 0.000000
# 4 0.000000 0.000000 0.000000 0.039565 0.000000 -0.002246
# 5 0.087455 0.002464 0.087453 0.000000 0.579220 0.000000
# 6 0.000000 0.000000 0.000000 -0.002246 0.000000 0.039563
#
#
# Mechanical properties :
#
#
# Convention : Reuss Voigt Hill
#
# Bulk Modulus (GPa) = 13.93916 59.91986 36.92951
# Shear Modulus (GPa) = 6.39868 19.73617 13.06742
#
# Velocity S-wave (km/s) = 2.02165 3.55053 2.88906
# Velocity P-wave (km/s) = 3.78853 7.42169 5.89213
#
# Compressibility (1/GPa) = 0.07174035
#
# Stress axis : x y z
#
# Youngs Moduli (GPa) = 27.80689 73.97176 27.80509
#
# Poissons Ratio (x) = 0.37464 -0.09110
# Poissons Ratio (y) = 0.14083 0.14081
# Poissons Ratio (z) = -0.09110 0.37462
#
# Static dielectric constant tensor:
#      x y z
#    x 2.817440 0.000000 -0.081550 
#    y 0.000000 3.180190 0.000000 
#    z -0.081550 0.000000 2.817410 
# 
# 
# High freq. dielectric constant tensor:
#      x y z
#    x 1.571670 0.000000 -0.007860 
#    y 0.000000 1.620670 0.000000 
#    z -0.007860 0.000000 1.571670 
# 
# From -- ./inp_files/51275.got.cif
#   From: 2010.06.25/outbox.cif.g09.slc.cpg/sg11_26_cif.got.tgz:51275.got - 2010.06.27 23:14:04.
