data_PCOD8070739
_publ_section_title
;
Structure prediction by ZEFSAII (Michael W. Deem and Ramdas Pophale) SiO2 
 PCOD8070739
Probable space group: P 21/M
;
_chemical_formula_sum "Si O2"
_cell_formula_units_Z 28
_cell_length_a 14.532811
_cell_length_b 8.921998
_cell_length_c 20.344887
_cell_angle_alpha 90.000000
_cell_angle_beta 32.974929
_cell_angle_gamma 90.000000
_cell_volume 1435.763887
_symmetry_space_group_name_H-M "P 21/M"
_symmetry_group_IT_number 11
_symmetry_cell_setting 'monoclinic'
loop_
_space_group_symop_operation_xyz
x,y,z
-x,1/2+y,-z
-x,-y,-z
x,1/2-y,z
loop_
_atom_site_type_symbol
_atom_site_label
_atom_site_fract_x
_atom_site_fract_y
_atom_site_fract_z
Si Si1 0.103186 0.427243 0.787126
Si Si2 0.350446 0.570931 0.547430
Si Si3 0.271193 0.924356 0.452418
Si Si4 0.723546 0.079238 0.051228
Si Si5 0.609577 0.073155 0.759921
Si Si6 0.833289 0.077362 0.125047
Si Si7 0.924806 0.924717 0.608991
O O1 0.126945 0.250000 0.767867
O O2 0.171321 0.509208 0.681562
O O3 0.221174 0.487473 0.776853
O O4 0.907816 0.473704 0.915528
O O5 0.500000 0.500000 0.500000
O O6 0.356603 0.750000 0.548995
O O7 0.359625 0.514080 0.465929
O O8 0.308357 0.750000 0.426213
O O9 0.349126 0.992049 0.338260
O O10 0.067252 0.952432 0.579742
O O11 0.695032 0.250000 0.046560
O O12 0.702366 0.063891 0.143226
O O13 0.578389 0.977152 0.106013
O O14 0.625058 0.250000 0.754608
O O15 0.743771 0.002941 0.731678
O O16 0.867883 0.250000 0.122454
O O17 0.000000 0.000000 0.000000
O O18 0.894489 0.750000 0.614985
O O19 0.000000 0.000000 0.500000
#
# Coordination Sequence:
#
# PCOD8070739 Si02
#       7
#     4   4   4   4   4   4   4
#     4  10  21  37  53  72 103 141 181 224 268 312
#     4  11  23  39  56  77 105 141 184 223 261 313
#     4   8  18  35  53  75 105 140 173 212 265 314
#     4   9  19  33  50  75 105 136 172 216 266 315
#     4  10  19  31  52  83 111 137 169 212 268 323
#     4   9  17  30  48  72  99 133 174 215 262 311
#     4   9  16  31  53  77 105 137 171 213 266 318
#
# _framework density 19.501814
#
# number of rings (size 3 to 8) (size 9 to 14) (size 15 to 20)
#    0.000    2.571    0.000    3.857    2.000    3.429 
#    0.000    7.857    0.000    0.857    0.000    0.000 
#    0.000    0.000    0.000    0.000    0.000    0.000 
#
# Total GULP energy -346912.354601 kJ/mol
# GULP energy per Si atom -12389.726950 kJ/mol
# Density = 1.945743 g / cm^3
# Si number density = 19.501814 Si / 1000 Ang^3
#
#
#
# Elastic Constant Matrix: (Units=GPa)
#
#
# Indices 1 2 3 4 5 6 
#
# 1 72.0922 27.6649 23.8286 0.0000 -18.0191 0.0000
# 2 27.6649 85.4794 23.1967 0.0000 -15.0705 0.0000
# 3 23.8286 23.1967 65.0156 0.0000 -17.3901 0.0000
# 4 0.0000 0.0000 0.0000 30.5347 0.0000 -6.2893
# 5 -18.0191 -15.0705 -17.3901 0.0000 30.8365 0.0000
# 6 0.0000 0.0000 0.0000 -6.2893 0.0000 27.1229
#
#
#
# Elastic Compliance Matrix: (Units=1/GPa)
#
#
# Indices 1 2 3 4 5 6 
#
# 1 0.018163 -0.003726 -0.003504 0.000000 0.006816 0.000000
# 2 -0.003726 0.014241 -0.002869 0.000000 0.003165 0.000000
# 3 -0.003504 -0.002869 0.019744 0.000000 0.007685 0.000000
# 4 0.000000 0.000000 0.000000 0.034392 0.000000 0.007975
# 5 0.006816 0.003165 0.007685 0.000000 0.042293 0.000000
# 6 0.000000 0.000000 0.000000 0.007975 0.000000 0.038718
#
#
# Mechanical properties :
#
#
# Convention : Reuss Voigt Hill
#
# Bulk Modulus (GPa) = 31.29850 41.32972 36.31411
# Shear Modulus (GPa) = 25.20164 27.55861 26.38012
#
# Velocity S-wave (km/s) = 3.59872 3.76324 3.68190
# Velocity P-wave (km/s) = 5.77508 6.33415 6.06106
#
# Compressibility (1/GPa) = 0.03195042
#
# Stress axis : x y z
#
# Youngs Moduli (GPa) = 55.05764 70.21949 50.64718
#
# Poissons Ratio (x) = 0.26161 0.17749
# Poissons Ratio (y) = 0.20512 0.14531
# Poissons Ratio (z) = 0.19294 0.20146
#
# Static dielectric constant tensor:
#      x y z
#    x 3.972080 0.000000 -0.092510 
#    y 0.000000 3.550400 0.000000 
#    z -0.092510 0.000000 3.555150 
# 
# 
# High freq. dielectric constant tensor:
#      x y z
#    x 1.741150 0.000000 -0.023000 
#    y 0.000000 1.757340 0.000000 
#    z -0.023000 0.000000 1.741590 
# 
# From -- ./inp_files/65357.got.cif
#   From: 2010.06.25/outbox.cif.g09.slc.cpg/sg11_33_cif.got.tgz:65357.got - 2010.06.27 23:14:04.
