data_PCOD8070859
_publ_section_title
;
Structure prediction by ZEFSAII (Michael W. Deem and Ramdas Pophale) SiO2 
 PCOD8070859
Probable space group: P 21/M
;
_chemical_formula_sum "Si O2"
_cell_formula_units_Z 28
_cell_length_a 25.947496
_cell_length_b 10.188905
_cell_length_c 21.698661
_cell_angle_alpha 90.000000
_cell_angle_beta 164.206365
_cell_angle_gamma 90.000000
_cell_volume 1561.354445
_symmetry_space_group_name_H-M "P 21/M"
_symmetry_group_IT_number 11
_symmetry_cell_setting 'monoclinic'
loop_
_space_group_symop_operation_xyz
x,y,z
-x,1/2+y,-z
-x,-y,-z
x,1/2-y,z
loop_
_atom_site_type_symbol
_atom_site_label
_atom_site_fract_x
_atom_site_fract_y
_atom_site_fract_z
Si Si1 0.829805 0.108585 0.244703
Si Si2 0.608266 0.389990 0.207877
Si Si3 0.754821 0.953554 0.273277
Si Si4 0.621834 0.597322 0.681853
Si Si5 0.978916 0.403431 0.918437
Si Si6 0.396520 0.404667 0.084334
Si Si7 0.437283 0.903165 0.597488
O O1 0.745736 0.250000 0.127148
O O2 0.054033 0.127513 0.509365
O O3 0.752974 0.077359 0.224391
O O4 0.782994 0.993179 0.141913
O O5 0.715675 0.250000 0.333745
O O6 0.736214 0.498910 0.322655
O O7 0.560383 0.432029 0.222666
O O8 0.419725 0.365311 0.949580
O O9 0.500000 0.500000 0.500000
O O10 0.566379 0.750000 0.604942
O O11 0.568767 0.557936 0.690693
O O12 0.845843 0.575914 0.927170
O O13 0.970167 0.250000 0.929691
O O14 0.781456 0.448264 0.660134
O O15 0.000000 0.500000 0.000000
O O16 0.339507 0.250000 0.020162
O O17 0.470367 0.461761 0.234399
O O18 0.437133 0.750000 0.606679
#
# Coordination Sequence:
#
# PCOD8070859 Si02
#       7
#     4   4   4   4   4   4   4
#     4  10  19  32  50  72 101 131 164 206 253 299
#     4   9  16  29  48  71  95 123 164 206 245 291
#     4   9  18  29  47  73  96 127 162 205 252 298
#     4  10  19  32  54  82 105 134 170 209 257 304
#     4  10  19  32  54  81 105 134 170 210 257 303
#     4   9  19  35  52  71  98 132 166 203 249 300
#     4   9  18  35  53  74 108 139 168 212 255 303
#
# _framework density 17.933147999999999
#
# number of rings (size 3 to 8) (size 9 to 14) (size 15 to 20)
#    0.000    2.571    1.429    0.857    0.000    4.000 
#    2.571    2.143    0.000    0.000    0.000    0.000 
#    0.000    0.000    0.000    0.000    0.000    0.000 
#
# Total GULP energy -346891.677593 kJ/mol
# GULP energy per Si atom -12388.988485 kJ/mol
# Density = 1.789233 g / cm^3
# Si number density = 17.933148 Si / 1000 Ang^3
#
#
#
# Elastic Constant Matrix: (Units=GPa)
#
#
# Indices 1 2 3 4 5 6 
#
# 1 125.9007 37.1977 41.9329 0.0000 -5.0307 0.0000
# 2 37.1977 80.1263 25.4999 0.0000 -5.6632 0.0000
# 3 41.9329 25.4999 74.3738 0.0000 3.2005 0.0000
# 4 0.0000 0.0000 0.0000 13.0647 0.0000 -5.2143
# 5 -5.0307 -5.6632 3.2005 0.0000 31.2303 0.0000
# 6 0.0000 0.0000 0.0000 -5.2143 0.0000 16.5430
#
#
#
# Elastic Compliance Matrix: (Units=1/GPa)
#
#
# Indices 1 2 3 4 5 6 
#
# 1 0.010611 -0.003238 -0.004942 0.000000 0.001629 0.000000
# 2 -0.003238 0.015291 -0.003530 0.000000 0.002613 0.000000
# 3 -0.004942 -0.003530 0.017582 0.000000 -0.003238 0.000000
# 4 0.000000 0.000000 0.000000 0.087557 0.000000 0.027597
# 5 0.001629 0.002613 -0.003238 0.000000 0.033088 0.000000
# 6 0.000000 0.000000 0.000000 0.027597 0.000000 0.069147
#
#
# Mechanical properties :
#
#
# Convention : Reuss Voigt Hill
#
# Bulk Modulus (GPa) = 49.84088 54.40689 52.12389
# Shear Modulus (GPa) = 18.98374 23.88562 21.43468
#
# Velocity S-wave (km/s) = 3.25712 3.65351 3.46100
# Velocity P-wave (km/s) = 6.48059 6.94278 6.71566
#
# Compressibility (1/GPa) = 0.02006385
#
# Stress axis : x y z
#
# Youngs Moduli (GPa) = 94.24551 65.39603 56.87736
#
# Poissons Ratio (x) = 0.21174 0.28111
# Poissons Ratio (y) = 0.30515 0.20076
# Poissons Ratio (z) = 0.46579 0.23083
#
# Static dielectric constant tensor:
#      x y z
#    x 3.559470 0.000000 0.174800 
#    y 0.000000 3.223520 0.000000 
#    z 0.174800 0.000000 3.514800 
# 
# 
# High freq. dielectric constant tensor:
#      x y z
#    x 1.690530 0.000000 0.015320 
#    y 0.000000 1.682030 0.000000 
#    z 0.015320 0.000000 1.677710 
# 
# From -- ./inp_files/66733.got.cif
#   From: 2010.06.25/outbox.cif.g09.slc.cpg/sg11_34_cif.got.tgz:66733.got - 2010.06.27 23:14:04.
