data_PCOD8070773
_publ_section_title
;
Structure prediction by ZEFSAII (Michael W. Deem and Ramdas Pophale) SiO2 
 PCOD8070773
Probable space group: P 21/M
;
_chemical_formula_sum "Si O2"
_cell_formula_units_Z 32
_cell_length_a 16.336388
_cell_length_b 8.999254
_cell_length_c 22.190239
_cell_angle_alpha 90.000000
_cell_angle_beta 141.292144
_cell_angle_gamma 90.000000
_cell_volume 2040.081162
_symmetry_space_group_name_H-M "P 21/M"
_symmetry_group_IT_number 11
_symmetry_cell_setting 'monoclinic'
loop_
_space_group_symop_operation_xyz
x,y,z
-x,1/2+y,-z
-x,-y,-z
x,1/2-y,z
loop_
_atom_site_type_symbol
_atom_site_label
_atom_site_fract_x
_atom_site_fract_y
_atom_site_fract_z
Si Si1 0.738954 0.078329 0.482476
Si Si2 0.140523 0.925854 0.576806
Si Si3 0.520318 0.582742 0.419546
Si Si4 0.307376 0.417520 0.361776
Si Si5 0.193588 0.077465 0.836947
Si Si6 0.907868 0.075286 0.694437
Si Si7 0.539949 0.575573 0.961274
Si Si8 0.309949 0.072594 0.777213
O O1 0.702043 0.250000 0.466005
O O2 0.800699 0.036503 0.454373
O O3 0.844344 0.034659 0.593741
O O4 0.603460 0.989872 0.413339
O O5 0.129406 0.750000 0.581492
O O6 0.234370 0.001144 0.678791
O O7 0.000000 0.000000 0.500000
O O8 0.486202 0.750000 0.381593
O O9 0.383617 0.497078 0.350867
O O10 0.604702 0.575171 0.528418
O O11 0.278263 0.250000 0.325207
O O12 0.169915 0.498313 0.295662
O O13 0.168567 0.250000 0.811774
O O14 0.240837 0.015817 0.799151
O O15 0.055236 0.007888 0.778040
O O16 0.302358 0.051095 0.951978
O O17 0.904592 0.250000 0.705041
O O18 0.505840 0.750000 0.942243
O O19 0.459126 0.492529 0.862049
O O20 0.500000 0.500000 0.000000
O O21 0.313844 0.250000 0.773622
#
# Coordination Sequence:
#
# PCOD8070773 Si02
#       8
#     4   4   4   4   4   4   4   4
#     4   9  18  30  43  59  83 115 147 179 215 252
#     4  11  22  34  47  64  87 117 151 185 221 258
#     4   9  16  26  41  58  77 106 143 177 208 247
#     4   9  16  25  37  57  83 108 135 170 211 252
#     4   8  15  27  44  63  85 113 143 176 216 260
#     4   9  15  26  42  59  82 113 144 172 207 254
#     4   9  16  28  45  65  86 111 144 181 222 265
#     4  10  19  32  47  63  85 115 150 187 224 259
#
# _framework density 15.685651
#
# number of rings (size 3 to 8) (size 9 to 14) (size 15 to 20)
#    0.000    2.750    0.000    3.375    0.000    6.000 
#    0.000    6.250    0.000    0.000    0.000    0.000 
#    0.000    1.000    0.000    3.000    0.000    4.000 
#
# Total GULP energy -396627.563140 kJ/mol
# GULP energy per Si atom -12394.611348 kJ/mol
# Density = 1.564995 g / cm^3
# Si number density = 15.685651 Si / 1000 Ang^3
#
#
#
# Elastic Constant Matrix: (Units=GPa)
#
#
# Indices 1 2 3 4 5 6 
#
# 1 108.2978 58.5734 52.6753 0.0000 25.3538 0.0000
# 2 58.5734 92.1395 47.6585 0.0000 11.7950 0.0000
# 3 52.6753 47.6585 96.7924 0.0000 16.9437 0.0000
# 4 0.0000 0.0000 0.0000 22.3977 0.0000 2.9424
# 5 25.3538 11.7950 16.9437 0.0000 20.9481 0.0000
# 6 0.0000 0.0000 0.0000 2.9424 0.0000 25.5731
#
#
#
# Elastic Compliance Matrix: (Units=1/GPa)
#
#
# Indices 1 2 3 4 5 6 
#
# 1 0.019111 -0.008301 -0.003591 0.000000 -0.015552 0.000000
# 2 -0.008301 0.018309 -0.005186 0.000000 0.003932 0.000000
# 3 -0.003591 -0.005186 0.015805 0.000000 -0.005518 0.000000
# 4 0.000000 0.000000 0.000000 0.045333 0.000000 -0.005216
# 5 -0.015552 0.003932 -0.005518 0.000000 0.068809 0.000000
# 6 0.000000 0.000000 0.000000 -0.005216 0.000000 0.039704
#
#
# Mechanical properties :
#
#
# Convention : Reuss Voigt Hill
#
# Bulk Modulus (GPa) = 52.43908 68.33824 60.38866
# Shear Modulus (GPa) = 20.19549 23.00529 21.60039
#
# Velocity S-wave (km/s) = 3.59209 3.83384 3.71493
# Velocity P-wave (km/s) = 7.12095 7.95359 7.54876
#
# Compressibility (1/GPa) = 0.01906975
#
# Stress axis : x y z
#
# Youngs Moduli (GPa) = 52.32715 54.61843 63.27176
#
# Poissons Ratio (x) = 0.45336 0.22719
# Poissons Ratio (y) = 0.43434 0.32812
# Poissons Ratio (z) = 0.18789 0.28325
#
# Static dielectric constant tensor:
#      x y z
#    x 3.022250 0.000000 0.312070 
#    y 0.000000 3.097710 0.000000 
#    z 0.312070 0.000000 3.012890 
# 
# 
# High freq. dielectric constant tensor:
#      x y z
#    x 1.584890 0.000000 0.027540 
#    y 0.000000 1.607120 0.000000 
#    z 0.027540 0.000000 1.572460 
# 
# From -- ./inp_files/51361.got.cif
#   From: 2010.06.25/outbox.cif.g09.slc.cpg/sg11_26_cif.got.tgz:51361.got - 2010.06.27 23:14:04.
