data_PCOD8070502
_publ_section_title
;
Structure prediction by ZEFSAII (Michael W. Deem and Ramdas Pophale) SiO2 
 PCOD8070502
Probable space group: P 21/M
;
_chemical_formula_sum "Si O2"
_cell_formula_units_Z 28
_cell_length_a 21.149681
_cell_length_b 9.416515
_cell_length_c 11.098958
_cell_angle_alpha 90.000000
_cell_angle_beta 49.485344
_cell_angle_gamma 90.000000
_cell_volume 1680.454826
_symmetry_space_group_name_H-M "P 21/M"
_symmetry_group_IT_number 11
_symmetry_cell_setting 'monoclinic'
loop_
_space_group_symop_operation_xyz
x,y,z
-x,1/2+y,-z
-x,-y,-z
x,1/2-y,z
loop_
_atom_site_type_symbol
_atom_site_label
_atom_site_fract_x
_atom_site_fract_y
_atom_site_fract_z
Si Si1 0.260711 0.415423 0.996222
Si Si2 0.026104 0.588879 0.638619
Si Si3 0.227521 0.415581 0.760290
Si Si4 0.589140 0.906275 0.512965
Si Si5 0.074813 0.915856 0.847161
Si Si6 0.443357 0.093274 0.728836
Si Si7 0.119391 0.584813 0.281591
O O1 0.253075 0.250000 0.039502
O O2 0.207965 0.509709 0.153882
O O3 0.227178 0.441135 0.903361
O O4 0.356660 0.466681 0.889547
O O5 0.992029 0.750000 0.670392
O O6 0.071455 0.563120 0.708205
O O7 0.093297 0.557927 0.451666
O O8 0.948003 0.484113 0.724730
O O9 0.208240 0.250000 0.756765
O O10 0.316239 0.461640 0.593384
O O11 0.160829 0.518435 0.784125
O O12 0.583315 0.750000 0.576794
O O13 0.564385 0.900454 0.404660
O O14 0.523383 0.001193 0.668432
O O15 0.069789 0.750000 0.888963
O O16 0.000000 0.000000 0.000000
O O17 0.459205 0.250000 0.760784
O O18 0.126701 0.750000 0.240538
#
# Coordination Sequence:
#
# PCOD8070502 Si02
#       7
#     4   4   4   4   4   4   4
#     4   9  17  29  44  65  95 124 145 176 225 265
#     4   9  20  36  48  62  89 119 144 180 229 265
#     4   9  18  31  45  64  93 124 150 179 219 264
#     4   8  14  25  40  59  86 118 147 177 214 254
#     4  11  22  34  48  66  90 119 149 182 220 261
#     4   8  14  24  39  60  87 118 147 174 211 261
#     4  10  19  31  49  69  86 111 150 187 218 261
#
# _framework density 16.662154999999998
#
# number of rings (size 3 to 8) (size 9 to 14) (size 15 to 20)
#    0.000    2.857    0.000    3.429    0.000    6.857 
#    0.000    2.857    0.000    0.000    0.000    1.000 
#    0.000    0.000    0.000    0.000    0.000    0.000 
#
# Total GULP energy -347103.049986 kJ/mol
# GULP energy per Si atom -12396.537499 kJ/mol
# Density = 1.662423 g / cm^3
# Si number density = 16.662155 Si / 1000 Ang^3
#
#
#
# Elastic Constant Matrix: (Units=GPa)
#
#
# Indices 1 2 3 4 5 6 
#
# 1 71.3299 51.7024 47.3060 0.0000 -21.9232 0.0000
# 2 51.7024 101.2691 65.7369 0.0000 -22.7839 0.0000
# 3 47.3060 65.7369 102.4801 0.0000 -30.5608 0.0000
# 4 0.0000 0.0000 0.0000 31.4792 0.0000 -8.8857
# 5 -21.9232 -22.7839 -30.5608 0.0000 29.1145 0.0000
# 6 0.0000 0.0000 0.0000 -8.8857 0.0000 27.5428
#
#
#
# Elastic Compliance Matrix: (Units=1/GPa)
#
#
# Indices 1 2 3 4 5 6 
#
# 1 0.025295 -0.008683 -0.003571 0.000000 0.008504 0.000000
# 2 -0.008683 0.020047 -0.008912 0.000000 -0.000206 0.000000
# 3 -0.003571 -0.008912 0.020731 0.000000 0.012097 0.000000
# 4 0.000000 0.000000 0.000000 0.034950 0.000000 0.011275
# 5 0.008504 -0.000206 0.012097 0.000000 0.053288 0.000000
# 6 0.000000 0.000000 0.000000 0.011275 0.000000 0.039945
#
#
# Mechanical properties :
#
#
# Convention : Reuss Voigt Hill
#
# Bulk Modulus (GPa) = 42.12215 67.17441 54.64828
# Shear Modulus (GPa) = 20.44986 24.98287 22.71637
#
# Velocity S-wave (km/s) = 3.50712 3.87638 3.69636
# Velocity P-wave (km/s) = 6.46025 7.77420 7.14748
#
# Compressibility (1/GPa) = 0.02374048
#
# Stress axis : x y z
#
# Youngs Moduli (GPa) = 39.53361 49.88320 48.23773
#
# Poissons Ratio (x) = 0.43314 0.17223
# Poissons Ratio (y) = 0.34328 0.42991
# Poissons Ratio (z) = 0.14116 0.44457
#
# Static dielectric constant tensor:
#      x y z
#    x 2.913230 0.000000 -0.260120 
#    y 0.000000 3.340020 0.000000 
#    z -0.260120 0.000000 3.172690 
# 
# 
# High freq. dielectric constant tensor:
#      x y z
#    x 1.609360 0.000000 -0.028480 
#    y 0.000000 1.647290 0.000000 
#    z -0.028480 0.000000 1.635770 
# 
# From -- ./inp_files/42306.got.cif
#   From: 2010.06.25/outbox.cif.g09.slc.cpg/sg11_22_cif.got.tgz:42306.got - 2010.06.27 23:14:04.
