data_PCOD8070361
_publ_section_title
;
Structure prediction by ZEFSAII (Michael W. Deem and Ramdas Pophale) SiO2 
 PCOD8070361
Probable space group: P 21/M
;
_chemical_formula_sum "Si O2"
_cell_formula_units_Z 28
_cell_length_a 18.880641
_cell_length_b 9.378321
_cell_length_c 14.250165
_cell_angle_alpha 90.000000
_cell_angle_beta 137.706734
_cell_angle_gamma 90.000000
_cell_volume 1697.965096
_symmetry_space_group_name_H-M "P 21/M"
_symmetry_group_IT_number 11
_symmetry_cell_setting 'monoclinic'
loop_
_space_group_symop_operation_xyz
x,y,z
-x,1/2+y,-z
-x,-y,-z
x,1/2-y,z
loop_
_atom_site_type_symbol
_atom_site_label
_atom_site_fract_x
_atom_site_fract_y
_atom_site_fract_z
Si Si1 0.298187 0.586290 0.093396
Si Si2 0.885602 0.916235 0.990816
Si Si3 0.490784 0.415903 0.586252
Si Si4 0.376224 0.083285 0.789379
Si Si5 0.703903 0.580925 0.485276
Si Si6 0.619001 0.085729 0.026675
Si Si7 0.906845 0.584158 0.795213
O O1 0.262762 0.750000 0.073472
O O2 0.211887 0.481027 0.049638
O O3 0.407594 0.556634 0.251401
O O4 0.312233 0.551222 0.997438
O O5 0.894093 0.750000 0.022522
O O6 0.868613 0.943574 0.863797
O O7 0.991374 0.992020 0.130022
O O8 0.500000 0.500000 0.500000
O O9 0.475977 0.250000 0.548269
O O10 0.390490 0.479155 0.543344
O O11 0.359890 0.250000 0.789535
O O12 0.308794 0.027405 0.634255
O O13 0.334712 0.004450 0.841530
O O14 0.497777 0.045436 0.888109
O O15 0.694599 0.750000 0.477710
O O16 0.815215 0.530229 0.635984
O O17 0.627938 0.250000 0.063361
O O18 0.933829 0.750000 0.806243
#
# Coordination Sequence:
#
# PCOD8070361 Si02
#       7
#     4   4   4   4   4   4   4
#     4  10  19  32  50  70  98 134 164 192 236 293
#     4  10  20  33  50  73  98 125 164 210 243 275
#     4  10  19  31  46  69 101 132 159 191 234 286
#     4   9  16  29  49  71  95 126 161 197 236 283
#     4   9  16  30  51  71  95 128 163 194 234 291
#     4   9  17  30  47  70  98 128 160 195 236 285
#     4   9  18  33  52  71  94 129 166 199 239 289
#
# _framework density 16.490327000000001
#
# number of rings (size 3 to 8) (size 9 to 14) (size 15 to 20)
#    0.000    2.571    1.429    1.286    0.000    2.857 
#    0.000    2.143    0.000    0.857    0.000    0.000 
#    0.000    0.000    0.000    0.000    0.000    0.000 
#
# Total GULP energy -347210.921803 kJ/mol
# GULP energy per Si atom -12400.390064 kJ/mol
# Density = 1.645279 g / cm^3
# Si number density = 16.490327 Si / 1000 Ang^3
#
#
#
# Elastic Constant Matrix: (Units=GPa)
#
#
# Indices 1 2 3 4 5 6 
#
# 1 37.1326 35.8128 36.0297 0.0000 -9.1757 0.0000
# 2 35.8128 58.6281 44.6386 0.0000 -1.2461 0.0000
# 3 36.0297 44.6386 116.9718 0.0000 -12.5976 0.0000
# 4 0.0000 0.0000 0.0000 14.4984 0.0000 -1.7028
# 5 -9.1757 -1.2461 -12.5976 0.0000 26.2975 0.0000
# 6 0.0000 0.0000 0.0000 -1.7028 0.0000 31.4086
#
#
#
# Elastic Compliance Matrix: (Units=1/GPa)
#
#
# Indices 1 2 3 4 5 6 
#
# 1 0.081726 -0.045393 -0.005284 0.000000 0.023834 0.000000
# 2 -0.045393 0.049552 -0.006728 0.000000 -0.016713 0.000000
# 3 -0.005284 -0.006728 0.013192 0.000000 0.004157 0.000000
# 4 0.000000 0.000000 0.000000 0.069415 0.000000 0.003763
# 5 0.023834 -0.016713 0.004157 0.000000 0.047542 0.000000
# 6 0.000000 0.000000 0.000000 0.003763 0.000000 0.032042
#
#
# Mechanical properties :
#
#
# Convention : Reuss Voigt Hill
#
# Bulk Modulus (GPa) = 33.71431 49.52164 41.61797
# Shear Modulus (GPa) = 11.95697 20.85766 16.40731
#
# Velocity S-wave (km/s) = 2.69567 3.56032 3.15773
# Velocity P-wave (km/s) = 5.49346 6.85544 6.21189
#
# Compressibility (1/GPa) = 0.02966100
#
# Stress axis : x y z
#
# Youngs Moduli (GPa) = 12.23597 20.18073 75.80414
#
# Poissons Ratio (x) = 0.91606 0.40053
# Poissons Ratio (y) = 0.55542 0.51002
# Poissons Ratio (z) = 0.06465 0.13578
#
# Static dielectric constant tensor:
#      x y z
#    x 3.408610 0.000000 -0.261960 
#    y 0.000000 3.030110 0.000000 
#    z -0.261960 0.000000 3.263090 
# 
# 
# High freq. dielectric constant tensor:
#      x y z
#    x 1.627840 0.000000 -0.008470 
#    y 0.000000 1.621730 0.000000 
#    z -0.008470 0.000000 1.629880 
# 
# From -- ./inp_files/48766.got.cif
#   From: 2010.06.25/outbox.cif.g09.slc.cpg/sg11_25_cif.got.tgz:48766.got - 2010.06.27 23:14:04.
