data_PCOD8070489
_publ_section_title
;
Structure prediction by ZEFSAII (Michael W. Deem and Ramdas Pophale) SiO2 
 PCOD8070489
Probable space group: P 21/M
;
_chemical_formula_sum "Si O2"
_cell_formula_units_Z 28
_cell_length_a 15.527865
_cell_length_b 8.838398
_cell_length_c 19.207535
_cell_angle_alpha 90.000000
_cell_angle_beta 37.527539
_cell_angle_gamma 90.000000
_cell_volume 1605.742730
_symmetry_space_group_name_H-M "P 21/M"
_symmetry_group_IT_number 11
_symmetry_cell_setting 'monoclinic'
loop_
_space_group_symop_operation_xyz
x,y,z
-x,1/2+y,-z
-x,-y,-z
x,1/2-y,z
loop_
_atom_site_type_symbol
_atom_site_label
_atom_site_fract_x
_atom_site_fract_y
_atom_site_fract_z
Si Si1 0.605800 0.429479 0.877806
Si Si2 0.887822 0.924215 0.119874
Si Si3 0.406922 0.071137 0.262164
Si Si4 0.908883 0.428987 0.897389
Si Si5 0.904476 0.071217 0.744151
Si Si6 0.906380 0.928361 0.500111
Si Si7 0.675668 0.928633 0.147236
O O1 0.592170 0.250000 0.886897
O O2 0.564991 0.491826 0.828977
O O3 0.762267 0.485160 0.797756
O O4 0.500000 0.500000 0.000000
O O5 0.907789 0.750000 0.093013
O O6 0.732636 0.968872 0.189573
O O7 0.933995 0.962503 0.169852
O O8 0.000000 0.000000 0.000000
O O9 0.416092 0.250000 0.246658
O O10 0.255824 0.020003 0.389762
O O11 0.526879 0.014241 0.237973
O O12 0.875009 0.250000 0.920064
O O13 0.915455 0.496019 0.815014
O O14 0.784470 0.512835 0.018732
O O15 0.903400 0.250000 0.751345
O O16 0.036039 0.017112 0.612240
O O17 0.922455 0.750000 0.497681
O O18 0.000000 0.000000 0.500000
O O19 0.653573 0.750000 0.150822
#
# Coordination Sequence:
#
# PCOD8070489 Si02
#       7
#     4   4   4   4   4   4   4
#     4  11  21  33  50  73 104 133 160 197 246 299
#     4   8  15  27  46  72  99 129 161 195 241 296
#     4  11  22  34  50  71  96 130 171 209 246 293
#     4   9  16  30  52  76 102 129 160 200 247 302
#     4   9  18  32  51  72  95 125 160 201 247 292
#     4  10  20  36  54  71  92 124 170 213 249 292
#     4  10  19  31  48  73 104 133 163 201 247 298
#
# _framework density 17.437412999999999
#
# number of rings (size 3 to 8) (size 9 to 14) (size 15 to 20)
#    0.000    2.286    1.429    2.143    0.000    2.286 
#    0.000    1.429    0.000    0.857    0.000    0.000 
#    0.000    0.000    0.000    0.000    0.000    0.857 
#
# Total GULP energy -346963.334760 kJ/mol
# GULP energy per Si atom -12391.547670 kJ/mol
# Density = 1.739772 g / cm^3
# Si number density = 17.437413 Si / 1000 Ang^3
#
#
#
# Elastic Constant Matrix: (Units=GPa)
#
#
# Indices 1 2 3 4 5 6 
#
# 1 126.2561 29.8893 38.3706 0.0000 -21.5333 0.0000
# 2 29.8893 44.3157 25.4113 0.0000 -9.6126 0.0000
# 3 38.3706 25.4113 92.5416 0.0000 -20.1465 0.0000
# 4 0.0000 0.0000 0.0000 18.9687 0.0000 -2.1234
# 5 -21.5333 -9.6126 -20.1465 0.0000 21.8642 0.0000
# 6 0.0000 0.0000 0.0000 -2.1234 0.0000 22.8026
#
#
#
# Elastic Compliance Matrix: (Units=1/GPa)
#
#
# Indices 1 2 3 4 5 6 
#
# 1 0.010738 -0.004803 -0.001615 0.000000 0.006976 0.000000
# 2 -0.004803 0.029632 -0.005428 0.000000 0.003296 0.000000
# 3 -0.001615 -0.005428 0.015137 0.000000 0.009971 0.000000
# 4 0.000000 0.000000 0.000000 0.053274 0.000000 0.004961
# 5 0.006976 0.003296 0.009971 0.000000 0.063244 0.000000
# 6 0.000000 0.000000 0.000000 0.004961 0.000000 0.044317
#
#
# Mechanical properties :
#
#
# Convention : Reuss Voigt Hill
#
# Bulk Modulus (GPa) = 31.43130 50.05064 40.74097
# Shear Modulus (GPa) = 19.94913 24.02324 21.98619
#
# Velocity S-wave (km/s) = 3.38604 3.71574 3.55472
# Velocity P-wave (km/s) = 5.77506 6.86836 6.34530
#
# Compressibility (1/GPa) = 0.03181542
#
# Stress axis : x y z
#
# Youngs Moduli (GPa) = 93.12731 33.74694 66.06536
#
# Poissons Ratio (x) = 0.16210 0.10667
# Poissons Ratio (y) = 0.44732 0.35858
# Poissons Ratio (z) = 0.15037 0.18317
#
# Static dielectric constant tensor:
#      x y z
#    x 4.105080 0.000000 0.018680 
#    y 0.000000 3.126900 0.000000 
#    z 0.018680 0.000000 3.234360 
# 
# 
# High freq. dielectric constant tensor:
#      x y z
#    x 1.689750 0.000000 -0.004340 
#    y 0.000000 1.667360 0.000000 
#    z -0.004340 0.000000 1.647430 
# 
# From -- ./inp_files/37186.got.cif
#   From: 2010.06.25/outbox.cif.g09.slc.cpg/sg11_19_cif.got.tgz:37186.got - 2010.06.27 23:14:04.
