data_PCOD8070115
_publ_section_title
;
Structure prediction by ZEFSAII (Michael W. Deem and Ramdas Pophale) SiO2 
 PCOD8070115
Probable space group: P 21/M
;
_chemical_formula_sum "Si O2"
_cell_formula_units_Z 32
_cell_length_a 23.309833
_cell_length_b 8.799090
_cell_length_c 15.101301
_cell_angle_alpha 90.000000
_cell_angle_beta 140.514217
_cell_angle_gamma 90.000000
_cell_volume 1969.568325
_symmetry_space_group_name_H-M "P 21/M"
_symmetry_group_IT_number 11
_symmetry_cell_setting 'monoclinic'
loop_
_space_group_symop_operation_xyz
x,y,z
-x,1/2+y,-z
-x,-y,-z
x,1/2-y,z
loop_
_atom_site_type_symbol
_atom_site_label
_atom_site_fract_x
_atom_site_fract_y
_atom_site_fract_z
Si Si1 0.437795 0.073975 0.554856
Si Si2 0.582186 0.070716 0.286249
Si Si3 0.117061 0.926025 0.554856
Si Si4 0.083268 0.426919 0.699962
Si Si5 0.616694 0.926919 0.699962
Si Si6 0.295937 0.429284 0.713751
Si Si7 0.255660 0.428144 1.000000
Si Si8 0.615853 0.930915 1.000000
O O1 0.436781 0.250000 0.579926
O O2 0.373627 0.041135 0.393215
O O3 0.400412 0.977189 0.591822
O O4 0.538782 0.026942 0.650499
O O5 0.587107 0.250000 0.284776
O O6 0.485371 0.008426 0.137153
O O7 0.660815 1.000000 0.321629
O O8 0.143145 0.750000 0.579926
O O9 0.019588 0.958865 0.393215
O O10 0.111717 0.973058 0.650499
O O11 0.191410 0.022811 0.591822
O O12 0.095322 0.250000 0.687941
O O13 0.151029 0.475071 0.860528
O O14 0.592619 0.750000 0.687941
O O15 0.709498 0.975071 0.860528
O O16 0.302331 0.250000 0.715224
O O17 0.348218 0.491574 0.862847
O O18 0.264693 0.250000 0.000000
O O19 0.319755 0.499367 1.000000
O O20 0.616876 0.750000 1.000000
#
# Coordination Sequence:
#
# PCOD8070115 Si02
#       8
#     4   4   4   4   4   4   4   4
#     4  10  19  30  45  69  95 122 155 192 233 275
#     4  11  21  34  49  66  91 126 162 197 230 269
#     4  10  19  30  45  69  95 122 155 192 233 275
#     4   9  17  30  49  68  92 123 156 192 230 273
#     4   9  17  30  49  68  92 123 156 192 230 273
#     4  11  21  34  49  66  91 126 162 197 230 269
#     4   9  14  27  49  71  91 122 159 188 225 272
#     4   9  17  29  47  67  92 125 161 191 222 264
#
# _framework density 16.247216000000002
#
# number of rings (size 3 to 8) (size 9 to 14) (size 15 to 20)
#    0.000    2.250    2.500    1.875    0.000    1.000 
#    0.000    3.750    0.000    0.000    0.000    0.875 
#    0.000    0.000    0.000    0.000    0.000    0.000 
#
# Total GULP energy -396697.171288 kJ/mol
# GULP energy per Si atom -12396.786603 kJ/mol
# Density = 1.621024 g / cm^3
# Si number density = 16.247216 Si / 1000 Ang^3
#
#
#
# Elastic Constant Matrix: (Units=GPa)
#
#
# Indices 1 2 3 4 5 6 
#
# 1 92.7017 27.6626 59.8369 0.0000 -0.3260 0.0000
# 2 27.6626 45.8265 27.6999 0.0000 -0.0020 0.0000
# 3 59.8369 27.6999 134.4870 0.0000 -1.9436 0.0000
# 4 0.0000 0.0000 0.0000 17.5641 0.0000 0.3940
# 5 -0.3260 -0.0020 -1.9436 0.0000 19.5210 0.0000
# 6 0.0000 0.0000 0.0000 0.3940 0.0000 24.8178
#
#
#
# Elastic Compliance Matrix: (Units=1/GPa)
#
#
# Indices 1 2 3 4 5 6 
#
# 1 0.016609 -0.006346 -0.006088 0.000000 -0.000329 0.000000
# 2 -0.006346 0.027354 -0.002816 0.000000 -0.000384 0.000000
# 3 -0.006088 -0.002816 0.010738 0.000000 0.000967 0.000000
# 4 0.000000 0.000000 0.000000 0.056955 0.000000 -0.000904
# 5 -0.000329 -0.000384 0.000967 0.000000 0.051318 0.000000
# 6 0.000000 0.000000 0.000000 -0.000904 0.000000 0.040308
#
#
# Mechanical properties :
#
#
# Convention : Reuss Voigt Hill
#
# Bulk Modulus (GPa) = 41.31873 55.93489 48.62681
# Shear Modulus (GPa) = 20.67404 22.90165 21.78785
#
# Velocity S-wave (km/s) = 3.57104 3.75850 3.66597
# Velocity P-wave (km/s) = 6.51840 7.30323 6.92195
#
# Compressibility (1/GPa) = 0.02420210
#
# Stress axis : x y z
#
# Youngs Moduli (GPa) = 60.20726 36.55708 93.12594
#
# Poissons Ratio (x) = 0.23201 0.56691
# Poissons Ratio (y) = 0.38210 0.26224
# Poissons Ratio (z) = 0.36651 0.10294
#
# Static dielectric constant tensor:
#      x y z
#    x 2.908070 0.000000 -0.027920 
#    y 0.000000 2.957480 0.000000 
#    z -0.027920 0.000000 3.422140 
# 
# 
# High freq. dielectric constant tensor:
#      x y z
#    x 1.595620 0.000000 -0.001630 
#    y 0.000000 1.614830 0.000000 
#    z -0.001630 0.000000 1.625580 
# 
# From -- ./inp_files/54328.got.cif
#   From: 2010.06.25/outbox.cif.g09.slc.cpg/sg11_28_cif.got.tgz:54328.got - 2010.06.27 23:14:04.
