data_PCOD8070558
_publ_section_title
;
Structure prediction by ZEFSAII (Michael W. Deem and Ramdas Pophale) SiO2 
 PCOD8070558
Probable space group: P 21/M
;
_chemical_formula_sum "Si O2"
_cell_formula_units_Z 24
_cell_length_a 17.454796
_cell_length_b 9.080561
_cell_length_c 23.896705
_cell_angle_alpha 90.000000
_cell_angle_beta 20.570402
_cell_angle_gamma 90.000000
_cell_volume 1330.807953
_symmetry_space_group_name_H-M "P 21/M"
_symmetry_group_IT_number 11
_symmetry_cell_setting 'monoclinic'
loop_
_space_group_symop_operation_xyz
x,y,z
-x,1/2+y,-z
-x,-y,-z
x,1/2-y,z
loop_
_atom_site_type_symbol
_atom_site_label
_atom_site_fract_x
_atom_site_fract_y
_atom_site_fract_z
Si Si1 0.547221 0.583648 0.552733
Si Si2 0.185527 0.415825 0.744286
Si Si3 0.175924 0.078880 0.068091
Si Si4 0.078369 0.577050 0.646484
Si Si5 0.985073 0.578737 0.422490
Si Si6 0.674736 0.079560 0.715015
O O1 0.510354 0.750000 0.599157
O O2 0.312991 0.505680 0.705191
O O3 0.673967 0.582267 0.407884
O O4 0.685025 0.494574 0.504487
O O5 0.148222 0.250000 0.791113
O O6 0.952275 0.490141 0.892155
O O7 0.141424 0.250000 0.078836
O O8 0.086171 0.039393 0.190767
O O9 0.426861 0.031805 0.894563
O O10 0.111099 0.750000 0.616170
O O11 0.972736 0.507494 0.663632
O O12 0.951966 0.750000 0.432346
O O13 0.768861 0.518302 0.600555
O O14 0.195973 0.548256 0.316263
O O15 0.695551 0.250000 0.683458
#
# Coordination Sequence:
#
# PCOD8070558 Si02
#       6
#     4   4   4   4   4   4
#     4   9  16  27  44  67  97 131 164 198 237 284
#     4   9  16  26  43  69  99 129 161 198 240 286
#     4   9  18  32  50  73 100 130 164 202 244 288
#     4  10  19  31  49  74 102 130 162 202 246 289
#     4  10  20  34  52  73  97 128 166 204 244 293
#     4   9  19  36  54  71  95 129 167 204 243 291
#
# _framework density 18.034157
#
# number of rings (size 3 to 8) (size 9 to 14) (size 15 to 20)
#    0.000    2.667    0.000    2.000    0.000    6.667 
#    0.000    0.000    0.000    1.000    0.000    0.000 
#    0.000    0.000    0.000    0.000    0.000    0.000 
#
# Total GULP energy -297644.714032 kJ/mol
# GULP energy per Si atom -12401.863085 kJ/mol
# Density = 1.799311 g / cm^3
# Si number density = 18.034157 Si / 1000 Ang^3
#
#
#
# Elastic Constant Matrix: (Units=GPa)
#
#
# Indices 1 2 3 4 5 6 
#
# 1 38.5712 28.9644 44.2462 0.0000 -21.7386 0.0000
# 2 28.9644 102.9219 50.1395 0.0000 -16.2469 0.0000
# 3 44.2462 50.1395 101.5014 0.0000 -29.2580 0.0000
# 4 0.0000 0.0000 0.0000 24.2502 0.0000 -4.3264
# 5 -21.7386 -16.2469 -29.2580 0.0000 22.7002 0.0000
# 6 0.0000 0.0000 0.0000 -4.3264 0.0000 36.7917
#
#
#
# Elastic Compliance Matrix: (Units=1/GPa)
#
#
# Indices 1 2 3 4 5 6 
#
# 1 0.075949 -0.005826 -0.016654 0.000000 0.047098 0.000000
# 2 -0.005826 0.013279 -0.004596 0.000000 -0.001999 0.000000
# 3 -0.016654 -0.004596 0.022016 0.000000 0.009139 0.000000
# 4 0.000000 0.000000 0.000000 0.042120 0.000000 0.004953
# 5 0.047098 -0.001999 0.009139 0.000000 0.099503 0.000000
# 6 0.000000 0.000000 0.000000 0.004953 0.000000 0.027762
#
#
# Mechanical properties :
#
#
# Convention : Reuss Voigt Hill
#
# Bulk Modulus (GPa) = 17.51528 54.41050 35.96289
# Shear Modulus (GPa) = 14.13174 24.72471 19.42823
#
# Velocity S-wave (km/s) = 2.80234 3.70671 3.28579
# Velocity P-wave (km/s) = 4.49491 6.96821 5.86345
#
# Compressibility (1/GPa) = 0.05709302
#
# Stress axis : x y z
#
# Youngs Moduli (GPa) = 13.16674 75.30583 45.42065
#
# Poissons Ratio (x) = 0.43873 0.75642
# Poissons Ratio (y) = 0.07671 0.20876
# Poissons Ratio (z) = 0.21927 0.34612
#
# Static dielectric constant tensor:
#      x y z
#    x 3.270750 0.000000 -0.235290 
#    y 0.000000 3.462680 0.000000 
#    z -0.235290 0.000000 3.114700 
# 
# 
# High freq. dielectric constant tensor:
#      x y z
#    x 1.691030 0.000000 -0.024720 
#    y 0.000000 1.710680 0.000000 
#    z -0.024720 0.000000 1.670290 
# 
# From -- ./inp_files/20532.got.cif
#   From: 2010.06.25/outbox.cif.g09.slc.cpg/sg11_11_cif.got.tgz:20532.got - 2010.06.27 23:14:04.
