data_PCOD8070200
_publ_section_title
;
Structure prediction by ZEFSAII (Michael W. Deem and Ramdas Pophale) SiO2 
 PCOD8070200
Probable space group: P 21/M
;
_chemical_formula_sum "Si O2"
_cell_formula_units_Z 32
_cell_length_a 17.327610
_cell_length_b 9.245955
_cell_length_c 22.703300
_cell_angle_alpha 90.000000
_cell_angle_beta 150.386706
_cell_angle_gamma 90.000000
_cell_volume 1797.349769
_symmetry_space_group_name_H-M "P 21/M"
_symmetry_group_IT_number 11
_symmetry_cell_setting 'monoclinic'
loop_
_space_group_symop_operation_xyz
x,y,z
-x,1/2+y,-z
-x,-y,-z
x,1/2-y,z
loop_
_atom_site_type_symbol
_atom_site_label
_atom_site_fract_x
_atom_site_fract_y
_atom_site_fract_z
Si Si1 0.735334 0.919338 0.639445
Si Si2 0.485887 0.579989 0.277924
Si Si3 0.687909 0.918367 0.253073
Si Si4 0.648677 0.419327 0.932601
Si Si5 0.225019 0.581756 0.576416
Si Si6 0.421798 0.582342 0.365902
Si Si7 0.939035 0.422259 0.196889
Si Si8 0.910508 0.585060 0.297860
O O1 0.745709 0.750000 0.657967
O O2 0.596103 0.960289 0.502435
O O3 0.895702 0.978914 0.718212
O O4 0.707593 0.993701 0.684149
O O5 0.525805 0.750000 0.300382
O O6 0.370778 0.531333 0.148458
O O7 0.647430 0.494168 0.380505
O O8 0.403995 0.542336 0.285400
O O9 0.707705 0.750000 0.283327
O O10 0.505498 0.963853 0.132811
O O11 0.756213 0.949690 0.233855
O O12 0.780486 0.011039 0.362779
O O13 0.672679 0.250000 0.950596
O O14 0.802819 0.487912 0.064444
O O15 0.266370 0.750000 0.609808
O O16 0.058230 0.555693 0.436875
O O17 0.390244 0.750000 0.356728
O O18 0.936785 0.250000 0.198254
O O19 0.911231 0.478742 0.243684
O O20 0.909054 0.750000 0.274250
#
# Coordination Sequence:
#
# PCOD8070200 Si02
#       8
#     4   4   4   4   4   4   4   4
#     4   9  18  31  47  70  99 125 151 192 240 282
#     4   9  17  32  53  73  96 128 163 196 235 286
#     4   9  18  34  52  69  95 130 163 196 240 288
#     4   8  16  32  52  70  91 125 165 202 236 275
#     4  10  19  30  47  74 103 126 155 198 244 286
#     4   9  17  30  50  73  94 122 158 190 231 289
#     4  10  20  34  51  70  94 127 166 200 236 285
#     4  10  21  33  47  71 100 128 159 200 246 286
#
# _framework density 17.803992000000001
#
# number of rings (size 3 to 8) (size 9 to 14) (size 15 to 20)
#    0.000    2.750    0.000    2.250    0.000    4.000 
#    0.000    5.625    0.000    0.000    0.000    0.000 
#    0.000    0.000    0.000    0.000    0.000    0.000 
#
# Total GULP energy -396767.649651 kJ/mol
# GULP energy per Si atom -12398.989052 kJ/mol
# Density = 1.776347 g / cm^3
# Si number density = 17.803992 Si / 1000 Ang^3
#
#
#
# Elastic Constant Matrix: (Units=GPa)
#
#
# Indices 1 2 3 4 5 6 
#
# 1 152.8792 41.1324 67.5920 0.0000 -3.3633 0.0000
# 2 41.1324 40.6986 30.3625 0.0000 -3.5384 0.0000
# 3 67.5920 30.3625 96.0410 0.0000 4.9234 0.0000
# 4 0.0000 0.0000 0.0000 17.0682 0.0000 -2.0849
# 5 -3.3633 -3.5384 4.9234 0.0000 9.2790 0.0000
# 6 0.0000 0.0000 0.0000 -2.0849 0.0000 29.6054
#
#
#
# Elastic Compliance Matrix: (Units=1/GPa)
#
#
# Indices 1 2 3 4 5 6 
#
# 1 0.010968 -0.006182 -0.006011 0.000000 0.004807 0.000000
# 2 -0.006182 0.038916 -0.008838 0.000000 0.017289 0.000000
# 3 -0.006011 -0.008838 0.018217 0.000000 -0.015215 0.000000
# 4 0.000000 0.000000 0.000000 0.059097 0.000000 0.004162
# 5 0.004807 0.017289 -0.015215 0.000000 0.124178 0.000000
# 6 0.000000 0.000000 0.000000 0.004162 0.000000 0.034071
#
#
# Mechanical properties :
#
#
# Convention : Reuss Voigt Hill
#
# Bulk Modulus (GPa) = 38.40615 63.08805 50.74710
# Shear Modulus (GPa) = 14.87261 21.22597 18.04929
#
# Velocity S-wave (km/s) = 2.89338 3.45657 3.18744
# Velocity P-wave (km/s) = 5.72544 7.17233 6.48934
#
# Compressibility (1/GPa) = 0.02603750
#
# Stress axis : x y z
#
# Youngs Moduli (GPa) = 91.17549 25.69646 54.89496
#
# Poissons Ratio (x) = 0.15887 0.32997
# Poissons Ratio (y) = 0.56369 0.48516
# Poissons Ratio (z) = 0.54805 0.22711
#
# Static dielectric constant tensor:
#      x y z
#    x 3.412990 0.000000 0.037840 
#    y 0.000000 3.139800 0.000000 
#    z 0.037840 0.000000 3.412190 
# 
# 
# High freq. dielectric constant tensor:
#      x y z
#    x 1.694400 0.000000 -0.000600 
#    y 0.000000 1.671710 0.000000 
#    z -0.000600 0.000000 1.678610 
# 
# From -- ./inp_files/43811.got.cif
#   From: 2010.06.25/outbox.cif.g09.slc.cpg/sg11_22_cif.got.tgz:43811.got - 2010.06.27 23:14:04.
