data_PCOD8070416
_publ_section_title
;
Structure prediction by ZEFSAII (Michael W. Deem and Ramdas Pophale) SiO2 
 PCOD8070416
Probable space group: P 21/M
;
_chemical_formula_sum "Si O2"
_cell_formula_units_Z 32
_cell_length_a 30.829371
_cell_length_b 8.847032
_cell_length_c 15.154380
_cell_angle_alpha 90.000000
_cell_angle_beta 28.331227
_cell_angle_gamma 90.000000
_cell_volume 1961.547801
_symmetry_space_group_name_H-M "P 21/M"
_symmetry_group_IT_number 11
_symmetry_cell_setting 'monoclinic'
loop_
_space_group_symop_operation_xyz
x,y,z
-x,1/2+y,-z
-x,-y,-z
x,1/2-y,z
loop_
_atom_site_type_symbol
_atom_site_label
_atom_site_fract_x
_atom_site_fract_y
_atom_site_fract_z
Si Si1 0.255324 0.072113 0.232058
Si Si2 0.695927 0.574617 0.179402
Si Si3 0.890938 0.576859 0.767784
Si Si4 0.631382 0.424835 0.823523
Si Si5 0.622133 0.070954 0.138288
Si Si6 0.422332 0.071261 0.447297
Si Si7 0.091475 0.924858 0.446791
Si Si8 0.425646 0.425858 0.245864
O O1 0.263515 0.250000 0.211704
O O2 0.292965 0.016710 0.258252
O O3 0.149509 0.021664 0.413010
O O4 0.309521 0.000679 0.053913
O O5 0.671561 0.750000 0.206248
O O6 0.649239 0.475974 0.187762
O O7 0.656119 0.518380 0.344428
O O8 0.805149 0.549234 0.985934
O O9 0.893081 0.750000 0.729522
O O10 0.880660 0.468437 0.702562
O O11 0.983912 0.540599 0.654756
O O12 0.657306 0.250000 0.780654
O O13 0.632580 0.479697 0.720289
O O14 0.533301 0.456987 0.042524
O O15 0.627591 0.250000 0.118288
O O16 0.520425 0.007775 0.302388
O O17 0.429742 0.250000 0.430090
O O18 0.397509 0.014208 0.393316
O O19 0.114829 0.750000 0.419038
O O20 0.403696 0.250000 0.270795
#
# Coordination Sequence:
#
# PCOD8070416 Si02
#       8
#     4   4   4   4   4   4   4   4
#     4  12  22  32  48  71  96 127 163 199 241 291
#     4  10  19  32  49  70  96 130 166 199 233 276
#     4   9  18  31  47  70  96 124 160 198 238 284
#     4  10  19  32  50  71  96 123 156 197 241 287
#     4  11  20  32  46  67  98 133 167 199 233 274
#     4   9  18  32  49  68  97 132 165 197 231 276
#     4  10  19  31  48  68  95 126 157 198 244 287
#     4   9  17  32  49  69  96 127 160 193 233 282
#
# _framework density 16.313648000000001
#
# number of rings (size 3 to 8) (size 9 to 14) (size 15 to 20)
#    0.000    2.000    2.500    2.625    0.000    1.000 
#    0.000    1.250    0.000    0.000    0.000    0.875 
#    0.000    0.000    0.000    0.000    0.000    0.000 
#
# Total GULP energy -396822.619897 kJ/mol
# GULP energy per Si atom -12400.706872 kJ/mol
# Density = 1.627652 g / cm^3
# Si number density = 16.313648 Si / 1000 Ang^3
#
#
#
# Elastic Constant Matrix: (Units=GPa)
#
#
# Indices 1 2 3 4 5 6 
#
# 1 122.3027 44.7025 61.5227 0.0000 2.7210 0.0000
# 2 44.7025 72.1102 29.4510 0.0000 -3.9345 0.0000
# 3 61.5227 29.4510 89.0005 0.0000 -0.0993 0.0000
# 4 0.0000 0.0000 0.0000 15.0112 0.0000 -2.6287
# 5 2.7210 -3.9345 -0.0993 0.0000 22.4331 0.0000
# 6 0.0000 0.0000 0.0000 -2.6287 0.0000 25.4289
#
#
#
# Elastic Compliance Matrix: (Units=1/GPa)
#
#
# Indices 1 2 3 4 5 6 
#
# 1 0.014402 -0.005797 -0.008041 0.000000 -0.002799 0.000000
# 2 -0.005797 0.018544 -0.002125 0.000000 0.003946 0.000000
# 3 -0.008041 -0.002125 0.017498 0.000000 0.000680 0.000000
# 4 0.000000 0.000000 0.000000 0.067845 0.000000 0.007013
# 5 -0.002799 0.003946 0.000680 0.000000 0.045612 0.000000
# 6 0.000000 0.000000 0.000000 0.007013 0.000000 0.040050
#
#
# Mechanical properties :
#
#
# Convention : Reuss Voigt Hill
#
# Bulk Modulus (GPa) = 53.99643 61.64065 57.81854
# Shear Modulus (GPa) = 20.65691 22.42381 21.54036
#
# Velocity S-wave (km/s) = 3.56228 3.71150 3.63766
# Velocity P-wave (km/s) = 7.07747 7.49892 7.29124
#
# Compressibility (1/GPa) = 0.01851974
#
# Stress axis : x y z
#
# Youngs Moduli (GPa) = 69.43341 53.92438 57.14955
#
# Poissons Ratio (x) = 0.31260 0.45952
# Poissons Ratio (y) = 0.40251 0.12143
# Poissons Ratio (z) = 0.55829 0.11458
#
# Static dielectric constant tensor:
#      x y z
#    x 3.203390 0.000000 -0.078920 
#    y 0.000000 3.052400 0.000000 
#    z -0.078920 0.000000 3.102260 
# 
# 
# High freq. dielectric constant tensor:
#      x y z
#    x 1.620840 0.000000 -0.009800 
#    y 0.000000 1.626820 0.000000 
#    z -0.009800 0.000000 1.604890 
# 
# From -- ./inp_files/51149.got.cif
#   From: 2010.06.25/outbox.cif.g09.slc.cpg/sg11_26_cif.got.tgz:51149.got - 2010.06.27 23:14:04.
