data_PCOD8070238
_publ_section_title
;
Structure prediction by ZEFSAII (Michael W. Deem and Ramdas Pophale) SiO2 
 PCOD8070238
Probable space group: P 21/M
;
_chemical_formula_sum "Si O2"
_cell_formula_units_Z 32
_cell_length_a 18.748418
_cell_length_b 9.085809
_cell_length_c 11.285034
_cell_angle_alpha 90.000000
_cell_angle_beta 119.420493
_cell_angle_gamma 90.000000
_cell_volume 1674.434991
_symmetry_space_group_name_H-M "P 21/M"
_symmetry_group_IT_number 11
_symmetry_cell_setting 'monoclinic'
loop_
_space_group_symop_operation_xyz
x,y,z
-x,1/2+y,-z
-x,-y,-z
x,1/2-y,z
loop_
_atom_site_type_symbol
_atom_site_label
_atom_site_fract_x
_atom_site_fract_y
_atom_site_fract_z
Si Si1 0.904817 0.075778 0.179319
Si Si2 0.195541 0.583276 0.669130
Si Si3 0.681834 0.577850 0.378971
Si Si4 0.244339 0.080837 0.311067
Si Si5 0.532348 0.084226 0.350635
Si Si6 0.965755 0.419187 0.585153
Si Si7 0.611571 0.084666 0.673081
Si Si8 0.085691 0.422259 0.045091
O O1 0.913342 0.250000 0.170092
O O2 0.845634 0.033878 0.240482
O O3 0.996493 0.007547 0.272767
O O4 0.871336 0.998564 0.033728
O O5 0.227168 0.750000 0.707100
O O6 0.271769 0.479072 0.700635
O O7 0.132280 0.572209 0.506658
O O8 0.667270 0.750000 0.355795
O O9 0.736546 0.535738 0.538248
O O10 0.593496 0.501022 0.312867
O O11 0.268266 0.250000 0.309916
O O12 0.148558 0.052673 0.205340
O O13 0.299245 0.988033 0.264293
O O14 0.520818 0.250000 0.294616
O O15 0.568776 0.082972 0.511262
O O16 0.444311 0.004123 0.278989
O O17 0.995362 0.250000 0.612805
O O18 0.000000 0.500000 0.500000
O O19 0.622093 0.250000 0.729485
O O20 0.070533 0.250000 0.009487
O O21 0.000000 0.500000 0.000000
#
# Coordination Sequence:
#
# PCOD8070238 Si02
#       8
#     4   4   4   4   4   4   4   4
#     4  10  21  37  54  72  97 130 172 218 261 308
#     4   9  19  33  49  72 100 130 164 206 257 309
#     4  10  19  30  48  75 106 136 168 207 252 305
#     4   9  20  36  50  71 102 136 171 210 256 304
#     4   9  16  27  44  69 103 138 165 199 248 300
#     4   9  17  30  48  71  95 124 162 207 255 305
#     4   9  16  27  47  72  98 131 170 207 244 297
#     4  11  24  40  56  75 101 135 176 220 263 307
#
# _framework density 19.110924000000001
#
# number of rings (size 3 to 8) (size 9 to 14) (size 15 to 20)
#    0.000    2.500    0.000    3.000    1.750    7.500 
#    0.000    0.000    0.000    0.000    0.000    0.875 
#    0.000    0.000    0.000    0.000    0.000    0.000 
#
# Total GULP energy -396680.714491 kJ/mol
# GULP energy per Si atom -12396.272328 kJ/mol
# Density = 1.906743 g / cm^3
# Si number density = 19.110924 Si / 1000 Ang^3
#
#
#
# Elastic Constant Matrix: (Units=GPa)
#
#
# Indices 1 2 3 4 5 6 
#
# 1 124.6753 66.2344 15.6094 0.0000 -1.2759 0.0000
# 2 66.2344 124.3809 14.3874 0.0000 -0.3411 0.0000
# 3 15.6094 14.3874 28.8766 0.0000 -3.5711 0.0000
# 4 0.0000 0.0000 0.0000 21.5679 0.0000 0.4222
# 5 -1.2759 -0.3411 -3.5711 0.0000 18.9700 0.0000
# 6 0.0000 0.0000 0.0000 0.4222 0.0000 39.4245
#
#
#
# Elastic Compliance Matrix: (Units=1/GPa)
#
#
# Indices 1 2 3 4 5 6 
#
# 1 0.011483 -0.005728 -0.003349 0.000000 0.000039 0.000000
# 2 -0.005728 0.011396 -0.002666 0.000000 -0.000682 0.000000
# 3 -0.003349 -0.002666 0.038634 0.000000 0.007000 0.000000
# 4 0.000000 0.000000 0.000000 0.046375 0.000000 -0.000497
# 5 0.000039 -0.000682 0.007000 0.000000 0.054023 0.000000
# 6 0.000000 0.000000 0.000000 -0.000497 0.000000 0.025370
#
#
# Mechanical properties :
#
#
# Convention : Reuss Voigt Hill
#
# Bulk Modulus (GPa) = 26.29609 52.26615 39.28112
# Shear Modulus (GPa) = 22.37698 28.10592 25.24145
#
# Velocity S-wave (km/s) = 3.42555 3.83910 3.63821
# Velocity P-wave (km/s) = 5.42545 6.86001 6.18447
#
# Compressibility (1/GPa) = 0.03802847
#
# Stress axis : x y z
#
# Youngs Moduli (GPa) = 87.08302 87.74735 25.88365
#
# Poissons Ratio (x) = 0.50258 0.08668
# Poissons Ratio (y) = 0.49877 0.06902
# Poissons Ratio (z) = 0.29163 0.23397
#
# Static dielectric constant tensor:
#      x y z
#    x 3.437370 0.000000 0.060590 
#    y 0.000000 3.665680 0.000000 
#    z 0.060590 0.000000 3.262530 
# 
# 
# High freq. dielectric constant tensor:
#      x y z
#    x 1.740510 0.000000 0.000610 
#    y 0.000000 1.757340 0.000000 
#    z 0.000610 0.000000 1.690830 
# 
# From -- ./inp_files/42548.got.cif
#   From: 2010.06.25/outbox.cif.g09.slc.cpg/sg11_22_cif.got.tgz:42548.got - 2010.06.27 23:14:04.
