data_PCOD8070485
_publ_section_title
;
Structure prediction by ZEFSAII (Michael W. Deem and Ramdas Pophale) SiO2 
 PCOD8070485
Probable space group: P 21/M
;
_chemical_formula_sum "Si O2"
_cell_formula_units_Z 32
_cell_length_a 16.691299
_cell_length_b 8.751855
_cell_length_c 16.802798
_cell_angle_alpha 90.000000
_cell_angle_beta 128.797116
_cell_angle_gamma 90.000000
_cell_volume 1913.001301
_symmetry_space_group_name_H-M "P 21/M"
_symmetry_group_IT_number 11
_symmetry_cell_setting 'monoclinic'
loop_
_space_group_symop_operation_xyz
x,y,z
-x,1/2+y,-z
-x,-y,-z
x,1/2-y,z
loop_
_atom_site_type_symbol
_atom_site_label
_atom_site_fract_x
_atom_site_fract_y
_atom_site_fract_z
Si Si1 0.523061 0.430685 0.600314
Si Si2 0.177809 0.428276 0.309157
Si Si3 0.908668 0.572174 0.995150
Si Si4 0.028461 0.427737 0.788779
Si Si5 0.850670 0.570565 0.443282
Si Si6 0.313158 0.070397 0.536240
Si Si7 0.932505 0.427592 0.342560
Si Si8 0.256739 0.928792 0.206368
O O1 0.500000 0.500000 0.500000
O O2 0.528764 0.250000 0.591901
O O3 0.433441 0.475316 0.608121
O O4 0.628951 0.493880 0.704163
O O5 0.188508 0.250000 0.293903
O O6 0.265895 0.486519 0.423558
O O7 0.183520 0.532509 0.234753
O O8 0.069440 0.462256 0.281983
O O9 0.913031 0.750000 0.979846
O O10 0.795867 0.508379 0.902087
O O11 0.917123 0.535292 0.093849
O O12 0.000000 0.500000 0.000000
O O13 0.998597 0.250000 0.764740
O O14 0.097203 0.477561 0.755771
O O15 0.843394 0.750000 0.420508
O O16 0.749650 0.505526 0.427127
O O17 0.854448 0.480663 0.362762
O O18 0.950917 0.534274 0.558526
O O19 0.296105 0.250000 0.528833
O O20 0.915871 0.250000 0.315672
O O21 0.259919 0.750000 0.192497
#
# Coordination Sequence:
#
# PCOD8070485 Si02
#       8
#     4   4   4   4   4   4   4   4
#     4  10  20  33  50  73 100 133 172 211 247 293
#     4  11  19  30  50  71  98 136 172 205 245 291
#     4  11  23  36  52  72  98 132 171 210 251 297
#     4  11  22  34  49  72  99 130 169 209 248 295
#     4   9  17  31  48  69  98 132 165 199 241 294
#     4   9  17  31  49  71  98 133 172 203 243 293
#     4  10  19  31  48  73 100 130 163 198 246 300
#     4  11  22  34  48  72 103 134 171 211 252 295
#
# _framework density 16.727640999999998
#
# number of rings (size 3 to 8) (size 9 to 14) (size 15 to 20)
#    0.000    1.750    3.750    1.875    0.000    2.500 
#    0.000    0.625    0.000    0.000    0.000    0.875 
#    0.000    0.000    0.000    0.000    0.000    0.000 
#
# Total GULP energy -396713.547717 kJ/mol
# GULP energy per Si atom -12397.298366 kJ/mol
# Density = 1.668957 g / cm^3
# Si number density = 16.727641 Si / 1000 Ang^3
#
#
#
# Elastic Constant Matrix: (Units=GPa)
#
#
# Indices 1 2 3 4 5 6 
#
# 1 101.7227 27.7605 49.8263 0.0000 -9.5057 0.0000
# 2 27.7605 56.2582 41.1474 0.0000 -4.8236 0.0000
# 3 49.8263 41.1474 104.5808 0.0000 -5.0538 0.0000
# 4 0.0000 0.0000 0.0000 24.2683 0.0000 -3.3423
# 5 -9.5057 -4.8236 -5.0538 0.0000 28.1909 0.0000
# 6 0.0000 0.0000 0.0000 -3.3423 0.0000 21.2813
#
#
#
# Elastic Compliance Matrix: (Units=1/GPa)
#
#
# Indices 1 2 3 4 5 6 
#
# 1 0.013371 -0.002499 -0.005235 0.000000 0.003142 0.000000
# 2 -0.002499 0.025605 -0.008789 0.000000 0.001963 0.000000
# 3 -0.005235 -0.008789 0.015490 0.000000 -0.000492 0.000000
# 4 0.000000 0.000000 0.000000 0.042117 0.000000 0.006615
# 5 0.003142 0.001963 -0.000492 0.000000 0.036780 0.000000
# 6 0.000000 0.000000 0.000000 0.006615 0.000000 0.048029
#
#
# Mechanical properties :
#
#
# Convention : Reuss Voigt Hill
#
# Bulk Modulus (GPa) = 46.68603 55.55889 51.12246
# Shear Modulus (GPa) = 22.56554 24.33659 23.45107
#
# Velocity S-wave (km/s) = 3.67685 3.81842 3.74830
# Velocity P-wave (km/s) = 6.78202 7.26129 7.02574
#
# Compressibility (1/GPa) = 0.02141968
#
# Stress axis : x y z
#
# Youngs Moduli (GPa) = 74.79077 39.05520 64.55666
#
# Poissons Ratio (x) = 0.09761 0.33796
# Poissons Ratio (y) = 0.18693 0.56736
# Poissons Ratio (z) = 0.39153 0.34324
#
# Static dielectric constant tensor:
#      x y z
#    x 3.243470 0.000000 0.013850 
#    y 0.000000 3.045340 0.000000 
#    z 0.013850 0.000000 3.146030 
# 
# 
# High freq. dielectric constant tensor:
#      x y z
#    x 1.633860 0.000000 -0.010370 
#    y 0.000000 1.643140 0.000000 
#    z -0.010370 0.000000 1.623400 
# 
# From -- ./inp_files/60700.got.cif
#   From: 2010.06.25/outbox.cif.g09.slc.cpg/sg11_31_cif.got.tgz:60700.got - 2010.06.27 23:14:04.
