data_PCOD8070671
_publ_section_title
;
Structure prediction by ZEFSAII (Michael W. Deem and Ramdas Pophale) SiO2 
 PCOD8070671
Probable space group: P 21/M
;
_chemical_formula_sum "Si O2"
_cell_formula_units_Z 28
_cell_length_a 13.727498
_cell_length_b 8.885708
_cell_length_c 15.085422
_cell_angle_alpha 90.000000
_cell_angle_beta 48.931644
_cell_angle_gamma 90.000000
_cell_volume 1387.298150
_symmetry_space_group_name_H-M "P 21/M"
_symmetry_group_IT_number 11
_symmetry_cell_setting 'monoclinic'
loop_
_space_group_symop_operation_xyz
x,y,z
-x,1/2+y,-z
-x,-y,-z
x,1/2-y,z
loop_
_atom_site_type_symbol
_atom_site_label
_atom_site_fract_x
_atom_site_fract_y
_atom_site_fract_z
Si Si1 0.395799 0.916904 0.618124
Si Si2 0.773220 0.415747 0.440420
Si Si3 0.632122 0.071715 0.170128
Si Si4 0.371729 0.923813 0.302248
Si Si5 0.978843 0.075565 0.732819
Si Si6 0.078814 0.927460 0.034195
Si Si7 0.119023 0.428577 0.373901
O O1 0.448588 0.750000 0.602843
O O2 0.265272 0.917889 0.639278
O O3 0.366865 0.990357 0.729847
O O4 0.500000 0.000000 0.500000
O O5 0.832530 0.250000 0.427943
O O6 0.650523 0.443636 0.578246
O O7 0.878460 0.545225 0.391967
O O8 0.614579 0.250000 0.172346
O O9 0.511589 0.992651 0.192291
O O10 0.771214 0.021027 0.050100
O O11 0.369056 0.750000 0.274396
O O12 0.256850 0.013208 0.324471
O O13 0.942917 0.250000 0.744962
O O14 0.976530 0.023573 0.836908
O O15 0.883841 0.978344 0.727803
O O16 0.069444 0.750000 0.024621
O O17 0.000000 0.000000 0.000000
O O18 0.111465 0.250000 0.387736
O O19 0.000000 0.500000 0.500000
#
# Coordination Sequence:
#
# PCOD8070671 Si02
#       7
#     4   4   4   4   4   4   4
#     4  10  19  31  50  78 113 151 190 235 290 356
#     4  10  20  34  54  83 120 158 195 244 305 364
#     4  10  21  38  59  84 121 164 203 251 308 363
#     4  11  22  37  59  89 123 157 199 249 304 366
#     4  11  23  39  62  91 121 158 207 257 306 363
#     4  10  23  43  66  92 124 165 212 259 304 362
#     4  12  24  40  63  91 124 162 203 252 311 371
#
# _framework density 20.183116999999999
#
# number of rings (size 3 to 8) (size 9 to 14) (size 15 to 20)
#    0.000    1.429    2.857    3.000    0.000    4.000 
#    0.000    0.714    0.000    0.000    0.000    0.000 
#    0.000    0.000    0.000    0.000    0.000    0.000 
#
# Total GULP energy -347055.923980 kJ/mol
# GULP energy per Si atom -12394.854428 kJ/mol
# Density = 2.013718 g / cm^3
# Si number density = 20.183117 Si / 1000 Ang^3
#
#
#
# Elastic Constant Matrix: (Units=GPa)
#
#
# Indices 1 2 3 4 5 6 
#
# 1 115.3582 52.3142 40.9715 0.0000 -11.0267 0.0000
# 2 52.3142 99.4525 39.5359 0.0000 -6.9803 0.0000
# 3 40.9715 39.5359 87.2019 0.0000 -15.7014 0.0000
# 4 0.0000 0.0000 0.0000 25.8617 0.0000 -3.5220
# 5 -11.0267 -6.9803 -15.7014 0.0000 38.2514 0.0000
# 6 0.0000 0.0000 0.0000 -3.5220 0.0000 36.4154
#
#
#
# Elastic Compliance Matrix: (Units=1/GPa)
#
#
# Indices 1 2 3 4 5 6 
#
# 1 0.012231 -0.005064 -0.003220 0.000000 0.001280 0.000000
# 2 -0.005064 0.014362 -0.004236 0.000000 -0.000578 0.000000
# 3 -0.003220 -0.004236 0.015760 0.000000 0.004768 0.000000
# 4 0.000000 0.000000 0.000000 0.039183 0.000000 0.003790
# 5 0.001280 -0.000578 0.004768 0.000000 0.028363 0.000000
# 6 0.000000 0.000000 0.000000 0.003790 0.000000 0.027827
#
#
# Mechanical properties :
#
#
# Convention : Reuss Voigt Hill
#
# Bulk Modulus (GPa) = 57.76346 63.07284 60.41815
# Shear Modulus (GPa) = 29.66656 31.38508 30.52582
#
# Velocity S-wave (km/s) = 3.83805 3.94765 3.89323
# Velocity P-wave (km/s) = 6.95145 7.21780 7.08588
#
# Compressibility (1/GPa) = 0.01731198
#
# Stress axis : x y z
#
# Youngs Moduli (GPa) = 81.75811 69.62668 63.45181
#
# Poissons Ratio (x) = 0.35257 0.20435
# Poissons Ratio (y) = 0.41401 0.26881
# Poissons Ratio (z) = 0.26330 0.29497
#
# Static dielectric constant tensor:
#      x y z
#    x 3.852660 0.000000 0.126980 
#    y 0.000000 3.617000 0.000000 
#    z 0.126980 0.000000 3.656040 
# 
# 
# High freq. dielectric constant tensor:
#      x y z
#    x 1.796040 0.000000 -0.002550 
#    y 0.000000 1.783940 0.000000 
#    z -0.002550 0.000000 1.771470 
# 
# From -- ./inp_files/60096.got.cif
#   From: 2010.06.25/outbox.cif.g09.slc.cpg/sg11_31_cif.got.tgz:60096.got - 2010.06.27 23:14:04.
