data_PCOD8070877
_publ_section_title
;
Structure prediction by ZEFSAII (Michael W. Deem and Ramdas Pophale) SiO2 
 PCOD8070877
Probable space group: P 21/M
;
_chemical_formula_sum "Si O2"
_cell_formula_units_Z 32
_cell_length_a 11.760516
_cell_length_b 8.217113
_cell_length_c 21.765075
_cell_angle_alpha 90.000000
_cell_angle_beta 122.456200
_cell_angle_gamma 90.000000
_cell_volume 1774.787348
_symmetry_space_group_name_H-M "P 21/M"
_symmetry_group_IT_number 11
_symmetry_cell_setting 'monoclinic'
loop_
_space_group_symop_operation_xyz
x,y,z
-x,1/2+y,-z
-x,-y,-z
x,1/2-y,z
loop_
_atom_site_type_symbol
_atom_site_label
_atom_site_fract_x
_atom_site_fract_y
_atom_site_fract_z
Si Si1 0.357736 0.444989 0.732089
Si Si2 0.367950 0.561459 0.134598
Si Si3 0.905876 0.557947 0.270345
Si Si4 0.923253 0.056496 0.917277
Si Si5 0.623836 0.936474 0.997238
Si Si6 0.961964 0.943862 0.577507
Si Si7 0.211924 0.435578 0.576964
Si Si8 0.886578 0.436917 0.130603
O O1 0.360678 0.250000 0.733016
O O2 0.498856 0.520834 0.796722
O O3 0.237079 0.500590 0.742545
O O4 0.329711 0.514778 0.654084
O O5 0.374288 0.750000 0.151472
O O6 0.230575 0.490537 0.123750
O O7 0.365723 0.540206 0.061187
O O8 0.912344 0.750000 0.263350
O O9 0.928372 0.471341 0.212229
O O10 0.031050 0.497103 0.349339
O O11 0.929895 0.250000 0.915133
O O12 0.986840 0.978130 0.875431
O O13 0.000000 0.000000 0.000000
O O14 0.601404 0.750000 0.972927
O O15 0.759359 0.952760 0.075951
O O16 0.500000 0.000000 0.000000
O O17 0.983986 0.750000 0.576071
O O18 0.820446 0.998482 0.502155
O O19 0.076532 0.047130 0.577118
O O20 0.252825 0.250000 0.582674
O O21 0.845775 0.250000 0.110065
#
# Coordination Sequence:
#
# PCOD8070877 Si02
#       8
#     4   4   4   4   4   4   4   4
#     4   8  15  29  49  73 101 132 165 204 247 298
#     4  10  20  35  55  76  99 130 172 214 256 303
#     4  10  19  32  50  73 104 137 167 205 257 309
#     4  11  22  37  57  77  99 130 170 217 263 308
#     4  12  24  37  54  75 104 136 169 206 253 308
#     4   9  15  24  41  67  99 134 170 204 242 295
#     4   8  14  25  42  65  97 136 171 203 244 293
#     4  12  24  38  55  75 100 131 172 216 261 308
#
# _framework density 18.030328999999998
#
# number of rings (size 3 to 8) (size 9 to 14) (size 15 to 20)
#    0.000    2.000    1.250    4.875    0.000    2.000 
#    0.000    2.500    0.000    0.000    0.000    0.875 
#    0.000    0.000    0.000    0.000    0.000    0.000 
#
# Total GULP energy -396491.610605 kJ/mol
# GULP energy per Si atom -12390.362831 kJ/mol
# Density = 1.798929 g / cm^3
# Si number density = 18.030329 Si / 1000 Ang^3
#
#
#
# Elastic Constant Matrix: (Units=GPa)
#
#
# Indices 1 2 3 4 5 6 
#
# 1 102.5984 13.9892 61.1165 0.0000 -4.3721 0.0000
# 2 13.9892 33.7918 8.3210 0.0000 4.6453 0.0000
# 3 61.1165 8.3210 167.3729 0.0000 -2.4946 0.0000
# 4 0.0000 0.0000 0.0000 22.2429 0.0000 -1.3399
# 5 -4.3721 4.6453 -2.4946 0.0000 6.9231 0.0000
# 6 0.0000 0.0000 0.0000 -1.3399 0.0000 17.6703
#
#
#
# Elastic Compliance Matrix: (Units=1/GPa)
#
#
# Indices 1 2 3 4 5 6 
#
# 1 0.013771 -0.006112 -0.004558 0.000000 0.011155 0.000000
# 2 -0.006112 0.035963 0.000027 0.000000 -0.027981 0.000000
# 3 -0.004558 0.000027 0.007636 0.000000 -0.000145 0.000000
# 4 0.000000 0.000000 0.000000 0.045164 0.000000 0.003425
# 5 0.011155 -0.027981 -0.000145 0.000000 0.170211 0.000000
# 6 0.000000 0.000000 0.000000 0.003425 0.000000 0.056852
#
#
# Mechanical properties :
#
#
# Convention : Reuss Voigt Hill
#
# Bulk Modulus (GPa) = 27.71409 52.29071 40.00240
# Shear Modulus (GPa) = 13.77750 24.05638 18.91694
#
# Velocity S-wave (km/s) = 2.76729 3.65666 3.24261
# Velocity P-wave (km/s) = 5.06110 6.84782 6.02110
#
# Compressibility (1/GPa) = 0.03608272
#
# Stress axis : x y z
#
# Youngs Moduli (GPa) = 72.61763 27.80634 130.96453
#
# Poissons Ratio (x) = 0.16995 0.59698
# Poissons Ratio (y) = 0.44383 -0.00351
# Poissons Ratio (z) = 0.33101 -0.00075
#
# Static dielectric constant tensor:
#      x y z
#    x 3.236230 0.000000 0.200070 
#    y 0.000000 5.773140 0.000000 
#    z 0.200070 0.000000 3.964620 
# 
# 
# High freq. dielectric constant tensor:
#      x y z
#    x 1.650430 0.000000 0.004010 
#    y 0.000000 1.691140 0.000000 
#    z 0.004010 0.000000 1.719660 
# 
# From -- ./inp_files/58686.got.cif
#   From: 2010.06.25/outbox.cif.g09.slc.cpg/sg11_30_cif.got.tgz:58686.got - 2010.06.27 23:14:04.
