data_PCOD8070460
_publ_section_title
;
Structure prediction by ZEFSAII (Michael W. Deem and Ramdas Pophale) SiO2 
 PCOD8070460
Probable space group: P 21/M
;
_chemical_formula_sum "Si O2"
_cell_formula_units_Z 24
_cell_length_a 29.866209
_cell_length_b 8.824365
_cell_length_c 11.565298
_cell_angle_alpha 90.000000
_cell_angle_beta 29.693068
_cell_angle_gamma 90.000000
_cell_volume 1509.856560
_symmetry_space_group_name_H-M "P 21/M"
_symmetry_group_IT_number 11
_symmetry_cell_setting 'monoclinic'
loop_
_space_group_symop_operation_xyz
x,y,z
-x,1/2+y,-z
-x,-y,-z
x,1/2-y,z
loop_
_atom_site_type_symbol
_atom_site_label
_atom_site_fract_x
_atom_site_fract_y
_atom_site_fract_z
Si Si1 0.595710 0.578122 0.293115
Si Si2 0.765032 0.071699 0.990741
Si Si3 0.245732 0.422059 0.211799
Si Si4 0.951381 0.077415 0.935494
Si Si5 0.072873 0.428840 0.251238
Si Si6 0.132870 0.422831 0.671488
O O1 0.500000 0.500000 0.500000
O O2 0.582301 0.750000 0.365401
O O3 0.661935 0.491605 0.235445
O O4 0.645498 0.572415 0.054903
O O5 0.766550 0.250000 0.005224
O O6 0.802096 0.026772 0.779022
O O7 0.827671 0.993647 0.945546
O O8 0.209257 0.250000 0.276379
O O9 0.219857 0.475021 0.399443
O O10 0.933040 0.250000 0.939349
O O11 0.873784 0.027540 0.200715
O O12 0.047541 0.056292 0.779612
O O13 0.950473 0.969595 0.827419
O O14 0.071894 0.250000 0.269969
O O15 0.000000 0.500000 0.500000
O O16 0.142004 0.250000 0.693317
#
# Coordination Sequence:
#
# PCOD8070460 Si02
#       6
#     4   4   4   4   4   4
#     4   9  17  30  48  73 101 129 160 201 247 294
#     4  10  19  31  48  71  98 128 161 198 242 291
#     4   8  16  29  47  68  95 127 159 196 239 286
#     4  10  20  31  47  69  94 125 164 203 240 282
#     4  12  23  35  49  68  96 131 167 202 242 290
#     4   9  17  32  48  65  92 127 163 202 241 281
#
# _framework density 15.89555
#
# number of rings (size 3 to 8) (size 9 to 14) (size 15 to 20)
#    1.000    1.333    0.000    4.500    0.000    2.667 
#    0.000    0.000    0.000    0.000    0.000    1.167 
#    0.000    0.000    0.000    0.000    0.000    0.000 
#
# Total GULP energy -297391.350172 kJ/mol
# GULP energy per Si atom -12391.306257 kJ/mol
# Density = 1.585937 g / cm^3
# Si number density = 15.895550 Si / 1000 Ang^3
#
#
#
# Elastic Constant Matrix: (Units=GPa)
#
#
# Indices 1 2 3 4 5 6 
#
# 1 57.4053 35.1370 29.2970 0.0000 6.8186 0.0000
# 2 35.1370 123.9484 37.1029 0.0000 -2.5402 0.0000
# 3 29.2970 37.1029 76.5010 0.0000 2.0961 0.0000
# 4 0.0000 0.0000 0.0000 27.1361 0.0000 -0.3293
# 5 6.8186 -2.5402 2.0961 0.0000 23.3611 0.0000
# 6 0.0000 0.0000 0.0000 -0.3293 0.0000 27.4571
#
#
#
# Elastic Compliance Matrix: (Units=1/GPa)
#
#
# Indices 1 2 3 4 5 6 
#
# 1 0.024934 -0.005168 -0.006845 0.000000 -0.007226 0.000000
# 2 -0.005168 0.010558 -0.003222 0.000000 0.002945 0.000000
# 3 -0.006845 -0.003222 0.017253 0.000000 0.000099 0.000000
# 4 0.000000 0.000000 0.000000 0.036857 0.000000 0.000442
# 5 -0.007226 0.002945 0.000099 0.000000 0.045227 0.000000
# 6 0.000000 0.000000 0.000000 0.000442 0.000000 0.036426
#
#
# Mechanical properties :
#
#
# Convention : Reuss Voigt Hill
#
# Bulk Modulus (GPa) = 44.89097 51.21428 48.05263
# Shear Modulus (GPa) = 23.90644 26.01204 24.95924
#
# Velocity S-wave (km/s) = 3.88231 4.04968 3.96688
# Velocity P-wave (km/s) = 6.95694 7.35906 7.16082
#
# Compressibility (1/GPa) = 0.02227620
#
# Stress axis : x y z
#
# Youngs Moduli (GPa) = 40.10508 94.71773 57.96085
#
# Poissons Ratio (x) = 0.48947 0.39673
# Poissons Ratio (y) = 0.20725 0.18676
# Poissons Ratio (z) = 0.27451 0.30520
#
# Static dielectric constant tensor:
#      x y z
#    x 2.851190 0.000000 0.144540 
#    y 0.000000 3.119240 0.000000 
#    z 0.144540 0.000000 2.993870 
# 
# 
# High freq. dielectric constant tensor:
#      x y z
#    x 1.578830 0.000000 0.011350 
#    y 0.000000 1.624610 0.000000 
#    z 0.011350 0.000000 1.594760 
# 
# From -- ./inp_files/43866.got.cif
#   From: 2010.06.25/outbox.cif.g09.slc.cpg/sg11_22_cif.got.tgz:43866.got - 2010.06.27 23:14:04.
