data_PCOD8070713
_publ_section_title
;
Structure prediction by ZEFSAII (Michael W. Deem and Ramdas Pophale) SiO2 
 PCOD8070713
Probable space group: P 21/M
;
_chemical_formula_sum "Si O2"
_cell_formula_units_Z 32
_cell_length_a 16.597801
_cell_length_b 14.157216
_cell_length_c 10.618541
_cell_angle_alpha 90.000000
_cell_angle_beta 145.738125
_cell_angle_gamma 90.000000
_cell_volume 1404.699153
_symmetry_space_group_name_H-M "P 21/M"
_symmetry_group_IT_number 11
_symmetry_cell_setting 'monoclinic'
loop_
_space_group_symop_operation_xyz
x,y,z
-x,1/2+y,-z
-x,-y,-z
x,1/2-y,z
loop_
_atom_site_type_symbol
_atom_site_label
_atom_site_fract_x
_atom_site_fract_y
_atom_site_fract_z
Si Si1 0.920782 0.856014 0.332816
Si Si2 0.658855 0.602431 0.147129
Si Si3 0.506171 0.454545 0.300966
Si Si4 0.826279 0.057371 0.668064
Si Si5 0.091678 0.140204 0.150063
Si Si6 0.217011 0.595181 0.663516
Si Si7 0.723469 0.858537 0.855185
Si Si8 0.471614 0.651336 0.133658
O O1 0.974020 0.750000 0.372603
O O2 0.815138 0.855101 0.316184
O O3 0.066496 0.916067 0.544607
O O4 0.838242 0.897950 0.105010
O O5 0.678192 0.493695 0.203049
O O6 0.596640 0.649839 0.190455
O O7 0.550288 0.610124 0.888643
O O8 0.673048 0.436162 0.538147
O O9 0.420148 0.421753 0.315102
O O10 0.476152 0.565232 0.236498
O O11 0.822500 0.115329 0.532496
O O12 0.868566 0.945035 0.700672
O O13 0.935453 0.114779 0.896197
O O14 0.091860 0.250000 0.202278
O O15 0.212863 0.129373 0.200487
O O16 0.318673 0.668226 0.866564
O O17 0.687502 0.750000 0.839944
O O18 0.498023 0.750000 0.243424
#
# Coordination Sequence:
#
# PCOD8070713 Si02
#       8
#     4   4   4   4   4   4   4   4
#     4  10  19  31  51  80 110 146 187 229 276 329
#     4  10  19  35  52  81 117 147 188 230 269 336
#     4  10  20  37  56  86 118 148 190 226 290 339
#     4  11  21  38  63  84 114 149 187 241 294 329
#     4  10  23  41  61  87 111 143 196 243 289 344
#     4  11  19  35  54  81 113 152 191 226 281 335
#     4   9  19  36  58  83 112 145 188 241 285 336
#     4  11  21  34  55  85 122 155 190 232 272 335
#
# _framework density 22.780677000000001
#
# number of rings (size 3 to 8) (size 9 to 14) (size 15 to 20)
#    0.000    1.750    3.750    1.875    0.000    2.500 
#    0.000    0.000    0.000    3.000    0.000    0.000 
#    0.000    0.000    0.000    0.000    0.000    0.000 
#
# Total GULP energy -396511.401103 kJ/mol
# GULP energy per Si atom -12390.981284 kJ/mol
# Density = 2.272883 g / cm^3
# Si number density = 22.780677 Si / 1000 Ang^3
#
#
#
# Elastic Constant Matrix: (Units=GPa)
#
#
# Indices 1 2 3 4 5 6 
#
# 1 63.0905 26.1506 26.8943 0.0000 27.7387 0.0000
# 2 26.1506 97.6823 10.4144 0.0000 16.9884 0.0000
# 3 26.8943 10.4144 87.7240 0.0000 40.6014 0.0000
# 4 0.0000 0.0000 0.0000 13.9374 0.0000 -2.3411
# 5 27.7387 16.9884 40.6014 0.0000 36.4525 0.0000
# 6 0.0000 0.0000 0.0000 -2.3411 0.0000 22.4530
#
#
#
# Elastic Compliance Matrix: (Units=1/GPa)
#
#
# Indices 1 2 3 4 5 6 
#
# 1 0.025092 -0.003540 0.001654 0.000000 -0.019286 0.000000
# 2 -0.003540 0.011855 0.002040 0.000000 -0.005103 0.000000
# 3 0.001654 0.002040 0.024093 0.000000 -0.029044 0.000000
# 4 0.000000 0.000000 0.000000 0.073028 0.000000 0.007614
# 5 -0.019286 -0.005103 -0.029044 0.000000 0.076837 0.000000
# 6 0.000000 0.000000 0.000000 0.007614 0.000000 0.045331
#
#
# Mechanical properties :
#
#
# Convention : Reuss Voigt Hill
#
# Bulk Modulus (GPa) = 16.30053 41.71281 29.00667
# Shear Modulus (GPa) = 18.09123 26.90442 22.49782
#
# Velocity S-wave (km/s) = 2.82112 3.44032 3.14599
# Velocity P-wave (km/s) = 4.21694 5.84221 5.09480
#
# Compressibility (1/GPa) = 0.06134769
#
# Stress axis : x y z
#
# Youngs Moduli (GPa) = 39.85360 84.35319 41.50650
#
# Poissons Ratio (x) = 0.29857 -0.06865
# Poissons Ratio (y) = 0.14106 -0.08466
# Poissons Ratio (z) = -0.06591 -0.17206
#
# Static dielectric constant tensor:
#      x y z
#    x 3.844590 0.000000 0.241430 
#    y 0.000000 4.302500 0.000000 
#    z 0.241430 0.000000 4.167810 
# 
# 
# High freq. dielectric constant tensor:
#      x y z
#    x 1.872350 0.000000 0.028000 
#    y 0.000000 1.896600 0.000000 
#    z 0.028000 0.000000 1.899820 
# 
# From -- ./inp_files/41731.got.cif
#   From: 2010.06.25/outbox.cif.g09.slc.cpg/sg11_21_cif.got.tgz:41731.got - 2010.06.27 23:14:04.
