data_PCOD8070993
_publ_section_title
;
Structure prediction by ZEFSAII (Michael W. Deem and Ramdas Pophale) SiO2 
 PCOD8070993
Probable space group: P 21/M
;
_chemical_formula_sum "Si O2"
_cell_formula_units_Z 32
_cell_length_a 21.113852
_cell_length_b 8.789871
_cell_length_c 9.464626
_cell_angle_alpha 90.000000
_cell_angle_beta 89.924354
_cell_angle_gamma 90.000000
_cell_volume 1756.519814
_symmetry_space_group_name_H-M "P 21/M"
_symmetry_group_IT_number 11
_symmetry_cell_setting 'monoclinic'
loop_
_space_group_symop_operation_xyz
x,y,z
-x,1/2+y,-z
-x,-y,-z
x,1/2-y,z
loop_
_atom_site_type_symbol
_atom_site_label
_atom_site_fract_x
_atom_site_fract_y
_atom_site_fract_z
Si Si1 0.647363 0.425093 0.054405
Si Si2 0.631351 0.570483 0.478606
Si Si3 0.126559 0.428180 0.670908
Si Si4 0.004994 0.069168 0.844891
Si Si5 0.263440 0.070372 0.740764
Si Si6 0.539808 0.072051 0.272303
Si Si7 0.945763 0.928335 0.593894
Si Si8 0.404917 0.927990 0.243972
O O1 0.663968 0.250000 0.076056
O O2 0.708071 0.517973 0.109759
O O3 0.583493 0.468101 0.138268
O O4 0.636790 0.467648 0.892352
O O5 0.631321 0.750000 0.503481
O O6 0.690139 0.513874 0.383895
O O7 0.565185 0.521352 0.407044
O O8 0.637800 0.483205 0.626030
O O9 0.128260 0.250000 0.698509
O O10 0.069682 0.491640 0.770054
O O11 0.193638 0.501500 0.717039
O O12 0.116845 0.459027 0.502017
O O13 0.001813 0.250000 0.854361
O O14 0.946011 0.009850 0.747630
O O15 0.000000 0.000000 0.000000
O O16 0.259468 0.250000 0.739239
O O17 0.540549 0.250000 0.309165
O O18 0.469540 0.021363 0.235803
O O19 0.957140 0.750000 0.616461
O O20 0.000000 0.000000 0.500000
O O21 0.420760 0.750000 0.252729
#
# Coordination Sequence:
#
# PCOD8070993 Si02
#       8
#     4   4   4   4   4   4   4   4
#     4   9  20  35  50  71  99 129 159 199 249 293
#     4  10  20  33  50  72  96 123 159 202 244 288
#     4   8  16  32  54  76  97 128 167 205 242 284
#     4  10  19  32  51  77 109 137 165 203 250 297
#     4   9  18  35  56  73  92 125 170 207 237 285
#     4  10  19  33  52  72  95 123 159 200 245 296
#     4   9  16  29  50  75 104 134 166 203 243 287
#     4  11  21  33  49  70  98 127 157 197 247 298
#
# _framework density 18.217841
#
# number of rings (size 3 to 8) (size 9 to 14) (size 15 to 20)
#    0.000    2.500    0.000    3.375    0.000    2.000 
#    0.000    5.000    0.000    6.000    0.000    0.000 
#    0.000    0.000    0.000    0.000    0.000    0.000 
#
# Total GULP energy -396691.784794 kJ/mol
# GULP energy per Si atom -12396.618275 kJ/mol
# Density = 1.817638 g / cm^3
# Si number density = 18.217841 Si / 1000 Ang^3
#
#
#
# Elastic Constant Matrix: (Units=GPa)
#
#
# Indices 1 2 3 4 5 6 
#
# 1 100.0770 23.8465 49.2531 0.0000 17.7377 0.0000
# 2 23.8465 47.7938 39.6658 0.0000 4.2987 0.0000
# 3 49.2531 39.6658 146.5881 0.0000 16.4641 0.0000
# 4 0.0000 0.0000 0.0000 34.0302 0.0000 3.6595
# 5 17.7377 4.2987 16.4641 0.0000 18.7049 0.0000
# 6 0.0000 0.0000 0.0000 3.6595 0.0000 19.5324
#
#
#
# Elastic Compliance Matrix: (Units=1/GPa)
#
#
# Indices 1 2 3 4 5 6 
#
# 1 0.013959 -0.004005 -0.002467 0.000000 -0.010145 0.000000
# 2 -0.004005 0.028133 -0.006622 0.000000 0.003161 0.000000
# 3 -0.002467 -0.006622 0.009997 0.000000 -0.004938 0.000000
# 4 0.000000 0.000000 0.000000 0.029990 0.000000 -0.005619
# 5 -0.010145 0.003161 -0.004938 0.000000 0.066703 0.000000
# 6 0.000000 0.000000 0.000000 -0.005619 0.000000 0.052250
#
#
# Mechanical properties :
#
#
# Convention : Reuss Voigt Hill
#
# Bulk Modulus (GPa) = 38.60786 57.77664 48.19225
# Shear Modulus (GPa) = 21.19967 26.56641 23.88304
#
# Velocity S-wave (km/s) = 3.41497 3.82286 3.62466
# Velocity P-wave (km/s) = 6.06529 7.16023 6.63538
#
# Compressibility (1/GPa) = 0.02590146
#
# Stress axis : x y z
#
# Youngs Moduli (GPa) = 71.63911 35.54557 100.02741
#
# Poissons Ratio (x) = 0.14235 0.24677
# Poissons Ratio (y) = 0.28690 0.66238
# Poissons Ratio (z) = 0.17673 0.23538
#
# Static dielectric constant tensor:
#      x y z
#    x 3.490560 0.000000 0.194390 
#    y 0.000000 3.349580 0.000000 
#    z 0.194390 0.000000 3.613700 
# 
# 
# High freq. dielectric constant tensor:
#      x y z
#    x 1.683470 0.000000 0.014900 
#    y 0.000000 1.703000 0.000000 
#    z 0.014900 0.000000 1.711230 
# 
# From -- ./inp_files/27297.got.cif
#   From: 2010.06.25/outbox.cif.g09.slc.cpg/sg11_14_cif.got.tgz:27297.got - 2010.06.27 23:14:04.
