data_PCOD8070518
_publ_section_title
;
Structure prediction by ZEFSAII (Michael W. Deem and Ramdas Pophale) SiO2 
 PCOD8070518
Probable space group: P 21/M
;
_chemical_formula_sum "Si O2"
_cell_formula_units_Z 32
_cell_length_a 5.255671
_cell_length_b 9.535949
_cell_length_c 32.651071
_cell_angle_alpha 90.000000
_cell_angle_beta 94.021867
_cell_angle_gamma 90.000000
_cell_volume 1632.370320
_symmetry_space_group_name_H-M "P 21/M"
_symmetry_group_IT_number 11
_symmetry_cell_setting 'monoclinic'
loop_
_space_group_symop_operation_xyz
x,y,z
-x,1/2+y,-z
-x,-y,-z
x,1/2-y,z
loop_
_atom_site_type_symbol
_atom_site_label
_atom_site_fract_x
_atom_site_fract_y
_atom_site_fract_z
Si Si1 0.590119 0.916392 0.230938
Si Si2 0.388318 0.917643 0.685477
Si Si3 0.552058 0.901978 0.562208
Si Si4 0.872118 0.586608 0.639783
Si Si5 0.209598 0.098039 0.520488
Si Si6 0.042648 0.915809 0.090648
Si Si7 0.072765 0.584612 0.182167
Si Si8 0.522748 0.916655 0.042001
O O1 0.589121 0.750000 0.240159
O O2 0.325553 0.969008 0.208111
O O3 0.819223 0.959397 0.203407
O O4 0.633870 0.003389 0.272226
O O5 0.385123 0.750000 0.692251
O O6 0.644341 0.971132 0.665932
O O7 0.148728 0.972600 0.655248
O O8 0.452779 0.750000 0.578997
O O9 0.799252 0.949446 0.591490
O O10 0.598495 0.877565 0.514870
O O11 0.338785 0.023661 0.561556
O O12 0.886746 0.750000 0.646837
O O13 0.103392 0.250000 0.533606
O O14 0.000000 0.000000 0.500000
O O15 0.036972 0.750000 0.094044
O O16 0.060993 0.981368 0.136453
O O17 0.287303 0.964425 0.067625
O O18 0.782975 0.967282 0.066449
O O19 0.091311 0.750000 0.178511
O O20 0.520415 0.750000 0.033665
O O21 0.500000 0.000000 0.000000
#
# Coordination Sequence:
#
# PCOD8070518 Si02
#       8
#     4   4   4   4   4   4   4   4
#     4  10  19  32  52  76 101 129 161 203 256 304
#     4  10  20  35  54  77 103 134 170 208 246 302
#     4   9  19  35  54  75  99 133 174 217 255 299
#     4   9  19  34  56  78  99 133 177 211 244 291
#     4  10  20  33  53  78 105 135 169 212 261 309
#     4   9  17  30  49  73  97 126 170 213 246 291
#     4   9  17  30  51  76  99 127 166 210 251 296
#     4  10  19  31  49  71  98 132 168 208 251 296
#
# _framework density 19.603393000000001
#
# number of rings (size 3 to 8) (size 9 to 14) (size 15 to 20)
#    0.000    2.500    0.000    2.250    1.750    3.500 
#    0.000    1.250    0.000    4.500    0.000    0.000 
#    0.000    0.000    0.000    0.000    0.000    0.000 
#
# Total GULP energy -396553.902283 kJ/mol
# GULP energy per Si atom -12392.309446 kJ/mol
# Density = 1.955878 g / cm^3
# Si number density = 19.603393 Si / 1000 Ang^3
#
#
#
# Elastic Constant Matrix: (Units=GPa)
#
#
# Indices 1 2 3 4 5 6 
#
# 1 119.3575 17.1392 19.0740 0.0000 19.8561 0.0000
# 2 17.1392 56.3491 11.8560 0.0000 12.0698 0.0000
# 3 19.0740 11.8560 85.8313 0.0000 22.5218 0.0000
# 4 0.0000 0.0000 0.0000 26.9498 0.0000 5.5531
# 5 19.8561 12.0698 22.5218 0.0000 36.4437 0.0000
# 6 0.0000 0.0000 0.0000 5.5531 0.0000 14.0794
#
#
#
# Elastic Compliance Matrix: (Units=1/GPa)
#
#
# Indices 1 2 3 4 5 6 
#
# 1 0.009441 -0.001839 -0.000781 0.000000 -0.004052 0.000000
# 2 -0.001839 0.019559 -0.001022 0.000000 -0.004844 0.000000
# 3 -0.000781 -0.001022 0.014042 0.000000 -0.007914 0.000000
# 4 0.000000 0.000000 0.000000 0.040388 0.000000 -0.015930
# 5 -0.004052 -0.004844 -0.007914 0.000000 0.036142 0.000000
# 6 0.000000 0.000000 0.000000 -0.015930 0.000000 0.077309
#
#
# Mechanical properties :
#
#
# Convention : Reuss Voigt Hill
#
# Bulk Modulus (GPa) = 27.96589 39.74182 33.85385
# Shear Modulus (GPa) = 23.13910 29.72582 26.43246
#
# Velocity S-wave (km/s) = 3.43937 3.89827 3.67599
# Velocity P-wave (km/s) = 5.48353 6.37016 5.94340
#
# Compressibility (1/GPa) = 0.03575784
#
# Stress axis : x y z
#
# Youngs Moduli (GPa) = 105.91850 51.12858 71.21481
#
# Poissons Ratio (x) = 0.09405 0.05560
# Poissons Ratio (y) = 0.19483 0.07277
# Poissons Ratio (z) = 0.08269 0.05225
#
# Static dielectric constant tensor:
#      x y z
#    x 4.212370 0.000000 -0.087770 
#    y 0.000000 3.448460 0.000000 
#    z -0.087770 0.000000 4.175520 
# 
# 
# High freq. dielectric constant tensor:
#      x y z
#    x 1.778100 0.000000 0.008780 
#    y 0.000000 1.718850 0.000000 
#    z 0.008780 0.000000 1.766710 
# 
# From -- ./inp_files/9670.got.cif
#   From: 2010.06.25/outbox.cif.g09.slc.cpg/sg11_5_cif.got.tgz:9670.got - 2010.06.27 23:14:04.
