data_PCOD8070769
_publ_section_title
;
Structure prediction by ZEFSAII (Michael W. Deem and Ramdas Pophale) SiO2 
 PCOD8070769
Probable space group: P 21/M
;
_chemical_formula_sum "Si O2"
_cell_formula_units_Z 24
_cell_length_a 9.233537
_cell_length_b 18.333712
_cell_length_c 11.294937
_cell_angle_alpha 90.000000
_cell_angle_beta 39.789313
_cell_angle_gamma 90.000000
_cell_volume 1223.656368
_symmetry_space_group_name_H-M "P 21/M"
_symmetry_group_IT_number 11
_symmetry_cell_setting 'monoclinic'
loop_
_space_group_symop_operation_xyz
x,y,z
-x,1/2+y,-z
-x,-y,-z
x,1/2-y,z
loop_
_atom_site_type_symbol
_atom_site_label
_atom_site_fract_x
_atom_site_fract_y
_atom_site_fract_z
Si Si1 0.642967 0.055096 0.490688
Si Si2 0.524076 0.833309 0.222822
Si Si3 0.040191 0.092441 0.076335
Si Si4 0.280200 0.046560 0.347950
Si Si5 0.168425 0.589549 0.288605
Si Si6 0.787005 0.069397 0.006114
O O1 0.491103 0.116764 0.649319
O O2 0.835067 0.096547 0.296781
O O3 0.500000 0.000000 0.500000
O O4 0.761792 0.006577 0.514524
O O5 0.486912 0.750000 0.282348
O O6 0.344371 0.853958 0.234428
O O7 0.776498 0.844762 0.011424
O O8 0.175765 0.016707 0.002163
O O9 0.939953 0.108008 0.008688
O O10 0.072438 0.103426 0.492586
O O11 0.254819 0.994424 0.249178
O O12 0.521240 0.086570 0.195897
O O13 0.143386 0.602590 0.164036
#
# Coordination Sequence:
#
# PCOD8070769 Si02
#       6
#     4   4   4   4   4   4
#     4  11  19  37  64  95 121 152 204 263 309 356
#     4  11  26  43  58  84 125 170 205 247 315 384
#     4  11  21  34  61  92 122 151 196 248 310 365
#     4  10  19  31  56  93 119 145 195 251 304 344
#     4  10  21  34  57  85 122 156 194 242 297 358
#     4  11  19  33  60  94 119 145 190 258 306 350
#
# _framework density 19.613350000000001
#
# number of rings (size 3 to 8) (size 9 to 14) (size 15 to 20)
#    0.000    1.333    6.667    1.500    0.000    0.667 
#    0.000    0.833    0.000    1.000    0.000    0.000 
#    0.000    0.000    0.000    0.000    0.000    0.000 
#
# Total GULP energy -297540.175216 kJ/mol
# GULP energy per Si atom -12397.507301 kJ/mol
# Density = 1.956871 g / cm^3
# Si number density = 19.613350 Si / 1000 Ang^3
#
#
#
# Elastic Constant Matrix: (Units=GPa)
#
#
# Indices 1 2 3 4 5 6 
#
# 1 79.5666 18.5136 38.5435 0.0000 -1.6943 0.0000
# 2 18.5136 60.6282 26.1235 0.0000 -3.0549 0.0000
# 3 38.5435 26.1235 119.0267 0.0000 -12.6750 0.0000
# 4 0.0000 0.0000 0.0000 13.0642 0.0000 0.6801
# 5 -1.6943 -3.0549 -12.6750 0.0000 43.8759 0.0000
# 6 0.0000 0.0000 0.0000 0.6801 0.0000 13.6155
#
#
#
# Elastic Compliance Matrix: (Units=1/GPa)
#
#
# Indices 1 2 3 4 5 6 
#
# 1 0.015361 -0.002818 -0.004450 0.000000 -0.000889 0.000000
# 2 -0.002818 0.018734 -0.003169 0.000000 0.000280 0.000000
# 3 -0.004450 -0.003169 0.010830 0.000000 0.002736 0.000000
# 4 0.000000 0.000000 0.000000 0.076745 0.000000 -0.003834
# 5 -0.000889 0.000280 0.002736 0.000000 0.023567 0.000000
# 6 0.000000 0.000000 0.000000 -0.003834 0.000000 0.073637
#
#
# Mechanical properties :
#
#
# Convention : Reuss Voigt Hill
#
# Bulk Modulus (GPa) = 41.58123 47.28694 44.43408
# Shear Modulus (GPa) = 20.18042 25.84716 23.01379
#
# Velocity S-wave (km/s) = 3.21115 3.63414 3.42917
# Velocity P-wave (km/s) = 5.91567 6.46306 6.19541
#
# Compressibility (1/GPa) = 0.02404932
#
# Stress axis : x y z
#
# Youngs Moduli (GPa) = 65.10156 53.37836 92.33997
#
# Poissons Ratio (x) = 0.15041 0.41094
# Poissons Ratio (y) = 0.18344 0.29267
# Poissons Ratio (z) = 0.28972 0.16918
#
# Static dielectric constant tensor:
#      x y z
#    x 3.982860 0.000000 0.024090 
#    y 0.000000 2.956980 0.000000 
#    z 0.024090 0.000000 3.777400 
# 
# 
# High freq. dielectric constant tensor:
#      x y z
#    x 1.784230 0.000000 -0.009520 
#    y 0.000000 1.685580 0.000000 
#    z -0.009520 0.000000 1.780500 
# 
# From -- ./inp_files/32605.got.cif
#   From: 2010.06.25/outbox.cif.g09.slc.cpg/sg11_17_cif.got.tgz:32605.got - 2010.06.27 23:14:04.
