data_PCOD8070863
_publ_section_title
;
Structure prediction by ZEFSAII (Michael W. Deem and Ramdas Pophale) SiO2 
 PCOD8070863
Probable space group: P 21/M
;
_chemical_formula_sum "Si O2"
_cell_formula_units_Z 32
_cell_length_a 22.272586
_cell_length_b 8.874445
_cell_length_c 14.559810
_cell_angle_alpha 90.000000
_cell_angle_beta 142.624473
_cell_angle_gamma 90.000000
_cell_volume 1746.957472
_symmetry_space_group_name_H-M "P 21/M"
_symmetry_group_IT_number 11
_symmetry_cell_setting 'monoclinic'
loop_
_space_group_symop_operation_xyz
x,y,z
-x,1/2+y,-z
-x,-y,-z
x,1/2-y,z
loop_
_atom_site_type_symbol
_atom_site_label
_atom_site_fract_x
_atom_site_fract_y
_atom_site_fract_z
Si Si1 0.084935 0.575175 0.949687
Si Si2 0.326208 0.429177 0.936877
Si Si3 0.866105 0.570286 0.649728
Si Si4 0.605941 0.928897 0.647797
Si Si5 0.487622 0.424529 0.887672
Si Si6 0.733307 0.074188 0.956261
Si Si7 0.724904 0.924313 0.327018
Si Si8 0.787427 0.572800 0.746302
O O1 0.076282 0.750000 0.963111
O O2 0.977919 0.508845 0.791659
O O3 0.159487 0.545611 0.956760
O O4 0.122331 0.494131 0.086147
O O5 0.324207 0.250000 0.939723
O O6 0.288119 0.493234 0.791390
O O7 0.438960 0.487633 0.092094
O O8 0.258531 0.500957 0.933219
O O9 0.865183 0.750000 0.643625
O O10 0.815642 0.503933 0.495259
O O11 0.801481 0.516832 0.658967
O O12 0.595804 0.750000 0.642528
O O13 0.680826 0.978286 0.656766
O O14 0.500000 0.000000 0.500000
O O15 0.647848 0.992050 0.794377
O O16 0.518146 0.250000 0.927342
O O17 0.371486 0.444233 0.723966
O O18 0.500000 0.500000 0.000000
O O19 0.706945 0.250000 0.930024
O O20 0.745106 0.750000 0.334090
O O21 0.797553 0.750000 0.766424
#
# Coordination Sequence:
#
# PCOD8070863 Si02
#       8
#     4   4   4   4   4   4   4   4
#     4   9  18  32  52  73  95 124 162 205 248 293
#     4  10  19  32  50  72  97 132 172 210 250 296
#     4   9  16  30  51  74  97 125 160 201 247 298
#     4  10  20  34  51  76 107 136 164 200 243 292
#     4   9  16  28  47  70  96 129 163 200 243 293
#     4  10  20  34  51  72  97 131 170 207 247 296
#     4   8  16  29  47  72 101 129 162 201 245 295
#     4   9  18  31  51  75 100 130 163 196 240 297
#
# _framework density 18.317561000000001
#
# number of rings (size 3 to 8) (size 9 to 14) (size 15 to 20)
#    0.000    2.750    0.000    2.625    0.000    2.000 
#    0.000    3.125    0.000    9.000    0.000    0.000 
#    0.000    0.000    0.000    0.000    0.000    0.000 
#
# Total GULP energy -396587.400728 kJ/mol
# GULP energy per Si atom -12393.356273 kJ/mol
# Density = 1.827587 g / cm^3
# Si number density = 18.317561 Si / 1000 Ang^3
#
#
#
# Elastic Constant Matrix: (Units=GPa)
#
#
# Indices 1 2 3 4 5 6 
#
# 1 106.5188 29.6592 65.6124 0.0000 -6.8877 0.0000
# 2 29.6592 49.8820 31.3344 0.0000 1.1944 0.0000
# 3 65.6124 31.3344 135.4414 0.0000 4.5595 0.0000
# 4 0.0000 0.0000 0.0000 21.2010 0.0000 -1.8291
# 5 -6.8877 1.1944 4.5595 0.0000 25.5203 0.0000
# 6 0.0000 0.0000 0.0000 -1.8291 0.0000 25.2360
#
#
#
# Elastic Compliance Matrix: (Units=1/GPa)
#
#
# Indices 1 2 3 4 5 6 
#
# 1 0.015033 -0.005124 -0.006280 0.000000 0.005419 0.000000
# 2 -0.005124 0.025203 -0.003282 0.000000 -0.001976 0.000000
# 3 -0.006280 -0.003282 0.011305 0.000000 -0.003561 0.000000
# 4 0.000000 0.000000 0.000000 0.047464 0.000000 0.003440
# 5 0.005419 -0.001976 -0.003561 0.000000 0.041376 0.000000
# 6 0.000000 0.000000 0.000000 0.003440 0.000000 0.039875
#
#
# Mechanical properties :
#
#
# Convention : Reuss Voigt Hill
#
# Bulk Modulus (GPa) = 45.10652 60.56158 52.83405
# Shear Modulus (GPa) = 23.03974 25.40721 24.22347
#
# Velocity S-wave (km/s) = 3.55039 3.72834 3.64045
# Velocity P-wave (km/s) = 6.44090 7.18803 6.82470
#
# Compressibility (1/GPa) = 0.02216975
#
# Stress axis : x y z
#
# Youngs Moduli (GPa) = 66.51987 39.67824 88.46020
#
# Poissons Ratio (x) = 0.20329 0.55550
# Poissons Ratio (y) = 0.34082 0.29033
# Poissons Ratio (z) = 0.41772 0.13023
#
# Static dielectric constant tensor:
#      x y z
#    x 3.628750 0.000000 0.124350 
#    y 0.000000 3.274270 0.000000 
#    z 0.124350 0.000000 3.636310 
# 
# 
# High freq. dielectric constant tensor:
#      x y z
#    x 1.711760 0.000000 0.005030 
#    y 0.000000 1.692040 0.000000 
#    z 0.005030 0.000000 1.701500 
# 
# From -- ./inp_files/51416.got.cif
#   From: 2010.06.25/outbox.cif.g09.slc.cpg/sg11_26_cif.got.tgz:51416.got - 2010.06.27 23:14:04.
