data_PCOD8070124
_publ_section_title
;
Structure prediction by ZEFSAII (Michael W. Deem and Ramdas Pophale) SiO2 
 PCOD8070124
Probable space group: P 21/M
;
_chemical_formula_sum "Si O2"
_cell_formula_units_Z 32
_cell_length_a 11.473575
_cell_length_b 9.268390
_cell_length_c 22.730459
_cell_angle_alpha 90.000000
_cell_angle_beta 130.187612
_cell_angle_gamma 90.000000
_cell_volume 1846.579433
_symmetry_space_group_name_H-M "P 21/M"
_symmetry_group_IT_number 11
_symmetry_cell_setting 'monoclinic'
loop_
_space_group_symop_operation_xyz
x,y,z
-x,1/2+y,-z
-x,-y,-z
x,1/2-y,z
loop_
_atom_site_type_symbol
_atom_site_label
_atom_site_fract_x
_atom_site_fract_y
_atom_site_fract_z
Si Si1 0.768373 0.588716 0.689003
Si Si2 0.339309 0.917269 0.731635
Si Si3 0.218041 0.411177 0.795807
Si Si4 0.950090 0.579455 0.925501
Si Si5 0.641579 0.921541 0.766995
Si Si6 0.902444 0.090344 0.144981
Si Si7 0.981716 0.081171 0.433232
Si Si8 0.110226 0.912694 0.371046
O O1 0.717773 0.750000 0.652953
O O2 0.658437 0.525242 0.704639
O O3 0.763647 0.483222 0.631108
O O4 0.937383 0.596945 0.769748
O O5 0.360276 0.750000 0.753977
O O6 0.483097 0.978648 0.742012
O O7 0.190494 0.943336 0.644077
O O8 0.331933 0.001343 0.790787
O O9 0.281912 0.250000 0.823921
O O10 0.212484 0.483455 0.858586
O O11 0.051376 0.410370 0.713553
O O12 0.949001 0.750000 0.935871
O O13 0.781785 0.522980 0.852625
O O14 0.069938 0.538299 0.912916
O O15 0.000000 0.500000 0.000000
O O16 0.647787 0.750000 0.766980
O O17 0.829151 0.250000 0.121655
O O18 0.020391 0.250000 0.452450
O O19 0.000000 0.000000 0.500000
O O20 0.100063 0.009907 0.426119
O O21 0.161352 0.750000 0.404076
#
# Coordination Sequence:
#
# PCOD8070124 Si02
#       8
#     4   4   4   4   4   4   4   4
#     4   8  13  24  43  64  85 110 143 181 217 254
#     4   9  17  30  48  67  88 118 151 179 215 266
#     4   9  16  25  40  64  90 113 141 183 226 256
#     4   9  17  29  46  68  93 119 147 181 220 262
#     4   8  15  29  48  68  90 118 150 181 216 262
#     4   8  14  25  41  61  85 114 146 178 214 258
#     4  10  19  30  46  67  90 117 148 182 220 262
#     4   9  16  26  41  63  90 115 142 179 220 260
#
# _framework density 17.329339000000001
#
# number of rings (size 3 to 8) (size 9 to 14) (size 15 to 20)
#    0.000    3.250    0.000    2.625    0.000    4.000 
#    0.000    3.125    0.000    1.500    0.000    0.000 
#    0.000    0.000    0.000    0.000    0.000    0.000 
#
# Total GULP energy -396635.352521 kJ/mol
# GULP energy per Si atom -12394.854766 kJ/mol
# Density = 1.728990 g / cm^3
# Si number density = 17.329339 Si / 1000 Ang^3
#
#
#
# Elastic Constant Matrix: (Units=GPa)
#
#
# Indices 1 2 3 4 5 6 
#
# 1 150.0921 70.9254 47.2878 0.0000 -35.2775 0.0000
# 2 70.9254 106.1711 43.4389 0.0000 -26.5122 0.0000
# 3 47.2878 43.4389 55.2714 0.0000 -28.8916 0.0000
# 4 0.0000 0.0000 0.0000 23.7555 0.0000 -12.1097
# 5 -35.2775 -26.5122 -28.8916 0.0000 29.6194 0.0000
# 6 0.0000 0.0000 0.0000 -12.1097 0.0000 22.6331
#
#
#
# Elastic Compliance Matrix: (Units=1/GPa)
#
#
# Indices 1 2 3 4 5 6 
#
# 1 0.011308 -0.004934 -0.002174 0.000000 0.006932 0.000000
# 2 -0.004934 0.016230 -0.008186 0.000000 0.000666 0.000000
# 3 -0.002174 -0.008186 0.043260 0.000000 0.032280 0.000000
# 4 0.000000 0.000000 0.000000 0.057883 0.000000 0.030970
# 5 0.006932 0.000666 0.032280 0.000000 0.074101 0.000000
# 6 0.000000 0.000000 0.000000 0.030970 0.000000 0.060753
#
#
# Mechanical properties :
#
#
# Convention : Reuss Voigt Hill
#
# Bulk Modulus (GPa) = 24.86934 70.53764 47.70349
# Shear Modulus (GPa) = 16.25878 25.19377 20.72628
#
# Velocity S-wave (km/s) = 3.06637 3.81704 3.46211
# Velocity P-wave (km/s) = 5.18835 7.76008 6.60068
#
# Compressibility (1/GPa) = 0.04021015
#
# Stress axis : x y z
#
# Youngs Moduli (GPa) = 88.43192 61.61247 23.11622
#
# Poissons Ratio (x) = 0.30399 0.05025
# Poissons Ratio (y) = 0.43631 0.18924
# Poissons Ratio (z) = 0.19224 0.50438
#
# Static dielectric constant tensor:
#      x y z
#    x 3.533950 0.000000 -0.281370 
#    y 0.000000 3.297650 0.000000 
#    z -0.281370 0.000000 2.853550 
# 
# 
# High freq. dielectric constant tensor:
#      x y z
#    x 1.670600 0.000000 -0.033860 
#    y 0.000000 1.661710 0.000000 
#    z -0.033860 0.000000 1.623200 
# 
# From -- ./inp_files/42577.got.cif
#   From: 2010.06.25/outbox.cif.g09.slc.cpg/sg11_22_cif.got.tgz:42577.got - 2010.06.27 23:14:04.
