data_PCOD8070451
_publ_section_title
;
Structure prediction by ZEFSAII (Michael W. Deem and Ramdas Pophale) SiO2 
 PCOD8070451
Probable space group: P 21/M
;
_chemical_formula_sum "Si O2"
_cell_formula_units_Z 32
_cell_length_a 26.213743
_cell_length_b 8.803168
_cell_length_c 14.444941
_cell_angle_alpha 90.000000
_cell_angle_beta 34.801748
_cell_angle_gamma 90.000000
_cell_volume 1902.484206
_symmetry_space_group_name_H-M "P 21/M"
_symmetry_group_IT_number 11
_symmetry_cell_setting 'monoclinic'
loop_
_space_group_symop_operation_xyz
x,y,z
-x,1/2+y,-z
-x,-y,-z
x,1/2-y,z
loop_
_atom_site_type_symbol
_atom_site_label
_atom_site_fract_x
_atom_site_fract_y
_atom_site_fract_z
Si Si1 0.898145 0.074762 0.067600
Si Si2 0.444929 0.922247 0.851239
Si Si3 0.261430 0.926717 0.431757
Si Si4 0.287092 0.576837 0.734088
Si Si5 0.574761 0.073868 0.324698
Si Si6 0.588059 0.571318 0.914079
Si Si7 0.903763 0.573369 0.253866
Si Si8 0.348385 0.420250 0.467315
O O1 0.900019 0.250000 0.097873
O O2 0.992686 0.032472 0.879222
O O3 0.819430 0.044406 0.110230
O O4 0.880285 0.971046 0.183297
O O5 0.408198 0.750000 0.913037
O O6 0.423633 0.993882 0.781754
O O7 0.549738 0.925655 0.715417
O O8 0.399114 0.024083 0.998133
O O9 0.268779 0.750000 0.397816
O O10 0.322132 0.019771 0.270689
O O11 0.158108 0.981433 0.581148
O O12 0.293159 0.960294 0.488944
O O13 0.306715 0.750000 0.674896
O O14 0.326990 0.547273 0.776947
O O15 0.340231 0.466642 0.586143
O O16 0.549383 0.250000 0.354347
O O17 0.500000 0.000000 0.500000
O O18 0.577898 0.750000 0.920632
O O19 0.500000 0.500000 0.000000
O O20 0.884160 0.750000 0.296504
O O21 0.310465 0.250000 0.509303
#
# Coordination Sequence:
#
# PCOD8070451 Si02
#       8
#     4   4   4   4   4   4   4   4
#     4   9  18  31  47  71 102 134 168 206 250 300
#     4  10  21  36  50  70 103 137 171 211 248 288
#     4  12  23  35  51  72 100 134 171 207 249 301
#     4  10  19  31  49  73 101 136 174 207 246 295
#     4  10  20  33  50  72 101 135 172 208 245 290
#     4  12  24  37  54  75  99 131 169 208 251 299
#     4  10  19  31  48  71 101 133 167 207 252 300
#     4  11  20  30  48  72 102 135 170 208 246 290
#
# _framework density 16.820114
#
# number of rings (size 3 to 8) (size 9 to 14) (size 15 to 20)
#    0.000    1.500    3.750    3.000    0.000    1.500 
#    0.000    0.000    0.000    0.000    0.000    0.875 
#    0.000    0.000    0.000    0.000    0.000    0.000 
#
# Total GULP energy -396787.893998 kJ/mol
# GULP energy per Si atom -12399.621687 kJ/mol
# Density = 1.678183 g / cm^3
# Si number density = 16.820114 Si / 1000 Ang^3
#
#
#
# Elastic Constant Matrix: (Units=GPa)
#
#
# Indices 1 2 3 4 5 6 
#
# 1 84.9866 28.6148 44.2414 0.0000 0.4057 0.0000
# 2 28.6148 85.5621 42.4017 0.0000 2.9912 0.0000
# 3 44.2414 42.4017 108.1985 0.0000 -0.5246 0.0000
# 4 0.0000 0.0000 0.0000 27.7061 0.0000 1.9615
# 5 0.4057 2.9912 -0.5246 0.0000 27.5632 0.0000
# 6 0.0000 0.0000 0.0000 1.9615 0.0000 18.3281
#
#
#
# Elastic Compliance Matrix: (Units=1/GPa)
#
#
# Indices 1 2 3 4 5 6 
#
# 1 0.015372 -0.002512 -0.005302 0.000000 -0.000055 0.000000
# 2 -0.002512 0.014993 -0.004857 0.000000 -0.001683 0.000000
# 3 -0.005302 -0.004857 0.013317 0.000000 0.000859 0.000000
# 4 0.000000 0.000000 0.000000 0.036369 0.000000 -0.003892
# 5 -0.000055 -0.001683 0.000859 0.000000 0.036480 0.000000
# 6 0.000000 0.000000 0.000000 -0.003892 0.000000 0.054978
#
#
# Mechanical properties :
#
#
# Convention : Reuss Voigt Hill
#
# Bulk Modulus (GPa) = 54.51738 56.58476 55.55107
# Shear Modulus (GPa) = 24.63496 25.61876 25.12686
#
# Velocity S-wave (km/s) = 3.83118 3.90693 3.86924
# Velocity P-wave (km/s) = 7.21477 7.35298 7.28420
#
# Compressibility (1/GPa) = 0.01834277
#
# Stress axis : x y z
#
# Youngs Moduli (GPa) = 65.05181 66.69735 75.08939
#
# Poissons Ratio (x) = 0.16753 0.39809
# Poissons Ratio (y) = 0.16340 0.36469
# Poissons Ratio (z) = 0.34487 0.32393
#
# Static dielectric constant tensor:
#      x y z
#    x 3.198530 0.000000 -0.121420 
#    y 0.000000 3.259130 0.000000 
#    z -0.121420 0.000000 3.193490 
# 
# 
# High freq. dielectric constant tensor:
#      x y z
#    x 1.624500 0.000000 -0.011740 
#    y 0.000000 1.654750 0.000000 
#    z -0.011740 0.000000 1.637120 
# 
# From -- ./inp_files/56460.got.cif
#   From: 2010.06.25/outbox.cif.g09.slc.cpg/sg11_29_cif.got.tgz:56460.got - 2010.06.27 23:14:04.
