data_PCOD8070246
_publ_section_title
;
Structure prediction by ZEFSAII (Michael W. Deem and Ramdas Pophale) SiO2 
 PCOD8070246
Probable space group: P 21/M
;
_chemical_formula_sum "Si O2"
_cell_formula_units_Z 32
_cell_length_a 26.102834
_cell_length_b 8.910460
_cell_length_c 12.866303
_cell_angle_alpha 90.000000
_cell_angle_beta 147.318177
_cell_angle_gamma 90.000000
_cell_volume 1615.897717
_symmetry_space_group_name_H-M "P 21/M"
_symmetry_group_IT_number 11
_symmetry_cell_setting 'monoclinic'
loop_
_space_group_symop_operation_xyz
x,y,z
-x,1/2+y,-z
-x,-y,-z
x,1/2-y,z
loop_
_atom_site_type_symbol
_atom_site_label
_atom_site_fract_x
_atom_site_fract_y
_atom_site_fract_z
Si Si1 0.093269 0.574518 0.855404
Si Si2 0.084514 0.927321 0.078317
Si Si3 0.376710 0.415464 0.044570
Si Si4 0.524544 0.927997 0.153842
Si Si5 0.776859 0.915426 0.391322
Si Si6 0.717078 0.074109 0.484610
Si Si7 0.760125 0.078908 0.054591
Si Si8 0.085654 0.923223 0.507422
O O1 0.070508 0.750000 0.805401
O O2 0.199782 0.542688 0.992715
O O3 0.020477 0.484324 0.657135
O O4 0.083799 0.519150 0.957716
O O5 0.073742 0.750000 0.069763
O O6 0.186647 0.979819 0.295623
O O7 0.000000 0.000000 0.000000
O O8 0.421232 0.250000 0.141282
O O9 0.287142 0.399021 0.818188
O O10 0.333690 0.481958 0.078699
O O11 0.452010 0.525590 0.120349
O O12 0.524298 0.750000 0.138381
O O13 0.626003 0.983741 0.370738
O O14 0.500000 0.000000 0.000000
O O15 0.792236 0.750000 0.468621
O O16 0.725034 0.032263 0.377582
O O17 0.877238 0.984553 0.529685
O O18 0.698467 0.250000 0.466822
O O19 0.727008 0.250000 0.008045
O O20 0.849205 0.047175 0.282066
O O21 0.083290 0.750000 0.472936
#
# Coordination Sequence:
#
# PCOD8070246 Si02
#       8
#     4   4   4   4   4   4   4   4
#     4  10  20  36  55  75 104 143 188 233 281 336
#     4  10  23  40  58  81 110 149 193 237 282 327
#     4  10  20  34  53  80 113 145 178 219 272 333
#     4  12  23  36  57  85 117 150 184 226 279 338
#     4  10  19  31  49  74 107 145 181 218 270 333
#     4  11  22  36  55  80 112 148 189 235 281 332
#     4   9  19  34  53  77 108 145 182 227 282 338
#     4  10  19  30  48  77 109 140 180 227 280 334
#
# _framework density 19.803234
#
# number of rings (size 3 to 8) (size 9 to 14) (size 15 to 20)
#    0.000    1.750    1.250    3.750    0.000    5.500 
#    0.000    0.000    0.000    0.750    0.000    0.000 
#    0.000    0.000    0.000    0.000    0.000    0.000 
#
# Total GULP energy -396677.015790 kJ/mol
# GULP energy per Si atom -12396.156743 kJ/mol
# Density = 1.975816 g / cm^3
# Si number density = 19.803234 Si / 1000 Ang^3
#
#
#
# Elastic Constant Matrix: (Units=GPa)
#
#
# Indices 1 2 3 4 5 6 
#
# 1 126.8453 46.7374 33.2307 0.0000 23.7491 0.0000
# 2 46.7374 105.4325 42.2417 0.0000 14.6458 0.0000
# 3 33.2307 42.2417 72.3487 0.0000 21.9050 0.0000
# 4 0.0000 0.0000 0.0000 26.1289 0.0000 11.8537
# 5 23.7491 14.6458 21.9050 0.0000 27.5538 0.0000
# 6 0.0000 0.0000 0.0000 11.8537 0.0000 28.4652
#
#
#
# Elastic Compliance Matrix: (Units=1/GPa)
#
#
# Indices 1 2 3 4 5 6 
#
# 1 0.010620 -0.003442 -0.000857 0.000000 -0.006643 0.000000
# 2 -0.003442 0.013522 -0.006632 0.000000 0.001052 0.000000
# 3 -0.000857 -0.006632 0.022122 0.000000 -0.013322 0.000000
# 4 0.000000 0.000000 0.000000 0.047186 0.000000 -0.019650
# 5 -0.006643 0.001052 -0.013322 0.000000 0.052050 0.000000
# 6 0.000000 0.000000 0.000000 -0.019650 0.000000 0.043313
#
#
# Mechanical properties :
#
#
# Convention : Reuss Voigt Hill
#
# Bulk Modulus (GPa) = 40.98243 61.00513 50.99378
# Shear Modulus (GPa) = 22.85098 28.59067 25.72082
#
# Velocity S-wave (km/s) = 3.40060 3.80378 3.60782
# Velocity P-wave (km/s) = 6.01319 7.08266 6.56973
#
# Compressibility (1/GPa) = 0.02440070
#
# Stress axis : x y z
#
# Youngs Moduli (GPa) = 94.16204 73.95610 45.20434
#
# Poissons Ratio (x) = 0.25452 0.03875
# Poissons Ratio (y) = 0.32406 0.29982
# Poissons Ratio (z) = 0.08072 0.49051
#
# Static dielectric constant tensor:
#      x y z
#    x 3.720990 0.000000 0.238860 
#    y 0.000000 3.774820 0.000000 
#    z 0.238860 0.000000 3.458110 
# 
# 
# High freq. dielectric constant tensor:
#      x y z
#    x 1.772370 0.000000 0.027480 
#    y 0.000000 1.776690 0.000000 
#    z 0.027480 0.000000 1.740540 
# 
# From -- ./inp_files/56194.got.cif
#   From: 2010.06.25/outbox.cif.g09.slc.cpg/sg11_29_cif.got.tgz:56194.got - 2010.06.27 23:14:04.
