data_PCOD8070963
_publ_section_title
;
Structure prediction by ZEFSAII (Michael W. Deem and Ramdas Pophale) SiO2 
 PCOD8070963
Probable space group: P 21/M
;
_chemical_formula_sum "Si O2"
_cell_formula_units_Z 32
_cell_length_a 12.583197
_cell_length_b 9.100258
_cell_length_c 30.325391
_cell_angle_alpha 90.000000
_cell_angle_beta 26.426231
_cell_angle_gamma 90.000000
_cell_volume 1545.450987
_symmetry_space_group_name_H-M "P 21/M"
_symmetry_group_IT_number 11
_symmetry_cell_setting 'monoclinic'
loop_
_space_group_symop_operation_xyz
x,y,z
-x,1/2+y,-z
-x,-y,-z
x,1/2-y,z
loop_
_atom_site_type_symbol
_atom_site_label
_atom_site_fract_x
_atom_site_fract_y
_atom_site_fract_z
Si Si1 0.015511 0.413874 0.370458
Si Si2 0.706411 0.419684 0.065855
Si Si3 0.809022 0.417470 0.124799
Si Si4 0.519157 0.591914 0.450301
Si Si5 0.257705 0.575549 0.199447
Si Si6 0.058476 0.421593 0.763969
Si Si7 0.118239 0.075214 0.497154
Si Si8 0.653005 0.081190 0.278199
O O1 0.137202 0.250000 0.329246
O O2 0.735055 0.388336 0.476548
O O3 0.047138 0.519079 0.400762
O O4 0.096950 0.493227 0.295484
O O5 0.675949 0.250000 0.063660
O O6 0.653380 0.443254 0.137978
O O7 0.526477 0.517947 0.103928
O O8 0.972216 0.469916 0.955858
O O9 0.907623 0.250000 0.087857
O O10 0.644395 0.447241 0.228527
O O11 0.500000 0.500000 0.500000
O O12 0.630570 0.750000 0.421845
O O13 0.705378 0.518043 0.348312
O O14 0.243803 0.750000 0.212447
O O15 0.166792 0.535429 0.183448
O O16 0.055691 0.250000 0.775340
O O17 0.102551 0.502966 0.794181
O O18 0.096564 0.250000 0.502243
O O19 0.399792 0.028182 0.393110
O O20 0.000000 0.000000 0.500000
O O21 0.691113 0.250000 0.274786
#
# Coordination Sequence:
#
# PCOD8070963 Si02
#       8
#     4   4   4   4   4   4   4   4
#     4  11  22  36  55  80 114 156 199 244 290 340
#     4  10  21  39  65  93 118 146 187 241 298 359
#     4   9  20  41  65  89 117 149 186 239 298 352
#     4  10  19  32  51  75 107 148 193 238 281 328
#     4  11  23  38  58  87 122 157 197 245 298 349
#     4  10  21  37  55  81 118 157 198 245 290 344
#     4  11  24  39  56  83 119 160 201 244 294 348
#     4  10  22  39  61  86 117 157 198 241 292 351
#
# _framework density 20.705929999999999
#
# number of rings (size 3 to 8) (size 9 to 14) (size 15 to 20)
#    0.000    1.750    2.500    1.500    1.750    3.500 
#    0.000    0.625    0.000    0.000    0.000    0.000 
#    0.000    0.000    0.000    0.000    0.000    0.000 
#
# Total GULP energy -396499.580085 kJ/mol
# GULP energy per Si atom -12390.611878 kJ/mol
# Density = 2.065880 g / cm^3
# Si number density = 20.705930 Si / 1000 Ang^3
#
#
#
# Elastic Constant Matrix: (Units=GPa)
#
#
# Indices 1 2 3 4 5 6 
#
# 1 107.4820 45.6973 4.1542 0.0000 -11.2696 0.0000
# 2 45.6973 96.9789 15.8951 0.0000 -4.9633 0.0000
# 3 4.1542 15.8951 28.1193 0.0000 -4.0291 0.0000
# 4 0.0000 0.0000 0.0000 27.1119 0.0000 -1.2804
# 5 -11.2696 -4.9633 -4.0291 0.0000 32.7998 0.0000
# 6 0.0000 0.0000 0.0000 -1.2804 0.0000 37.5965
#
#
#
# Elastic Compliance Matrix: (Units=1/GPa)
#
#
# Indices 1 2 3 4 5 6 
#
# 1 0.012078 -0.005843 0.002022 0.000000 0.003514 0.000000
# 2 -0.005843 0.014220 -0.007282 0.000000 -0.000750 0.000000
# 3 0.002022 -0.007282 0.040027 0.000000 0.004510 0.000000
# 4 0.000000 0.000000 0.000000 0.036944 0.000000 0.001258
# 5 0.003514 -0.000750 0.004510 0.000000 0.032136 0.000000
# 6 0.000000 0.000000 0.000000 0.001258 0.000000 0.026641
#
#
# Mechanical properties :
#
#
# Convention : Reuss Voigt Hill
#
# Bulk Modulus (GPa) = 22.66638 40.45261 31.55949
# Shear Modulus (GPa) = 25.13084 30.62389 27.87737
#
# Velocity S-wave (km/s) = 3.48760 3.84994 3.67324
# Velocity P-wave (km/s) = 5.21425 6.27231 5.76759
#
# Compressibility (1/GPa) = 0.04411821
#
# Stress axis : x y z
#
# Youngs Moduli (GPa) = 82.79224 70.32335 24.98329
#
# Poissons Ratio (x) = 0.41090 -0.05052
# Poissons Ratio (y) = 0.48376 0.18194
# Poissons Ratio (z) = -0.16741 0.51213
#
# Static dielectric constant tensor:
#      x y z
#    x 33.565280 0.000000 -17.153600 
#    y 0.000000 3.905970 0.000000 
#    z -17.153600 0.000000 13.467630 
# 
# 
# High freq. dielectric constant tensor:
#      x y z
#    x 1.816600 0.000000 -0.001760 
#    y 0.000000 1.813630 0.000000 
#    z -0.001760 0.000000 1.788390 
# 
# From -- ./inp_files/73097.got.cif
#   From: 2010.06.25/outbox.cif.g09.slc.cpg/sg11_37_cif.got.tgz:73097.got - 2010.06.27 23:14:04.
