data_PCOD8070905
_publ_section_title
;
Structure prediction by ZEFSAII (Michael W. Deem and Ramdas Pophale) SiO2 
 PCOD8070905
Probable space group: P 21/M
;
_chemical_formula_sum "Si O2"
_cell_formula_units_Z 32
_cell_length_a 15.195612
_cell_length_b 19.574869
_cell_length_c 9.605495
_cell_angle_alpha 90.000000
_cell_angle_beta 38.739342
_cell_angle_gamma 90.000000
_cell_volume 1787.958242
_symmetry_space_group_name_H-M "P 21/M"
_symmetry_group_IT_number 11
_symmetry_cell_setting 'monoclinic'
loop_
_space_group_symop_operation_xyz
x,y,z
-x,1/2+y,-z
-x,-y,-z
x,1/2-y,z
loop_
_atom_site_type_symbol
_atom_site_label
_atom_site_fract_x
_atom_site_fract_y
_atom_site_fract_z
Si Si1 0.882420 0.173169 0.224563
Si Si2 0.560434 0.896237 0.385872
Si Si3 0.790495 0.442630 0.518825
Si Si4 0.156043 0.328517 0.054792
Si Si5 0.068286 0.035405 0.281435
Si Si6 0.278728 0.828598 0.845180
Si Si7 0.282637 0.930402 0.072910
Si Si8 0.442287 0.011099 0.356019
O O1 0.832701 0.250000 0.317571
O O2 0.779992 0.126294 0.443234
O O3 0.849581 0.155881 0.103591
O O4 0.047325 0.164149 0.058979
O O5 0.427173 0.853728 0.602197
O O6 0.612718 0.949234 0.439881
O O7 0.512848 0.939045 0.309657
O O8 0.688066 0.845660 0.191876
O O9 0.764667 0.422326 0.710636
O O10 0.685570 0.499663 0.592128
O O11 0.949136 0.473043 0.309262
O O12 0.153689 0.250000 0.114908
O O13 0.109519 0.382990 0.233632
O O14 0.210182 0.993543 0.077773
O O15 0.000000 0.000000 0.500000
O O16 0.293019 0.750000 0.861616
O O17 0.241169 0.863240 0.038391
O O18 0.448951 0.942693 0.864125
#
# Coordination Sequence:
#
# PCOD8070905 Si02
#       8
#     4   4   4   4   4   4   4   4
#     4   9  19  33  50  74 102 130 172 217 257 310
#     4  10  19  32  52  77 106 134 172 217 259 315
#     4  10  19  33  53  75 102 138 172 216 261 304
#     4  10  19  33  54  78 103 137 177 218 264 313
#     4   9  19  34  51  76 105 137 173 217 261 313
#     4  10  20  35  53  76 106 138 171 216 268 312
#     4  10  20  34  53  76 106 136 175 216 259 318
#     4  10  19  32  50  78 104 133 171 214 262 310
#
# _framework density 17.897508999999999
#
# number of rings (size 3 to 8) (size 9 to 14) (size 15 to 20)
#    0.000    2.250    2.500    0.750    0.000    1.500 
#    0.000    4.375    0.000    0.000    0.000    3.500 
#    0.000    0.000    0.000    0.000    0.000    0.000 
#
# Total GULP energy -396503.987313 kJ/mol
# GULP energy per Si atom -12390.749604 kJ/mol
# Density = 1.785677 g / cm^3
# Si number density = 17.897509 Si / 1000 Ang^3
#
#
#
# Elastic Constant Matrix: (Units=GPa)
#
#
# Indices 1 2 3 4 5 6 
#
# 1 81.8471 42.2229 16.8102 0.0000 -0.0573 0.0000
# 2 42.2229 104.2724 19.9233 0.0000 1.5905 0.0000
# 3 16.8102 19.9233 39.9652 0.0000 -3.4884 0.0000
# 4 0.0000 0.0000 0.0000 24.2457 0.0000 -0.8014
# 5 -0.0573 1.5905 -3.4884 0.0000 25.5103 0.0000
# 6 0.0000 0.0000 0.0000 -0.8014 0.0000 28.6707
#
#
#
# Elastic Compliance Matrix: (Units=1/GPa)
#
#
# Indices 1 2 3 4 5 6 
#
# 1 0.015966 -0.005723 -0.003875 0.000000 -0.000137 0.000000
# 2 -0.005723 0.012701 -0.004043 0.000000 -0.001358 0.000000
# 3 -0.003875 -0.004043 0.029035 0.000000 0.004214 0.000000
# 4 0.000000 0.000000 0.000000 0.041282 0.000000 0.001154
# 5 -0.000137 -0.001358 0.004214 0.000000 0.039860 0.000000
# 6 0.000000 0.000000 0.000000 0.001154 0.000000 0.034911
#
#
# Mechanical properties :
#
#
# Convention : Reuss Voigt Hill
#
# Bulk Modulus (GPa) = 32.87226 42.66640 37.76933
# Shear Modulus (GPa) = 23.67692 25.49388 24.58540
#
# Velocity S-wave (km/s) = 3.64114 3.77827 3.71034
# Velocity P-wave (km/s) = 6.00700 6.55170 6.28525
#
# Compressibility (1/GPa) = 0.03042078
#
# Stress axis : x y z
#
# Youngs Moduli (GPa) = 62.63403 78.73581 34.44136
#
# Poissons Ratio (x) = 0.45057 0.13345
# Poissons Ratio (y) = 0.35843 0.13925
# Poissons Ratio (z) = 0.24269 0.31833
#
# Static dielectric constant tensor:
#      x y z
#    x 3.497240 0.000000 -0.250590 
#    y 0.000000 3.440830 0.000000 
#    z -0.250590 0.000000 3.184630 
# 
# 
# High freq. dielectric constant tensor:
#      x y z
#    x 1.694900 0.000000 -0.018430 
#    y 0.000000 1.692410 0.000000 
#    z -0.018430 0.000000 1.677310 
# 
# From -- ./inp_files/23093.got.cif
#   From: 2010.06.25/outbox.cif.g09.slc.cpg/sg11_12_cif.got.tgz:23093.got - 2010.06.27 23:14:04.
