data_PCOD8070173
_publ_section_title
;
Structure prediction by ZEFSAII (Michael W. Deem and Ramdas Pophale) SiO2 
 PCOD8070173
Probable space group: P 21/M
;
_chemical_formula_sum "Si O2"
_cell_formula_units_Z 32
_cell_length_a 11.576053
_cell_length_b 8.896474
_cell_length_c 23.085060
_cell_angle_alpha 90.000000
_cell_angle_beta 130.808757
_cell_angle_gamma 90.000000
_cell_volume 1799.472305
_symmetry_space_group_name_H-M "P 21/M"
_symmetry_group_IT_number 11
_symmetry_cell_setting 'monoclinic'
loop_
_space_group_symop_operation_xyz
x,y,z
-x,1/2+y,-z
-x,-y,-z
x,1/2-y,z
loop_
_atom_site_type_symbol
_atom_site_label
_atom_site_fract_x
_atom_site_fract_y
_atom_site_fract_z
Si Si1 0.603832 0.080936 0.868531
Si Si2 0.467667 0.572020 0.928121
Si Si3 0.848038 0.073154 0.230298
Si Si4 0.713610 0.925645 0.799559
Si Si5 0.470102 0.070309 0.428380
Si Si6 0.270268 0.416133 0.704499
Si Si7 0.428402 0.072523 0.646495
Si Si8 0.850202 0.926753 0.728956
O O1 0.651923 0.250000 0.900361
O O2 0.443409 0.074598 0.783371
O O3 0.595480 0.984548 0.924645
O O4 0.731476 0.012985 0.866489
O O5 0.476363 0.750000 0.935459
O O6 0.301047 0.515141 0.852766
O O7 0.500000 0.500000 0.000000
O O8 0.856175 0.250000 0.229932
O O9 0.998538 0.000263 0.250211
O O10 0.837923 0.027511 0.294789
O O11 0.706856 0.750000 0.811567
O O12 0.848465 0.964288 0.797572
O O13 0.560957 0.972511 0.717047
O O14 0.488494 0.250000 0.435049
O O15 0.301646 0.015449 0.353272
O O16 0.500000 0.000000 0.500000
O O17 0.594947 0.994684 0.425631
O O18 0.203952 0.250000 0.692892
O O19 0.277898 0.452926 0.637914
O O20 0.470316 0.250000 0.658999
O O21 0.856085 0.750000 0.722125
#
# Coordination Sequence:
#
# PCOD8070173 Si02
#       8
#     4   4   4   4   4   4   4   4
#     4   9  16  27  43  64  91 118 149 189 228 267
#     4  10  19  30  47  69  93 121 152 187 227 272
#     4   9  17  30  48  68  90 120 154 183 219 270
#     4   9  15  25  43  66  91 117 148 187 229 268
#     4  10  19  31  48  69  94 121 150 186 227 271
#     4   8  15  26  41  64  91 116 143 184 230 261
#     4   9  16  27  43  64  91 119 150 188 227 266
#     4   8  16  30  47  68  93 120 149 184 225 266
#
# _framework density 17.782993000000001
#
# number of rings (size 3 to 8) (size 9 to 14) (size 15 to 20)
#    0.000    3.000    0.000    3.375    0.000    4.000 
#    0.000    3.750    0.000    1.500    0.000    0.000 
#    0.000    0.000    0.000    0.000    0.000    0.000 
#
# Total GULP energy -396477.286426 kJ/mol
# GULP energy per Si atom -12389.915201 kJ/mol
# Density = 1.774252 g / cm^3
# Si number density = 17.782993 Si / 1000 Ang^3
#
#
#
# Elastic Constant Matrix: (Units=GPa)
#
#
# Indices 1 2 3 4 5 6 
#
# 1 131.7848 42.2928 54.5247 0.0000 -37.7059 0.0000
# 2 42.2928 65.7635 29.9808 0.0000 -14.7410 0.0000
# 3 54.5247 29.9808 75.4610 0.0000 -34.0711 0.0000
# 4 0.0000 0.0000 0.0000 24.6640 0.0000 -14.3699
# 5 -37.7059 -14.7410 -34.0711 0.0000 32.2668 0.0000
# 6 0.0000 0.0000 0.0000 -14.3699 0.0000 24.2215
#
#
#
# Elastic Compliance Matrix: (Units=1/GPa)
#
#
# Indices 1 2 3 4 5 6 
#
# 1 0.013329 -0.004883 -0.003183 0.000000 0.009984 0.000000
# 2 -0.004883 0.020388 -0.005624 0.000000 -0.002330 0.000000
# 3 -0.003183 -0.005624 0.028565 0.000000 0.023874 0.000000
# 4 0.000000 0.000000 0.000000 0.061963 0.000000 0.036761
# 5 0.009984 -0.002330 0.023874 0.000000 0.066802 0.000000
# 6 0.000000 0.000000 0.000000 0.036761 0.000000 0.063095
#
#
# Mechanical properties :
#
#
# Convention : Reuss Voigt Hill
#
# Bulk Modulus (GPa) = 28.65188 58.51176 43.58182
# Shear Modulus (GPa) = 17.05581 25.97786 21.51684
#
# Velocity S-wave (km/s) = 3.10031 3.82622 3.48223
# Velocity P-wave (km/s) = 5.38171 7.24532 6.38190
#
# Compressibility (1/GPa) = 0.03490172
#
# Stress axis : x y z
#
# Youngs Moduli (GPa) = 75.02714 49.04909 35.00727
#
# Poissons Ratio (x) = 0.23949 0.11143
# Poissons Ratio (y) = 0.36633 0.19689
# Poissons Ratio (z) = 0.23882 0.27587
#
# Static dielectric constant tensor:
#      x y z
#    x 3.814170 0.000000 -0.471460 
#    y 0.000000 3.286250 0.000000 
#    z -0.471460 0.000000 3.102550 
# 
# 
# High freq. dielectric constant tensor:
#      x y z
#    x 1.685460 0.000000 -0.047860 
#    y 0.000000 1.686960 0.000000 
#    z -0.047860 0.000000 1.645400 
# 
# From -- ./inp_files/42419.got.cif
#   From: 2010.06.25/outbox.cif.g09.slc.cpg/sg11_22_cif.got.tgz:42419.got - 2010.06.27 23:14:04.
