data_PCOD8070368
_publ_section_title
;
Structure prediction by ZEFSAII (Michael W. Deem and Ramdas Pophale) SiO2 
 PCOD8070368
Probable space group: P 21/M
;
_chemical_formula_sum "Si O2"
_cell_formula_units_Z 32
_cell_length_a 30.624068
_cell_length_b 9.205934
_cell_length_c 21.471754
_cell_angle_alpha 90.000000
_cell_angle_beta 160.625879
_cell_angle_gamma 90.000000
_cell_volume 2008.119925
_symmetry_space_group_name_H-M "P 21/M"
_symmetry_group_IT_number 11
_symmetry_cell_setting 'monoclinic'
loop_
_space_group_symop_operation_xyz
x,y,z
-x,1/2+y,-z
-x,-y,-z
x,1/2-y,z
loop_
_atom_site_type_symbol
_atom_site_label
_atom_site_fract_x
_atom_site_fract_y
_atom_site_fract_z
Si Si1 0.611263 0.580555 0.933816
Si Si2 0.008941 0.082351 0.336573
Si Si3 0.608630 0.417719 0.608105
Si Si4 0.551534 0.579942 0.717663
Si Si5 0.692557 0.582884 0.263635
Si Si6 0.462116 0.580269 0.044693
Si Si7 0.081382 0.421077 0.662845
Si Si8 0.228777 0.582375 0.064003
O O1 0.587926 0.750000 0.914850
O O2 0.765532 0.543222 0.140808
O O3 0.543876 0.527515 0.778613
O O4 0.536352 0.490958 0.885683
O O5 0.993843 0.250000 0.337562
O O6 0.157841 0.048208 0.516679
O O7 0.964472 0.979670 0.332426
O O8 0.921006 0.047881 0.157058
O O9 0.500000 0.500000 0.500000
O O10 0.575994 0.250000 0.571680
O O11 0.586876 0.457628 0.505386
O O12 0.748283 0.453633 0.830558
O O13 0.582425 0.750000 0.759400
O O14 0.674674 0.507787 0.849610
O O15 0.673080 0.750000 0.217584
O O16 0.602000 0.544454 0.200905
O O17 0.655635 0.486218 0.154575
O O18 0.436335 0.750000 0.016615
O O19 0.053962 0.250000 0.622822
O O20 0.000000 0.500000 0.500000
O O21 0.261758 0.750000 0.095776
#
# Coordination Sequence:
#
# PCOD8070368 Si02
#       8
#     4   4   4   4   4   4   4   4
#     4  10  20  32  45  63  90 121 148 179 220 262
#     4  10  19  31  47  66  91 119 145 178 221 267
#     4   8  14  24  40  61  86 115 146 176 209 252
#     4   9  16  28  43  61  89 122 148 174 214 261
#     4   9  19  35  50  65  87 114 145 185 231 268
#     4  10  20  33  50  68  84 109 150 194 227 260
#     4  11  22  33  44  62  90 121 151 179 215 264
#     4   9  16  26  42  66  91 115 145 180 213 254
#
# _framework density 15.935304
#
# number of rings (size 3 to 8) (size 9 to 14) (size 15 to 20)
#    0.000    2.500    1.250    1.500    0.000    5.500 
#    0.000    0.000    0.000    0.000    0.000    0.875 
#    0.000    0.000    0.000    0.000    0.000    0.000 
#
# Total GULP energy -396522.726924 kJ/mol
# GULP energy per Si atom -12391.335216 kJ/mol
# Density = 1.589903 g / cm^3
# Si number density = 15.935304 Si / 1000 Ang^3
#
#
#
# Elastic Constant Matrix: (Units=GPa)
#
#
# Indices 1 2 3 4 5 6 
#
# 1 103.0824 41.3369 72.3541 0.0000 -24.7536 0.0000
# 2 41.3369 47.9266 36.0978 0.0000 -9.9656 0.0000
# 3 72.3541 36.0978 116.1918 0.0000 -30.6989 0.0000
# 4 0.0000 0.0000 0.0000 17.0371 0.0000 -0.5863
# 5 -24.7536 -9.9656 -30.6989 0.0000 30.0454 0.0000
# 6 0.0000 0.0000 0.0000 -0.5863 0.0000 24.4118
#
#
#
# Elastic Compliance Matrix: (Units=1/GPa)
#
#
# Indices 1 2 3 4 5 6 
#
# 1 0.021276 -0.010868 -0.008484 0.000000 0.005256 0.000000
# 2 -0.010868 0.032797 -0.003990 0.000000 -0.002153 0.000000
# 3 -0.008484 -0.003990 0.017715 0.000000 0.009787 0.000000
# 4 0.000000 0.000000 0.000000 0.058744 0.000000 0.001411
# 5 0.005256 -0.002153 0.009787 0.000000 0.046899 0.000000
# 6 0.000000 0.000000 0.000000 0.001411 0.000000 0.040998
#
#
# Mechanical properties :
#
#
# Convention : Reuss Voigt Hill
#
# Bulk Modulus (GPa) = 39.83493 62.97539 51.40516
# Shear Modulus (GPa) = 18.28287 22.12635 20.20461
#
# Velocity S-wave (km/s) = 3.39088 3.73032 3.56464
# Velocity P-wave (km/s) = 6.35476 7.62620 7.01933
#
# Compressibility (1/GPa) = 0.02510359
#
# Stress axis : x y z
#
# Youngs Moduli (GPa) = 47.00124 30.49095 56.44930
#
# Poissons Ratio (x) = 0.33137 0.47891
# Poissons Ratio (y) = 0.51080 0.22525
# Poissons Ratio (z) = 0.39875 0.12167
#
# Static dielectric constant tensor:
#      x y z
#    x 3.023540 0.000000 -0.428380 
#    y 0.000000 2.985450 0.000000 
#    z -0.428380 0.000000 3.409340 
# 
# 
# High freq. dielectric constant tensor:
#      x y z
#    x 1.588670 0.000000 -0.028600 
#    y 0.000000 1.618470 0.000000 
#    z -0.028600 0.000000 1.609710 
# 
# From -- ./inp_files/40709.got.cif
#   From: 2010.06.25/outbox.cif.g09.slc.cpg/sg11_21_cif.got.tgz:40709.got - 2010.06.27 23:14:04.
