data_PCOD8070249
_publ_section_title
;
Structure prediction by ZEFSAII (Michael W. Deem and Ramdas Pophale) SiO2 
 PCOD8070249
Probable space group: P 21/M
;
_chemical_formula_sum "Si O2"
_cell_formula_units_Z 32
_cell_length_a 21.965403
_cell_length_b 8.678264
_cell_length_c 28.509977
_cell_angle_alpha 90.000000
_cell_angle_beta 162.145941
_cell_angle_gamma 90.000000
_cell_volume 1666.218138
_symmetry_space_group_name_H-M "P 21/M"
_symmetry_group_IT_number 11
_symmetry_cell_setting 'monoclinic'
loop_
_space_group_symop_operation_xyz
x,y,z
-x,1/2+y,-z
-x,-y,-z
x,1/2-y,z
loop_
_atom_site_type_symbol
_atom_site_label
_atom_site_fract_x
_atom_site_fract_y
_atom_site_fract_z
Si Si1 0.884825 0.429525 0.581475
Si Si2 0.023204 0.069756 0.586315
Si Si3 0.433427 0.431176 0.236831
Si Si4 0.503103 0.433195 0.450514
Si Si5 0.087350 0.566070 0.295270
Si Si6 0.305010 0.431843 0.041132
Si Si7 0.783327 0.431554 0.834655
Si Si8 0.682512 0.571932 0.275616
O O1 0.903807 0.250000 0.603961
O O2 0.035288 0.480657 0.650069
O O3 0.664542 0.470896 0.403002
O O4 0.934252 0.505792 0.668020
O O5 0.966613 0.250000 0.540424
O O6 0.232413 0.035033 0.714230
O O7 0.847257 0.974341 0.433988
O O8 0.395456 0.250000 0.218199
O O9 0.337220 0.490205 0.117752
O O10 0.343767 0.529072 0.212972
O O11 0.500000 0.500000 0.500000
O O12 0.491231 0.250000 0.443418
O O13 0.705604 0.491390 0.574530
O O14 0.315979 0.496494 0.284435
O O15 0.084022 0.750000 0.293324
O O16 0.904399 0.500876 0.130575
O O17 0.302401 0.250000 0.039159
O O18 0.478967 0.481524 0.133485
O O19 0.797907 0.250000 0.838285
O O20 0.000000 0.500000 0.000000
O O21 0.634749 0.750000 0.246866
#
# Coordination Sequence:
#
# PCOD8070249 Si02
#       8
#     4   4   4   4   4   4   4   4
#     4   9  15  31  57  81 104 141 188 232 277 334
#     4   9  17  31  53  78 106 146 188 228 285 343
#     4  10  19  35  60  84 111 146 190 240 286 341
#     4  11  23  42  64  91 122 157 200 242 293 353
#     4   9  19  35  58  83 108 144 190 233 273 338
#     4  10  20  35  56  81 111 150 189 227 281 345
#     4  12  26  43  63  90 122 156 195 245 299 353
#     4  10  19  30  48  79 114 143 182 237 284 331
#
# _framework density 19.205169000000001
#
# number of rings (size 3 to 8) (size 9 to 14) (size 15 to 20)
#    0.000    2.000    2.500    1.875    1.750    1.000 
#    0.000    1.875    0.000    0.000    0.000    0.000 
#    0.000    0.000    0.000    0.000    0.000    0.000 
#
# Total GULP energy -396731.366600 kJ/mol
# GULP energy per Si atom -12397.855206 kJ/mol
# Density = 1.916146 g / cm^3
# Si number density = 19.205169 Si / 1000 Ang^3
#
#
#
# Elastic Constant Matrix: (Units=GPa)
#
#
# Indices 1 2 3 4 5 6 
#
# 1 161.4896 30.4945 59.6559 0.0000 -19.5534 0.0000
# 2 30.4945 44.1398 26.5316 0.0000 -3.9308 0.0000
# 3 59.6559 26.5316 108.3600 0.0000 -21.7228 0.0000
# 4 0.0000 0.0000 0.0000 20.1822 0.0000 3.5168
# 5 -19.5534 -3.9308 -21.7228 0.0000 31.9414 0.0000
# 6 0.0000 0.0000 0.0000 3.5168 0.0000 29.5218
#
#
#
# Elastic Compliance Matrix: (Units=1/GPa)
#
#
# Indices 1 2 3 4 5 6 
#
# 1 0.008367 -0.003623 -0.003221 0.000000 0.002486 0.000000
# 2 -0.003623 0.028183 -0.005390 0.000000 -0.002415 0.000000
# 3 -0.003221 -0.005390 0.013655 0.000000 0.006651 0.000000
# 4 0.000000 0.000000 0.000000 0.050599 0.000000 -0.006028
# 5 0.002486 -0.002415 0.006651 0.000000 0.037055 0.000000
# 6 0.000000 0.000000 0.000000 -0.006028 0.000000 0.034591
#
#
# Mechanical properties :
#
#
# Convention : Reuss Voigt Hill
#
# Bulk Modulus (GPa) = 38.85489 60.81704 49.83597
# Shear Modulus (GPa) = 24.33105 29.48290 26.90697
#
# Velocity S-wave (km/s) = 3.56322 3.92236 3.74709
# Velocity P-wave (km/s) = 6.09951 7.22834 6.68779
#
# Compressibility (1/GPa) = 0.02573678
#
# Stress axis : x y z
#
# Youngs Moduli (GPa) = 119.51116 35.48215 73.23360
#
# Poissons Ratio (x) = 0.12856 0.23589
# Poissons Ratio (y) = 0.43302 0.39473
# Poissons Ratio (z) = 0.38496 0.19125
#
# Static dielectric constant tensor:
#      x y z
#    x 2.987470 0.000000 -0.329620 
#    y 0.000000 3.288780 0.000000 
#    z -0.329620 0.000000 3.572550 
# 
# 
# High freq. dielectric constant tensor:
#      x y z
#    x 1.766780 0.000000 0.001240 
#    y 0.000000 1.719650 0.000000 
#    z 0.001240 0.000000 1.736840 
# 
# From -- ./inp_files/72230.got.cif
#   From: 2010.06.25/outbox.cif.g09.slc.cpg/sg11_37_cif.got.tgz:72230.got - 2010.06.27 23:14:04.
