data_PCOD8070813
_publ_section_title
;
Structure prediction by ZEFSAII (Michael W. Deem and Ramdas Pophale) SiO2 
 PCOD8070813
Probable space group: P 21/M
;
_chemical_formula_sum "Si O2"
_cell_formula_units_Z 28
_cell_length_a 28.863988
_cell_length_b 8.993554
_cell_length_c 9.724996
_cell_angle_alpha 90.000000
_cell_angle_beta 38.049656
_cell_angle_gamma 90.000000
_cell_volume 1555.967115
_symmetry_space_group_name_H-M "P 21/M"
_symmetry_group_IT_number 11
_symmetry_cell_setting 'monoclinic'
loop_
_space_group_symop_operation_xyz
x,y,z
-x,1/2+y,-z
-x,-y,-z
x,1/2-y,z
loop_
_atom_site_type_symbol
_atom_site_label
_atom_site_fract_x
_atom_site_fract_y
_atom_site_fract_z
Si Si1 0.796379 0.578580 0.185107
Si Si2 0.746020 0.578845 0.599091
Si Si3 0.437566 0.421891 0.329271
Si Si4 0.686779 0.425533 0.236991
Si Si5 0.399578 0.577677 0.138030
Si Si6 0.792334 0.923210 0.787569
Si Si7 0.920994 0.921534 0.686207
O O1 0.774832 0.750000 0.205919
O O2 0.796905 0.543203 0.346426
O O3 0.734810 0.475308 0.257208
O O4 0.878481 0.544665 0.929681
O O5 0.719543 0.750000 0.660718
O O6 0.672677 0.475414 0.778067
O O7 0.796706 0.544690 0.614624
O O8 0.415949 0.250000 0.392419
O O9 0.397852 0.511927 0.545720
O O10 0.405435 0.478999 0.259860
O O11 0.527132 0.446983 0.128645
O O12 0.684405 0.250000 0.232537
O O13 0.721388 0.489989 0.016149
O O14 0.391910 0.750000 0.198367
O O15 0.780636 0.750000 0.848427
O O16 0.869066 0.978959 0.680948
O O17 0.938430 0.750000 0.626863
O O18 0.000000 0.000000 0.500000
#
# Coordination Sequence:
#
# PCOD8070813 Si02
#       7
#     4   4   4   4   4   4   4
#     4   9  18  33  54  78 103 136 173 212 256 312
#     4  10  19  34  56  77 102 139 177 213 263 317
#     4  10  19  32  49  71 103 141 178 217 262 311
#     4  11  20  31  51  78 103 134 178 226 264 302
#     4  10  20  31  48  76 106 135 173 223 268 302
#     4   9  20  37  55  76 104 140 175 210 259 320
#     4   9  18  34  55  78 106 135 171 212 252 304
#
# _framework density 17.995239000000002
#
# number of rings (size 3 to 8) (size 9 to 14) (size 15 to 20)
#    0.000    2.286    1.429    3.000    0.000    4.571 
#    0.000    1.429    0.000    0.000    0.000    0.000 
#    0.000    0.000    0.000    0.000    0.000    0.000 
#
# Total GULP energy -347178.431994 kJ/mol
# GULP energy per Si atom -12399.229714 kJ/mol
# Density = 1.795428 g / cm^3
# Si number density = 17.995239 Si / 1000 Ang^3
#
#
#
# Elastic Constant Matrix: (Units=GPa)
#
#
# Indices 1 2 3 4 5 6 
#
# 1 91.4639 29.0045 61.9586 0.0000 5.6099 0.0000
# 2 29.0045 78.0548 41.6736 0.0000 -3.7445 0.0000
# 3 61.9586 41.6736 117.7565 0.0000 -1.5295 0.0000
# 4 0.0000 0.0000 0.0000 28.2159 0.0000 -6.9553
# 5 5.6099 -3.7445 -1.5295 0.0000 33.0707 0.0000
# 6 0.0000 0.0000 0.0000 -6.9553 0.0000 22.7085
#
#
#
# Elastic Compliance Matrix: (Units=1/GPa)
#
#
# Indices 1 2 3 4 5 6 
#
# 1 0.017644 -0.002156 -0.008567 0.000000 -0.003633 0.000000
# 2 -0.002156 0.016138 -0.004551 0.000000 0.001983 0.000000
# 3 -0.008567 -0.004551 0.014631 0.000000 0.001615 0.000000
# 4 0.000000 0.000000 0.000000 0.038335 0.000000 0.011742
# 5 -0.003633 0.001983 0.001615 0.000000 0.031154 0.000000
# 6 0.000000 0.000000 0.000000 0.011742 0.000000 0.047633
#
#
# Mechanical properties :
#
#
# Convention : Reuss Voigt Hill
#
# Bulk Modulus (GPa) = 55.97977 61.39430 58.68703
# Shear Modulus (GPa) = 24.74787 27.10824 25.92805
#
# Velocity S-wave (km/s) = 3.71245 3.88546 3.79994
# Velocity P-wave (km/s) = 7.03932 7.37022 7.20667
#
# Compressibility (1/GPa) = 0.01786360
#
# Stress axis : x y z
#
# Youngs Moduli (GPa) = 56.67789 61.96738 68.34650
#
# Poissons Ratio (x) = 0.13362 0.58555
# Poissons Ratio (y) = 0.12222 0.31102
# Poissons Ratio (z) = 0.48558 0.28199
#
# Static dielectric constant tensor:
#      x y z
#    x 3.129040 0.000000 0.018730 
#    y 0.000000 3.287400 0.000000 
#    z 0.018730 0.000000 3.492760 
# 
# 
# High freq. dielectric constant tensor:
#      x y z
#    x 1.665520 0.000000 0.000610 
#    y 0.000000 1.697310 0.000000 
#    z 0.000610 0.000000 1.700820 
# 
# From -- ./inp_files/28577.got.cif
#   From: 2010.06.25/outbox.cif.g09.slc.cpg/sg11_15_cif.got.tgz:28577.got - 2010.06.27 23:14:04.
