data_PCOD8070187
_publ_section_title
;
Structure prediction by ZEFSAII (Michael W. Deem and Ramdas Pophale) SiO2 
 PCOD8070187
Probable space group: P 21/M
;
_chemical_formula_sum "Si O2"
_cell_formula_units_Z 32
_cell_length_a 16.421476
_cell_length_b 9.214652
_cell_length_c 24.895376
_cell_angle_alpha 90.000000
_cell_angle_beta 153.905554
_cell_angle_gamma 90.000000
_cell_volume 1656.977094
_symmetry_space_group_name_H-M "P 21/M"
_symmetry_group_IT_number 11
_symmetry_cell_setting 'monoclinic'
loop_
_space_group_symop_operation_xyz
x,y,z
-x,1/2+y,-z
-x,-y,-z
x,1/2-y,z
loop_
_atom_site_type_symbol
_atom_site_label
_atom_site_fract_x
_atom_site_fract_y
_atom_site_fract_z
Si Si1 0.999515 0.586295 0.231697
Si Si2 0.557441 0.918469 0.364485
Si Si3 0.324870 0.094342 0.391604
Si Si4 0.925637 0.082654 0.608453
Si Si5 0.495822 0.085591 0.789832
Si Si6 0.143312 0.420573 0.966755
Si Si7 0.206810 0.087697 0.201147
Si Si8 0.115150 0.418827 0.612708
O O1 0.066654 0.750000 0.260183
O O2 0.169797 0.479927 0.334246
O O3 0.938474 0.569022 0.258054
O O4 0.863494 0.542753 0.101886
O O5 0.543850 0.750000 0.374192
O O6 0.589094 0.932665 0.319665
O O7 0.733552 0.991986 0.498232
O O8 0.362815 0.997553 0.262058
O O9 0.364372 0.250000 0.441325
O O10 0.272433 0.111241 0.299594
O O11 0.500000 0.000000 0.500000
O O12 0.865476 0.250000 0.565389
O O13 0.051544 0.027713 0.633828
O O14 0.569053 0.250000 0.841858
O O15 0.333058 0.047718 0.735393
O O16 0.659846 0.973290 0.896124
O O17 0.123466 0.250000 0.965319
O O18 0.986607 0.499384 0.910081
O O19 0.177481 0.250000 0.158017
O O20 0.075987 0.250000 0.581329
O O21 0.000000 0.500000 0.500000
#
# Coordination Sequence:
#
# PCOD8070187 Si02
#       8
#     4   4   4   4   4   4   4   4
#     4   9  19  35  53  77 108 141 180 226 272 320
#     4  11  22  35  54  83 116 146 184 231 277 327
#     4  10  19  30  47  72 103 142 183 223 270 322
#     4  10  20  35  58  85 114 146 180 225 281 333
#     4  10  22  39  57  80 112 147 182 227 278 329
#     4  10  21  38  59  80 107 147 192 231 269 321
#     4  10  21  36  53  76 109 147 187 228 273 327
#     4  10  20  37  60  85 113 145 180 222 276 332
#
# _framework density 19.312277999999999
#
# number of rings (size 3 to 8) (size 9 to 14) (size 15 to 20)
#    0.000    2.000    1.250    2.250    0.000    7.500 
#    0.000    0.625    0.000    0.000    0.000    0.000 
#    0.000    0.000    0.000    0.000    0.000    0.000 
#
# Total GULP energy -396519.783967 kJ/mol
# GULP energy per Si atom -12391.243249 kJ/mol
# Density = 1.926832 g / cm^3
# Si number density = 19.312278 Si / 1000 Ang^3
#
#
#
# Elastic Constant Matrix: (Units=GPa)
#
#
# Indices 1 2 3 4 5 6 
#
# 1 85.4571 23.5439 14.1751 0.0000 6.1642 0.0000
# 2 23.5439 69.9552 17.5169 0.0000 13.2323 0.0000
# 3 14.1751 17.5169 58.3904 0.0000 9.4177 0.0000
# 4 0.0000 0.0000 0.0000 37.6099 0.0000 7.4043
# 5 6.1642 13.2323 9.4177 0.0000 26.8579 0.0000
# 6 0.0000 0.0000 0.0000 7.4043 0.0000 28.4944
#
#
#
# Elastic Compliance Matrix: (Units=1/GPa)
#
#
# Indices 1 2 3 4 5 6 
#
# 1 0.013117 -0.003842 -0.001962 0.000000 -0.000429 0.000000
# 2 -0.003842 0.017674 -0.003294 0.000000 -0.006671 0.000000
# 3 -0.001962 -0.003294 0.019351 0.000000 -0.004712 0.000000
# 4 0.000000 0.000000 0.000000 0.028022 0.000000 -0.007282
# 5 -0.000429 -0.006671 -0.004712 0.000000 0.042271 0.000000
# 6 0.000000 0.000000 0.000000 -0.007282 0.000000 0.036987
#
#
# Mechanical properties :
#
#
# Convention : Reuss Voigt Hill
#
# Bulk Modulus (GPa) = 31.30291 36.03052 33.66672
# Shear Modulus (GPa) = 26.84330 29.16353 28.00342
#
# Velocity S-wave (km/s) = 3.73226 3.89022 3.81206
# Velocity P-wave (km/s) = 5.90060 6.23504 6.07012
#
# Compressibility (1/GPa) = 0.03194591
#
# Stress axis : x y z
#
# Youngs Moduli (GPa) = 76.23844 56.57876 51.67791
#
# Poissons Ratio (x) = 0.21737 0.10142
# Poissons Ratio (y) = 0.29290 0.17021
# Poissons Ratio (z) = 0.14961 0.18635
#
# Static dielectric constant tensor:
#      x y z
#    x 3.783570 0.000000 -0.103660 
#    y 0.000000 3.908330 0.000000 
#    z -0.103660 0.000000 3.236540 
# 
# 
# High freq. dielectric constant tensor:
#      x y z
#    x 1.754990 0.000000 -0.010400 
#    y 0.000000 1.762730 0.000000 
#    z -0.010400 0.000000 1.731760 
# 
# From -- ./inp_files/69123.got.cif
#   From: 2010.06.25/outbox.cif.g09.slc.cpg/sg11_35_cif.got.tgz:69123.got - 2010.06.27 23:14:04.
