data_PCOD8070432
_publ_section_title
;
Structure prediction by ZEFSAII (Michael W. Deem and Ramdas Pophale) SiO2 
 PCOD8070432
Probable space group: P 21/M
;
_chemical_formula_sum "Si O2"
_cell_formula_units_Z 28
_cell_length_a 18.668808
_cell_length_b 8.715800
_cell_length_c 14.587484
_cell_angle_alpha 90.000000
_cell_angle_beta 39.462929
_cell_angle_gamma 90.000000
_cell_volume 1508.598482
_symmetry_space_group_name_H-M "P 21/M"
_symmetry_group_IT_number 11
_symmetry_cell_setting 'monoclinic'
loop_
_space_group_symop_operation_xyz
x,y,z
-x,1/2+y,-z
-x,-y,-z
x,1/2-y,z
loop_
_atom_site_type_symbol
_atom_site_label
_atom_site_fract_x
_atom_site_fract_y
_atom_site_fract_z
Si Si1 0.162120 0.431100 0.004724
Si Si2 0.268401 0.424615 0.420927
Si Si3 0.184651 0.574136 0.790253
Si Si4 0.599140 0.572503 0.170260
Si Si5 0.935266 0.929952 0.264503
Si Si6 0.460338 0.929834 0.133379
Si Si7 0.619667 0.075604 0.524962
O O1 0.152711 0.250000 0.028347
O O2 0.153488 0.466801 0.905526
O O3 0.279502 0.502047 0.928011
O O4 0.062469 0.515379 0.158314
O O5 0.282423 0.250000 0.375735
O O6 0.136787 0.464952 0.571207
O O7 0.329340 0.526634 0.282886
O O8 0.327972 0.450527 0.459386
O O9 0.155997 0.750000 0.843386
O O10 0.110702 0.525944 0.776181
O O11 0.318855 0.556062 0.633881
O O12 0.621837 0.750000 0.131227
O O13 0.540034 0.505026 0.136795
O O14 0.515565 0.547577 0.340894
O O15 0.929857 0.750000 0.246389
O O16 0.469990 0.750000 0.116418
O O17 0.500000 0.000000 0.000000
O O18 0.642298 0.250000 0.539972
#
# Coordination Sequence:
#
# PCOD8070432 Si02
#       7
#     4   4   4   4   4   4   4
#     4  11  21  32  47  67  96 134 170 203 242 287
#     4   9  17  30  50  75  99 124 157 198 243 285
#     4  10  19  31  48  70  95 127 170 214 250 284
#     4   8  17  33  50  70  98 130 159 192 242 297
#     4  10  20  34  50  69  96 130 170 211 244 279
#     4  10  19  34  57  82 105 125 151 190 237 292
#     4   8  15  30  49  67  93 128 163 201 245 291
#
# _framework density 18.560271
#
# number of rings (size 3 to 8) (size 9 to 14) (size 15 to 20)
#    0.000    2.571    0.000    3.429    0.000    2.857 
#    0.000    7.143    0.000    0.857    0.000    0.000 
#    0.000    0.000    0.000    0.000    0.000    0.000 
#
# Total GULP energy -346935.317967 kJ/mol
# GULP energy per Si atom -12390.547070 kJ/mol
# Density = 1.851803 g / cm^3
# Si number density = 18.560271 Si / 1000 Ang^3
#
#
#
# Elastic Constant Matrix: (Units=GPa)
#
#
# Indices 1 2 3 4 5 6 
#
# 1 36.0097 15.3701 41.5310 0.0000 -16.2485 0.0000
# 2 15.3701 54.3139 40.1024 0.0000 -3.9746 0.0000
# 3 41.5310 40.1024 159.0841 0.0000 -19.3437 0.0000
# 4 0.0000 0.0000 0.0000 30.8324 0.0000 0.3544
# 5 -16.2485 -3.9746 -19.3437 0.0000 29.6354 0.0000
# 6 0.0000 0.0000 0.0000 0.3544 0.0000 15.8514
#
#
#
# Elastic Compliance Matrix: (Units=1/GPa)
#
#
# Indices 1 2 3 4 5 6 
#
# 1 0.050145 -0.005983 -0.009056 0.000000 0.020780 0.000000
# 2 -0.005983 0.023351 -0.004717 0.000000 -0.003227 0.000000
# 3 -0.009056 -0.004717 0.009948 0.000000 0.000896 0.000000
# 4 0.000000 0.000000 0.000000 0.032442 0.000000 -0.000725
# 5 0.020780 -0.003227 0.000896 0.000000 0.045288 0.000000
# 6 0.000000 0.000000 0.000000 -0.000725 0.000000 0.063102
#
#
# Mechanical properties :
#
#
# Convention : Reuss Voigt Hill
#
# Bulk Modulus (GPa) = 22.76237 49.26829 36.01533
# Shear Modulus (GPa) = 17.95763 25.42413 21.69088
#
# Velocity S-wave (km/s) = 3.11389 3.70512 3.42229
# Velocity P-wave (km/s) = 5.02186 6.70123 5.92138
#
# Compressibility (1/GPa) = 0.04393216
#
# Stress axis : x y z
#
# Youngs Moduli (GPa) = 19.94207 42.82445 100.52161
#
# Poissons Ratio (x) = 0.25623 0.91033
# Poissons Ratio (y) = 0.11932 0.47415
# Poissons Ratio (z) = 0.18060 0.20200
#
# Static dielectric constant tensor:
#      x y z
#    x 3.134840 0.000000 -0.290060 
#    y 0.000000 3.307490 0.000000 
#    z -0.290060 0.000000 3.926100 
# 
# 
# High freq. dielectric constant tensor:
#      x y z
#    x 1.659210 0.000000 -0.018320 
#    y 0.000000 1.716660 0.000000 
#    z -0.018320 0.000000 1.742630 
# 
# From -- ./inp_files/37140.got.cif
#   From: 2010.06.25/outbox.cif.g09.slc.cpg/sg11_19_cif.got.tgz:37140.got - 2010.06.27 23:14:04.
