data_PCOD8070141
_publ_section_title
;
Structure prediction by ZEFSAII (Michael W. Deem and Ramdas Pophale) SiO2 
 PCOD8070141
Probable space group: P 21/M
;
_chemical_formula_sum "Si O2"
_cell_formula_units_Z 32
_cell_length_a 29.447368
_cell_length_b 9.205513
_cell_length_c 23.432734
_cell_angle_alpha 90.000000
_cell_angle_beta 163.394905
_cell_angle_gamma 90.000000
_cell_volume 1815.262870
_symmetry_space_group_name_H-M "P 21/M"
_symmetry_group_IT_number 11
_symmetry_cell_setting 'monoclinic'
loop_
_space_group_symop_operation_xyz
x,y,z
-x,1/2+y,-z
-x,-y,-z
x,1/2-y,z
loop_
_atom_site_type_symbol
_atom_site_label
_atom_site_fract_x
_atom_site_fract_y
_atom_site_fract_z
Si Si1 0.403203 0.583432 0.966705
Si Si2 0.514000 0.918210 0.431565
Si Si3 0.606068 0.581131 0.415603
Si Si4 0.511536 0.913289 0.828036
Si Si5 0.305171 0.916952 0.730787
Si Si6 0.045760 0.419447 0.207943
Si Si7 0.151357 0.910700 0.436732
Si Si8 0.742005 0.580738 0.809221
O O1 0.418417 0.750000 0.004333
O O2 0.369374 0.489975 0.983059
O O3 0.565897 0.535081 0.132574
O O4 0.268286 0.563152 0.754385
O O5 0.463554 0.750000 0.373421
O O6 0.569770 0.965799 0.436269
O O7 0.659571 0.949666 0.649380
O O8 0.362328 0.013990 0.265386
O O9 0.575696 0.750000 0.368434
O O10 0.486521 0.494828 0.230306
O O11 0.788926 0.541683 0.623393
O O12 0.571237 0.750000 0.890123
O O13 0.335588 0.920578 0.641502
O O14 0.366377 0.750000 0.794100
O O15 0.148448 0.941965 0.501869
O O16 0.007700 0.250000 0.161933
O O17 0.048686 0.473745 0.277405
O O18 0.911747 0.502882 0.011156
O O19 0.083993 0.750000 0.341881
O O20 0.765381 0.750000 0.849287
#
# Coordination Sequence:
#
# PCOD8070141 Si02
#       8
#     4   4   4   4   4   4   4   4
#     4   9  14  20  32  50  75 110 149 185 223 269
#     4   9  19  36  54  71  93 120 152 191 231 273
#     4   9  18  32  49  69  93 122 155 191 232 275
#     4   9  16  25  37  56  84 116 149 186 227 270
#     4   8  14  22  32  49  75 109 148 187 226 268
#     4  10  19  30  46  69  95 123 155 190 229 274
#     4   8  14  25  38  54  81 115 149 186 227 268
#     4  10  20  34  52  72  94 122 153 186 229 277
#
# _framework density 17.628301
#
# number of rings (size 3 to 8) (size 9 to 14) (size 15 to 20)
#    0.000    3.000    0.000    2.250    0.000    5.500 
#    0.000    0.000    0.000    0.000    0.000    0.000 
#    0.000    1.000    0.000    3.000    0.000    9.250 
#
# Total GULP energy -396573.725394 kJ/mol
# GULP energy per Si atom -12392.928919 kJ/mol
# Density = 1.758818 g / cm^3
# Si number density = 17.628301 Si / 1000 Ang^3
#
#
#
# Elastic Constant Matrix: (Units=GPa)
#
#
# Indices 1 2 3 4 5 6 
#
# 1 118.0443 55.8754 45.8133 0.0000 -30.7867 0.0000
# 2 55.8754 88.4476 22.8217 0.0000 -12.2992 0.0000
# 3 45.8133 22.8217 22.7167 0.0000 -13.9271 0.0000
# 4 0.0000 0.0000 0.0000 25.7429 0.0000 -7.5180
# 5 -30.7867 -12.2992 -13.9271 0.0000 20.5218 0.0000
# 6 0.0000 0.0000 0.0000 -7.5180 0.0000 24.2675
#
#
#
# Elastic Compliance Matrix: (Units=1/GPa)
#
#
# Indices 1 2 3 4 5 6 
#
# 1 0.042662 -0.006687 -0.072850 0.000000 0.010555 0.000000
# 2 -0.006687 0.016366 -0.005297 0.000000 -0.003817 0.000000
# 3 -0.072850 -0.005297 0.218022 0.000000 0.035497 0.000000
# 4 0.000000 0.000000 0.000000 0.042710 0.000000 0.013231
# 5 0.010555 -0.003817 0.035497 0.000000 0.086366 0.000000
# 6 0.000000 0.000000 0.000000 0.013231 0.000000 0.045306
#
#
# Mechanical properties :
#
#
# Convention : Reuss Voigt Hill
#
# Bulk Modulus (GPa) = 9.31239 53.13658 31.22449
# Shear Modulus (GPa) = 7.61158 21.08633 14.34895
#
# Velocity S-wave (km/s) = 2.08019 3.46231 2.85612
# Velocity P-wave (km/s) = 3.32621 6.79645 5.35048
#
# Compressibility (1/GPa) = 0.10738379
#
# Stress axis : x y z
#
# Youngs Moduli (GPa) = 23.43987 61.10133 4.58669
#
# Poissons Ratio (x) = 0.40855 0.33414
# Poissons Ratio (y) = 0.15673 0.02430
# Poissons Ratio (z) = 1.70759 0.32368
#
# Static dielectric constant tensor:
#      x y z
#    x 3.325780 0.000000 -0.530560 
#    y 0.000000 3.367880 0.000000 
#    z -0.530560 0.000000 3.087820 
# 
# 
# High freq. dielectric constant tensor:
#      x y z
#    x 1.664770 0.000000 -0.049830 
#    y 0.000000 1.691760 0.000000 
#    z -0.049830 0.000000 1.643360 
# 
# From -- ./inp_files/70419.got.cif
#   From: 2010.06.25/outbox.cif.g09.slc.cpg/sg11_36_cif.got.tgz:70419.got - 2010.06.27 23:14:04.
