data_PCOD8070256
_publ_section_title
;
Structure prediction by ZEFSAII (Michael W. Deem and Ramdas Pophale) SiO2 
 PCOD8070256
Probable space group: P 21/M
;
_chemical_formula_sum "Si O2"
_cell_formula_units_Z 28
_cell_length_a 22.141607
_cell_length_b 8.927009
_cell_length_c 14.289473
_cell_angle_alpha 90.000000
_cell_angle_beta 143.349885
_cell_angle_gamma 90.000000
_cell_volume 1685.980067
_symmetry_space_group_name_H-M "P 21/M"
_symmetry_group_IT_number 11
_symmetry_cell_setting 'monoclinic'
loop_
_space_group_symop_operation_xyz
x,y,z
-x,1/2+y,-z
-x,-y,-z
x,1/2-y,z
loop_
_atom_site_type_symbol
_atom_site_label
_atom_site_fract_x
_atom_site_fract_y
_atom_site_fract_z
Si Si1 0.265682 0.576323 0.480461
Si Si2 0.578960 0.575885 0.968521
Si Si3 0.108682 0.573067 0.130333
Si Si4 0.637951 0.076401 0.856575
Si Si5 0.260026 0.422771 0.179837
Si Si6 0.411719 0.080690 0.528631
Si Si7 0.628148 0.923263 0.236074
O O1 0.267043 0.750000 0.506738
O O2 0.165639 0.531833 0.298047
O O3 0.363787 0.536443 0.540885
O O4 0.271919 0.483978 0.585784
O O5 0.570280 0.750000 0.932867
O O6 0.639216 0.491918 0.961922
O O7 0.466955 0.511834 0.840647
O O8 0.641417 0.548972 0.142035
O O9 0.100336 0.750000 0.106614
O O10 0.168076 0.506618 0.115974
O O11 0.000000 0.500000 0.000000
O O12 0.665678 0.250000 0.898203
O O13 0.530726 0.049802 0.672340
O O14 0.723367 0.994625 0.901328
O O15 0.229912 0.250000 0.130796
O O16 0.363769 0.443149 0.366932
O O17 0.389556 0.250000 0.536675
O O18 0.610321 0.750000 0.236026
#
# Coordination Sequence:
#
# PCOD8070256 Si02
#       7
#     4   4   4   4   4   4   4
#     4  10  19  30  49  73  98 128 164 202 243 291
#     4  10  20  31  45  66  95 133 172 207 241 281
#     4  10  21  37  55  77 100 125 159 202 249 296
#     4  11  20  30  45  68  98 133 169 203 239 285
#     4  10  20  33  49  69  96 130 164 201 243 291
#     4   9  18  30  44  65  95 131 167 199 236 281
#     4  10  19  31  46  67  96 130 169 207 244 285
#
# _framework density 16.607551000000001
#
# number of rings (size 3 to 8) (size 9 to 14) (size 15 to 20)
#    0.000    2.000    1.429    3.000    0.000    4.571 
#    0.000    0.000    0.000    0.000    0.000    1.000 
#    0.000    0.000    0.000    0.000    0.000    0.000 
#
# Total GULP energy -347215.799799 kJ/mol
# GULP energy per Si atom -12400.564279 kJ/mol
# Density = 1.656975 g / cm^3
# Si number density = 16.607551 Si / 1000 Ang^3
#
#
#
# Elastic Constant Matrix: (Units=GPa)
#
#
# Indices 1 2 3 4 5 6 
#
# 1 109.7925 56.7842 52.9376 0.0000 -10.6504 0.0000
# 2 56.7842 100.8073 47.6149 0.0000 -4.0023 0.0000
# 3 52.9376 47.6149 70.8025 0.0000 -2.5108 0.0000
# 4 0.0000 0.0000 0.0000 24.7405 0.0000 -2.5488
# 5 -10.6504 -4.0023 -2.5108 0.0000 21.5918 0.0000
# 6 0.0000 0.0000 0.0000 -2.5488 0.0000 32.0572
#
#
#
# Elastic Compliance Matrix: (Units=1/GPa)
#
#
# Indices 1 2 3 4 5 6 
#
# 1 0.016486 -0.004869 -0.008832 0.000000 0.006203 0.000000
# 2 -0.004869 0.016028 -0.007148 0.000000 -0.000262 0.000000
# 3 -0.008832 -0.007148 0.025438 0.000000 -0.002724 0.000000
# 4 0.000000 0.000000 0.000000 0.040753 0.000000 0.003240
# 5 0.006203 -0.000262 -0.002724 0.000000 0.049008 0.000000
# 6 0.000000 0.000000 0.000000 0.003240 0.000000 0.031452
#
#
# Mechanical properties :
#
#
# Convention : Reuss Voigt Hill
#
# Bulk Modulus (GPa) = 61.52160 66.23065 63.87612
# Shear Modulus (GPa) = 22.09621 23.94895 23.02258
#
# Velocity S-wave (km/s) = 3.65155 3.80156 3.72731
# Velocity P-wave (km/s) = 7.40967 7.69646 7.55443
#
# Compressibility (1/GPa) = 0.01625445
#
# Stress axis : x y z
#
# Youngs Moduli (GPa) = 60.65585 62.38947 39.31079
#
# Poissons Ratio (x) = 0.30375 0.34721
# Poissons Ratio (y) = 0.29531 0.28100
# Poissons Ratio (z) = 0.53574 0.44598
#
# Static dielectric constant tensor:
#      x y z
#    x 3.002240 0.000000 -0.284450 
#    y 0.000000 3.272450 0.000000 
#    z -0.284450 0.000000 3.046480 
# 
# 
# High freq. dielectric constant tensor:
#      x y z
#    x 1.623300 0.000000 -0.026070 
#    y 0.000000 1.659540 0.000000 
#    z -0.026070 0.000000 1.608340 
# 
# From -- ./inp_files/51006.got.cif
#   From: 2010.06.25/outbox.cif.g09.slc.cpg/sg11_26_cif.got.tgz:51006.got - 2010.06.27 23:14:04.
