data_PCOD8070601
_publ_section_title
;
Structure prediction by ZEFSAII (Michael W. Deem and Ramdas Pophale) SiO2 
 PCOD8070601
Probable space group: P 21/M
;
_chemical_formula_sum "Si O2"
_cell_formula_units_Z 28
_cell_length_a 14.513181
_cell_length_b 9.044324
_cell_length_c 10.660148
_cell_angle_alpha 90.000000
_cell_angle_beta 78.630008
_cell_angle_gamma 90.000000
_cell_volume 1371.810085
_symmetry_space_group_name_H-M "P 21/M"
_symmetry_group_IT_number 11
_symmetry_cell_setting 'monoclinic'
loop_
_space_group_symop_operation_xyz
x,y,z
-x,1/2+y,-z
-x,-y,-z
x,1/2-y,z
loop_
_atom_site_type_symbol
_atom_site_label
_atom_site_fract_x
_atom_site_fract_y
_atom_site_fract_z
Si Si1 0.558424 0.582751 0.587431
Si Si2 0.615088 0.086134 0.207198
Si Si3 0.798624 0.420277 0.290566
Si Si4 0.101270 0.427916 0.970790
Si Si5 0.770915 0.574855 0.546224
Si Si6 0.598279 0.579574 0.978931
Si Si7 0.785646 0.575303 0.817037
O O1 0.500000 0.500000 0.500000
O O2 0.567366 0.750000 0.538754
O O3 0.495417 0.570956 0.729964
O O4 0.662526 0.520330 0.582503
O O5 0.631652 0.250000 0.144561
O O6 0.685165 0.067474 0.306867
O O7 0.643220 0.958832 0.102140
O O8 0.833182 0.250000 0.279255
O O9 0.824405 0.491679 0.418625
O O10 0.846086 0.510248 0.165422
O O11 0.096461 0.250000 0.965166
O O12 0.150110 0.486235 0.087121
O O13 0.000000 0.500000 0.000000
O O14 0.778571 0.750000 0.522610
O O15 0.818935 0.529358 0.667384
O O16 0.577508 0.750000 0.970105
O O17 0.500000 0.500000 0.000000
O O18 0.676401 0.524366 0.858734
O O19 0.786608 0.750000 0.830234
#
# Coordination Sequence:
#
# PCOD8070601 Si02
#       7
#     4   4   4   4   4   4   4
#     4  10  19  31  49  76 117 163 208 250 293 345
#     4  10  20  34  52  78 116 158 204 253 296 346
#     4  11  22  38  61  90 123 156 197 250 302 359
#     4  11  23  44  71  97 121 153 200 253 315 378
#     4  10  20  36  59  85 119 165 207 247 300 360
#     4  11  21  35  55  82 118 161 206 249 300 357
#     4   9  20  39  62  87 121 159 201 251 305 365
#
# _framework density 20.410986999999999
#
# number of rings (size 3 to 8) (size 9 to 14) (size 15 to 20)
#    0.000    1.714    2.857    2.143    0.000    3.429 
#    0.000    5.000    0.000    0.000    0.000    0.000 
#    0.000    0.000    0.000    0.000    0.000    0.000 
#
# Total GULP energy -346958.408701 kJ/mol
# GULP energy per Si atom -12391.371739 kJ/mol
# Density = 2.036453 g / cm^3
# Si number density = 20.410987 Si / 1000 Ang^3
#
#
#
# Elastic Constant Matrix: (Units=GPa)
#
#
# Indices 1 2 3 4 5 6 
#
# 1 90.1976 32.7052 52.1919 0.0000 4.0575 0.0000
# 2 32.7052 69.3661 46.0766 0.0000 3.4683 0.0000
# 3 52.1919 46.0766 144.8772 0.0000 19.3816 0.0000
# 4 0.0000 0.0000 0.0000 31.2396 0.0000 -1.9880
# 5 4.0575 3.4683 19.3816 0.0000 24.7987 0.0000
# 6 0.0000 0.0000 0.0000 -1.9880 0.0000 26.0472
#
#
#
# Elastic Compliance Matrix: (Units=1/GPa)
#
#
# Indices 1 2 3 4 5 6 
#
# 1 0.015049 -0.004359 -0.004230 0.000000 0.001453 0.000000
# 2 -0.004359 0.019650 -0.004922 0.000000 0.001811 0.000000
# 3 -0.004230 -0.004922 0.010952 0.000000 -0.007179 0.000000
# 4 0.000000 0.000000 0.000000 0.032167 0.000000 0.002455
# 5 0.001453 0.001811 -0.007179 0.000000 0.045444 0.000000
# 6 0.000000 0.000000 0.000000 0.002455 0.000000 0.038579
#
#
# Mechanical properties :
#
#
# Convention : Reuss Voigt Hill
#
# Bulk Modulus (GPa) = 53.67327 62.93205 58.30266
# Shear Modulus (GPa) = 25.63162 27.98158 26.80660
#
# Velocity S-wave (km/s) = 3.54754 3.70659 3.62794
# Velocity P-wave (km/s) = 6.56760 7.01554 6.79526
#
# Compressibility (1/GPa) = 0.01863125
#
# Stress axis : x y z
#
# Youngs Moduli (GPa) = 66.44843 50.89083 91.30925
#
# Poissons Ratio (x) = 0.22181 0.38621
# Poissons Ratio (y) = 0.28962 0.44939
# Poissons Ratio (z) = 0.28105 0.25046
#
# Static dielectric constant tensor:
#      x y z
#    x 3.754210 0.000000 0.105440 
#    y 0.000000 3.674590 0.000000 
#    z 0.105440 0.000000 4.142520 
# 
# 
# High freq. dielectric constant tensor:
#      x y z
#    x 1.781930 0.000000 0.009320 
#    y 0.000000 1.780080 0.000000 
#    z 0.009320 0.000000 1.805130 
# 
# From -- ./inp_files/37462.got.cif
#   From: 2010.06.25/outbox.cif.g09.slc.cpg/sg11_19_cif.got.tgz:37462.got - 2010.06.27 23:14:04.
