data_PCOD8070098
_publ_section_title
;
Structure prediction by ZEFSAII (Michael W. Deem and Ramdas Pophale) SiO2 
 PCOD8070098
Probable space group: P 21/M
;
_chemical_formula_sum "Si O2"
_cell_formula_units_Z 32
_cell_length_a 26.688105
_cell_length_b 9.189552
_cell_length_c 21.899119
_cell_angle_alpha 90.000000
_cell_angle_beta 18.990236
_cell_angle_gamma 90.000000
_cell_volume 1747.694980
_symmetry_space_group_name_H-M "P 21/M"
_symmetry_group_IT_number 11
_symmetry_cell_setting 'monoclinic'
loop_
_space_group_symop_operation_xyz
x,y,z
-x,1/2+y,-z
-x,-y,-z
x,1/2-y,z
loop_
_atom_site_type_symbol
_atom_site_label
_atom_site_fract_x
_atom_site_fract_y
_atom_site_fract_z
Si Si1 0.152861 0.084329 0.835018
Si Si2 0.671812 0.914754 0.935791
Si Si3 0.888614 0.921038 0.986081
Si Si4 0.489945 0.919327 0.778086
Si Si5 0.208251 0.080086 0.640575
Si Si6 0.966587 0.588702 0.682908
Si Si7 0.858358 0.079304 0.632124
Si Si8 0.198589 0.581214 0.030925
O O1 0.101994 0.250000 0.894396
O O2 0.261328 0.053761 0.650925
O O3 0.211174 0.045788 0.836514
O O4 0.000000 0.000000 0.000000
O O5 0.624710 0.750000 0.973609
O O6 0.824166 0.920550 0.800866
O O7 0.702517 0.004178 0.837403
O O8 0.533878 0.989893 0.132414
O O9 0.901770 0.750000 0.957699
O O10 0.060278 0.986123 0.793035
O O11 0.794720 0.997006 0.040475
O O12 0.488922 0.750000 0.796268
O O13 0.650939 0.970025 0.563800
O O14 0.357458 0.953419 0.881704
O O15 0.169780 0.250000 0.674511
O O16 0.974619 0.750000 0.702630
O O17 0.121779 0.557743 0.464286
O O18 0.945654 0.474002 0.761729
O O19 0.859771 0.250000 0.647679
O O20 0.000000 0.000000 0.500000
O O21 0.173330 0.750000 0.047182
#
# Coordination Sequence:
#
# PCOD8070098 Si02
#       8
#     4   4   4   4   4   4   4   4
#     4   8  15  28  47  68  89 115 148 188 231 271
#     4   9  16  25  39  60  88 120 152 187 227 271
#     4  10  19  31  48  70  94 120 152 190 231 275
#     4   9  18  31  47  67  93 124 155 190 232 275
#     4   9  17  32  52  71  91 117 153 194 232 273
#     4   8  15  26  39  58  85 117 150 187 228 266
#     4   9  15  23  37  58  85 116 151 189 229 271
#     4  10  19  30  45  66  93 125 156 187 227 274
#
# _framework density 18.309830000000002
#
# number of rings (size 3 to 8) (size 9 to 14) (size 15 to 20)
#    0.000    3.000    0.000    2.250    0.000    5.000 
#    0.000    0.625    0.000    0.000    0.000    0.875 
#    0.000    0.000    0.000    0.000    0.000    0.000 
#
# Total GULP energy -396424.304305 kJ/mol
# GULP energy per Si atom -12388.259510 kJ/mol
# Density = 1.826816 g / cm^3
# Si number density = 18.309830 Si / 1000 Ang^3
#
#
#
# Elastic Constant Matrix: (Units=GPa)
#
#
# Indices 1 2 3 4 5 6 
#
# 1 8.4274 2.3351 -10.7654 0.0000 -1.1497 0.0000
# 2 2.3351 71.3908 11.8883 0.0000 0.8105 0.0000
# 3 -10.7654 11.8883 58.9504 0.0000 9.9572 0.0000
# 4 0.0000 0.0000 0.0000 22.9212 0.0000 7.2342
# 5 -1.1497 0.8105 9.9572 0.0000 13.8179 0.0000
# 6 0.0000 0.0000 0.0000 7.2342 0.0000 25.6087
#
#
#
# Elastic Compliance Matrix: (Units=1/GPa)
#
#
# Indices 1 2 3 4 5 6 
#
# 1 0.163368 -0.010845 0.033722 0.000000 -0.010071 0.000000
# 2 -0.010845 0.015239 -0.005409 0.000000 0.002101 0.000000
# 3 0.033722 -0.005409 0.026967 0.000000 -0.016310 0.000000
# 4 0.000000 0.000000 0.000000 0.047898 0.000000 -0.013531
# 5 -0.010071 0.002101 -0.016310 0.000000 0.083162 0.000000
# 6 0.000000 0.000000 0.000000 -0.013531 0.000000 0.042872
#
#
# Mechanical properties :
#
#
# Convention : Reuss Voigt Hill
#
# Bulk Modulus (GPa) = 4.15779 16.18718 10.17248
# Shear Modulus (GPa) = 11.77194 21.49027 16.63110
#
# Velocity S-wave (km/s) = 2.53836 3.42965 3.01710
# Velocity P-wave (km/s) = 3.29647 4.95411 4.20773
#
# Compressibility (1/GPa) = 0.24051242
#
# Stress axis : x y z
#
# Youngs Moduli (GPa) = 6.12113 65.62149 37.08203
#
# Poissons Ratio (x) = 0.71164 -1.25048
# Poissons Ratio (y) = 0.06638 0.20056
# Poissons Ratio (z) = -0.20642 0.35492
#
# Static dielectric constant tensor:
#      x y z
#    x 3.388820 0.000000 0.785910 
#    y 0.000000 3.468550 0.000000 
#    z 0.785910 0.000000 3.638330 
# 
# 
# High freq. dielectric constant tensor:
#      x y z
#    x 1.678670 0.000000 0.047630 
#    y 0.000000 1.719290 0.000000 
#    z 0.047630 0.000000 1.691420 
# 
# From -- ./inp_files/67027.got.cif
#   From: 2010.06.25/outbox.cif.g09.slc.cpg/sg11_34_cif.got.tgz:67027.got - 2010.06.27 23:14:04.
