data_PCOD8070000
_publ_section_title
;
Structure prediction by ZEFSAII (Michael W. Deem and Ramdas Pophale) SiO2 
 PCOD8070000
Probable space group: P 21/M
;
_chemical_formula_sum "Si O2"
_cell_formula_units_Z 32
_cell_length_a 14.314189
_cell_length_b 9.244704
_cell_length_c 15.627072
_cell_angle_alpha 90.000000
_cell_angle_beta 90.781087
_cell_angle_gamma 90.000000
_cell_volume 2067.745162
_symmetry_space_group_name_H-M "P 21/M"
_symmetry_group_IT_number 11
_symmetry_cell_setting 'monoclinic'
loop_
_space_group_symop_operation_xyz
x,y,z
-x,1/2+y,-z
-x,-y,-z
x,1/2-y,z
loop_
_atom_site_type_symbol
_atom_site_label
_atom_site_fract_x
_atom_site_fract_y
_atom_site_fract_z
Si Si1 0.392589 0.919765 0.682590
Si Si2 0.598180 0.920130 0.001057
Si Si3 0.701549 0.417256 0.852782
Si Si4 0.588480 0.418370 0.687173
Si Si5 0.712113 0.582205 0.174066
Si Si6 0.102468 0.915240 0.083159
Si Si7 0.896815 0.581680 0.089479
Si Si8 0.406163 0.914764 0.497756
O O1 0.401525 0.750000 0.701418
O O2 0.351160 0.951030 0.585444
O O3 0.494415 0.989739 0.696014
O O4 0.319582 0.987670 0.746613
O O5 0.583106 0.750000 0.986345
O O6 0.648475 0.951874 0.091285
O O7 0.500000 0.000000 0.000000
O O8 0.660575 0.982234 0.925778
O O9 0.676843 0.250000 0.872828
O O10 0.660527 0.466194 0.761199
O O11 0.813788 0.439897 0.848393
O O12 0.561140 0.250000 0.696625
O O13 0.641193 0.446749 0.595696
O O14 0.705011 0.750000 0.199060
O O15 0.819254 0.533904 0.157424
O O16 0.098489 0.750000 0.052460
O O17 0.001799 0.957357 0.123563
O O18 0.124459 0.007250 0.000245
O O19 0.883669 0.750000 0.071297
O O20 0.436816 0.750000 0.502406
O O21 0.500000 0.000000 0.500000
#
# Coordination Sequence:
#
# PCOD8070000 Si02
#       8
#     4   4   4   4   4   4   4   4
#     4  10  19  29  44  66  88 111 147 186 215 246
#     4  11  22  33  43  58  86 122 153 178 207 249
#     4  10  19  30  45  67  89 113 144 177 214 258
#     4   9  17  30  46  63  89 119 143 170 214 265
#     4  10  20  32  44  60  85 118 149 174 212 261
#     4   9  17  29  47  67  86 107 140 185 221 252
#     4   9  17  31  47  63  84 112 144 179 220 260
#     4   8  15  28  44  62  84 111 141 177 216 254
#
# _framework density 15.475795
#
# number of rings (size 3 to 8) (size 9 to 14) (size 15 to 20)
#    0.000    2.500    1.250    1.500    0.000    5.500 
#    0.000    0.000    0.000    0.000    0.000    0.875 
#    0.000    0.000    0.000    0.000    0.000    0.000 
#
# Total GULP energy -396484.354019 kJ/mol
# GULP energy per Si atom -12390.136063 kJ/mol
# Density = 1.544057 g / cm^3
# Si number density = 15.475795 Si / 1000 Ang^3
#
#
#
# Elastic Constant Matrix: (Units=GPa)
#
#
# Indices 1 2 3 4 5 6 
#
# 1 106.7261 37.5612 60.7848 0.0000 -10.8550 0.0000
# 2 37.5612 52.4186 44.6581 0.0000 -9.8722 0.0000
# 3 60.7848 44.6581 118.5839 0.0000 -17.4300 0.0000
# 4 0.0000 0.0000 0.0000 20.3320 0.0000 -2.6241
# 5 -10.8550 -9.8722 -17.4300 0.0000 10.8012 0.0000
# 6 0.0000 0.0000 0.0000 -2.6241 0.0000 17.7599
#
#
#
# Elastic Compliance Matrix: (Units=1/GPa)
#
#
# Indices 1 2 3 4 5 6 
#
# 1 0.014392 -0.005836 -0.005030 0.000000 0.001011 0.000000
# 2 -0.005836 0.031545 -0.007226 0.000000 0.011305 0.000000
# 3 -0.005030 -0.007226 0.015756 0.000000 0.013766 0.000000
# 4 0.000000 0.000000 0.000000 0.050140 0.000000 0.007408
# 5 0.001011 0.011305 0.013766 0.000000 0.126145 0.000000
# 6 0.000000 0.000000 0.000000 0.007408 0.000000 0.057401
#
#
# Mechanical properties :
#
#
# Convention : Reuss Voigt Hill
#
# Bulk Modulus (GPa) = 39.20578 62.63744 50.92161
# Shear Modulus (GPa) = 14.70295 18.76024 16.73160
#
# Velocity S-wave (km/s) = 3.08565 3.48549 3.29165
# Velocity P-wave (km/s) = 6.17119 7.53396 6.88637
#
# Compressibility (1/GPa) = 0.02550644
#
# Stress axis : x y z
#
# Youngs Moduli (GPa) = 69.48432 31.70085 63.46732
#
# Poissons Ratio (x) = 0.18502 0.31927
# Poissons Ratio (y) = 0.40554 0.45863
# Poissons Ratio (z) = 0.34954 0.22908
#
# Static dielectric constant tensor:
#      x y z
#    x 3.034740 0.000000 0.015170 
#    y 0.000000 3.024840 0.000000 
#    z 0.015170 0.000000 3.339140 
# 
# 
# High freq. dielectric constant tensor:
#      x y z
#    x 1.574770 0.000000 -0.002400 
#    y 0.000000 1.601570 0.000000 
#    z -0.002400 0.000000 1.585770 
# 
# From -- ./inp_files/51264.got.cif
#   From: 2010.06.25/outbox.cif.g09.slc.cpg/sg11_26_cif.got.tgz:51264.got - 2010.06.27 23:14:04.
