data_PCOD8070427
_publ_section_title
;
Structure prediction by ZEFSAII (Michael W. Deem and Ramdas Pophale) SiO2 
 PCOD8070427
Probable space group: P 21/M
;
_chemical_formula_sum "Si O2"
_cell_formula_units_Z 32
_cell_length_a 14.211597
_cell_length_b 8.946619
_cell_length_c 27.909242
_cell_angle_alpha 90.000000
_cell_angle_beta 150.069083
_cell_angle_gamma 90.000000
_cell_volume 1770.564028
_symmetry_space_group_name_H-M "P 21/M"
_symmetry_group_IT_number 11
_symmetry_cell_setting 'monoclinic'
loop_
_space_group_symop_operation_xyz
x,y,z
-x,1/2+y,-z
-x,-y,-z
x,1/2-y,z
loop_
_atom_site_type_symbol
_atom_site_label
_atom_site_fract_x
_atom_site_fract_y
_atom_site_fract_z
Si Si1 0.737813 0.924230 0.410519
Si Si2 0.308557 0.926157 0.799887
Si Si3 0.183832 0.080986 0.099173
Si Si4 0.133586 0.573066 0.625473
Si Si5 0.670532 0.424419 0.743989
Si Si6 0.299023 0.926342 0.901171
Si Si7 0.010031 0.574036 0.853683
Si Si8 0.715276 0.581839 0.959607
O O1 0.748728 0.750000 0.403064
O O2 0.552154 0.959618 0.360649
O O3 0.917688 0.976973 0.520896
O O4 0.732397 0.008743 0.357140
O O5 0.318285 0.750000 0.796468
O O6 0.190980 0.993355 0.703187
O O7 0.222413 0.967068 0.813882
O O8 0.523201 0.986780 0.896327
O O9 0.144023 0.250000 0.100256
O O10 0.318521 0.084988 0.112261
O O11 0.280568 0.983288 0.182081
O O12 0.000000 0.000000 0.000000
O O13 0.154507 0.750000 0.633580
O O14 0.713981 0.250000 0.760302
O O15 0.798551 0.504931 0.759835
O O16 0.327149 0.750000 0.919493
O O17 0.137573 0.986234 0.866004
O O18 0.500000 0.000000 0.000000
O O19 0.989511 0.750000 0.842619
O O20 0.109827 0.522714 0.947262
O O21 0.756517 0.750000 0.996760
#
# Coordination Sequence:
#
# PCOD8070427 Si02
#       8
#     4   4   4   4   4   4   4   4
#     4   9  19  34  53  79 107 133 168 210 254 303
#     4   9  17  31  53  76  99 129 166 206 252 309
#     4  11  21  31  46  71 100 132 169 206 245 297
#     4   9  17  33  57  81 103 132 167 208 257 309
#     4  11  22  35  50  69 100 142 175 209 254 303
#     4  10  20  34  52  75 101 132 170 213 258 303
#     4  11  22  33  48  71  98 132 174 213 250 297
#     4  10  19  31  48  69  98 133 164 199 249 303
#
# _framework density 18.073336000000001
#
# number of rings (size 3 to 8) (size 9 to 14) (size 15 to 20)
#    0.000    2.000    2.500    1.875    0.000    3.000 
#    0.000    1.250    0.000    0.750    0.000    0.000 
#    0.000    0.000    0.000    0.000    0.000    0.250 
#
# Total GULP energy -396653.767424 kJ/mol
# GULP energy per Si atom -12395.430232 kJ/mol
# Density = 1.803220 g / cm^3
# Si number density = 18.073336 Si / 1000 Ang^3
#
#
#
# Elastic Constant Matrix: (Units=GPa)
#
#
# Indices 1 2 3 4 5 6 
#
# 1 120.3158 31.1650 46.5182 0.0000 13.9471 0.0000
# 2 31.1650 51.2943 26.1264 0.0000 10.1446 0.0000
# 3 46.5182 26.1264 78.8300 0.0000 8.2199 0.0000
# 4 0.0000 0.0000 0.0000 19.1272 0.0000 3.0193
# 5 13.9471 10.1446 8.2199 0.0000 31.1282 0.0000
# 6 0.0000 0.0000 0.0000 3.0193 0.0000 23.7672
#
#
#
# Elastic Compliance Matrix: (Units=1/GPa)
#
#
# Indices 1 2 3 4 5 6 
#
# 1 0.011675 -0.003867 -0.005341 0.000000 -0.002560 0.000000
# 2 -0.003867 0.025780 -0.005725 0.000000 -0.005158 0.000000
# 3 -0.005341 -0.005725 0.017780 0.000000 -0.000436 0.000000
# 4 0.000000 0.000000 0.000000 0.053351 0.000000 -0.006778
# 5 -0.002560 -0.005158 -0.000436 0.000000 0.035069 0.000000
# 6 0.000000 0.000000 0.000000 -0.006778 0.000000 0.042936
#
#
# Mechanical properties :
#
#
# Convention : Reuss Voigt Hill
#
# Bulk Modulus (GPa) = 39.41546 50.89548 45.15547
# Shear Modulus (GPa) = 22.23085 24.57988 23.40536
#
# Velocity S-wave (km/s) = 3.51099 3.69183 3.60255
# Velocity P-wave (km/s) = 6.18806 6.81135 6.50717
#
# Compressibility (1/GPa) = 0.02537076
#
# Stress axis : x y z
#
# Youngs Moduli (GPa) = 85.65457 38.78905 56.24252
#
# Poissons Ratio (x) = 0.14998 0.30039
# Poissons Ratio (y) = 0.33119 0.32198
# Poissons Ratio (z) = 0.45748 0.22206
#
# Static dielectric constant tensor:
#      x y z
#    x 3.690520 0.000000 0.056970 
#    y 0.000000 3.222670 0.000000 
#    z 0.056970 0.000000 3.291970 
# 
# 
# High freq. dielectric constant tensor:
#      x y z
#    x 1.702280 0.000000 0.012730 
#    y 0.000000 1.688840 0.000000 
#    z 0.012730 0.000000 1.679190 
# 
# From -- ./inp_files/51254.got.cif
#   From: 2010.06.25/outbox.cif.g09.slc.cpg/sg11_26_cif.got.tgz:51254.got - 2010.06.27 23:14:04.
