data_PCOD8070928
_publ_section_title
;
Structure prediction by ZEFSAII (Michael W. Deem and Ramdas Pophale) SiO2 
 PCOD8070928
Probable space group: P 21/M
;
_chemical_formula_sum "Si O2"
_cell_formula_units_Z 32
_cell_length_a 27.759829
_cell_length_b 9.165169
_cell_length_c 14.309208
_cell_angle_alpha 90.000000
_cell_angle_beta 29.995229
_cell_angle_gamma 90.000000
_cell_volume 1820.037021
_symmetry_space_group_name_H-M "P 21/M"
_symmetry_group_IT_number 11
_symmetry_cell_setting 'monoclinic'
loop_
_space_group_symop_operation_xyz
x,y,z
-x,1/2+y,-z
-x,-y,-z
x,1/2-y,z
loop_
_atom_site_type_symbol
_atom_site_label
_atom_site_fract_x
_atom_site_fract_y
_atom_site_fract_z
Si Si1 0.928472 0.078337 0.244499
Si Si2 0.685267 0.083044 0.344397
Si Si3 0.405644 0.577287 0.194179
Si Si4 0.119916 0.579509 0.882608
Si Si5 0.438763 0.083461 0.316875
Si Si6 0.347491 0.583212 0.988034
Si Si7 0.404335 0.581380 0.694034
Si Si8 0.236092 0.923515 0.346337
O O1 0.945759 0.250000 0.221141
O O2 0.874491 0.039783 0.237213
O O3 0.865349 0.023007 0.439694
O O4 0.030455 0.000377 0.080989
O O5 0.666047 0.250000 0.408047
O O6 0.785413 0.026885 0.220639
O O7 0.681623 0.070704 0.237891
O O8 0.598829 0.976939 0.521370
O O9 0.419331 0.750000 0.169716
O O10 0.386231 0.521095 0.331055
O O11 0.317148 0.522947 0.281417
O O12 0.500000 0.500000 0.000000
O O13 0.103793 0.750000 0.923902
O O14 0.406656 0.250000 0.355575
O O15 0.554091 0.070399 0.117889
O O16 0.320165 0.750000 0.015458
O O17 0.262533 0.514594 0.197349
O O18 0.361450 0.509850 0.862316
O O19 0.500000 0.500000 0.500000
O O20 0.433687 0.750000 0.663060
O O21 0.237908 0.750000 0.338978
#
# Coordination Sequence:
#
# PCOD8070928 Si02
#       8
#     4   4   4   4   4   4   4   4
#     4   9  17  31  53  74  92 124 166 203 244 298
#     4  10  20  33  51  74  99 132 167 204 256 308
#     4  11  20  31  46  68 100 136 169 202 241 295
#     4   9  18  33  50  72 101 126 156 205 257 303
#     4  11  20  31  47  70 100 134 168 206 247 290
#     4   9  17  30  47  69  97 129 164 201 242 289
#     4  10  19  32  51  73  98 130 170 209 249 296
#     4   9  17  31  50  69  96 132 166 201 245 295
#
# _framework density 17.582059999999998
#
# number of rings (size 3 to 8) (size 9 to 14) (size 15 to 20)
#    0.000    2.250    2.500    1.500    0.000    2.500 
#    0.000    3.750    0.000    0.750    0.000    0.000 
#    0.000    0.000    0.000    0.000    0.000    0.000 
#
# Total GULP energy -396556.005003 kJ/mol
# GULP energy per Si atom -12392.375156 kJ/mol
# Density = 1.754204 g / cm^3
# Si number density = 17.582060 Si / 1000 Ang^3
#
#
#
# Elastic Constant Matrix: (Units=GPa)
#
#
# Indices 1 2 3 4 5 6 
#
# 1 79.9732 17.0196 44.2632 0.0000 16.7008 0.0000
# 2 17.0196 40.8545 26.3276 0.0000 3.2211 0.0000
# 3 44.2632 26.3276 126.9989 0.0000 24.0603 0.0000
# 4 0.0000 0.0000 0.0000 26.2929 0.0000 0.7136
# 5 16.7008 3.2211 24.0603 0.0000 31.1795 0.0000
# 6 0.0000 0.0000 0.0000 0.7136 0.0000 17.5894
#
#
#
# Elastic Compliance Matrix: (Units=1/GPa)
#
#
# Indices 1 2 3 4 5 6 
#
# 1 0.016680 -0.003969 -0.003954 0.000000 -0.005473 0.000000
# 2 -0.003969 0.029290 -0.005292 0.000000 0.003184 0.000000
# 3 -0.003954 -0.005292 0.011530 0.000000 -0.006233 0.000000
# 4 0.000000 0.000000 0.000000 0.038075 0.000000 -0.001545
# 5 -0.005473 0.003184 -0.006233 0.000000 0.039485 0.000000
# 6 0.000000 0.000000 0.000000 -0.001545 0.000000 0.056915
#
#
# Mechanical properties :
#
#
# Convention : Reuss Voigt Hill
#
# Bulk Modulus (GPa) = 32.18500 47.00527 39.59514
# Shear Modulus (GPa) = 21.85683 25.69344 23.77513
#
# Velocity S-wave (km/s) = 3.52963 3.82690 3.68127
# Velocity P-wave (km/s) = 5.91240 6.80586 6.37480
#
# Compressibility (1/GPa) = 0.03107037
#
# Stress axis : x y z
#
# Youngs Moduli (GPa) = 59.95108 34.14158 86.73081
#
# Poissons Ratio (x) = 0.13552 0.34291
# Poissons Ratio (y) = 0.23797 0.45895
# Poissons Ratio (z) = 0.23703 0.18066
#
# Static dielectric constant tensor:
#      x y z
#    x 3.650660 0.000000 0.502000 
#    y 0.000000 3.086610 0.000000 
#    z 0.502000 0.000000 3.625210 
# 
# 
# High freq. dielectric constant tensor:
#      x y z
#    x 1.671330 0.000000 0.018920 
#    y 0.000000 1.654390 0.000000 
#    z 0.018920 0.000000 1.672900 
# 
# From -- ./inp_files/56162.got.cif
#   From: 2010.06.25/outbox.cif.g09.slc.cpg/sg11_29_cif.got.tgz:56162.got - 2010.06.27 23:14:04.
