data_PCOD8070041
_publ_section_title
;
Structure prediction by ZEFSAII (Michael W. Deem and Ramdas Pophale) SiO2 
 PCOD8070041
Probable space group: P 21/M
;
_chemical_formula_sum "Si O2"
_cell_formula_units_Z 24
_cell_length_a 14.991734
_cell_length_b 9.022487
_cell_length_c 14.282507
_cell_angle_alpha 90.000000
_cell_angle_beta 48.646581
_cell_angle_gamma 90.000000
_cell_volume 1450.170873
_symmetry_space_group_name_H-M "P 21/M"
_symmetry_group_IT_number 11
_symmetry_cell_setting 'monoclinic'
loop_
_space_group_symop_operation_xyz
x,y,z
-x,1/2+y,-z
-x,-y,-z
x,1/2-y,z
loop_
_atom_site_type_symbol
_atom_site_label
_atom_site_fract_x
_atom_site_fract_y
_atom_site_fract_z
Si Si1 0.255670 0.420090 0.922308
Si Si2 0.667569 0.422784 0.818814
Si Si3 0.556540 0.078107 0.095764
Si Si4 0.083144 0.074431 0.366609
Si Si5 0.023051 0.077625 0.199510
Si Si6 0.095955 0.078982 0.870049
O O1 0.289136 0.250000 0.920906
O O2 0.367738 0.523324 0.867747
O O3 0.222863 0.440997 0.834744
O O4 0.145259 0.468614 0.063997
O O5 0.686343 0.250000 0.784957
O O6 0.564475 0.484900 0.823287
O O7 0.785587 0.511248 0.712338
O O8 0.633874 0.452767 0.949637
O O9 0.524716 0.250000 0.128911
O O10 0.087279 0.250000 0.377677
O O11 0.030148 0.030913 0.302419
O O12 0.000000 0.000000 0.500000
O O13 0.998633 0.250000 0.203668
O O14 0.911151 0.992746 0.228729
O O15 0.062256 0.250000 0.885619
O O16 0.000000 0.000000 0.000000
#
# Coordination Sequence:
#
# PCOD8070041 Si02
#       6
#     4   4   4   4   4   4
#     4   9  16  28  44  67  97 128 157 192 240 287
#     4  10  20  33  48  69  96 128 164 200 243 289
#     4  10  19  29  47  72  97 128 161 197 241 290
#     4  11  22  36  52  71  97 129 168 207 244 286
#     4   9  18  31  46  65  94 128 160 200 242 282
#     4   9  17  27  42  65  94 126 159 194 237 288
#
# _framework density 16.549773999999999
#
# number of rings (size 3 to 8) (size 9 to 14) (size 15 to 20)
#    0.000    2.333    1.667    3.000    0.000    6.000 
#    0.000    0.000    0.000    0.000    0.000    1.167 
#    0.000    0.000    0.000    0.000    0.000    0.000 
#
# Total GULP energy -297549.904975 kJ/mol
# GULP energy per Si atom -12397.912707 kJ/mol
# Density = 1.651211 g / cm^3
# Si number density = 16.549774 Si / 1000 Ang^3
#
#
#
# Elastic Constant Matrix: (Units=GPa)
#
#
# Indices 1 2 3 4 5 6 
#
# 1 144.3607 66.4154 46.3333 0.0000 0.8920 0.0000
# 2 66.4154 85.5283 37.0939 0.0000 -2.6137 0.0000
# 3 46.3333 37.0939 63.6799 0.0000 -0.5200 0.0000
# 4 0.0000 0.0000 0.0000 22.3982 0.0000 -2.3000
# 5 0.8920 -2.6137 -0.5200 0.0000 15.8919 0.0000
# 6 0.0000 0.0000 0.0000 -2.3000 0.0000 36.7707
#
#
#
# Elastic Compliance Matrix: (Units=1/GPa)
#
#
# Indices 1 2 3 4 5 6 
#
# 1 0.011645 -0.007255 -0.004263 0.000000 -0.001986 0.000000
# 2 -0.007255 0.020246 -0.006486 0.000000 0.003525 0.000000
# 3 -0.004263 -0.006486 0.022583 0.000000 -0.000089 0.000000
# 4 0.000000 0.000000 0.000000 0.044935 0.000000 0.002811
# 5 -0.001986 0.003525 -0.000089 0.000000 0.063614 0.000000
# 6 0.000000 0.000000 0.000000 0.002811 0.000000 0.027371
#
#
# Mechanical properties :
#
#
# Convention : Reuss Voigt Hill
#
# Bulk Modulus (GPa) = 54.15358 65.91710 60.03534
# Shear Modulus (GPa) = 21.49990 24.59391 23.04690
#
# Velocity S-wave (km/s) = 3.60822 3.85912 3.73578
# Velocity P-wave (km/s) = 7.08179 7.73131 7.41367
#
# Compressibility (1/GPa) = 0.01846600
#
# Stress axis : x y z
#
# Youngs Moduli (GPa) = 85.87130 49.39163 44.28048
#
# Poissons Ratio (x) = 0.35832 0.18879
# Poissons Ratio (y) = 0.62296 0.28722
# Poissons Ratio (z) = 0.36611 0.32038
#
# Static dielectric constant tensor:
#      x y z
#    x 3.277850 0.000000 -0.095840 
#    y 0.000000 3.285870 0.000000 
#    z -0.095840 0.000000 2.762060 
# 
# 
# High freq. dielectric constant tensor:
#      x y z
#    x 1.653680 0.000000 -0.000490 
#    y 0.000000 1.651850 0.000000 
#    z -0.000490 0.000000 1.572900 
# 
# From -- ./inp_files/36969.got.cif
#   From: 2010.06.25/outbox.cif.g09.slc.cpg/sg11_19_cif.got.tgz:36969.got - 2010.06.27 23:14:04.
