data_PCOD8070188
_publ_section_title
;
Structure prediction by ZEFSAII (Michael W. Deem and Ramdas Pophale) SiO2 
 PCOD8070188
Probable space group: P 21/M
;
_chemical_formula_sum "Si O2"
_cell_formula_units_Z 32
_cell_length_a 14.985736
_cell_length_b 9.174794
_cell_length_c 22.753508
_cell_angle_alpha 90.000000
_cell_angle_beta 32.227435
_cell_angle_gamma 90.000000
_cell_volume 1668.319391
_symmetry_space_group_name_H-M "P 21/M"
_symmetry_group_IT_number 11
_symmetry_cell_setting 'monoclinic'
loop_
_space_group_symop_operation_xyz
x,y,z
-x,1/2+y,-z
-x,-y,-z
x,1/2-y,z
loop_
_atom_site_type_symbol
_atom_site_label
_atom_site_fract_x
_atom_site_fract_y
_atom_site_fract_z
Si Si1 0.764337 0.587524 0.493178
Si Si2 0.873501 0.916873 0.111552
Si Si3 0.273534 0.085466 0.215987
Si Si4 0.423478 0.917822 0.881498
Si Si5 0.507767 0.576164 0.276072
Si Si6 0.059593 0.581510 0.124421
Si Si7 0.000400 0.922406 0.722763
Si Si8 0.064765 0.593877 0.412512
O O1 0.696962 0.750000 0.511912
O O2 0.627659 0.496325 0.605309
O O3 0.835642 0.495865 0.398055
O O4 0.922715 0.614830 0.444613
O O5 0.895322 0.750000 0.082063
O O6 0.685148 0.968646 0.205229
O O7 0.916174 0.943006 0.156015
O O8 0.000000 0.000000 0.000000
O O9 0.215884 0.250000 0.260861
O O10 0.474897 0.069181 0.111978
O O11 0.179405 0.036946 0.208492
O O12 0.222240 0.985714 0.298333
O O13 0.425264 0.750000 0.859168
O O14 0.502206 0.013214 0.784655
O O15 0.236131 0.970973 0.999013
O O16 0.479569 0.750000 0.290237
O O17 0.070697 0.750000 0.138429
O O18 0.011698 0.480213 0.204995
O O19 0.029505 0.750000 0.706972
O O20 0.125063 0.750000 0.403247
O O21 0.000000 0.500000 0.500000
#
# Coordination Sequence:
#
# PCOD8070188 Si02
#       8
#     4   4   4   4   4   4   4   4
#     4  10  21  37  56  78 108 149 190 226 275 337
#     4  10  21  38  60  86 115 146 181 225 279 336
#     4   9  19  34  51  75 108 146 186 228 272 322
#     4  10  20  35  56  82 114 152 190 226 276 337
#     4  11  22  35  56  88 119 143 180 235 285 328
#     4  10  21  38  59  82 111 149 188 227 275 337
#     4  10  21  38  58  81 112 148 190 237 278 320
#     4  10  19  30  47  72 103 142 185 227 273 326
#
# _framework density 19.180979000000001
#
# number of rings (size 3 to 8) (size 9 to 14) (size 15 to 20)
#    0.000    2.000    1.250    2.250    0.000    7.500 
#    0.000    0.625    0.000    0.000    0.000    0.000 
#    0.000    0.000    0.000    0.000    0.000    0.000 
#
# Total GULP energy -396510.159270 kJ/mol
# GULP energy per Si atom -12390.942477 kJ/mol
# Density = 1.913732 g / cm^3
# Si number density = 19.180979 Si / 1000 Ang^3
#
#
#
# Elastic Constant Matrix: (Units=GPa)
#
#
# Indices 1 2 3 4 5 6 
#
# 1 79.8235 23.7289 34.4633 0.0000 4.8797 0.0000
# 2 23.7289 81.0407 32.2568 0.0000 16.0212 0.0000
# 3 34.4633 32.2568 92.3337 0.0000 5.4794 0.0000
# 4 0.0000 0.0000 0.0000 28.3039 0.0000 3.6660
# 5 4.8797 16.0212 5.4794 0.0000 27.8609 0.0000
# 6 0.0000 0.0000 0.0000 3.6660 0.0000 26.4627
#
#
#
# Elastic Compliance Matrix: (Units=1/GPa)
#
#
# Indices 1 2 3 4 5 6 
#
# 1 0.015386 -0.002518 -0.004846 0.000000 -0.000294 0.000000
# 2 -0.002518 0.016401 -0.004306 0.000000 -0.008143 0.000000
# 3 -0.004846 -0.004306 0.014111 0.000000 0.000550 0.000000
# 4 0.000000 0.000000 0.000000 0.035976 0.000000 -0.004984
# 5 -0.000294 -0.008143 0.000550 0.000000 0.040518 0.000000
# 6 0.000000 0.000000 0.000000 -0.004984 0.000000 0.038479
#
#
# Mechanical properties :
#
#
# Convention : Reuss Voigt Hill
#
# Bulk Modulus (GPa) = 44.33227 48.23287 46.28257
# Shear Modulus (GPa) = 26.07807 27.37544 26.72676
#
# Velocity S-wave (km/s) = 3.69125 3.78195 3.73688
# Velocity P-wave (km/s) = 6.42883 6.65370 6.54223
#
# Compressibility (1/GPa) = 0.02255693
#
# Stress axis : x y z
#
# Youngs Moduli (GPa) = 64.99289 60.97268 70.86803
#
# Poissons Ratio (x) = 0.15355 0.34340
# Poissons Ratio (y) = 0.16367 0.30519
# Poissons Ratio (z) = 0.31493 0.26257
#
# Static dielectric constant tensor:
#      x y z
#    x 3.516320 0.000000 -0.252070 
#    y 0.000000 3.887590 0.000000 
#    z -0.252070 0.000000 3.438450 
# 
# 
# High freq. dielectric constant tensor:
#      x y z
#    x 1.740080 0.000000 -0.009430 
#    y 0.000000 1.757050 0.000000 
#    z -0.009430 0.000000 1.736210 
# 
# From -- ./inp_files/68973.got.cif
#   From: 2010.06.25/outbox.cif.g09.slc.cpg/sg11_35_cif.got.tgz:68973.got - 2010.06.27 23:14:04.
