data_PCOD8070492
_publ_section_title
;
Structure prediction by ZEFSAII (Michael W. Deem and Ramdas Pophale) SiO2 
 PCOD8070492
Probable space group: P 21/M
;
_chemical_formula_sum "Si O2"
_cell_formula_units_Z 28
_cell_length_a 15.462531
_cell_length_b 8.779325
_cell_length_c 23.701071
_cell_angle_alpha 90.000000
_cell_angle_beta 26.938535
_cell_angle_gamma 90.000000
_cell_volume 1457.608385
_symmetry_space_group_name_H-M "P 21/M"
_symmetry_group_IT_number 11
_symmetry_cell_setting 'monoclinic'
loop_
_space_group_symop_operation_xyz
x,y,z
-x,1/2+y,-z
-x,-y,-z
x,1/2-y,z
loop_
_atom_site_type_symbol
_atom_site_label
_atom_site_fract_x
_atom_site_fract_y
_atom_site_fract_z
Si Si1 0.184454 0.426551 0.820073
Si Si2 0.772626 0.575895 0.766264
Si Si3 0.794177 0.924554 0.064757
Si Si4 0.496547 0.929168 0.563636
Si Si5 0.222021 0.569769 0.124351
Si Si6 0.124224 0.574247 0.627400
Si Si7 0.462791 0.425406 0.887205
O O1 0.212565 0.250000 0.788750
O O2 0.302544 0.526934 0.707687
O O3 0.962205 0.468589 0.943719
O O4 0.257229 0.465066 0.840939
O O5 0.708478 0.750000 0.797909
O O6 0.678215 0.507001 0.878563
O O7 0.682465 0.483274 0.765961
O O8 0.003988 0.560669 0.637882
O O9 0.864643 0.750000 0.019700
O O10 0.604730 0.952195 0.137717
O O11 0.511792 0.750000 0.549461
O O12 0.500000 0.000000 0.500000
O O13 0.673959 0.992098 0.497044
O O14 0.219136 0.750000 0.132969
O O15 0.002406 0.506414 0.249715
O O16 0.328902 0.524203 0.005562
O O17 0.156224 0.750000 0.625386
O O18 0.447347 0.250000 0.913439
#
# Coordination Sequence:
#
# PCOD8070492 Si02
#       7
#     4   4   4   4   4   4   4
#     4  10  21  40  62  83 113 149 188 234 284 336
#     4   9  19  33  50  74 109 147 185 230 282 334
#     4   9  21  39  59  84 113 150 190 233 283 333
#     4  12  25  40  61  87 115 148 188 232 280 338
#     4  10  19  31  48  73 109 148 185 224 276 333
#     4   9  20  37  54  76 110 146 182 226 277 329
#     4  11  20  31  51  78 110 145 187 233 277 332
#
# _framework density 19.209548000000002
#
# number of rings (size 3 to 8) (size 9 to 14) (size 15 to 20)
#    0.857    1.143    0.000    4.286    2.000    1.714 
#    0.000    0.000    0.000    0.857    0.000    0.000 
#    0.000    0.000    0.000    0.000    0.000    0.000 
#
# Total GULP energy -347046.055815 kJ/mol
# GULP energy per Si atom -12394.501993 kJ/mol
# Density = 1.916583 g / cm^3
# Si number density = 19.209548 Si / 1000 Ang^3
#
#
#
# Elastic Constant Matrix: (Units=GPa)
#
#
# Indices 1 2 3 4 5 6 
#
# 1 106.7571 53.2549 34.7415 0.0000 -5.9970 0.0000
# 2 53.2549 121.1317 27.9094 0.0000 -4.8700 0.0000
# 3 34.7415 27.9094 58.6115 0.0000 -3.6467 0.0000
# 4 0.0000 0.0000 0.0000 29.4170 0.0000 -6.4932
# 5 -5.9970 -4.8700 -3.6467 0.0000 21.1286 0.0000
# 6 0.0000 0.0000 0.0000 -6.4932 0.0000 29.1696
#
#
#
# Elastic Compliance Matrix: (Units=1/GPa)
#
#
# Indices 1 2 3 4 5 6 
#
# 1 0.013643 -0.004592 -0.005787 0.000000 0.001815 0.000000
# 2 -0.004592 0.010859 -0.002400 0.000000 0.000785 0.000000
# 3 -0.005787 -0.002400 0.021732 0.000000 0.001555 0.000000
# 4 0.000000 0.000000 0.000000 0.035751 0.000000 0.007958
# 5 0.001815 0.000785 0.001555 0.000000 0.048294 0.000000
# 6 0.000000 0.000000 0.000000 0.007958 0.000000 0.036054
#
#
# Mechanical properties :
#
#
# Convention : Reuss Voigt Hill
#
# Bulk Modulus (GPa) = 48.36784 57.59021 52.97903
# Shear Modulus (GPa) = 25.15332 27.31602 26.23467
#
# Velocity S-wave (km/s) = 3.62251 3.77504 3.69956
# Velocity P-wave (km/s) = 6.53686 7.00330 6.77410
#
# Compressibility (1/GPa) = 0.02067489
#
# Stress axis : x y z
#
# Youngs Moduli (GPa) = 73.29849 92.09174 46.01607
#
# Poissons Ratio (x) = 0.42285 0.26631
# Poissons Ratio (y) = 0.33656 0.11045
# Poissons Ratio (z) = 0.42420 0.22104
#
# Static dielectric constant tensor:
#      x y z
#    x 3.669710 0.000000 -0.211240 
#    y 0.000000 3.619480 0.000000 
#    z -0.211240 0.000000 3.141720 
# 
# 
# High freq. dielectric constant tensor:
#      x y z
#    x 1.747270 0.000000 -0.021910 
#    y 0.000000 1.763390 0.000000 
#    z -0.021910 0.000000 1.705390 
# 
# From -- ./inp_files/65383.got.cif
#   From: 2010.06.25/outbox.cif.g09.slc.cpg/sg11_33_cif.got.tgz:65383.got - 2010.06.27 23:14:04.
