data_PCOD8070717
_publ_section_title
;
Structure prediction by ZEFSAII (Michael W. Deem and Ramdas Pophale) SiO2 
 PCOD8070717
Probable space group: P 21/M
;
_chemical_formula_sum "Si O2"
_cell_formula_units_Z 32
_cell_length_a 19.540117
_cell_length_b 8.980632
_cell_length_c 14.158851
_cell_angle_alpha 90.000000
_cell_angle_beta 47.109315
_cell_angle_gamma 90.000000
_cell_volume 1820.374468
_symmetry_space_group_name_H-M "P 21/M"
_symmetry_group_IT_number 11
_symmetry_cell_setting 'monoclinic'
loop_
_space_group_symop_operation_xyz
x,y,z
-x,1/2+y,-z
-x,-y,-z
x,1/2-y,z
loop_
_atom_site_type_symbol
_atom_site_label
_atom_site_fract_x
_atom_site_fract_y
_atom_site_fract_z
Si Si1 0.479012 0.422675 0.617969
Si Si2 0.801644 0.573113 0.540192
Si Si3 0.144333 0.576232 0.130108
Si Si4 0.280149 0.423226 0.871321
Si Si5 0.049487 0.075953 0.753383
Si Si6 0.795603 0.576850 0.257021
Si Si7 0.900696 0.074768 0.612636
Si Si8 0.671805 0.077120 0.524962
O O1 0.500000 0.500000 0.500000
O O2 0.465388 0.250000 0.606807
O O3 0.383637 0.486595 0.753145
O O4 0.561283 0.448993 0.616232
O O5 0.796679 0.750000 0.557138
O O6 0.820505 0.495747 0.622410
O O7 0.704723 0.514009 0.586458
O O8 0.884008 0.518816 0.393108
O O9 0.154338 0.750000 0.102011
O O10 0.053949 0.506792 0.159531
O O11 0.132832 0.539595 0.250549
O O12 0.237903 0.501032 0.003047
O O13 0.285094 0.250000 0.888724
O O14 0.212890 0.458582 0.845329
O O15 0.037407 0.250000 0.749643
O O16 0.098883 0.037203 0.807087
O O17 0.773847 0.750000 0.299783
O O18 0.721003 0.479759 0.383585
O O19 0.910523 0.250000 0.585258
O O20 0.000000 0.000000 0.500000
O O21 0.695934 0.250000 0.516260
#
# Coordination Sequence:
#
# PCOD8070717 Si02
#       8
#     4   4   4   4   4   4   4   4
#     4  10  20  34  54  79 108 139 178 224 270 314
#     4  10  19  34  55  79 108 140 173 218 271 320
#     4  10  21  36  51  73 107 144 178 218 265 314
#     4  10  21  35  50  75 107 143 183 222 264 313
#     4   8  15  30  49  71 102 139 173 207 253 305
#     4   9  17  31  51  72 104 144 178 214 257 309
#     4  11  21  35  56  82 109 139 180 224 268 316
#     4  10  19  31  51  81 109 135 173 222 269 317
#
# _framework density 17.578800000000001
#
# number of rings (size 3 to 8) (size 9 to 14) (size 15 to 20)
#    0.000    2.250    2.500    1.875    0.000    3.000 
#    0.000    0.625    0.000    0.750    0.000    0.000 
#    0.000    0.000    0.000    0.000    0.000    0.000 
#
# Total GULP energy -396729.823904 kJ/mol
# GULP energy per Si atom -12397.806997 kJ/mol
# Density = 1.753879 g / cm^3
# Si number density = 17.578800 Si / 1000 Ang^3
#
#
#
# Elastic Constant Matrix: (Units=GPa)
#
#
# Indices 1 2 3 4 5 6 
#
# 1 111.0678 48.6751 62.0671 0.0000 -2.5504 0.0000
# 2 48.6751 67.7802 48.4584 0.0000 4.3322 0.0000
# 3 62.0671 48.4584 113.8482 0.0000 -6.5785 0.0000
# 4 0.0000 0.0000 0.0000 26.6640 0.0000 1.3777
# 5 -2.5504 4.3322 -6.5785 0.0000 21.3978 0.0000
# 6 0.0000 0.0000 0.0000 1.3777 0.0000 27.1192
#
#
#
# Elastic Compliance Matrix: (Units=1/GPa)
#
#
# Indices 1 2 3 4 5 6 
#
# 1 0.015048 -0.007369 -0.004966 0.000000 0.001759 0.000000
# 2 -0.007369 0.025963 -0.007522 0.000000 -0.008447 0.000000
# 3 -0.004966 -0.007522 0.015013 0.000000 0.005546 0.000000
# 4 0.000000 0.000000 0.000000 0.037602 0.000000 -0.001910
# 5 0.001759 -0.008447 0.005546 0.000000 0.050359 0.000000
# 6 0.000000 0.000000 0.000000 -0.001910 0.000000 0.036971
#
#
# Mechanical properties :
#
#
# Convention : Reuss Voigt Hill
#
# Bulk Modulus (GPa) = 61.30698 67.89971 64.60335
# Shear Modulus (GPa) = 22.11353 23.93591 23.02472
#
# Velocity S-wave (km/s) = 3.55063 3.69404 3.62304
# Velocity P-wave (km/s) = 7.19448 7.54349 7.37105
#
# Compressibility (1/GPa) = 0.01631136
#
# Stress axis : x y z
#
# Youngs Moduli (GPa) = 66.45284 38.51680 66.60957
#
# Poissons Ratio (x) = 0.28382 0.33077
# Poissons Ratio (y) = 0.48968 0.50101
# Poissons Ratio (z) = 0.32999 0.28971
#
# Static dielectric constant tensor:
#      x y z
#    x 3.584640 0.000000 -0.121610 
#    y 0.000000 3.173830 0.000000 
#    z -0.121610 0.000000 3.081330 
# 
# 
# High freq. dielectric constant tensor:
#      x y z
#    x 1.689600 0.000000 -0.004300 
#    y 0.000000 1.672570 0.000000 
#    z -0.004300 0.000000 1.650180 
# 
# From -- ./inp_files/54271.got.cif
#   From: 2010.06.25/outbox.cif.g09.slc.cpg/sg11_28_cif.got.tgz:54271.got - 2010.06.27 23:14:04.
