data_PCOD8070724
_publ_section_title
;
Structure prediction by ZEFSAII (Michael W. Deem and Ramdas Pophale) SiO2 
 PCOD8070724
Probable space group: P 21/M
;
_chemical_formula_sum "Si O2"
_cell_formula_units_Z 28
_cell_length_a 19.001465
_cell_length_b 9.025867
_cell_length_c 14.283190
_cell_angle_alpha 90.000000
_cell_angle_beta 138.800040
_cell_angle_gamma 90.000000
_cell_volume 1613.546914
_symmetry_space_group_name_H-M "P 21/M"
_symmetry_group_IT_number 11
_symmetry_cell_setting 'monoclinic'
loop_
_space_group_symop_operation_xyz
x,y,z
-x,1/2+y,-z
-x,-y,-z
x,1/2-y,z
loop_
_atom_site_type_symbol
_atom_site_label
_atom_site_fract_x
_atom_site_fract_y
_atom_site_fract_z
Si Si1 0.794884 0.925116 0.575143
Si Si2 0.884281 0.420528 0.493232
Si Si3 0.377377 0.421829 0.284301
Si Si4 0.998882 0.576192 0.899182
Si Si5 0.102955 0.581290 0.703949
Si Si6 0.375104 0.577533 0.472667
Si Si7 0.210341 0.920504 0.999210
O O1 0.782356 0.750000 0.561540
O O2 0.896013 0.977560 0.737885
O O3 0.807955 0.982410 0.482383
O O4 0.687675 0.996649 0.507900
O O5 0.875664 0.250000 0.514757
O O6 0.846664 0.444714 0.348203
O O7 0.006535 0.470055 0.626473
O O8 0.355836 0.250000 0.281945
O O9 0.339321 0.510895 0.337480
O O10 0.500473 0.452964 0.384300
O O11 0.308712 0.477259 0.127899
O O12 0.993772 0.750000 0.910368
O O13 0.103671 0.529802 0.946739
O O14 0.000000 0.500000 0.000000
O O15 0.058833 0.750000 0.669373
O O16 0.194312 0.553135 0.872372
O O17 0.346873 0.750000 0.444052
O O18 0.237857 0.750000 0.048553
#
# Coordination Sequence:
#
# PCOD8070724 Si02
#       7
#     4   4   4   4   4   4   4
#     4  11  21  35  53  75 106 138 172 214 259 309
#     4  10  19  31  52  78 104 137 174 213 258 309
#     4  10  21  36  54  78 105 134 174 220 259 303
#     4  10  21  33  46  69 103 137 165 203 250 301
#     4   9  18  34  52  74 105 138 175 215 255 305
#     4  10  21  37  55  76 103 136 177 218 257 305
#     4  10  19  34  53  73 103 140 173 210 257 307
#
# _framework density 17.353076000000001
#
# number of rings (size 3 to 8) (size 9 to 14) (size 15 to 20)
#    0.000    2.000    1.429    2.571    0.000    6.857 
#    0.000    0.000    0.000    0.857    0.000    0.000 
#    0.000    0.000    0.000    0.000    0.000    0.000 
#
# Total GULP energy -347310.025827 kJ/mol
# GULP energy per Si atom -12403.929494 kJ/mol
# Density = 1.731358 g / cm^3
# Si number density = 17.353076 Si / 1000 Ang^3
#
#
#
# Elastic Constant Matrix: (Units=GPa)
#
#
# Indices 1 2 3 4 5 6 
#
# 1 115.2429 57.1029 51.9888 0.0000 -13.8730 0.0000
# 2 57.1029 84.2901 44.7251 0.0000 -3.2953 0.0000
# 3 51.9888 44.7251 91.6537 0.0000 -12.2757 0.0000
# 4 0.0000 0.0000 0.0000 28.9425 0.0000 -0.3392
# 5 -13.8730 -3.2953 -12.2757 0.0000 23.8812 0.0000
# 6 0.0000 0.0000 0.0000 -0.3392 0.0000 32.1455
#
#
#
# Elastic Compliance Matrix: (Units=1/GPa)
#
#
# Indices 1 2 3 4 5 6 
#
# 1 0.015030 -0.007878 -0.003928 0.000000 0.005625 0.000000
# 2 -0.007878 0.020223 -0.006056 0.000000 -0.004899 0.000000
# 3 -0.003928 -0.006056 0.016835 0.000000 0.005536 0.000000
# 4 0.000000 0.000000 0.000000 0.034556 0.000000 0.000365
# 5 0.005625 -0.004899 0.005536 0.000000 0.047312 0.000000
# 6 0.000000 0.000000 0.000000 0.000365 0.000000 0.031112
#
#
# Mechanical properties :
#
#
# Convention : Reuss Voigt Hill
#
# Bulk Modulus (GPa) = 61.10702 66.53560 63.82131
# Shear Modulus (GPa) = 24.24305 26.15185 25.19745
#
# Velocity S-wave (km/s) = 3.74176 3.88628 3.81471
# Velocity P-wave (km/s) = 7.34562 7.65265 7.50070
#
# Compressibility (1/GPa) = 0.01636473
#
# Stress axis : x y z
#
# Youngs Moduli (GPa) = 66.53370 49.44987 59.39989
#
# Poissons Ratio (x) = 0.38957 0.23330
# Poissons Ratio (y) = 0.52416 0.35970
# Poissons Ratio (z) = 0.26132 0.29945
#
# Static dielectric constant tensor:
#      x y z
#    x 3.243140 0.000000 -0.146630 
#    y 0.000000 3.298690 0.000000 
#    z -0.146630 0.000000 3.174330 
# 
# 
# High freq. dielectric constant tensor:
#      x y z
#    x 1.665090 0.000000 -0.012440 
#    y 0.000000 1.680010 0.000000 
#    z -0.012440 0.000000 1.656310 
# 
# From -- ./inp_files/53192.got.cif
#   From: 2010.06.25/outbox.cif.g09.slc.cpg/sg11_27_cif.got.tgz:53192.got - 2010.06.27 23:14:04.
