data_PCOD8070909
_publ_section_title
;
Structure prediction by ZEFSAII (Michael W. Deem and Ramdas Pophale) SiO2 
 PCOD8070909
Probable space group: P 21/M
;
_chemical_formula_sum "Si O2"
_cell_formula_units_Z 32
_cell_length_a 16.251359
_cell_length_b 20.710348
_cell_length_c 16.251331
_cell_angle_alpha 90.000000
_cell_angle_beta 161.626008
_cell_angle_gamma 90.000000
_cell_volume 1724.159420
_symmetry_space_group_name_H-M "P 21/M"
_symmetry_group_IT_number 11
_symmetry_cell_setting 'monoclinic'
loop_
_space_group_symop_operation_xyz
x,y,z
-x,1/2+y,-z
-x,-y,-z
x,1/2-y,z
loop_
_atom_site_type_symbol
_atom_site_label
_atom_site_fract_x
_atom_site_fract_y
_atom_site_fract_z
Si Si1 0.219993 0.173250 0.779986
Si Si2 0.944544 0.096953 0.055513
Si Si3 0.422704 0.629518 0.577273
Si Si4 0.671019 0.326702 0.328958
Si Si5 0.970390 0.824483 0.029568
Si Si6 0.138130 0.826530 0.861843
Si Si7 0.313833 0.172993 0.686191
Si Si8 0.451513 0.486413 0.548535
O O1 0.221808 0.250000 0.778177
O O2 0.447185 0.148061 0.055308
O O3 0.266893 0.145350 0.733126
O O4 0.944653 0.148063 0.552764
O O5 0.989188 0.130887 0.010915
O O6 0.909416 0.151266 0.090598
O O7 0.187992 0.053102 0.310424
O O8 0.689646 0.053099 0.812066
O O9 0.374118 0.642806 0.625849
O O10 0.692836 0.661193 0.806293
O O11 0.426837 0.552902 0.573249
O O12 0.193619 0.661168 0.307084
O O13 0.666793 0.250000 0.333197
O O14 0.984288 0.750000 0.015772
O O15 0.137600 0.750000 0.862388
O O16 0.912675 0.853445 0.588238
O O17 0.411734 0.853445 0.087295
O O18 0.313034 0.250000 0.687000
O O19 0.500000 0.500000 0.500000
#
# Coordination Sequence:
#
# PCOD8070909 Si02
#       8
#     4   4   4   4   4   4   4   4
#     4   9  17  30  51  78 111 146 175 212 270 339
#     4  12  23  39  59  82 109 148 189 233 280 317
#     4  12  24  38  57  81 111 151 189 232 276 318
#     4  10  19  32  50  79 112 138 176 224 272 329
#     4  12  23  37  57  82 114 146 179 220 287 346
#     4  10  20  34  54  85 118 142 178 230 281 339
#     4   9  17  31  52  80 114 147 175 213 275 342
#     4  12  23  42  60  78 105 150 202 242 264 316
#
# _framework density 18.559767999999998
#
# number of rings (size 3 to 8) (size 9 to 14) (size 15 to 20)
#    0.000    1.250    2.500    4.875    0.000    4.000 
#    0.000    3.750    0.000    0.000    0.000   17.500 
#    0.000    0.000    0.000    0.000    0.000    0.000 
#
# Total GULP energy -396922.024574 kJ/mol
# GULP energy per Si atom -12403.813268 kJ/mol
# Density = 1.851753 g / cm^3
# Si number density = 18.559768 Si / 1000 Ang^3
#
#
#
# Elastic Constant Matrix: (Units=GPa)
#
#
# Indices 1 2 3 4 5 6 
#
# 1 135.3160 8.5263 57.3777 0.0000 1.7918 0.0000
# 2 8.5263 54.3260 28.0800 0.0000 3.5539 0.0000
# 3 57.3777 28.0800 178.4276 0.0000 6.0321 0.0000
# 4 0.0000 0.0000 0.0000 31.7043 0.0000 3.9406
# 5 1.7918 3.5539 6.0321 0.0000 44.6542 0.0000
# 6 0.0000 0.0000 0.0000 3.9406 0.0000 10.2030
#
#
#
# Elastic Compliance Matrix: (Units=1/GPa)
#
#
# Indices 1 2 3 4 5 6 
#
# 1 0.008557 0.000085 -0.002766 0.000000 0.000023 0.000000
# 2 0.000085 0.020100 -0.003151 0.000000 -0.001177 0.000000
# 3 -0.002766 -0.003151 0.007010 0.000000 -0.000585 0.000000
# 4 0.000000 0.000000 0.000000 0.033132 0.000000 -0.012796
# 5 0.000023 -0.001177 -0.000585 0.000000 0.022566 0.000000
# 6 0.000000 0.000000 0.000000 -0.012796 0.000000 0.102953
#
#
# Mechanical properties :
#
#
# Convention : Reuss Voigt Hill
#
# Bulk Modulus (GPa) = 41.66096 61.78195 51.72146
# Shear Modulus (GPa) = 23.36649 35.58466 29.47557
#
# Velocity S-wave (km/s) = 3.55207 4.38345 3.98948
# Velocity P-wave (km/s) = 6.27045 7.67984 7.01065
#
# Compressibility (1/GPa) = 0.02400329
#
# Stress axis : x y z
#
# Youngs Moduli (GPa) = 116.85937 49.75219 142.66121
#
# Poissons Ratio (x) = -0.00423 0.39460
# Poissons Ratio (y) = -0.00995 0.44949
# Poissons Ratio (z) = 0.32323 0.15676
#
# Static dielectric constant tensor:
#      x y z
#    x 3.516580 0.000000 0.051800 
#    y 0.000000 3.110800 0.000000 
#    z 0.051800 0.000000 3.800410 
# 
# 
# High freq. dielectric constant tensor:
#      x y z
#    x 1.732190 0.000000 0.002650 
#    y 0.000000 1.683490 0.000000 
#    z 0.002650 0.000000 1.746720 
# 
# From -- ./inp_files/52676.got.cif
#   From: 2010.06.25/outbox.cif.g09.slc.cpg/sg11_27_cif.got.tgz:52676.got - 2010.06.27 23:14:04.
