data_PCOD8070210
_publ_section_title
;
Structure prediction by ZEFSAII (Michael W. Deem and Ramdas Pophale) SiO2 
 PCOD8070210
Probable space group: P 21/M
;
_chemical_formula_sum "Si O2"
_cell_formula_units_Z 24
_cell_length_a 20.003738
_cell_length_b 9.292330
_cell_length_c 11.399793
_cell_angle_alpha 90.000000
_cell_angle_beta 42.205996
_cell_angle_gamma 90.000000
_cell_volume 1423.546067
_symmetry_space_group_name_H-M "P 21/M"
_symmetry_group_IT_number 11
_symmetry_cell_setting 'monoclinic'
loop_
_space_group_symop_operation_xyz
x,y,z
-x,1/2+y,-z
-x,-y,-z
x,1/2-y,z
loop_
_atom_site_type_symbol
_atom_site_label
_atom_site_fract_x
_atom_site_fract_y
_atom_site_fract_z
Si Si1 0.707742 0.582599 0.841495
Si Si2 0.083340 0.081354 0.320145
Si Si3 0.940657 0.917033 0.916187
Si Si4 0.522632 0.084342 0.087963
Si Si5 0.851693 0.417869 0.238253
Si Si6 0.694622 0.586926 0.585551
O O1 0.684155 0.750000 0.891218
O O2 0.809713 0.535592 0.769675
O O3 0.713609 0.544606 0.696236
O O4 0.619426 0.491454 0.019566
O O5 0.064239 0.250000 0.359941
O O6 0.077335 0.033924 0.193080
O O7 0.000000 0.000000 0.500000
O O8 0.915878 0.750000 0.967571
O O9 0.054703 0.951527 0.799917
O O10 0.866282 0.007887 0.093566
O O11 0.547323 0.250000 0.027638
O O12 0.422525 0.073441 0.296492
O O13 0.500000 0.000000 0.000000
O O14 0.836718 0.250000 0.236506
O O15 0.753529 0.479182 0.426206
O O16 0.731850 0.750000 0.515810
#
# Coordination Sequence:
#
# PCOD8070210 Si02
#       6
#     4   4   4   4   4   4
#     4   9  18  31  47  70  99 128 157 192 236 282
#     4  10  20  33  50  72  98 128 159 191 232 284
#     4   9  19  34  48  66  95 127 156 189 234 280
#     4   9  17  29  46  69  96 126 158 193 236 281
#     4  10  19  30  48  71  92 120 159 198 232 272
#     4   9  17  29  46  69  96 123 151 188 235 280
#
# _framework density 16.859307000000001
#
# number of rings (size 3 to 8) (size 9 to 14) (size 15 to 20)
#    0.000    2.667    0.000    3.000    0.000    5.333 
#    0.000    0.000    0.000    1.000    0.000    0.000 
#    0.000    0.000    0.000    0.000    0.000    0.000 
#
# Total GULP energy -297571.813199 kJ/mol
# GULP energy per Si atom -12398.825550 kJ/mol
# Density = 1.682093 g / cm^3
# Si number density = 16.859307 Si / 1000 Ang^3
#
#
#
# Elastic Constant Matrix: (Units=GPa)
#
#
# Indices 1 2 3 4 5 6 
#
# 1 104.6708 46.0061 66.8540 0.0000 -6.7380 0.0000
# 2 46.0061 86.6751 70.0028 0.0000 -7.3741 0.0000
# 3 66.8540 70.0028 123.6812 0.0000 -8.2785 0.0000
# 4 0.0000 0.0000 0.0000 37.5075 0.0000 -4.7992
# 5 -6.7380 -7.3741 -8.2785 0.0000 23.2996 0.0000
# 6 0.0000 0.0000 0.0000 -4.7992 0.0000 22.6632
#
#
#
# Elastic Compliance Matrix: (Units=1/GPa)
#
#
# Indices 1 2 3 4 5 6 
#
# 1 0.014931 -0.002524 -0.006563 0.000000 0.001187 0.000000
# 2 -0.002524 0.021823 -0.010832 0.000000 0.002328 0.000000
# 3 -0.006563 -0.010832 0.017831 0.000000 0.001009 0.000000
# 4 0.000000 0.000000 0.000000 0.027404 0.000000 0.005803
# 5 0.001187 0.002328 0.001009 0.000000 0.044358 0.000000
# 6 0.000000 0.000000 0.000000 0.005803 0.000000 0.045353
#
#
# Mechanical properties :
#
#
# Convention : Reuss Voigt Hill
#
# Bulk Modulus (GPa) = 67.80310 75.63921 71.72116
# Shear Modulus (GPa) = 23.09958 25.50502 24.30230
#
# Velocity S-wave (km/s) = 3.70555 3.89371 3.80080
# Velocity P-wave (km/s) = 7.65588 8.07323 7.86732
#
# Compressibility (1/GPa) = 0.01474859
#
# Stress axis : x y z
#
# Youngs Moduli (GPa) = 66.97348 45.82257 56.08172
#
# Poissons Ratio (x) = 0.11565 0.36806
# Poissons Ratio (y) = 0.16903 0.60747
# Poissons Ratio (z) = 0.43954 0.49634
#
# Static dielectric constant tensor:
#      x y z
#    x 3.256060 0.000000 -0.278010 
#    y 0.000000 3.308360 0.000000 
#    z -0.278010 0.000000 3.235000 
# 
# 
# High freq. dielectric constant tensor:
#      x y z
#    x 1.628810 0.000000 -0.018080 
#    y 0.000000 1.656990 0.000000 
#    z -0.018080 0.000000 1.645130 
# 
# From -- ./inp_files/40429.got.cif
#   From: 2010.06.25/outbox.cif.g09.slc.cpg/sg11_21_cif.got.tgz:40429.got - 2010.06.27 23:14:04.
