data_PCOD8070080
_publ_section_title
;
Structure prediction by ZEFSAII (Michael W. Deem and Ramdas Pophale) SiO2 
 PCOD8070080
Probable space group: P 21/M
;
_chemical_formula_sum "Si O2"
_cell_formula_units_Z 32
_cell_length_a 18.401100
_cell_length_b 9.201944
_cell_length_c 26.433382
_cell_angle_alpha 90.000000
_cell_angle_beta 151.974786
_cell_angle_gamma 90.000000
_cell_volume 2103.026020
_symmetry_space_group_name_H-M "P 21/M"
_symmetry_group_IT_number 11
_symmetry_cell_setting 'monoclinic'
loop_
_space_group_symop_operation_xyz
x,y,z
-x,1/2+y,-z
-x,-y,-z
x,1/2-y,z
loop_
_atom_site_type_symbol
_atom_site_label
_atom_site_fract_x
_atom_site_fract_y
_atom_site_fract_z
Si Si1 0.769044 0.586005 0.341979
Si Si2 0.711207 0.580710 0.668026
Si Si3 0.998070 0.414170 0.421459
Si Si4 0.640158 0.418340 0.526058
Si Si5 0.213890 0.083181 0.104381
Si Si6 0.118070 0.918528 0.141915
Si Si7 0.234091 0.918768 0.505455
Si Si8 0.457881 0.582338 0.733843
O O1 0.734633 0.750000 0.303496
O O2 0.888147 0.581912 0.461181
O O3 0.609182 0.511991 0.261213
O O4 0.840671 0.499023 0.338600
O O5 0.750882 0.750000 0.690039
O O6 0.722873 0.515640 0.619042
O O7 0.542646 0.550809 0.587909
O O8 0.837709 0.501308 0.779964
O O9 0.955253 0.250000 0.380102
O O10 0.080450 0.491141 0.424626
O O11 0.672010 0.250000 0.557884
O O12 0.710328 0.465744 0.515705
O O13 0.223234 0.250000 0.128952
O O14 0.362162 0.042998 0.161751
O O15 0.212718 0.982497 0.152895
O O16 0.064332 0.056503 0.977964
O O17 0.160841 0.750000 0.173346
O O18 0.190279 0.750000 0.481054
O O19 0.372519 0.955405 0.628960
O O20 0.432596 0.750000 0.732526
#
# Coordination Sequence:
#
# PCOD8070080 Si02
#       8
#     4   4   4   4   4   4   4   4
#     4   9  16  25  37  55  79 107 139 170 201 239
#     4  10  19  31  46  62  83 111 141 175 214 252
#     4   9  16  25  37  54  78 108 139 168 200 241
#     4   9  18  31  45  62  83 109 142 176 211 251
#     4   9  18  31  45  62  84 111 143 176 210 249
#     4  10  19  30  45  63  84 111 142 176 212 250
#     4   9  16  26  41  59  81 109 138 171 208 244
#     4   9  16  27  42  59  82 111 140 170 206 245
#
# _framework density 15.216169000000001
#
# number of rings (size 3 to 8) (size 9 to 14) (size 15 to 20)
#    0.000    2.750    0.000    2.250    0.000    7.000 
#    0.000    2.500    0.000    0.000    0.000    0.000 
#    0.000    1.000    0.000    3.000    0.000    4.000 
#
# Total GULP energy -396843.384975 kJ/mol
# GULP energy per Si atom -12401.355780 kJ/mol
# Density = 1.518154 g / cm^3
# Si number density = 15.216169 Si / 1000 Ang^3
#
#
#
# Elastic Constant Matrix: (Units=GPa)
#
#
# Indices 1 2 3 4 5 6 
#
# 1 120.9113 61.7092 38.0498 0.0000 13.1505 0.0000
# 2 61.7092 98.0967 39.9222 0.0000 4.4479 0.0000
# 3 38.0498 39.9222 54.9312 0.0000 2.5321 0.0000
# 4 0.0000 0.0000 0.0000 19.9429 0.0000 0.5225
# 5 13.1505 4.4479 2.5321 0.0000 21.0789 0.0000
# 6 0.0000 0.0000 0.0000 0.5225 0.0000 30.5494
#
#
#
# Elastic Compliance Matrix: (Units=1/GPa)
#
#
# Indices 1 2 3 4 5 6 
#
# 1 0.013724 -0.006514 -0.004465 0.000000 -0.006651 0.000000
# 2 -0.006514 0.017636 -0.008367 0.000000 0.001348 0.000000
# 3 -0.004465 -0.008367 0.027320 0.000000 0.001269 0.000000
# 4 0.000000 0.000000 0.000000 0.050166 0.000000 -0.000858
# 5 -0.006651 0.001348 0.001269 0.000000 0.051153 0.000000
# 6 0.000000 0.000000 0.000000 -0.000858 0.000000 0.032748
#
#
# Mechanical properties :
#
#
# Convention : Reuss Voigt Hill
#
# Bulk Modulus (GPa) = 50.03372 61.47794 55.75583
# Shear Modulus (GPa) = 20.99938 23.26478 22.13208
#
# Velocity S-wave (km/s) = 3.71896 3.91442 3.81794
# Velocity P-wave (km/s) = 7.16898 7.80519 7.49384
#
# Compressibility (1/GPa) = 0.01998652
#
# Stress axis : x y z
#
# Youngs Moduli (GPa) = 72.86620 56.70227 36.60343
#
# Poissons Ratio (x) = 0.36938 0.16344
# Poissons Ratio (y) = 0.47468 0.30626
# Poissons Ratio (z) = 0.32536 0.47443
#
# Static dielectric constant tensor:
#      x y z
#    x 2.922060 0.000000 0.120840 
#    y 0.000000 3.048130 0.000000 
#    z 0.120840 0.000000 2.627960 
# 
# 
# High freq. dielectric constant tensor:
#      x y z
#    x 1.578400 0.000000 0.013210 
#    y 0.000000 1.595270 0.000000 
#    z 0.013210 0.000000 1.538410 
# 
# From -- ./inp_files/56020.got.cif
#   From: 2010.06.25/outbox.cif.g09.slc.cpg/sg11_29_cif.got.tgz:56020.got - 2010.06.27 23:14:04.
