data_PCOD8070582
_publ_section_title
;
Structure prediction by ZEFSAII (Michael W. Deem and Ramdas Pophale) SiO2 
 PCOD8070582
Probable space group: P 21/M
;
_chemical_formula_sum "Si O2"
_cell_formula_units_Z 32
_cell_length_a 23.746718
_cell_length_b 9.109980
_cell_length_c 20.640336
_cell_angle_alpha 90.000000
_cell_angle_beta 23.474437
_cell_angle_gamma 90.000000
_cell_volume 1778.654371
_symmetry_space_group_name_H-M "P 21/M"
_symmetry_group_IT_number 11
_symmetry_cell_setting 'monoclinic'
loop_
_space_group_symop_operation_xyz
x,y,z
-x,1/2+y,-z
-x,-y,-z
x,1/2-y,z
loop_
_atom_site_type_symbol
_atom_site_label
_atom_site_fract_x
_atom_site_fract_y
_atom_site_fract_z
Si Si1 0.606500 0.079282 0.123710
Si Si2 0.133926 0.079455 0.388101
Si Si3 0.940402 0.078878 0.414549
Si Si4 0.922616 0.078787 0.287919
Si Si5 0.459001 0.923385 0.609356
Si Si6 0.238377 0.077084 0.926295
Si Si7 0.660616 0.917220 0.514414
Si Si8 0.743300 0.583122 0.872003
O O1 0.645821 0.250000 0.090601
O O2 0.708170 0.982924 0.061489
O O3 0.630346 0.025504 0.024848
O O4 0.443702 0.052620 0.314972
O O5 0.098853 0.250000 0.434329
O O6 0.260553 0.058457 0.202026
O O7 0.166111 0.007029 0.424142
O O8 0.000000 0.000000 0.500000
O O9 0.905026 0.250000 0.457027
O O10 0.916061 0.016061 0.368075
O O11 0.101628 0.047302 0.263980
O O12 0.897131 0.250000 0.318678
O O13 0.072025 0.043634 0.096728
O O14 0.800884 0.012301 0.371878
O O15 0.438335 0.750000 0.621697
O O16 0.581213 0.959170 0.532016
O O17 0.500000 0.000000 0.500000
O O18 0.312421 0.992718 0.788942
O O19 0.270910 0.250000 0.888038
O O20 0.709491 0.750000 0.461402
O O21 0.701790 0.750000 0.932730
#
# Coordination Sequence:
#
# PCOD8070582 Si02
#       8
#     4   4   4   4   4   4   4   4
#     4  10  19  31  49  75 103 134 176 220 263 311
#     4   9  17  27  40  64  96 131 170 214 264 315
#     4   9  17  30  45  68 101 132 168 215 262 311
#     4  10  20  34  53  78 107 139 175 213 259 312
#     4  10  21  39  61  86 111 139 175 210 250 300
#     4  10  19  34  55  80 109 138 172 215 256 299
#     4   9  21  37  52  77 110 136 168 214 255 302
#     4   9  16  28  45  67  99 131 168 220 267 310
#
# _framework density 17.991129000000001
#
# number of rings (size 3 to 8) (size 9 to 14) (size 15 to 20)
#    0.000    2.500    1.250    3.000    0.000    7.000 
#    0.000    0.625    0.000    0.750    0.000    0.000 
#    0.000    0.000    0.000    0.000    0.000    0.000 
#
# Total GULP energy -396711.810206 kJ/mol
# GULP energy per Si atom -12397.244069 kJ/mol
# Density = 1.795018 g / cm^3
# Si number density = 17.991129 Si / 1000 Ang^3
#
#
#
# Elastic Constant Matrix: (Units=GPa)
#
#
# Indices 1 2 3 4 5 6 
#
# 1 86.1858 50.0688 64.7739 0.0000 22.0988 0.0000
# 2 50.0688 91.7210 65.1260 0.0000 13.6331 0.0000
# 3 64.7739 65.1260 105.5915 0.0000 15.3947 0.0000
# 4 0.0000 0.0000 0.0000 32.2448 0.0000 5.0697
# 5 22.0988 13.6331 15.3947 0.0000 33.7233 0.0000
# 6 0.0000 0.0000 0.0000 5.0697 0.0000 30.0647
#
#
#
# Elastic Compliance Matrix: (Units=1/GPa)
#
#
# Indices 1 2 3 4 5 6 
#
# 1 0.025024 -0.004147 -0.011405 0.000000 -0.009515 0.000000
# 2 -0.004147 0.020292 -0.009825 0.000000 -0.001000 0.000000
# 3 -0.011405 -0.009825 0.022345 0.000000 0.001245 0.000000
# 4 0.000000 0.000000 0.000000 0.031857 0.000000 -0.005372
# 5 -0.009515 -0.001000 0.001245 0.000000 0.035724 0.000000
# 6 0.000000 0.000000 0.000000 -0.005372 0.000000 0.034167
#
#
# Mechanical properties :
#
#
# Convention : Reuss Voigt Hill
#
# Bulk Modulus (GPa) = 59.15543 71.49285 65.32414
# Shear Modulus (GPa) = 22.14341 26.10854 24.12597
#
# Velocity S-wave (km/s) = 3.51208 3.81358 3.66593
# Velocity P-wave (km/s) = 7.02837 7.69515 7.36930
#
# Compressibility (1/GPa) = 0.01690462
#
# Stress axis : x y z
#
# Youngs Moduli (GPa) = 39.96210 49.28098 44.75192
#
# Poissons Ratio (x) = 0.20439 0.51041
# Poissons Ratio (y) = 0.16574 0.43971
# Poissons Ratio (z) = 0.45578 0.48421
#
# Static dielectric constant tensor:
#      x y z
#    x 3.328710 0.000000 0.367810 
#    y 0.000000 3.431050 0.000000 
#    z 0.367810 0.000000 3.309140 
# 
# 
# High freq. dielectric constant tensor:
#      x y z
#    x 1.675380 0.000000 0.027210 
#    y 0.000000 1.703530 0.000000 
#    z 0.027210 0.000000 1.682820 
# 
# From -- ./inp_files/70332.got.cif
#   From: 2010.06.25/outbox.cif.g09.slc.cpg/sg11_36_cif.got.tgz:70332.got - 2010.06.27 23:14:04.
