data_PCOD8070160
_publ_section_title
;
Structure prediction by ZEFSAII (Michael W. Deem and Ramdas Pophale) SiO2 
 PCOD8070160
Probable space group: P 21/M
;
_chemical_formula_sum "Si O2"
_cell_formula_units_Z 32
_cell_length_a 23.743209
_cell_length_b 9.261960
_cell_length_c 17.405553
_cell_angle_alpha 90.000000
_cell_angle_beta 149.166071
_cell_angle_gamma 90.000000
_cell_volume 1961.858092
_symmetry_space_group_name_H-M "P 21/M"
_symmetry_group_IT_number 11
_symmetry_cell_setting 'monoclinic'
loop_
_space_group_symop_operation_xyz
x,y,z
-x,1/2+y,-z
-x,-y,-z
x,1/2-y,z
loop_
_atom_site_type_symbol
_atom_site_label
_atom_site_fract_x
_atom_site_fract_y
_atom_site_fract_z
Si Si1 0.361007 0.918848 0.946566
Si Si2 0.319671 0.420567 0.161215
Si Si3 0.386958 0.582066 0.377769
Si Si4 0.733714 0.918921 0.305658
Si Si5 0.976048 0.917038 0.549423
Si Si6 0.434560 0.914021 0.599985
Si Si7 0.592758 0.581295 0.283724
Si Si8 0.196432 0.583227 0.889065
O O1 0.364606 0.750000 0.932529
O O2 0.265955 0.958224 0.895348
O O3 0.339343 0.000070 0.842232
O O4 0.476588 0.974772 0.115012
O O5 0.305983 0.250000 0.157057
O O6 0.300020 0.501756 0.220130
O O7 0.440075 0.462485 0.270383
O O8 0.228348 0.479320 0.996153
O O9 0.500000 0.500000 0.500000
O O10 0.398847 0.750000 0.368278
O O11 0.357705 0.568652 0.434063
O O12 0.719452 0.750000 0.273126
O O13 0.689459 0.959985 0.338088
O O14 0.860487 0.967769 0.449906
O O15 0.973886 0.750000 0.524383
O O16 0.069111 0.947481 0.721866
O O17 0.000000 0.000000 0.500000
O O18 0.435664 0.750000 0.629600
O O19 0.381256 0.008395 0.604504
O O20 0.586588 0.750000 0.291985
O O21 0.217650 0.750000 0.936672
#
# Coordination Sequence:
#
# PCOD8070160 Si02
#       8
#     4   4   4   4   4   4   4   4
#     4  10  19  31  47  68  93 123 159 193 234 283
#     4  10  19  30  46  71  98 125 158 193 234 283
#     4   9  17  29  45  68  98 129 159 190 229 280
#     4  10  21  34  48  67  91 123 161 199 237 277
#     4  10  20  34  50  67  90 121 159 200 241 282
#     4   9  18  30  45  68  96 126 156 185 225 276
#     4  10  20  32  46  67  95 126 158 192 232 279
#     4  10  19  31  48  69  93 124 158 195 239 281
#
# _framework density 16.311069
#
# number of rings (size 3 to 8) (size 9 to 14) (size 15 to 20)
#    0.000    2.250    2.500    1.875    0.000    4.500 
#    0.000    0.000    0.000    0.000    0.000    0.875 
#    0.000    0.000    0.000    0.000    0.000    0.000 
#
# Total GULP energy -396779.888228 kJ/mol
# GULP energy per Si atom -12399.371507 kJ/mol
# Density = 1.627394 g / cm^3
# Si number density = 16.311069 Si / 1000 Ang^3
#
#
#
# Elastic Constant Matrix: (Units=GPa)
#
#
# Indices 1 2 3 4 5 6 
#
# 1 101.0136 49.0384 54.6778 0.0000 -11.7817 0.0000
# 2 49.0384 69.6917 41.0111 0.0000 -16.6876 0.0000
# 3 54.6778 41.0111 66.4939 0.0000 -13.2668 0.0000
# 4 0.0000 0.0000 0.0000 24.5738 0.0000 -10.4011
# 5 -11.7817 -16.6876 -13.2668 0.0000 29.7617 0.0000
# 6 0.0000 0.0000 0.0000 -10.4011 0.0000 26.8182
#
#
#
# Elastic Compliance Matrix: (Units=1/GPa)
#
#
# Indices 1 2 3 4 5 6 
#
# 1 0.019762 -0.007123 -0.012176 0.000000 -0.001598 0.000000
# 2 -0.007123 0.026531 -0.008892 0.000000 0.008093 0.000000
# 3 -0.012176 -0.008892 0.031369 0.000000 0.004178 0.000000
# 4 0.000000 0.000000 0.000000 0.048686 0.000000 0.018882
# 5 -0.001598 0.008093 0.004178 0.000000 0.039367 0.000000
# 6 0.000000 0.000000 0.000000 0.018882 0.000000 0.044611
#
#
# Mechanical properties :
#
#
# Convention : Reuss Voigt Hill
#
# Bulk Modulus (GPa) = 46.99063 58.51709 52.75386
# Shear Modulus (GPa) = 18.26146 22.39554 20.32850
#
# Velocity S-wave (km/s) = 3.34963 3.70946 3.53413
# Velocity P-wave (km/s) = 6.62055 7.36888 7.00471
#
# Compressibility (1/GPa) = 0.02128084
#
# Stress axis : x y z
#
# Youngs Moduli (GPa) = 50.60234 37.69139 31.87901
#
# Poissons Ratio (x) = 0.26848 0.38815
# Poissons Ratio (y) = 0.36045 0.28345
# Poissons Ratio (z) = 0.61613 0.33513
#
# Static dielectric constant tensor:
#      x y z
#    x 3.115780 0.000000 -0.186280 
#    y 0.000000 3.103380 0.000000 
#    z -0.186280 0.000000 3.162370 
# 
# 
# High freq. dielectric constant tensor:
#      x y z
#    x 1.609480 0.000000 -0.020750 
#    y 0.000000 1.632310 0.000000 
#    z -0.020750 0.000000 1.612650 
# 
# From -- ./inp_files/42777.got.cif
#   From: 2010.06.25/outbox.cif.g09.slc.cpg/sg11_22_cif.got.tgz:42777.got - 2010.06.27 23:14:04.
