data_PCOD8070541
_publ_section_title
;
Structure prediction by ZEFSAII (Michael W. Deem and Ramdas Pophale) SiO2 
 PCOD8070541
Probable space group: P 21/M
;
_chemical_formula_sum "Si O2"
_cell_formula_units_Z 28
_cell_length_a 12.707248
_cell_length_b 8.897134
_cell_length_c 14.910922
_cell_angle_alpha 90.000000
_cell_angle_beta 74.735015
_cell_angle_gamma 90.000000
_cell_volume 1626.322768
_symmetry_space_group_name_H-M "P 21/M"
_symmetry_group_IT_number 11
_symmetry_cell_setting 'monoclinic'
loop_
_space_group_symop_operation_xyz
x,y,z
-x,1/2+y,-z
-x,-y,-z
x,1/2-y,z
loop_
_atom_site_type_symbol
_atom_site_label
_atom_site_fract_x
_atom_site_fract_y
_atom_site_fract_z
Si Si1 0.991490 0.072309 0.405159
Si Si2 0.559489 0.422695 0.108027
Si Si3 0.362741 0.928203 0.384499
Si Si4 0.244069 0.572326 0.589268
Si Si5 0.410709 0.925135 0.697805
Si Si6 0.214863 0.072947 0.268173
Si Si7 0.343601 0.923957 0.097576
O O1 0.990191 0.250000 0.418964
O O2 0.880864 0.014291 0.381878
O O3 0.092983 0.021084 0.321163
O O4 0.000000 0.000000 0.500000
O O5 0.519613 0.250000 0.108579
O O6 0.614829 0.453815 0.191648
O O7 0.455488 0.529007 0.121100
O O8 0.648160 0.458334 0.010675
O O9 0.356237 0.750000 0.378028
O O10 0.305334 0.989571 0.487441
O O11 0.487266 0.979628 0.358926
O O12 0.303025 0.999622 0.313425
O O13 0.244524 0.750000 0.585161
O O14 0.305794 0.517746 0.665215
O O15 0.435168 0.750000 0.673849
O O16 0.227858 0.250000 0.270867
O O17 0.241980 0.016384 0.161489
O O18 0.323358 0.750000 0.121545
#
# Coordination Sequence:
#
# PCOD8070541 Si02
#       7
#     4   4   4   4   4   4   4
#     4  10  20  35  53  73  98 130 171 211 249 289
#     4   9  18  31  49  74 101 129 164 202 249 304
#     4  11  20  31  49  74 104 134 165 202 246 296
#     4   9  19  34  51  72 100 134 168 204 246 296
#     4  10  19  33  52  73 102 134 164 200 247 304
#     4  11  21  32  50  74 101 133 168 207 249 297
#     4  10  19  31  49  73 101 131 162 206 255 297
#
# _framework density 17.216754999999999
#
# number of rings (size 3 to 8) (size 9 to 14) (size 15 to 20)
#    0.000    2.000    2.857    1.714    0.000    1.143 
#    0.000    1.429    0.000    0.857    0.000    0.000 
#    0.000    0.000    0.000    0.000    0.000    0.571 
#
# Total GULP energy -347186.936748 kJ/mol
# GULP energy per Si atom -12399.533455 kJ/mol
# Density = 1.717757 g / cm^3
# Si number density = 17.216755 Si / 1000 Ang^3
#
#
#
# Elastic Constant Matrix: (Units=GPa)
#
#
# Indices 1 2 3 4 5 6 
#
# 1 119.2664 25.3748 62.0964 0.0000 -12.0005 0.0000
# 2 25.3748 48.1666 31.8504 0.0000 -8.9564 0.0000
# 3 62.0964 31.8504 127.9871 0.0000 -15.1873 0.0000
# 4 0.0000 0.0000 0.0000 24.8524 0.0000 -2.3260
# 5 -12.0005 -8.9564 -15.1873 0.0000 24.9746 0.0000
# 6 0.0000 0.0000 0.0000 -2.3260 0.0000 13.9870
#
#
#
# Elastic Compliance Matrix: (Units=1/GPa)
#
#
# Indices 1 2 3 4 5 6 
#
# 1 0.011602 -0.002638 -0.004767 0.000000 0.001730 0.000000
# 2 -0.002638 0.026186 -0.004605 0.000000 0.005323 0.000000
# 3 -0.004767 -0.004605 0.011645 0.000000 0.003139 0.000000
# 4 0.000000 0.000000 0.000000 0.040874 0.000000 0.006797
# 5 0.001730 0.005323 0.003139 0.000000 0.044690 0.000000
# 6 0.000000 0.000000 0.000000 0.006797 0.000000 0.072625
#
#
# Mechanical properties :
#
#
# Convention : Reuss Voigt Hill
#
# Bulk Modulus (GPa) = 39.35153 59.34036 49.34594
# Shear Modulus (GPa) = 20.82361 24.50273 22.66317
#
# Velocity S-wave (km/s) = 3.48156 3.77661 3.63208
# Velocity P-wave (km/s) = 6.25042 7.31837 6.80538
#
# Compressibility (1/GPa) = 0.02541198
#
# Stress axis : x y z
#
# Youngs Moduli (GPa) = 86.19212 38.18861 85.87587
#
# Poissons Ratio (x) = 0.10074 0.40939
# Poissons Ratio (y) = 0.22738 0.39545
# Poissons Ratio (z) = 0.41090 0.17586
#
# Static dielectric constant tensor:
#      x y z
#    x 3.041080 0.000000 -0.159070 
#    y 0.000000 3.148840 0.000000 
#    z -0.159070 0.000000 3.477620 
# 
# 
# High freq. dielectric constant tensor:
#      x y z
#    x 1.642390 0.000000 -0.005300 
#    y 0.000000 1.657880 0.000000 
#    z -0.005300 0.000000 1.672370 
# 
# From -- ./inp_files/37464.got.cif
#   From: 2010.06.25/outbox.cif.g09.slc.cpg/sg11_19_cif.got.tgz:37464.got - 2010.06.27 23:14:04.
