data_PCOD8070183
_publ_section_title
;
Structure prediction by ZEFSAII (Michael W. Deem and Ramdas Pophale) SiO2 
 PCOD8070183
Probable space group: P 21/M
;
_chemical_formula_sum "Si O2"
_cell_formula_units_Z 32
_cell_length_a 25.649876
_cell_length_b 9.021754
_cell_length_c 14.313567
_cell_angle_alpha 90.000000
_cell_angle_beta 33.080258
_cell_angle_gamma 90.000000
_cell_volume 1807.874277
_symmetry_space_group_name_H-M "P 21/M"
_symmetry_group_IT_number 11
_symmetry_cell_setting 'monoclinic'
loop_
_space_group_symop_operation_xyz
x,y,z
-x,1/2+y,-z
-x,-y,-z
x,1/2-y,z
loop_
_atom_site_type_symbol
_atom_site_label
_atom_site_fract_x
_atom_site_fract_y
_atom_site_fract_z
Si Si1 0.279390 0.425370 0.881426
Si Si2 0.524596 0.423823 0.059014
Si Si3 0.540752 0.081095 0.350315
Si Si4 0.339640 0.082627 0.583359
Si Si5 0.906480 0.076156 0.532307
Si Si6 0.724883 0.077264 0.695632
Si Si7 0.648508 0.074587 0.612744
Si Si8 0.897260 0.077331 0.762101
O O1 0.283023 0.250000 0.888604
O O2 0.361211 0.497501 0.825661
O O3 0.299316 0.472195 0.743780
O O4 0.177576 0.487457 0.063674
O O5 0.500253 0.250000 0.094265
O O6 0.458646 0.505859 0.233705
O O7 0.500000 0.500000 0.000000
O O8 0.638610 0.450191 0.899643
O O9 0.567272 0.250000 0.334307
O O10 0.455771 0.074549 0.402483
O O11 0.500000 0.000000 0.500000
O O12 0.305009 0.250000 0.618088
O O13 0.297931 0.980977 0.561846
O O14 0.926438 0.250000 0.485905
O O15 0.821510 0.011340 0.594780
O O16 0.877102 0.047506 0.683491
O O17 0.999024 0.982982 0.365409
O O18 0.740623 0.250000 0.658835
O O19 0.702240 0.013379 0.625487
O O20 0.641300 0.250000 0.624637
O O21 0.890871 0.250000 0.796469
#
# Coordination Sequence:
#
# PCOD8070183 Si02
#       8
#     4   4   4   4   4   4   4   4
#     4  10  20  34  52  73  99 133 168 202 245 296
#     4   9  16  28  45  66  95 128 164 202 239 284
#     4   9  17  30  47  68  96 129 165 203 241 283
#     4   9  19  33  48  69  99 135 169 199 240 289
#     4   9  18  35  55  72  96 128 158 195 247 303
#     4   8  16  31  50  71  95 128 166 199 240 292
#     4  10  19  30  47  72 100 132 170 207 242 284
#     4  10  20  33  52  78 101 123 156 200 249 298
#
# _framework density 17.700346
#
# number of rings (size 3 to 8) (size 9 to 14) (size 15 to 20)
#    0.000    2.750    0.000    3.375    0.000    4.500 
#    0.000    6.250    0.000    0.750    0.000    0.000 
#    0.000    0.000    0.000    0.000    0.000    0.000 
#
# Total GULP energy -396485.334372 kJ/mol
# GULP energy per Si atom -12390.166699 kJ/mol
# Density = 1.766006 g / cm^3
# Si number density = 17.700346 Si / 1000 Ang^3
#
#
#
# Elastic Constant Matrix: (Units=GPa)
#
#
# Indices 1 2 3 4 5 6 
#
# 1 86.9658 37.2917 51.1048 0.0000 -7.3983 0.0000
# 2 37.2917 86.5093 45.9420 0.0000 -1.5079 0.0000
# 3 51.1048 45.9420 101.7067 0.0000 -7.8418 0.0000
# 4 0.0000 0.0000 0.0000 32.2117 0.0000 -0.0090
# 5 -7.3983 -1.5079 -7.8418 0.0000 23.3092 0.0000
# 6 0.0000 0.0000 0.0000 -0.0090 0.0000 23.2726
#
#
#
# Elastic Compliance Matrix: (Units=1/GPa)
#
#
# Indices 1 2 3 4 5 6 
#
# 1 0.017377 -0.003847 -0.006763 0.000000 0.002991 0.000000
# 2 -0.003847 0.016101 -0.005497 0.000000 -0.002029 0.000000
# 3 -0.006763 -0.005497 0.015934 0.000000 0.002858 0.000000
# 4 0.000000 0.000000 0.000000 0.031045 0.000000 0.000012
# 5 0.002991 -0.002029 0.002858 0.000000 0.044681 0.000000
# 6 0.000000 0.000000 0.000000 0.000012 0.000000 0.042969
#
#
# Mechanical properties :
#
#
# Convention : Reuss Voigt Hill
#
# Bulk Modulus (GPa) = 58.14339 60.42874 59.28606
# Shear Modulus (GPa) = 24.26550 25.14827 24.70688
#
# Velocity S-wave (km/s) = 3.70659 3.77341 3.74015
# Velocity P-wave (km/s) = 7.15810 7.29375 7.22625
#
# Compressibility (1/GPa) = 0.01719886
#
# Stress axis : x y z
#
# Youngs Moduli (GPa) = 57.54667 62.10620 62.75982
#
# Poissons Ratio (x) = 0.23892 0.42446
# Poissons Ratio (y) = 0.22138 0.34497
# Poissons Ratio (z) = 0.38920 0.34137
#
# Static dielectric constant tensor:
#      x y z
#    x 3.386140 0.000000 -0.129950 
#    y 0.000000 3.334590 0.000000 
#    z -0.129950 0.000000 3.393450 
# 
# 
# High freq. dielectric constant tensor:
#      x y z
#    x 1.668850 0.000000 0.003400 
#    y 0.000000 1.684600 0.000000 
#    z 0.003400 0.000000 1.670550 
# 
# From -- ./inp_files/56172.got.cif
#   From: 2010.06.25/outbox.cif.g09.slc.cpg/sg11_29_cif.got.tgz:56172.got - 2010.06.27 23:14:04.
