data_PCOD8070466
_publ_section_title
;
Structure prediction by ZEFSAII (Michael W. Deem and Ramdas Pophale) SiO2 
 PCOD8070466
Probable space group: P 21/M
;
_chemical_formula_sum "Si O2"
_cell_formula_units_Z 28
_cell_length_a 20.953565
_cell_length_b 9.057173
_cell_length_c 17.808222
_cell_angle_alpha 90.000000
_cell_angle_beta 27.630451
_cell_angle_gamma 90.000000
_cell_volume 1567.367919
_symmetry_space_group_name_H-M "P 21/M"
_symmetry_group_IT_number 11
_symmetry_cell_setting 'monoclinic'
loop_
_space_group_symop_operation_xyz
x,y,z
-x,1/2+y,-z
-x,-y,-z
x,1/2-y,z
loop_
_atom_site_type_symbol
_atom_site_label
_atom_site_fract_x
_atom_site_fract_y
_atom_site_fract_z
Si Si1 0.806590 0.576706 0.907400
Si Si2 0.398846 0.421701 0.005840
Si Si3 0.180351 0.586036 0.961575
Si Si4 0.674479 0.578722 0.748624
Si Si5 0.144959 0.924118 0.836657
Si Si6 0.852770 0.918053 0.310379
Si Si7 0.879861 0.074635 0.431134
O O1 0.800543 0.750000 0.916194
O O2 0.705956 0.517318 0.947620
O O3 0.756095 0.520625 0.041698
O O4 0.961392 0.523408 0.728419
O O5 0.436189 0.250000 0.955265
O O6 0.327301 0.446986 0.160498
O O7 0.536496 0.516580 0.854536
O O8 0.226777 0.750000 0.935483
O O9 0.016060 0.574098 0.131983
O O10 0.232767 0.548419 0.822083
O O11 0.689137 0.750000 0.712434
O O12 0.804945 0.488720 0.582399
O O13 0.124346 0.750000 0.843714
O O14 0.216449 0.999829 0.689537
O O15 0.000000 0.000000 0.000000
O O16 0.799125 0.750000 0.369945
O O17 0.808551 0.004131 0.431782
O O18 0.865074 0.250000 0.442838
#
# Coordination Sequence:
#
# PCOD8070466 Si02
#       7
#     4   4   4   4   4   4   4
#     4   9  18  31  48  70  96 126 159 195 237 283
#     4   9  19  36  53  70  94 123 158 199 238 280
#     4   8  15  25  38  60  91 123 154 191 233 275
#     4  10  20  34  52  72  94 123 159 197 237 283
#     4   9  15  23  36  57  87 123 159 193 232 276
#     4   9  16  26  40  61  90 123 158 195 234 276
#     4  10  19  31  48  71  99 128 157 193 239 286
#
# _framework density 17.864343000000002
#
# number of rings (size 3 to 8) (size 9 to 14) (size 15 to 20)
#    0.000    2.857    0.000    2.571    0.000    6.286 
#    0.000    0.000    0.000    0.000    0.000    1.000 
#    0.000    0.000    0.000    0.000    0.000    0.000 
#
# Total GULP energy -347066.603186 kJ/mol
# GULP energy per Si atom -12395.235828 kJ/mol
# Density = 1.782368 g / cm^3
# Si number density = 17.864343 Si / 1000 Ang^3
#
#
#
# Elastic Constant Matrix: (Units=GPa)
#
#
# Indices 1 2 3 4 5 6 
#
# 1 131.3373 43.5358 33.3692 0.0000 6.9094 0.0000
# 2 43.5358 73.7550 16.2989 0.0000 0.4556 0.0000
# 3 33.3692 16.2989 18.5756 0.0000 -1.5166 0.0000
# 4 0.0000 0.0000 0.0000 25.8697 0.0000 8.9919
# 5 6.9094 0.4556 -1.5166 0.0000 11.5882 0.0000
# 6 0.0000 0.0000 0.0000 8.9919 0.0000 30.0032
#
#
#
# Elastic Compliance Matrix: (Units=1/GPa)
#
#
# Indices 1 2 3 4 5 6 
#
# 1 0.016516 -0.003560 -0.027633 0.000000 -0.013324 0.000000
# 2 -0.003560 0.017666 -0.009086 0.000000 0.000239 0.000000
# 3 -0.027633 -0.009086 0.114041 0.000000 0.031759 0.000000
# 4 0.000000 0.000000 0.000000 0.043150 0.000000 -0.012932
# 5 -0.013324 0.000239 0.031759 0.000000 0.098386 0.000000
# 6 0.000000 0.000000 0.000000 -0.012932 0.000000 0.037205
#
#
# Mechanical properties :
#
#
# Convention : Reuss Voigt Hill
#
# Bulk Modulus (GPa) = 14.77905 45.56397 30.17151
# Shear Modulus (GPa) = 11.62578 22.18981 16.90779
#
# Velocity S-wave (km/s) = 2.55381 3.52821 3.07979
# Velocity P-wave (km/s) = 4.12151 6.49296 5.43808
#
# Compressibility (1/GPa) = 0.06766335
#
# Stress axis : x y z
#
# Youngs Moduli (GPa) = 60.54766 56.60508 8.76881
#
# Poissons Ratio (x) = 0.20152 0.24231
# Poissons Ratio (y) = 0.21555 0.07968
# Poissons Ratio (z) = 1.67314 0.51433
#
# Static dielectric constant tensor:
#      x y z
#    x 3.770340 0.000000 0.406960 
#    y 0.000000 3.374610 0.000000 
#    z 0.406960 0.000000 3.042920 
# 
# 
# High freq. dielectric constant tensor:
#      x y z
#    x 1.692910 0.000000 0.032000 
#    y 0.000000 1.699620 0.000000 
#    z 0.032000 0.000000 1.644980 
# 
# From -- ./inp_files/29094.got.cif
#   From: 2010.06.25/outbox.cif.g09.slc.cpg/sg11_15_cif.got.tgz:29094.got - 2010.06.27 23:14:04.
