data_PCOD8070580
_publ_section_title
;
Structure prediction by ZEFSAII (Michael W. Deem and Ramdas Pophale) SiO2 
 PCOD8070580
Probable space group: P 21/M
;
_chemical_formula_sum "Si O2"
_cell_formula_units_Z 32
_cell_length_a 22.681533
_cell_length_b 10.184383
_cell_length_c 13.453582
_cell_angle_alpha 90.000000
_cell_angle_beta 33.950993
_cell_angle_gamma 90.000000
_cell_volume 1735.623328
_symmetry_space_group_name_H-M "P 21/M"
_symmetry_group_IT_number 11
_symmetry_cell_setting 'monoclinic'
loop_
_space_group_symop_operation_xyz
x,y,z
-x,1/2+y,-z
-x,-y,-z
x,1/2-y,z
loop_
_atom_site_type_symbol
_atom_site_label
_atom_site_fract_x
_atom_site_fract_y
_atom_site_fract_z
Si Si1 0.926127 0.971635 0.842250
Si Si2 0.147609 0.897432 0.468159
Si Si3 0.757989 0.899335 0.520201
Si Si4 0.166463 0.600827 0.219150
Si Si5 0.019995 0.106595 0.888784
Si Si6 0.704014 0.897655 0.218936
Si Si7 0.612398 0.595728 0.554013
Si Si8 0.381776 0.598143 0.819756
O O1 0.033155 0.888024 0.680835
O O2 0.898412 0.022374 0.771882
O O3 0.828923 0.888685 0.021983
O O4 0.949246 0.086787 0.888896
O O5 0.196439 0.750000 0.402104
O O6 0.137066 0.949576 0.369973
O O7 0.225604 0.000182 0.412138
O O8 0.737227 0.750000 0.589065
O O9 0.857883 0.898052 0.308645
O O10 0.662211 0.957854 0.587171
O O11 0.130888 0.750000 0.256360
O O12 0.292163 0.584012 0.028673
O O13 0.990652 0.250000 0.972912
O O14 0.000000 0.000000 0.000000
O O15 0.657959 0.750000 0.266581
O O16 0.682174 0.946958 0.361394
O O17 0.644974 0.003704 0.234143
O O18 0.617334 0.750000 0.556641
O O19 0.491693 0.548220 0.712522
O O20 0.389448 0.750000 0.771715
#
# Coordination Sequence:
#
# PCOD8070580 Si02
#       8
#     4   4   4   4   4   4   4   4
#     4  10  19  32  50  73 100 133 165 194 235 293
#     4  10  20  34  51  73  99 127 160 204 250 286
#     4   9  19  35  51  69  95 130 168 202 238 289
#     4   9  18  33  52  73  98 126 161 203 245 289
#     4  10  20  32  49  72 101 134 166 199 237 283
#     4  10  19  31  49  75 103 128 158 200 242 285
#     4   9  17  32  53  72  95 130 166 197 238 289
#     4   9  18  33  52  73  97 128 163 199 241 292
#
# _framework density 18.437180000000001
#
# number of rings (size 3 to 8) (size 9 to 14) (size 15 to 20)
#    0.000    2.500    0.000    2.250    0.000    4.500 
#    0.000    5.000    0.000    0.000    0.000    0.000 
#    0.000    0.000    0.000    0.000    0.000    0.000 
#
# Total GULP energy -396621.662961 kJ/mol
# GULP energy per Si atom -12394.426968 kJ/mol
# Density = 1.839522 g / cm^3
# Si number density = 18.437180 Si / 1000 Ang^3
#
#
#
# Elastic Constant Matrix: (Units=GPa)
#
#
# Indices 1 2 3 4 5 6 
#
# 1 122.3751 49.4923 34.7087 0.0000 -1.7279 0.0000
# 2 49.4923 92.2249 18.9028 0.0000 9.9172 0.0000
# 3 34.7087 18.9028 53.0586 0.0000 4.4188 0.0000
# 4 0.0000 0.0000 0.0000 21.0893 0.0000 6.3060
# 5 -1.7279 9.9172 4.4188 0.0000 27.1543 0.0000
# 6 0.0000 0.0000 0.0000 6.3060 0.0000 23.7515
#
#
#
# Elastic Compliance Matrix: (Units=1/GPa)
#
#
# Indices 1 2 3 4 5 6 
#
# 1 0.012356 -0.005749 -0.006361 0.000000 0.003921 0.000000
# 2 -0.005749 0.014738 -0.001025 0.000000 -0.005582 0.000000
# 3 -0.006361 -0.001025 0.023697 0.000000 -0.003887 0.000000
# 4 0.000000 0.000000 0.000000 0.051506 0.000000 -0.013675
# 5 0.003921 -0.005582 -0.003887 0.000000 0.039747 0.000000
# 6 0.000000 0.000000 0.000000 -0.013675 0.000000 0.045733
#
#
# Mechanical properties :
#
#
# Convention : Reuss Voigt Hill
#
# Bulk Modulus (GPa) = 40.78106 52.65179 46.71642
# Shear Modulus (GPa) = 22.49987 25.36933 23.93460
#
# Velocity S-wave (km/s) = 3.49715 3.71346 3.60692
# Velocity P-wave (km/s) = 6.20271 6.85607 6.53756
#
# Compressibility (1/GPa) = 0.02452119
#
# Stress axis : x y z
#
# Youngs Moduli (GPa) = 80.93130 67.84970 42.19866
#
# Poissons Ratio (x) = 0.39005 0.26844
# Poissons Ratio (y) = 0.46525 0.04327
# Poissons Ratio (z) = 0.51484 0.06957
#
# Static dielectric constant tensor:
#      x y z
#    x 3.586770 0.000000 -0.100650 
#    y 0.000000 3.309930 0.000000 
#    z -0.100650 0.000000 3.393780 
# 
# 
# High freq. dielectric constant tensor:
#      x y z
#    x 1.716240 0.000000 -0.000610 
#    y 0.000000 1.701320 0.000000 
#    z -0.000610 0.000000 1.705210 
# 
# From -- ./inp_files/43137.got.cif
#   From: 2010.06.25/outbox.cif.g09.slc.cpg/sg11_22_cif.got.tgz:43137.got - 2010.06.27 23:14:04.
