data_PCOD8070121
_publ_section_title
;
Structure prediction by ZEFSAII (Michael W. Deem and Ramdas Pophale) SiO2 
 PCOD8070121
Probable space group: P 21/M
;
_chemical_formula_sum "Si O2"
_cell_formula_units_Z 32
_cell_length_a 16.610118
_cell_length_b 8.995798
_cell_length_c 16.816822
_cell_angle_alpha 90.000000
_cell_angle_beta 52.093197
_cell_angle_gamma 90.000000
_cell_volume 1982.619969
_symmetry_space_group_name_H-M "P 21/M"
_symmetry_group_IT_number 11
_symmetry_cell_setting 'monoclinic'
loop_
_space_group_symop_operation_xyz
x,y,z
-x,1/2+y,-z
-x,-y,-z
x,1/2-y,z
loop_
_atom_site_type_symbol
_atom_site_label
_atom_site_fract_x
_atom_site_fract_y
_atom_site_fract_z
Si Si1 0.731890 0.582762 0.214337
Si Si2 0.959732 0.575659 0.796562
Si Si3 0.477525 0.076677 0.597129
Si Si4 0.942687 0.076423 0.652756
Si Si5 0.910663 0.927792 0.002740
Si Si6 0.832347 0.582589 0.320170
Si Si7 0.306308 0.919174 0.480311
Si Si8 0.864873 0.421269 0.533095
O O1 0.704599 0.750000 0.206635
O O2 0.623097 0.503795 0.299609
O O3 0.799853 0.513754 0.101517
O O4 0.806664 0.576069 0.243644
O O5 0.948925 0.750000 0.794690
O O6 0.899514 0.500734 0.759181
O O7 0.077164 0.530173 0.716306
O O8 0.916861 0.520227 0.907309
O O9 0.457072 0.250000 0.591231
O O10 0.572203 0.053721 0.600425
O O11 0.500000 0.000000 0.500000
O O12 0.946899 0.250000 0.665978
O O13 0.868108 0.035219 0.624405
O O14 0.057094 0.020986 0.564368
O O15 0.920694 0.750000 0.005014
O O16 0.000000 0.000000 0.000000
O O17 0.863215 0.750000 0.326366
O O18 0.733694 0.531175 0.428690
O O19 0.285424 0.750000 0.520871
O O20 0.249551 0.949289 0.430583
O O21 0.898738 0.250000 0.502129
#
# Coordination Sequence:
#
# PCOD8070121 Si02
#       8
#     4   4   4   4   4   4   4   4
#     4   9  18  32  46  64  92 122 154 192 223 263
#     4  11  21  31  45  67  94 123 157 193 229 271
#     4  10  19  31  47  67  92 122 154 186 224 269
#     4  10  19  30  46  66  91 123 154 186 231 282
#     4  10  20  33  48  66  90 121 156 193 230 268
#     4  11  19  28  46  67  93 125 157 188 222 268
#     4  10  19  30  46  68  94 122 153 189 228 270
#     4   9  18  31  45  66  94 120 151 191 231 274
#
# _framework density 16.140259
#
# number of rings (size 3 to 8) (size 9 to 14) (size 15 to 20)
#    0.000    2.000    3.750    1.125    0.000    1.000 
#    0.000    0.625    0.000    0.000    0.000    0.875 
#    0.000    0.000    0.000    0.000    0.000    0.000 
#
# Total GULP energy -396617.179842 kJ/mol
# GULP energy per Si atom -12394.286870 kJ/mol
# Density = 1.610352 g / cm^3
# Si number density = 16.140259 Si / 1000 Ang^3
#
#
#
# Elastic Constant Matrix: (Units=GPa)
#
#
# Indices 1 2 3 4 5 6 
#
# 1 95.9568 26.7401 56.3264 0.0000 6.6352 0.0000
# 2 26.7401 45.2656 32.8029 0.0000 9.6269 0.0000
# 3 56.3264 32.8029 121.0271 0.0000 8.0623 0.0000
# 4 0.0000 0.0000 0.0000 18.4676 0.0000 4.6896
# 5 6.6352 9.6269 8.0623 0.0000 27.5294 0.0000
# 6 0.0000 0.0000 0.0000 4.6896 0.0000 19.4445
#
#
#
# Elastic Compliance Matrix: (Units=1/GPa)
#
#
# Indices 1 2 3 4 5 6 
#
# 1 0.015126 -0.004706 -0.005743 0.000000 -0.000318 0.000000
# 2 -0.004706 0.030599 -0.005575 0.000000 -0.007933 0.000000
# 3 -0.005743 -0.005575 0.012468 0.000000 -0.000318 0.000000
# 4 0.000000 0.000000 0.000000 0.057681 0.000000 -0.013912
# 5 -0.000318 -0.007933 -0.000318 0.000000 0.039269 0.000000
# 6 0.000000 0.000000 0.000000 -0.013912 0.000000 0.054784
#
#
# Mechanical properties :
#
#
# Convention : Reuss Voigt Hill
#
# Bulk Modulus (GPa) = 38.24830 54.88758 46.56794
# Shear Modulus (GPa) = 19.94506 22.84697 21.39602
#
# Velocity S-wave (km/s) = 3.51911 3.76643 3.64487
# Velocity P-wave (km/s) = 6.34516 7.27977 6.82848
#
# Compressibility (1/GPa) = 0.02614496
#
# Stress axis : x y z
#
# Youngs Moduli (GPa) = 66.11200 32.68075 80.20833
#
# Poissons Ratio (x) = 0.15380 0.46063
# Poissons Ratio (y) = 0.31112 0.44715
# Poissons Ratio (z) = 0.37968 0.18219
#
# Static dielectric constant tensor:
#      x y z
#    x 3.192470 0.000000 0.089500 
#    y 0.000000 3.034460 0.000000 
#    z 0.089500 0.000000 3.180600 
# 
# 
# High freq. dielectric constant tensor:
#      x y z
#    x 1.611170 0.000000 0.011090 
#    y 0.000000 1.615140 0.000000 
#    z 0.011090 0.000000 1.599950 
# 
# From -- ./inp_files/60688.got.cif
#   From: 2010.06.25/outbox.cif.g09.slc.cpg/sg11_31_cif.got.tgz:60688.got - 2010.06.27 23:14:04.
