data_PCOD8070322
_publ_section_title
;
Structure prediction by ZEFSAII (Michael W. Deem and Ramdas Pophale) SiO2 
 PCOD8070322
Probable space group: P 21/M
;
_chemical_formula_sum "Si O2"
_cell_formula_units_Z 28
_cell_length_a 20.040624
_cell_length_b 9.266594
_cell_length_c 15.643490
_cell_angle_alpha 90.000000
_cell_angle_beta 149.439605
_cell_angle_gamma 90.000000
_cell_volume 1477.100789
_symmetry_space_group_name_H-M "P 21/M"
_symmetry_group_IT_number 11
_symmetry_cell_setting 'monoclinic'
loop_
_space_group_symop_operation_xyz
x,y,z
-x,1/2+y,-z
-x,-y,-z
x,1/2-y,z
loop_
_atom_site_type_symbol
_atom_site_label
_atom_site_fract_x
_atom_site_fract_y
_atom_site_fract_z
Si Si1 0.660253 0.918420 0.948495
Si Si2 0.627039 0.581593 0.105486
Si Si3 0.962902 0.906509 0.039202
Si Si4 0.952147 0.921682 0.217979
Si Si5 0.083079 0.421996 0.517453
Si Si6 0.485106 0.586388 0.345730
Si Si7 0.660574 0.593571 0.681622
O O1 0.639554 0.750000 0.916228
O O2 0.652334 0.969289 0.036923
O O3 0.800310 0.965225 0.064423
O O4 0.539729 0.991942 0.765495
O O5 0.595455 0.750000 0.076320
O O6 0.761489 0.544564 0.303755
O O7 0.500000 0.500000 0.000000
O O8 0.030973 0.750000 0.104461
O O9 0.996848 0.967705 0.171292
O O10 0.809860 0.888012 0.865706
O O11 0.000000 0.000000 0.000000
O O12 0.970210 0.750000 0.253790
O O13 0.041161 0.013688 0.380220
O O14 0.057204 0.250000 0.494427
O O15 0.000000 0.500000 0.500000
O O16 0.454230 0.750000 0.286025
O O17 0.631375 0.565567 0.547571
O O18 0.390904 0.537946 0.319079
O O19 0.593957 0.750000 0.631693
#
# Coordination Sequence:
#
# PCOD8070322 Si02
#       7
#     4   4   4   4   4   4   4
#     4  10  19  37  60  81 114 151 187 234 292 350
#     4  10  23  42  62  86 119 158 193 239 298 356
#     4  10  21  38  58  78 111 154 192 239 294 346
#     4  10  20  38  62  86 115 153 199 246 295 353
#     4  11  22  39  64  94 124 156 199 250 300 357
#     4  10  19  30  53  85 108 135 184 234 275 330
#     4   9  18  35  53  73 108 148 179 223 285 334
#
# _framework density 18.956052
#
# number of rings (size 3 to 8) (size 9 to 14) (size 15 to 20)
#    0.000    2.000    2.857    0.857    0.000    4.000 
#    2.571    0.000    0.000    0.000    0.000    0.000 
#    0.000    0.000    0.000    0.000    0.000    0.000 
#
# Total GULP energy -346943.997165 kJ/mol
# GULP energy per Si atom -12390.857042 kJ/mol
# Density = 1.891291 g / cm^3
# Si number density = 18.956052 Si / 1000 Ang^3
#
#
#
# Elastic Constant Matrix: (Units=GPa)
#
#
# Indices 1 2 3 4 5 6 
#
# 1 108.3565 47.8706 44.7542 0.0000 -26.1690 0.0000
# 2 47.8706 67.9913 49.8232 0.0000 -16.7283 0.0000
# 3 44.7542 49.8232 120.7885 0.0000 -31.4546 0.0000
# 4 0.0000 0.0000 0.0000 32.1980 0.0000 -3.0781
# 5 -26.1690 -16.7283 -31.4546 0.0000 35.0514 0.0000
# 6 0.0000 0.0000 0.0000 -3.0781 0.0000 31.1818
#
#
#
# Elastic Compliance Matrix: (Units=1/GPa)
#
#
# Indices 1 2 3 4 5 6 
#
# 1 0.014717 -0.008589 -0.000152 0.000000 0.006752 0.000000
# 2 -0.008589 0.026328 -0.007928 0.000000 -0.000962 0.000000
# 3 -0.000152 -0.007928 0.013820 0.000000 0.008505 0.000000
# 4 0.000000 0.000000 0.000000 0.031354 0.000000 0.003095
# 5 0.006752 -0.000962 0.008505 0.000000 0.040744 0.000000
# 6 0.000000 0.000000 0.000000 0.003095 0.000000 0.032375
#
#
# Mechanical properties :
#
#
# Convention : Reuss Voigt Hill
#
# Bulk Modulus (GPa) = 46.45254 64.67025 55.56140
# Shear Modulus (GPa) = 25.01862 29.99879 27.50871
#
# Velocity S-wave (km/s) = 3.63688 3.98244 3.81357
# Velocity P-wave (km/s) = 6.49572 7.43884 6.98322
#
# Compressibility (1/GPa) = 0.02152735
#
# Stress axis : x y z
#
# Youngs Moduli (GPa) = 67.94991 37.98237 72.35872
#
# Poissons Ratio (x) = 0.32624 0.01096
# Poissons Ratio (y) = 0.58364 0.57365
# Poissons Ratio (z) = 0.01030 0.30112
#
# Static dielectric constant tensor:
#      x y z
#    x 3.139950 0.000000 -0.266100 
#    y 0.000000 3.522400 0.000000 
#    z -0.266100 0.000000 3.769590 
# 
# 
# High freq. dielectric constant tensor:
#      x y z
#    x 1.710520 0.000000 -0.021410 
#    y 0.000000 1.737850 0.000000 
#    z -0.021410 0.000000 1.752710 
# 
# From -- ./inp_files/54584.got.cif
#   From: 2010.06.25/outbox.cif.g09.slc.cpg/sg11_28_cif.got.tgz:54584.got - 2010.06.27 23:14:04.
