data_PCOD8070781
_publ_section_title
;
Structure prediction by ZEFSAII (Michael W. Deem and Ramdas Pophale) SiO2 
 PCOD8070781
Probable space group: P 21/M
;
_chemical_formula_sum "Si O2"
_cell_formula_units_Z 32
_cell_length_a 34.949219
_cell_length_b 8.632597
_cell_length_c 23.386905
_cell_angle_alpha 90.000000
_cell_angle_beta 163.364100
_cell_angle_gamma 90.000000
_cell_volume 2020.021571
_symmetry_space_group_name_H-M "P 21/M"
_symmetry_group_IT_number 11
_symmetry_cell_setting 'monoclinic'
loop_
_space_group_symop_operation_xyz
x,y,z
-x,1/2+y,-z
-x,-y,-z
x,1/2-y,z
loop_
_atom_site_type_symbol
_atom_site_label
_atom_site_fract_x
_atom_site_fract_y
_atom_site_fract_z
Si Si1 0.821727 0.930626 0.273678
Si Si2 0.249128 0.569646 0.269232
Si Si3 0.324147 0.431006 0.091933
Si Si4 0.491002 0.067614 0.549787
Si Si5 0.077641 0.572876 0.696948
Si Si6 0.426136 0.569404 0.119951
Si Si7 0.697088 0.072277 0.521667
Si Si8 0.012038 0.569351 0.079399
O O1 0.830459 0.750000 0.268310
O O2 0.916545 0.960489 0.465323
O O3 0.872234 0.040855 0.295306
O O4 0.667192 0.981349 0.060968
O O5 0.266222 0.750000 0.280231
O O6 0.347451 0.472847 0.370328
O O7 0.281259 0.529421 0.380920
O O8 0.096491 0.517181 0.035945
O O9 0.350394 0.250000 0.124137
O O10 0.389279 0.492591 0.242814
O O11 0.392257 0.513469 0.135435
O O12 0.163919 0.467095 0.864001
O O13 0.510783 0.250000 0.576820
O O14 0.500000 0.000000 0.500000
O O15 0.106422 0.750000 0.754462
O O16 0.401127 0.750000 0.078676
O O17 0.580528 0.531920 0.327673
O O18 0.652989 0.250000 0.453808
O O19 0.833424 0.042296 0.680479
O O20 0.977645 0.750000 0.028424
O O21 0.000000 0.500000 0.000000
#
# Coordination Sequence:
#
# PCOD8070781 Si02
#       8
#     4   4   4   4   4   4   4   4
#     4   9  16  25  37  54  79 108 138 174 211 249
#     4  10  19  32  48  64  84 110 141 179 221 264
#     4  11  20  31  45  60  81 109 141 178 220 259
#     4  12  24  37  51  66  85 110 145 186 226 265
#     4   9  16  26  40  57  76 103 140 175 210 252
#     4  11  19  25  39  60  84 114 147 179 213 253
#     4   9  17  28  42  60  86 115 145 177 214 257
#     4   9  17  28  43  62  84 110 142 179 216 258
#
# _framework density 15.841414
#
# number of rings (size 3 to 8) (size 9 to 14) (size 15 to 20)
#    0.000    2.000    1.250    7.125    0.000    4.000 
#    0.000    0.000    0.000    0.000    0.000    0.000 
#    0.000    0.000    0.000    1.125    0.000   14.750 
#
# Total GULP energy -396548.213859 kJ/mol
# GULP energy per Si atom -12392.131683 kJ/mol
# Density = 1.580536 g / cm^3
# Si number density = 15.841414 Si / 1000 Ang^3
#
#
#
# Elastic Constant Matrix: (Units=GPa)
#
#
# Indices 1 2 3 4 5 6 
#
# 1 32.5423 11.6488 32.8856 0.0000 -1.2044 0.0000
# 2 11.6488 71.6530 40.3189 0.0000 -0.4301 0.0000
# 3 32.8856 40.3189 137.7315 0.0000 -0.7726 0.0000
# 4 0.0000 0.0000 0.0000 30.0379 0.0000 1.2799
# 5 -1.2044 -0.4301 -0.7726 0.0000 11.6496 0.0000
# 6 0.0000 0.0000 0.0000 1.2799 0.0000 15.5880
#
#
#
# Elastic Compliance Matrix: (Units=1/GPa)
#
#
# Indices 1 2 3 4 5 6 
#
# 1 0.040760 -0.001365 -0.009313 0.000000 0.003546 0.000000
# 2 -0.001365 0.016755 -0.004578 0.000000 0.000174 0.000000
# 3 -0.009313 -0.004578 0.010822 0.000000 -0.000414 0.000000
# 4 0.000000 0.000000 0.000000 0.033408 0.000000 -0.002743
# 5 0.003546 0.000174 -0.000414 0.000000 0.086186 0.000000
# 6 0.000000 0.000000 0.000000 -0.002743 0.000000 0.064377
#
#
# Mechanical properties :
#
#
# Convention : Reuss Voigt Hill
#
# Bulk Modulus (GPa) = 26.43700 45.73706 36.08703
# Shear Modulus (GPa) = 16.92464 21.92667 19.42566
#
# Velocity S-wave (km/s) = 3.27215 3.72443 3.50560
# Velocity P-wave (km/s) = 5.56783 6.88692 6.26221
#
# Compressibility (1/GPa) = 0.03782577
#
# Stress axis : x y z
#
# Youngs Moduli (GPa) = 24.53393 59.68340 92.40584
#
# Poissons Ratio (x) = 0.08147 0.86054
# Poissons Ratio (y) = 0.03349 0.42303
# Poissons Ratio (z) = 0.22847 0.27323
#
# Static dielectric constant tensor:
#      x y z
#    x 2.475950 0.000000 0.107960 
#    y 0.000000 3.180310 0.000000 
#    z 0.107960 0.000000 3.906930 
# 
# 
# High freq. dielectric constant tensor:
#      x y z
#    x 1.516270 0.000000 0.005820 
#    y 0.000000 1.628240 0.000000 
#    z 0.005820 0.000000 1.633410 
# 
# From -- ./inp_files/67445.got.cif
#   From: 2010.06.25/outbox.cif.g09.slc.cpg/sg11_34_cif.got.tgz:67445.got - 2010.06.27 23:14:04.
