data_PCOD8070883
_publ_section_title
;
Structure prediction by ZEFSAII (Michael W. Deem and Ramdas Pophale) SiO2 
 PCOD8070883
Probable space group: P 21/M
;
_chemical_formula_sum "Si O2"
_cell_formula_units_Z 24
_cell_length_a 11.294324
_cell_length_b 8.680918
_cell_length_c 23.946863
_cell_angle_alpha 90.000000
_cell_angle_beta 144.753132
_cell_angle_gamma 90.000000
_cell_volume 1354.958559
_symmetry_space_group_name_H-M "P 21/M"
_symmetry_group_IT_number 11
_symmetry_cell_setting 'monoclinic'
loop_
_space_group_symop_operation_xyz
x,y,z
-x,1/2+y,-z
-x,-y,-z
x,1/2-y,z
loop_
_atom_site_type_symbol
_atom_site_label
_atom_site_fract_x
_atom_site_fract_y
_atom_site_fract_z
Si Si1 0.669309 0.931747 0.024773
Si Si2 0.831796 0.429850 0.365407
Si Si3 0.736200 0.071911 0.452523
Si Si4 0.348542 0.930846 0.817844
Si Si5 0.021959 0.932227 0.781727
Si Si6 0.418361 0.930474 0.411400
O O1 0.691885 0.750000 0.041924
O O2 0.579698 0.972691 0.928193
O O3 0.885990 0.012630 0.122647
O O4 0.500000 0.000000 0.000000
O O5 0.890682 0.250000 0.383062
O O6 0.714805 0.462063 0.378218
O O7 0.683649 0.486792 0.258136
O O8 0.037396 0.528802 0.439739
O O9 0.694855 0.250000 0.450546
O O10 0.571640 0.967577 0.420119
O O11 0.319660 0.750000 0.809947
O O12 0.170584 0.997662 0.789980
O O13 0.002724 0.750000 0.774357
O O14 0.800666 0.002518 0.688210
O O15 0.400533 0.750000 0.412350
O O16 0.500000 0.000000 0.500000
#
# Coordination Sequence:
#
# PCOD8070883 Si02
#       6
#     4   4   4   4   4   4
#     4   9  16  28  46  70 100 132 167 206 250 295
#     4   9  17  32  53  74  99 132 169 209 249 291
#     4  10  20  33  50  74 102 132 167 206 250 297
#     4   8  15  28  49  74  98 127 162 202 246 290
#     4  10  19  32  50  74 104 133 163 202 251 302
#     4  12  24  37  53  73 100 132 166 203 246 299
#
# _framework density 17.712719
#
# number of rings (size 3 to 8) (size 9 to 14) (size 15 to 20)
#    0.000    2.333    0.000    5.000    0.000    2.000 
#    0.000    4.167    0.000    1.000    0.000    0.000 
#    0.000    0.000    0.000    0.000    0.000    0.000 
#
# Total GULP energy -297461.059846 kJ/mol
# GULP energy per Si atom -12394.210827 kJ/mol
# Density = 1.767240 g / cm^3
# Si number density = 17.712719 Si / 1000 Ang^3
#
#
#
# Elastic Constant Matrix: (Units=GPa)
#
#
# Indices 1 2 3 4 5 6 
#
# 1 79.4801 28.2173 65.2979 0.0000 -13.3483 0.0000
# 2 28.2173 85.3350 48.7756 0.0000 -3.9461 0.0000
# 3 65.2979 48.7756 169.3490 0.0000 -23.5926 0.0000
# 4 0.0000 0.0000 0.0000 31.6616 0.0000 2.2018
# 5 -13.3483 -3.9461 -23.5926 0.0000 28.7349 0.0000
# 6 0.0000 0.0000 0.0000 2.2018 0.0000 22.9368
#
#
#
# Elastic Compliance Matrix: (Units=1/GPa)
#
#
# Indices 1 2 3 4 5 6 
#
# 1 0.019152 -0.002668 -0.006129 0.000000 0.003498 0.000000
# 2 -0.002668 0.014463 -0.003424 0.000000 -0.002065 0.000000
# 3 -0.006129 -0.003424 0.009928 0.000000 0.004834 0.000000
# 4 0.000000 0.000000 0.000000 0.031796 0.000000 -0.003052
# 5 0.003498 -0.002065 0.004834 0.000000 0.040111 0.000000
# 6 0.000000 0.000000 0.000000 -0.003052 0.000000 0.043891
#
#
# Mechanical properties :
#
#
# Convention : Reuss Voigt Hill
#
# Bulk Modulus (GPa) = 52.35671 68.74954 60.55312
# Shear Modulus (GPa) = 26.29513 29.45822 27.87668
#
# Velocity S-wave (km/s) = 3.85714 4.08255 3.97145
# Velocity P-wave (km/s) = 7.03276 7.81798 7.43575
#
# Compressibility (1/GPa) = 0.01909975
#
# Stress axis : x y z
#
# Youngs Moduli (GPa) = 52.21492 69.14409 100.72706
#
# Poissons Ratio (x) = 0.18447 0.61733
# Poissons Ratio (y) = 0.13931 0.34493
# Poissons Ratio (z) = 0.32001 0.23678
#
# Static dielectric constant tensor:
#      x y z
#    x 3.149160 0.000000 -0.265630 
#    y 0.000000 3.446220 0.000000 
#    z -0.265630 0.000000 3.747710 
# 
# 
# High freq. dielectric constant tensor:
#      x y z
#    x 1.652960 0.000000 -0.019050 
#    y 0.000000 1.685140 0.000000 
#    z -0.019050 0.000000 1.697790 
# 
# From -- ./inp_files/58779.got.cif
#   From: 2010.06.25/outbox.cif.g09.slc.cpg/sg11_30_cif.got.tgz:58779.got - 2010.06.27 23:14:04.
