data_PCOD8070771
_publ_section_title
;
Structure prediction by ZEFSAII (Michael W. Deem and Ramdas Pophale) SiO2 
 PCOD8070771
Probable space group: P 21/M
;
_chemical_formula_sum "Si O2"
_cell_formula_units_Z 28
_cell_length_a 14.492518
_cell_length_b 19.996508
_cell_length_c 9.045731
_cell_angle_alpha 90.000000
_cell_angle_beta 146.447837
_cell_angle_gamma 90.000000
_cell_volume 1448.865103
_symmetry_space_group_name_H-M "P 21/M"
_symmetry_group_IT_number 11
_symmetry_cell_setting 'monoclinic'
loop_
_space_group_symop_operation_xyz
x,y,z
-x,1/2+y,-z
-x,-y,-z
x,1/2-y,z
loop_
_atom_site_type_symbol
_atom_site_label
_atom_site_fract_x
_atom_site_fract_y
_atom_site_fract_z
Si Si1 0.491768 0.077843 0.453072
Si Si2 0.801777 0.587583 0.722746
Si Si3 0.692712 0.064001 0.184244
Si Si4 0.950546 0.477937 0.740732
Si Si5 0.599976 0.912523 0.006271
Si Si6 0.186489 0.598156 0.962281
Si Si7 0.141550 0.327386 0.473739
O O1 0.354669 0.104243 0.384673
O O2 0.500000 0.000000 0.500000
O O3 0.674225 0.110246 0.725134
O O4 0.438004 0.098541 0.217041
O O5 0.808975 0.651155 0.625634
O O6 0.797968 0.519415 0.616513
O O7 0.970354 0.576775 0.043408
O O8 0.710323 0.099142 0.051255
O O9 0.872785 0.064237 0.503989
O O10 0.639343 0.988892 0.084544
O O11 0.559883 0.105348 0.105245
O O12 0.092386 0.527893 0.868179
O O13 0.755939 0.867160 0.263738
O O14 0.055653 0.658284 0.776077
O O15 0.178274 0.250000 0.545934
#
# Coordination Sequence:
#
# PCOD8070771 Si02
#       7
#     4   4   4   4   4   4   4
#     4  12  21  34  61 103 132 151 185 259 330 389
#     4  10  20  35  61  89 122 163 198 248 313 362
#     4  11  20  34  60 100 127 154 192 256 329 374
#     4  10  19  31  59  96 130 149 193 256 316 372
#     4  11  23  36  62  93 132 159 199 254 318 372
#     4  11  22  35  62  94 128 161 199 251 318 367
#     4  11  26  47  62  81 120 177 224 250 290 377
#
# _framework density 19.325469999999999
#
# number of rings (size 3 to 8) (size 9 to 14) (size 15 to 20)
#    0.000    1.143    5.714    2.143    6.000    0.000 
#    0.000    4.286    0.000    0.000    0.000    0.000 
#    0.000    0.000    0.000    0.000    0.000    0.000 
#
# Total GULP energy -347100.723869 kJ/mol
# GULP energy per Si atom -12396.454424 kJ/mol
# Density = 1.928148 g / cm^3
# Si number density = 19.325470 Si / 1000 Ang^3
#
#
#
# Elastic Constant Matrix: (Units=GPa)
#
#
# Indices 1 2 3 4 5 6 
#
# 1 132.1911 33.3032 56.0388 0.0000 -5.1695 0.0000
# 2 33.3032 42.4215 21.9281 0.0000 4.8853 0.0000
# 3 56.0388 21.9281 133.0975 0.0000 -4.0988 0.0000
# 4 0.0000 0.0000 0.0000 5.8691 0.0000 -1.2227
# 5 -5.1695 4.8853 -4.0988 0.0000 32.1733 0.0000
# 6 0.0000 0.0000 0.0000 -1.2227 0.0000 13.4796
#
#
#
# Elastic Compliance Matrix: (Units=1/GPa)
#
#
# Indices 1 2 3 4 5 6 
#
# 1 0.010852 -0.007074 -0.003330 0.000000 0.002394 0.000000
# 2 -0.007074 0.031035 -0.002324 0.000000 -0.006145 0.000000
# 3 -0.003330 -0.002324 0.009329 0.000000 0.001006 0.000000
# 4 0.000000 0.000000 0.000000 0.173665 0.000000 0.015752
# 5 0.002394 -0.006145 0.001006 0.000000 0.032528 0.000000
# 6 0.000000 0.000000 0.000000 0.015752 0.000000 0.075615
#
#
# Mechanical properties :
#
#
# Convention : Reuss Voigt Hill
#
# Bulk Modulus (GPa) = 38.81848 58.91671 48.86759
# Shear Modulus (GPa) = 13.62150 23.40042 18.51096
#
# Velocity S-wave (km/s) = 2.65778 3.48352 3.09828
# Velocity P-wave (km/s) = 5.43587 6.83612 6.17581
#
# Compressibility (1/GPa) = 0.02576093
#
# Stress axis : x y z
#
# Youngs Moduli (GPa) = 92.14696 32.22126 107.19003
#
# Poissons Ratio (x) = 0.22793 0.35695
# Poissons Ratio (y) = 0.65184 0.24911
# Poissons Ratio (z) = 0.30685 0.07488
#
# Static dielectric constant tensor:
#      x y z
#    x 4.244160 0.000000 0.151290 
#    y 0.000000 3.021410 0.000000 
#    z 0.151290 0.000000 4.067600 
# 
# 
# High freq. dielectric constant tensor:
#      x y z
#    x 1.770240 0.000000 -0.003400 
#    y 0.000000 1.671840 0.000000 
#    z -0.003400 0.000000 1.776500 
# 
# From -- ./inp_files/23226.got.cif
#   From: 2010.06.25/outbox.cif.g09.slc.cpg/sg11_12_cif.got.tgz:23226.got - 2010.06.27 23:14:04.
