data_PCOD8070844
_publ_section_title
;
Structure prediction by ZEFSAII (Michael W. Deem and Ramdas Pophale) SiO2 
 PCOD8070844
Probable space group: P 21/M
;
_chemical_formula_sum "Si O2"
_cell_formula_units_Z 32
_cell_length_a 11.491594
_cell_length_b 16.643239
_cell_length_c 18.320952
_cell_angle_alpha 90.000000
_cell_angle_beta 31.953932
_cell_angle_gamma 90.000000
_cell_volume 1854.456063
_symmetry_space_group_name_H-M "P 21/M"
_symmetry_group_IT_number 11
_symmetry_cell_setting 'monoclinic'
loop_
_space_group_symop_operation_xyz
x,y,z
-x,1/2+y,-z
-x,-y,-z
x,1/2-y,z
loop_
_atom_site_type_symbol
_atom_site_label
_atom_site_fract_x
_atom_site_fract_y
_atom_site_fract_z
Si Si1 0.015466 0.421621 0.893054
Si Si2 0.787545 0.584095 0.062818
Si Si3 0.996506 0.340145 0.181690
Si Si4 0.651235 0.999866 0.703870
Si Si5 0.809747 0.838364 0.773516
Si Si6 0.759717 0.495882 0.354667
Si Si7 0.051828 0.518620 0.589451
Si Si8 0.434745 0.658046 0.870898
O O1 0.168669 0.389209 0.877061
O O2 0.158820 0.435018 0.744112
O O3 0.915223 0.504637 0.972451
O O4 0.822757 0.357710 0.979715
O O5 0.530047 0.568552 0.188014
O O6 0.879319 0.653644 0.961570
O O7 0.894085 0.250000 0.241400
O O8 0.183234 0.354656 0.143828
O O9 0.809881 0.407110 0.295160
O O10 0.546554 0.909499 0.759396
O O11 0.832496 0.020005 0.669683
O O12 0.745443 0.009168 0.572644
O O13 0.888153 0.750000 0.711817
O O14 0.558042 0.852979 0.882890
O O15 0.989965 0.888666 0.633152
O O16 0.500000 0.500000 0.500000
O O17 0.880600 0.516118 0.367227
O O18 0.466218 0.750000 0.824001
#
# Coordination Sequence:
#
# PCOD8070844 Si02
#       8
#     4   4   4   4   4   4   4   4
#     4   9  18  30  45  67  92 119 153 186 224 276
#     4   9  17  30  46  65  92 121 149 190 231 263
#     4   9  18  32  50  71  92 118 156 195 231 279
#     4   9  17  30  48  70  95 122 158 197 231 276
#     4   8  15  29  48  70  95 121 151 190 236 280
#     4  10  19  32  50  69  94 126 154 188 237 284
#     4   9  17  29  48  72  94 122 159 193 228 278
#     4   9  17  30  49  70  93 122 153 192 239 279
#
# _framework density 17.255731999999998
#
# number of rings (size 3 to 8) (size 9 to 14) (size 15 to 20)
#    0.000    3.000    0.000    0.750    0.000    2.500 
#    0.000    6.250    0.000    4.500    0.000    0.000 
#    0.000    0.000    0.000    0.000    0.000    0.000 
#
# Total GULP energy -396462.697041 kJ/mol
# GULP energy per Si atom -12389.459283 kJ/mol
# Density = 1.721646 g / cm^3
# Si number density = 17.255732 Si / 1000 Ang^3
#
#
#
# Elastic Constant Matrix: (Units=GPa)
#
#
# Indices 1 2 3 4 5 6 
#
# 1 119.7305 39.5559 68.0850 0.0000 7.5005 0.0000
# 2 39.5559 61.8360 36.6461 0.0000 0.4240 0.0000
# 3 68.0850 36.6461 116.4727 0.0000 1.7916 0.0000
# 4 0.0000 0.0000 0.0000 19.4251 0.0000 -0.4467
# 5 7.5005 0.4240 1.7916 0.0000 29.5713 0.0000
# 6 0.0000 0.0000 0.0000 -0.4467 0.0000 19.1613
#
#
#
# Elastic Compliance Matrix: (Units=1/GPa)
#
#
# Indices 1 2 3 4 5 6 
#
# 1 0.013896 -0.005018 -0.006497 0.000000 -0.003059 0.000000
# 2 -0.005018 0.021690 -0.003910 0.000000 0.001199 0.000000
# 3 -0.006497 -0.003910 0.013600 0.000000 0.000880 0.000000
# 4 0.000000 0.000000 0.000000 0.051507 0.000000 0.001201
# 5 -0.003059 0.001199 0.000880 0.000000 0.034522 0.000000
# 6 0.000000 0.000000 0.000000 0.001201 0.000000 0.052217
#
#
# Mechanical properties :
#
#
# Convention : Reuss Voigt Hill
#
# Bulk Modulus (GPa) = 54.53367 65.17923 59.85645
# Shear Modulus (GPa) = 22.28211 23.88167 23.08189
#
# Velocity S-wave (km/s) = 3.59735 3.72423 3.66134
# Velocity P-wave (km/s) = 6.99474 7.50651 7.25514
#
# Compressibility (1/GPa) = 0.01833729
#
# Stress axis : x y z
#
# Youngs Moduli (GPa) = 71.96225 46.10322 73.52742
#
# Poissons Ratio (x) = 0.23133 0.47773
# Poissons Ratio (y) = 0.36109 0.28748
# Poissons Ratio (z) = 0.46756 0.18025
#
# Static dielectric constant tensor:
#      x y z
#    x 3.543590 0.000000 0.026730 
#    y 0.000000 3.135810 0.000000 
#    z 0.026730 0.000000 3.097890 
# 
# 
# High freq. dielectric constant tensor:
#      x y z
#    x 1.681500 0.000000 -0.001890 
#    y 0.000000 1.643270 0.000000 
#    z -0.001890 0.000000 1.647730 
# 
# From -- ./inp_files/59621.got.cif
#   From: 2010.06.25/outbox.cif.g09.slc.cpg/sg11_30_cif.got.tgz:59621.got - 2010.06.27 23:14:04.
