data_PCOD8070446
_publ_section_title
;
Structure prediction by ZEFSAII (Michael W. Deem and Ramdas Pophale) SiO2 
 PCOD8070446
Probable space group: P 21/M
;
_chemical_formula_sum "Si O2"
_cell_formula_units_Z 32
_cell_length_a 24.212202
_cell_length_b 9.226634
_cell_length_c 24.199599
_cell_angle_alpha 90.000000
_cell_angle_beta 161.479809
_cell_angle_gamma 90.000000
_cell_volume 1717.193884
_symmetry_space_group_name_H-M "P 21/M"
_symmetry_group_IT_number 11
_symmetry_cell_setting 'monoclinic'
loop_
_space_group_symop_operation_xyz
x,y,z
-x,1/2+y,-z
-x,-y,-z
x,1/2-y,z
loop_
_atom_site_type_symbol
_atom_site_label
_atom_site_fract_x
_atom_site_fract_y
_atom_site_fract_z
Si Si1 0.137849 0.418883 0.704974
Si Si2 0.975004 0.421949 0.147889
Si Si3 0.646047 0.577998 0.473109
Si Si4 0.579142 0.078553 0.953164
Si Si5 0.372087 0.922485 0.125568
Si Si6 0.477661 0.912297 0.423371
Si Si7 0.798319 0.582594 0.361863
Si Si8 0.923903 0.087702 0.978185
O O1 0.127675 0.250000 0.710206
O O2 0.201704 0.445105 0.703385
O O3 0.947201 0.488159 0.532824
O O4 0.274970 0.496534 0.874148
O O5 0.953925 0.250000 0.123968
O O6 0.153737 0.466373 0.348248
O O7 0.812646 0.485459 0.028295
O O8 0.980637 0.482779 0.090514
O O9 0.622372 0.750000 0.452229
O O10 0.526025 0.514063 0.310375
O O11 0.589387 0.517298 0.479485
O O12 0.608553 0.250000 0.987805
O O13 0.595928 0.025010 0.906180
O O14 0.388503 0.032443 0.792993
O O15 0.372432 0.750000 0.128072
O O16 0.542757 0.750000 0.497611
O O17 0.281965 0.912800 0.217391
O O18 0.500000 0.000000 0.500000
O O19 0.834806 0.750000 0.410823
O O20 0.998057 0.250000 0.043206
O O21 0.000000 0.000000 0.000000
#
# Coordination Sequence:
#
# PCOD8070446 Si02
#       8
#     4   4   4   4   4   4   4   4
#     4  10  20  34  54  79 111 149 184 220 267 325
#     4   9  16  28  47  69  96 128 160 202 256 305
#     4   9  16  28  46  67  95 128 159 199 251 302
#     4  10  20  33  54  81 110 140 178 229 275 318
#     4   9  17  30  47  72 101 130 168 211 257 309
#     4  10  19  31  48  71 100 127 159 203 247 303
#     4   9  19  35  54  80 112 145 182 226 273 315
#     4  10  19  31  48  72 101 128 160 204 250 305
#
# _framework density 18.635052999999999
#
# number of rings (size 3 to 8) (size 9 to 14) (size 15 to 20)
#    0.000    2.500    1.250    1.500    0.000    3.500 
#    0.000    3.750    0.000    1.500    0.000    1.750 
#    0.000    0.000    0.000    0.000    0.000    0.000 
#
# Total GULP energy -396743.454873 kJ/mol
# GULP energy per Si atom -12398.232965 kJ/mol
# Density = 1.859264 g / cm^3
# Si number density = 18.635053 Si / 1000 Ang^3
#
#
#
# Elastic Constant Matrix: (Units=GPa)
#
#
# Indices 1 2 3 4 5 6 
#
# 1 121.4996 34.9966 86.5626 0.0000 -6.0811 0.0000
# 2 34.9966 46.6844 43.6422 0.0000 -7.9298 0.0000
# 3 86.5626 43.6422 170.8685 0.0000 -1.7045 0.0000
# 4 0.0000 0.0000 0.0000 20.4519 0.0000 -3.9881
# 5 -6.0811 -7.9298 -1.7045 0.0000 15.6703 0.0000
# 6 0.0000 0.0000 0.0000 -3.9881 0.0000 19.4551
#
#
#
# Elastic Compliance Matrix: (Units=1/GPa)
#
#
# Indices 1 2 3 4 5 6 
#
# 1 0.013788 -0.004483 -0.005815 0.000000 0.002449 0.000000
# 2 -0.004483 0.032757 -0.005954 0.000000 0.014189 0.000000
# 3 -0.005815 -0.005954 0.010278 0.000000 -0.004152 0.000000
# 4 0.000000 0.000000 0.000000 0.050931 0.000000 0.010440
# 5 0.002449 0.014189 -0.004152 0.000000 0.071494 0.000000
# 6 0.000000 0.000000 0.000000 0.010440 0.000000 0.053541
#
#
# Mechanical properties :
#
#
# Convention : Reuss Voigt Hill
#
# Bulk Modulus (GPa) = 41.12238 74.38392 57.75315
# Shear Modulus (GPa) = 18.28827 22.70554 20.49690
#
# Velocity S-wave (km/s) = 3.13611 3.49439 3.32009
# Velocity P-wave (km/s) = 5.93538 7.50225 6.76434
#
# Compressibility (1/GPa) = 0.02431766
#
# Stress axis : x y z
#
# Youngs Moduli (GPa) = 72.52914 30.52754 97.29738
#
# Poissons Ratio (x) = 0.13687 0.56581
# Poissons Ratio (y) = 0.32518 0.57929
# Poissons Ratio (z) = 0.42178 0.18176
#
# Static dielectric constant tensor:
#      x y z
#    x 3.447130 0.000000 0.080470 
#    y 0.000000 3.009230 0.000000 
#    z 0.080470 0.000000 3.608120 
# 
# 
# High freq. dielectric constant tensor:
#      x y z
#    x 1.726210 0.000000 0.003250 
#    y 0.000000 1.670210 0.000000 
#    z 0.003250 0.000000 1.741420 
# 
# From -- ./inp_files/70009.got.cif
#   From: 2010.06.25/outbox.cif.g09.slc.cpg/sg11_36_cif.got.tgz:70009.got - 2010.06.27 23:14:04.
