data_PCOD8070673
_publ_section_title
;
Structure prediction by ZEFSAII (Michael W. Deem and Ramdas Pophale) SiO2 
 PCOD8070673
Probable space group: P 21/M
;
_chemical_formula_sum "Si O2"
_cell_formula_units_Z 28
_cell_length_a 10.315512
_cell_length_b 9.162187
_cell_length_c 19.576224
_cell_angle_alpha 90.000000
_cell_angle_beta 57.906662
_cell_angle_gamma 90.000000
_cell_volume 1567.459971
_symmetry_space_group_name_H-M "P 21/M"
_symmetry_group_IT_number 11
_symmetry_cell_setting 'monoclinic'
loop_
_space_group_symop_operation_xyz
x,y,z
-x,1/2+y,-z
-x,-y,-z
x,1/2-y,z
loop_
_atom_site_type_symbol
_atom_site_label
_atom_site_fract_x
_atom_site_fract_y
_atom_site_fract_z
Si Si1 0.919008 0.920167 0.583617
Si Si2 0.814962 0.083667 0.829806
Si Si3 0.565233 0.579789 0.685754
Si Si4 0.064301 0.922089 0.683621
Si Si5 0.505759 0.422727 0.837989
Si Si6 0.373929 0.919156 0.991685
Si Si7 0.586543 0.421737 0.414481
O O1 0.947794 0.750000 0.566290
O O2 0.742196 0.960883 0.631973
O O3 0.992207 0.977565 0.633105
O O4 0.000000 0.000000 0.500000
O O5 0.851042 0.250000 0.800874
O O6 0.669512 0.031770 0.824880
O O7 0.781926 0.067114 0.920429
O O8 0.965397 0.989669 0.772584
O O9 0.539650 0.750000 0.709555
O O10 0.489668 0.483097 0.766062
O O11 0.490258 0.534543 0.635330
O O12 0.053896 0.750000 0.694478
O O13 0.238688 0.976320 0.637891
O O14 0.481189 0.250000 0.846086
O O15 0.368889 0.499355 0.919933
O O16 0.418250 0.750000 0.968966
O O17 0.500000 0.000000 0.000000
O O18 0.500000 0.500000 0.500000
O O19 0.576769 0.250000 0.430857
#
# Coordination Sequence:
#
# PCOD8070673 Si02
#       7
#     4   4   4   4   4   4   4
#     4  10  20  32  49  73  98 129 166 208 260 308
#     4   9  18  31  49  77 107 136 171 209 255 306
#     4  10  20  35  53  74 103 138 173 212 263 314
#     4  10  20  34  52  75 103 134 172 214 257 307
#     4  10  19  31  50  79 108 137 175 215 261 310
#     4   9  17  29  47  75 110 142 173 211 257 310
#     4  10  22  38  55  76 103 137 177 217 261 314
#
# _framework density 17.863294
#
# number of rings (size 3 to 8) (size 9 to 14) (size 15 to 20)
#    0.000    2.286    1.429    2.571    0.000    5.143 
#    0.000    0.000    0.000    0.857    0.000    0.000 
#    0.000    0.000    0.000    0.000    0.000    0.000 
#
# Total GULP energy -347176.988725 kJ/mol
# GULP energy per Si atom -12399.178169 kJ/mol
# Density = 1.782264 g / cm^3
# Si number density = 17.863294 Si / 1000 Ang^3
#
#
#
# Elastic Constant Matrix: (Units=GPa)
#
#
# Indices 1 2 3 4 5 6 
#
# 1 109.1264 34.4818 61.8995 0.0000 2.6983 0.0000
# 2 34.4818 71.2534 71.4639 0.0000 3.8758 0.0000
# 3 61.8995 71.4639 162.4229 0.0000 8.4308 0.0000
# 4 0.0000 0.0000 0.0000 42.4790 0.0000 1.4872
# 5 2.6983 3.8758 8.4308 0.0000 22.5428 0.0000
# 6 0.0000 0.0000 0.0000 1.4872 0.0000 10.3135
#
#
#
# Elastic Compliance Matrix: (Units=1/GPa)
#
#
# Indices 1 2 3 4 5 6 
#
# 1 0.011876 -0.002163 -0.003589 0.000000 0.000293 0.000000
# 2 -0.002163 0.025514 -0.010389 0.000000 -0.000242 0.000000
# 3 -0.003589 -0.010389 0.012218 0.000000 -0.002354 0.000000
# 4 0.000000 0.000000 0.000000 0.023660 0.000000 -0.003412
# 5 0.000293 -0.000242 -0.002354 0.000000 0.045247 0.000000
# 6 0.000000 0.000000 0.000000 -0.003412 0.000000 0.097453
#
#
# Mechanical properties :
#
#
# Convention : Reuss Voigt Hill
#
# Bulk Modulus (GPa) = 57.71998 75.38813 66.55405
# Shear Modulus (GPa) = 19.68308 26.73090 23.20699
#
# Velocity S-wave (km/s) = 3.32305 3.87255 3.60827
# Velocity P-wave (km/s) = 6.86336 7.89240 7.39580
#
# Compressibility (1/GPa) = 0.01732502
#
# Stress axis : x y z
#
# Youngs Moduli (GPa) = 84.20383 39.19431 81.84769
#
# Poissons Ratio (x) = 0.08478 0.29379
# Poissons Ratio (y) = 0.18214 0.85030
# Poissons Ratio (z) = 0.30224 0.40718
#
# Static dielectric constant tensor:
#      x y z
#    x 3.042550 0.000000 0.275740 
#    y 0.000000 3.555610 0.000000 
#    z 0.275740 0.000000 3.205170 
# 
# 
# High freq. dielectric constant tensor:
#      x y z
#    x 1.657080 0.000000 0.004740 
#    y 0.000000 1.691930 0.000000 
#    z 0.004740 0.000000 1.707810 
# 
# From -- ./inp_files/42356.got.cif
#   From: 2010.06.25/outbox.cif.g09.slc.cpg/sg11_22_cif.got.tgz:42356.got - 2010.06.27 23:14:04.
