data_PCOD8070559
_publ_section_title
;
Structure prediction by ZEFSAII (Michael W. Deem and Ramdas Pophale) SiO2 
 PCOD8070559
Probable space group: P 21/M
;
_chemical_formula_sum "Si O2"
_cell_formula_units_Z 32
_cell_length_a 27.234966
_cell_length_b 9.103228
_cell_length_c 15.475647
_cell_angle_alpha 90.000000
_cell_angle_beta 151.974017
_cell_angle_gamma 90.000000
_cell_volume 1802.812522
_symmetry_space_group_name_H-M "P 21/M"
_symmetry_group_IT_number 11
_symmetry_cell_setting 'monoclinic'
loop_
_space_group_symop_operation_xyz
x,y,z
-x,1/2+y,-z
-x,-y,-z
x,1/2-y,z
loop_
_atom_site_type_symbol
_atom_site_label
_atom_site_fract_x
_atom_site_fract_y
_atom_site_fract_z
Si Si1 0.848753 0.421219 0.924491
Si Si2 0.739849 0.079061 0.315057
Si Si3 0.596329 0.579586 0.966577
Si Si4 0.082793 0.418032 0.321692
Si Si5 0.190858 0.422335 0.312972
Si Si6 0.370806 0.579776 0.680342
Si Si7 0.345280 0.420939 0.304037
Si Si8 0.532414 0.580040 0.677421
O O1 0.823323 0.250000 0.872982
O O2 0.854099 0.496297 0.839777
O O3 0.763495 0.495543 0.853557
O O4 0.960019 0.444872 0.143791
O O5 0.751993 0.250000 0.318513
O O6 0.662756 0.040653 0.274542
O O7 0.854901 0.015320 0.512229
O O8 0.692948 0.009665 0.155528
O O9 0.623556 0.750000 0.016826
O O10 0.491953 0.540562 0.857693
O O11 0.583237 0.532613 0.846700
O O12 0.114180 0.250000 0.387212
O O13 0.114495 0.462013 0.273453
O O14 0.196792 0.250000 0.303171
O O15 0.306764 0.481493 0.513149
O O16 0.348911 0.750000 0.624529
O O17 0.329536 0.250000 0.299632
O O18 0.429620 0.483356 0.502466
O O19 0.382231 0.449730 0.263808
O O20 0.497354 0.750000 0.624556
#
# Coordination Sequence:
#
# PCOD8070559 Si02
#       8
#     4   4   4   4   4   4   4   4
#     4  11  21  33  51  73  99 133 169 203 245 299
#     4  10  20  32  48  72 101 131 165 206 246 285
#     4  10  19  32  51  71  96 132 168 200 239 292
#     4   9  20  36  51  69  97 134 171 205 245 293
#     4  10  19  31  49  74 102 131 165 206 247 289
#     4   9  18  31  47  71 103 136 165 196 240 293
#     4  10  20  34  53  78 105 130 161 204 249 294
#     4   9  19  35  54  77 104 133 163 199 248 299
#
# _framework density 17.750043000000002
#
# number of rings (size 3 to 8) (size 9 to 14) (size 15 to 20)
#    0.000    2.250    0.000    3.000    0.000    4.500 
#    0.000    0.000    0.000    0.750    0.000    0.000 
#    0.000    0.000    0.000    0.000    0.000    0.000 
#
# Total GULP energy -396922.655519 kJ/mol
# GULP energy per Si atom -12403.832985 kJ/mol
# Density = 1.770964 g / cm^3
# Si number density = 17.750043 Si / 1000 Ang^3
#
#
#
# Elastic Constant Matrix: (Units=GPa)
#
#
# Indices 1 2 3 4 5 6 
#
# 1 70.3940 40.5664 56.4579 0.0000 -0.1851 0.0000
# 2 40.5664 96.5070 69.8656 0.0000 -0.4449 0.0000
# 3 56.4579 69.8656 127.1918 0.0000 -4.6647 0.0000
# 4 0.0000 0.0000 0.0000 33.5820 0.0000 -0.4292
# 5 -0.1851 -0.4449 -4.6647 0.0000 26.4248 0.0000
# 6 0.0000 0.0000 0.0000 -0.4292 0.0000 25.3156
#
#
#
# Elastic Compliance Matrix: (Units=1/GPa)
#
#
# Indices 1 2 3 4 5 6 
#
# 1 0.022898 -0.003715 -0.008173 0.000000 -0.001345 0.000000
# 2 -0.003715 0.017856 -0.008202 0.000000 -0.001173 0.000000
# 3 -0.008173 -0.008202 0.016092 0.000000 0.002645 0.000000
# 4 0.000000 0.000000 0.000000 0.029784 0.000000 0.000505
# 5 -0.001345 -0.001173 0.002645 0.000000 0.038281 0.000000
# 6 0.000000 0.000000 0.000000 0.000505 0.000000 0.039510
#
#
# Mechanical properties :
#
#
# Convention : Reuss Voigt Hill
#
# Bulk Modulus (GPa) = 60.00010 69.76362 64.88186
# Shear Modulus (GPa) = 23.79185 25.54468 24.66827
#
# Velocity S-wave (km/s) = 3.66510 3.79771 3.73199
# Velocity P-wave (km/s) = 7.19630 7.65629 7.42986
#
# Compressibility (1/GPa) = 0.01666664
#
# Stress axis : x y z
#
# Youngs Moduli (GPa) = 43.67283 56.00360 62.14117
#
# Poissons Ratio (x) = 0.20803 0.50786
# Poissons Ratio (y) = 0.16222 0.50971
# Poissons Ratio (z) = 0.35693 0.45936
#
# Static dielectric constant tensor:
#      x y z
#    x 3.194150 0.000000 0.018310 
#    y 0.000000 3.341100 0.000000 
#    z 0.018310 0.000000 3.203110 
# 
# 
# High freq. dielectric constant tensor:
#      x y z
#    x 1.667020 0.000000 0.000510 
#    y 0.000000 1.694710 0.000000 
#    z 0.000510 0.000000 1.682530 
# 
# From -- ./inp_files/51783.got.cif
#   From: 2010.06.25/outbox.cif.g09.slc.cpg/sg11_26_cif.got.tgz:51783.got - 2010.06.27 23:14:04.
