data_PCOD8070342
_publ_section_title
;
Structure prediction by ZEFSAII (Michael W. Deem and Ramdas Pophale) SiO2 
 PCOD8070342
Probable space group: P 21/M
;
_chemical_formula_sum "Si O2"
_cell_formula_units_Z 32
_cell_length_a 16.527713
_cell_length_b 9.493314
_cell_length_c 16.662795
_cell_angle_alpha 90.000000
_cell_angle_beta 52.261656
_cell_angle_gamma 90.000000
_cell_volume 2067.534981
_symmetry_space_group_name_H-M "P 21/M"
_symmetry_group_IT_number 11
_symmetry_cell_setting 'monoclinic'
loop_
_space_group_symop_operation_xyz
x,y,z
-x,1/2+y,-z
-x,-y,-z
x,1/2-y,z
loop_
_atom_site_type_symbol
_atom_site_label
_atom_site_fract_x
_atom_site_fract_y
_atom_site_fract_z
Si Si1 0.729789 0.593075 0.214665
Si Si2 0.978366 0.589162 0.789261
Si Si3 0.478872 0.085982 0.593414
Si Si4 0.929935 0.909611 0.645276
Si Si5 0.913067 0.917067 0.004644
Si Si6 0.823640 0.591579 0.327829
Si Si7 0.303836 0.910992 0.481136
Si Si8 0.851684 0.412520 0.557448
O O1 0.700900 0.750000 0.205265
O O2 0.620887 0.518939 0.300826
O O3 0.800601 0.526376 0.101325
O O4 0.803875 0.591753 0.245826
O O5 0.019002 0.750000 0.768750
O O6 0.071931 0.486628 0.718300
O O7 0.906619 0.569798 0.754295
O O8 0.918050 0.550094 0.906845
O O9 0.458542 0.250000 0.581960
O O10 0.573406 0.073878 0.598179
O O11 0.500000 0.000000 0.500000
O O12 0.910281 0.750000 0.630583
O O13 0.048295 0.950871 0.555916
O O14 0.852408 0.004121 0.640897
O O15 0.925198 0.750000 0.015217
O O16 0.000000 0.000000 0.000000
O O17 0.830950 0.750000 0.357399
O O18 0.730667 0.511463 0.426255
O O19 0.272187 0.750000 0.520496
O O20 0.249433 0.956870 0.431174
O O21 0.848380 0.250000 0.582428
#
# Coordination Sequence:
#
# PCOD8070342 Si02
#       8
#     4   4   4   4   4   4   4   4
#     4   9  18  31  43  64  93 118 148 189 218 249
#     4  10  19  31  46  65  90 122 154 183 219 267
#     4  10  19  31  47  65  90 120 151 184 220 259
#     4   9  17  29  43  62  88 114 145 183 221 265
#     4  10  19  31  47  65  90 120 151 184 220 259
#     4  11  19  27  44  66  93 122 151 187 220 254
#     4  10  19  31  46  65  90 122 154 183 219 267
#     4   9  17  29  43  62  88 114 145 183 221 265
#
# _framework density 15.477368999999999
#
# number of rings (size 3 to 8) (size 9 to 14) (size 15 to 20)
#    0.000    2.250    3.750    0.375    0.000    1.000 
#    0.000    0.625    0.000    0.000    0.000    0.875 
#    0.000    0.000    0.000    0.000    0.000    0.000 
#
# Total GULP energy -396602.635239 kJ/mol
# GULP energy per Si atom -12393.832351 kJ/mol
# Density = 1.544214 g / cm^3
# Si number density = 15.477369 Si / 1000 Ang^3
#
#
#
# Elastic Constant Matrix: (Units=GPa)
#
#
# Indices 1 2 3 4 5 6 
#
# 1 87.2277 27.9106 43.9273 0.0000 4.8160 0.0000
# 2 27.9106 48.4714 30.2458 0.0000 3.2036 0.0000
# 3 43.9273 30.2458 101.8470 0.0000 0.3050 0.0000
# 4 0.0000 0.0000 0.0000 16.0026 0.0000 4.1206
# 5 4.8160 3.2036 0.3050 0.0000 25.5112 0.0000
# 6 0.0000 0.0000 0.0000 4.1206 0.0000 21.1590
#
#
#
# Elastic Compliance Matrix: (Units=1/GPa)
#
#
# Indices 1 2 3 4 5 6 
#
# 1 0.016078 -0.005876 -0.005183 0.000000 -0.002235 0.000000
# 2 -0.005876 0.027717 -0.005690 0.000000 -0.002303 0.000000
# 3 -0.005183 -0.005690 0.013739 0.000000 0.001529 0.000000
# 4 0.000000 0.000000 0.000000 0.065789 0.000000 -0.012812
# 5 -0.002235 -0.002303 0.001529 0.000000 0.039891 0.000000
# 6 0.000000 0.000000 0.000000 -0.012812 0.000000 0.049756
#
#
# Mechanical properties :
#
#
# Convention : Reuss Voigt Hill
#
# Bulk Modulus (GPa) = 41.60345 49.07927 45.34136
# Shear Modulus (GPa) = 19.64791 21.56540 20.60665
#
# Velocity S-wave (km/s) = 3.56681 3.73681 3.65280
# Velocity P-wave (km/s) = 6.62581 7.09912 6.86655
#
# Compressibility (1/GPa) = 0.02403647
#
# Stress axis : x y z
#
# Youngs Moduli (GPa) = 62.19725 36.07898 72.78475
#
# Poissons Ratio (x) = 0.21201 0.37722
# Poissons Ratio (y) = 0.36548 0.41413
# Poissons Ratio (z) = 0.32235 0.20528
#
# Static dielectric constant tensor:
#      x y z
#    x 2.930950 0.000000 -0.004640 
#    y 0.000000 2.979820 0.000000 
#    z -0.004640 0.000000 3.038780 
# 
# 
# High freq. dielectric constant tensor:
#      x y z
#    x 1.579810 0.000000 0.005640 
#    y 0.000000 1.587760 0.000000 
#    z 0.005640 0.000000 1.573110 
# 
# From -- ./inp_files/60687.got.cif
#   From: 2010.06.25/outbox.cif.g09.slc.cpg/sg11_31_cif.got.tgz:60687.got - 2010.06.27 23:14:04.
