data_PCOD8070991
_publ_section_title
;
Structure prediction by ZEFSAII (Michael W. Deem and Ramdas Pophale) SiO2 
 PCOD8070991
Probable space group: P 21/M
;
_chemical_formula_sum "Si O2"
_cell_formula_units_Z 32
_cell_length_a 25.004328
_cell_length_b 8.874770
_cell_length_c 19.955524
_cell_angle_alpha 90.000000
_cell_angle_beta 157.361218
_cell_angle_gamma 90.000000
_cell_volume 1704.535518
_symmetry_space_group_name_H-M "P 21/M"
_symmetry_group_IT_number 11
_symmetry_cell_setting 'monoclinic'
loop_
_space_group_symop_operation_xyz
x,y,z
-x,1/2+y,-z
-x,-y,-z
x,1/2-y,z
loop_
_atom_site_type_symbol
_atom_site_label
_atom_site_fract_x
_atom_site_fract_y
_atom_site_fract_z
Si Si1 0.456835 0.074760 0.381412
Si Si2 0.246173 0.574738 0.305618
Si Si3 0.093975 0.571827 0.259234
Si Si4 0.811628 0.071673 0.910268
Si Si5 0.504094 0.072430 0.931511
Si Si6 0.758213 0.423091 0.435075
Si Si7 0.941966 0.077553 0.524470
Si Si8 0.218604 0.424572 0.777251
O O1 0.425678 0.250000 0.355806
O O2 0.590273 0.048873 0.487742
O O3 0.500000 0.000000 0.500000
O O4 0.317123 0.992684 0.194383
O O5 0.213655 0.750000 0.264856
O O6 0.158178 0.504273 0.264648
O O7 0.200690 0.507622 0.180633
O O8 0.068644 0.750000 0.226761
O O9 0.197732 0.530750 0.439321
O O10 0.949447 0.488588 0.104581
O O11 0.806069 0.250000 0.905840
O O12 0.509627 0.250000 0.946770
O O13 0.368686 0.027821 0.733079
O O14 0.500000 0.000000 0.000000
O O15 0.640573 0.018466 0.048642
O O16 0.708537 0.250000 0.373954
O O17 0.893599 0.447633 0.544696
O O18 0.915302 0.250000 0.470372
O O19 0.106515 0.040372 0.706705
O O20 0.850240 0.967781 0.373008
O O21 0.259590 0.250000 0.822702
#
# Coordination Sequence:
#
# PCOD8070991 Si02
#       8
#     4   4   4   4   4   4   4   4
#     4   9  16  29  50  76 104 133 170 218 268 312
#     4   8  16  31  52  78 105 135 176 223 265 311
#     4  10  20  35  54  76 104 140 178 217 268 318
#     4  10  19  32  51  77 107 139 179 222 264 312
#     4  12  23  36  56  81 107 137 173 214 260 314
#     4  10  21  37  56  78 106 139 175 219 266 317
#     4   9  18  33  53  78 107 135 170 214 259 311
#     4  10  19  32  54  82 106 134 170 212 261 307
#
# _framework density 18.773443
#
# number of rings (size 3 to 8) (size 9 to 14) (size 15 to 20)
#    0.000    2.250    1.250    3.375    0.000    1.000 
#    0.000    4.375    0.000    7.500    0.000    0.000 
#    0.000    0.000    0.000    0.000    0.000    0.000 
#
# Total GULP energy -396681.297448 kJ/mol
# GULP energy per Si atom -12396.290545 kJ/mol
# Density = 1.873071 g / cm^3
# Si number density = 18.773443 Si / 1000 Ang^3
#
#
#
# Elastic Constant Matrix: (Units=GPa)
#
#
# Indices 1 2 3 4 5 6 
#
# 1 44.0508 23.9514 33.6275 0.0000 9.8129 0.0000
# 2 23.9514 90.0249 53.7860 0.0000 8.3235 0.0000
# 3 33.6275 53.7860 118.4129 0.0000 20.0311 0.0000
# 4 0.0000 0.0000 0.0000 34.3005 0.0000 4.9342
# 5 9.8129 8.3235 20.0311 0.0000 28.5500 0.0000
# 6 0.0000 0.0000 0.0000 4.9342 0.0000 18.1246
#
#
#
# Elastic Compliance Matrix: (Units=1/GPa)
#
#
# Indices 1 2 3 4 5 6 
#
# 1 0.030635 -0.004113 -0.005961 0.000000 -0.005148 0.000000
# 2 -0.004113 0.015803 -0.006206 0.000000 0.001161 0.000000
# 3 -0.005961 -0.006206 0.013961 0.000000 -0.005937 0.000000
# 4 0.000000 0.000000 0.000000 0.030342 0.000000 -0.008260
# 5 -0.005148 0.001161 -0.005937 0.000000 0.040623 0.000000
# 6 0.000000 0.000000 0.000000 -0.008260 0.000000 0.057423
#
#
# Mechanical properties :
#
#
# Convention : Reuss Voigt Hill
#
# Bulk Modulus (GPa) = 35.92168 52.80207 44.36187
# Shear Modulus (GPa) = 21.68005 25.60325 23.64165
#
# Velocity S-wave (km/s) = 3.40196 3.69697 3.55253
# Velocity P-wave (km/s) = 5.88277 6.81252 6.36465
#
# Compressibility (1/GPa) = 0.02783834
#
# Stress axis : x y z
#
# Youngs Moduli (GPa) = 32.64293 63.27859 71.62692
#
# Poissons Ratio (x) = 0.26028 0.42693
# Poissons Ratio (y) = 0.13427 0.44455
# Poissons Ratio (z) = 0.19457 0.39274
#
# Static dielectric constant tensor:
#      x y z
#    x 3.638170 0.000000 0.419870 
#    y 0.000000 3.411030 0.000000 
#    z 0.419870 0.000000 3.554020 
# 
# 
# High freq. dielectric constant tensor:
#      x y z
#    x 1.711480 0.000000 0.031170 
#    y 0.000000 1.722380 0.000000 
#    z 0.031170 0.000000 1.724550 
# 
# From -- ./inp_files/67190.got.cif
#   From: 2010.06.25/outbox.cif.g09.slc.cpg/sg11_34_cif.got.tgz:67190.got - 2010.06.27 23:14:04.
