data_PCOD8070944
_publ_section_title
;
Structure prediction by ZEFSAII (Michael W. Deem and Ramdas Pophale) SiO2 
 PCOD8070944
Probable space group: P 21/M
;
_chemical_formula_sum "Si O2"
_cell_formula_units_Z 28
_cell_length_a 21.346941
_cell_length_b 8.952431
_cell_length_c 18.297940
_cell_angle_alpha 90.000000
_cell_angle_beta 26.635157
_cell_angle_gamma 90.000000
_cell_volume 1567.671244
_symmetry_space_group_name_H-M "P 21/M"
_symmetry_group_IT_number 11
_symmetry_cell_setting 'monoclinic'
loop_
_space_group_symop_operation_xyz
x,y,z
-x,1/2+y,-z
-x,-y,-z
x,1/2-y,z
loop_
_atom_site_type_symbol
_atom_site_label
_atom_site_fract_x
_atom_site_fract_y
_atom_site_fract_z
Si Si1 0.601961 0.581334 0.984772
Si Si2 0.651668 0.426502 0.336733
Si Si3 0.840866 0.575068 0.016563
Si Si4 0.907774 0.078098 0.155176
Si Si5 0.819652 0.578861 0.873776
Si Si6 0.299924 0.922115 0.256795
Si Si7 0.972315 0.925379 0.450956
O O1 0.625543 0.750000 0.930024
O O2 0.437682 0.546868 0.161073
O O3 0.665401 0.564355 0.999466
O O4 0.676737 0.467311 0.851950
O O5 0.500000 0.500000 0.500000
O O6 0.629690 0.250000 0.352465
O O7 0.744178 0.469011 0.313926
O O8 0.737029 0.484010 0.177254
O O9 0.806426 0.750000 0.062500
O O10 0.811397 0.520775 0.965109
O O11 0.008864 0.544955 0.855936
O O12 0.914713 0.250000 0.128731
O O13 0.000000 0.000000 0.000000
O O14 0.873205 0.750000 0.815222
O O15 0.921156 0.475181 0.721879
O O16 0.254220 0.750000 0.305923
O O17 0.180084 0.023031 0.417537
O O18 0.979657 0.750000 0.453695
O O19 0.000000 0.000000 0.500000
#
# Coordination Sequence:
#
# PCOD8070944 Si02
#       7
#     4   4   4   4   4   4   4
#     4   9  18  32  51  74 100 131 169 211 259 313
#     4  10  19  32  53  80 108 138 174 213 253 299
#     4   9  18  34  55  78 105 136 171 211 261 312
#     4   8  15  29  50  75 101 132 169 207 247 298
#     4  10  20  35  55  78 104 135 170 215 265 314
#     4  10  19  32  51  74  98 129 169 215 263 309
#     4  12  23  35  52  75 101 133 174 220 263 309
#
# _framework density 17.860887000000002
#
# number of rings (size 3 to 8) (size 9 to 14) (size 15 to 20)
#    0.000    2.286    1.429    2.143    0.000    1.714 
#    0.000    1.429    0.000    8.571    0.000    0.000 
#    0.000    0.000    0.000    0.000    0.000    0.000 
#
# Total GULP energy -346928.786197 kJ/mol
# GULP energy per Si atom -12390.313793 kJ/mol
# Density = 1.782024 g / cm^3
# Si number density = 17.860887 Si / 1000 Ang^3
#
#
#
# Elastic Constant Matrix: (Units=GPa)
#
#
# Indices 1 2 3 4 5 6 
#
# 1 142.7595 43.1449 66.2332 0.0000 -16.1790 0.0000
# 2 43.1449 84.9053 47.8099 0.0000 -6.5436 0.0000
# 3 66.2332 47.8099 102.2781 0.0000 -20.5314 0.0000
# 4 0.0000 0.0000 0.0000 31.6160 0.0000 -2.3287
# 5 -16.1790 -6.5436 -20.5314 0.0000 28.5433 0.0000
# 6 0.0000 0.0000 0.0000 -2.3287 0.0000 20.8116
#
#
#
# Elastic Compliance Matrix: (Units=1/GPa)
#
#
# Indices 1 2 3 4 5 6 
#
# 1 0.010310 -0.002080 -0.005407 0.000000 0.001477 0.000000
# 2 -0.002080 0.016503 -0.006831 0.000000 -0.002309 0.000000
# 3 -0.005407 -0.006831 0.018166 0.000000 0.008436 0.000000
# 4 0.000000 0.000000 0.000000 0.031892 0.000000 0.003569
# 5 0.001477 -0.002309 0.008436 0.000000 0.041410 0.000000
# 6 0.000000 0.000000 0.000000 0.003569 0.000000 0.048450
#
#
# Mechanical properties :
#
#
# Convention : Reuss Voigt Hill
#
# Bulk Modulus (GPa) = 61.19417 71.59098 66.39257
# Shear Modulus (GPa) = 24.89856 27.71118 26.30487
#
# Velocity S-wave (km/s) = 3.73772 3.94318 3.84182
# Velocity P-wave (km/s) = 7.27759 7.80392 7.54534
#
# Compressibility (1/GPa) = 0.01634143
#
# Stress axis : x y z
#
# Youngs Moduli (GPa) = 96.99670 60.59358 55.04937
#
# Poissons Ratio (x) = 0.12604 0.29767
# Poissons Ratio (y) = 0.20177 0.37604
# Poissons Ratio (z) = 0.52450 0.41392
#
# Static dielectric constant tensor:
#      x y z
#    x 3.850960 0.000000 -0.472550 
#    y 0.000000 3.376490 0.000000 
#    z -0.472550 0.000000 3.251970 
# 
# 
# High freq. dielectric constant tensor:
#      x y z
#    x 1.692640 0.000000 -0.033730 
#    y 0.000000 1.695840 0.000000 
#    z -0.033730 0.000000 1.668170 
# 
# From -- ./inp_files/61234.got.cif
#   From: 2010.06.25/outbox.cif.g09.slc.cpg/sg11_31_cif.got.tgz:61234.got - 2010.06.27 23:14:04.
