data_PCOD8070118
_publ_section_title
;
Structure prediction by ZEFSAII (Michael W. Deem and Ramdas Pophale) SiO2 
 PCOD8070118
Probable space group: P 21/M
;
_chemical_formula_sum "Si O2"
_cell_formula_units_Z 32
_cell_length_a 18.371710
_cell_length_b 9.166838
_cell_length_c 26.051148
_cell_angle_alpha 90.000000
_cell_angle_beta 151.165114
_cell_angle_gamma 90.000000
_cell_volume 2115.931927
_symmetry_space_group_name_H-M "P 21/M"
_symmetry_group_IT_number 11
_symmetry_cell_setting 'monoclinic'
loop_
_space_group_symop_operation_xyz
x,y,z
-x,1/2+y,-z
-x,-y,-z
x,1/2-y,z
loop_
_atom_site_type_symbol
_atom_site_label
_atom_site_fract_x
_atom_site_fract_y
_atom_site_fract_z
Si Si1 0.261668 0.916709 0.847512
Si Si2 0.245268 0.084295 0.992130
Si Si3 0.288490 0.580732 0.397118
Si Si4 0.474458 0.083649 0.053528
Si Si5 0.033483 0.418653 0.765158
Si Si6 0.889633 0.080574 0.000615
Si Si7 0.391669 0.419500 0.361810
Si Si8 0.189550 0.919835 0.163642
O O1 0.220391 0.750000 0.831418
O O2 0.344103 0.940191 0.842544
O O3 0.105961 0.004059 0.759726
O O4 0.385562 0.966377 0.965155
O O5 0.217835 0.250000 0.993856
O O6 0.127435 0.043243 0.874359
O O7 0.225169 0.975416 0.027103
O O8 0.417198 0.064624 0.076921
O O9 0.277233 0.750000 0.373308
O O10 0.302888 0.483862 0.355445
O O11 0.429502 0.554809 0.521956
O O12 0.138614 0.529020 0.334198
O O13 0.432539 0.250000 0.009977
O O14 0.039649 0.250000 0.756442
O O15 0.926094 0.250000 0.031419
O O16 0.811091 0.052475 0.897479
O O17 0.044285 0.991244 0.100822
O O18 0.351484 0.250000 0.332182
O O19 0.339030 0.503462 0.278185
O O20 0.190306 0.750000 0.177960
#
# Coordination Sequence:
#
# PCOD8070118 Si02
#       8
#     4   4   4   4   4   4   4   4
#     4   9  15  23  37  56  77 103 137 170 194 226
#     4   9  16  26  41  59  82 112 138 163 201 244
#     4   9  18  31  45  62  85 111 137 168 206 244
#     4   8  15  26  37  52  77 108 136 161 197 241
#     4   9  17  28  40  56  82 113 138 161 198 243
#     4  10  20  31  44  63  82 103 138 176 204 240
#     4  10  19  30  46  65  82 105 140 175 203 239
#     4  10  20  33  46  59  81 111 136 166 211 250
#
# _framework density 15.123360999999999
#
# number of rings (size 3 to 8) (size 9 to 14) (size 15 to 20)
#    0.000    2.750    0.000    3.000    0.000    6.000 
#    0.000    0.000    0.000    0.000    0.000    0.000 
#    0.000    1.000    0.000    2.250    0.000    4.250 
#
# Total GULP energy -396614.161099 kJ/mol
# GULP energy per Si atom -12394.192534 kJ/mol
# Density = 1.508894 g / cm^3
# Si number density = 15.123361 Si / 1000 Ang^3
#
#
#
# Elastic Constant Matrix: (Units=GPa)
#
#
# Indices 1 2 3 4 5 6 
#
# 1 117.8550 50.2531 43.7842 0.0000 24.7953 0.0000
# 2 50.2531 78.0412 37.8896 0.0000 5.9777 0.0000
# 3 43.7842 37.8896 63.6106 0.0000 10.4430 0.0000
# 4 0.0000 0.0000 0.0000 20.9003 0.0000 1.2697
# 5 24.7953 5.9777 10.4430 0.0000 23.4375 0.0000
# 6 0.0000 0.0000 0.0000 1.2697 0.0000 27.2577
#
#
#
# Elastic Compliance Matrix: (Units=1/GPa)
#
#
# Indices 1 2 3 4 5 6 
#
# 1 0.015939 -0.007002 -0.004666 0.000000 -0.012997 0.000000
# 2 -0.007002 0.021104 -0.008721 0.000000 0.005911 0.000000
# 3 -0.004666 -0.008721 0.024763 0.000000 -0.003873 0.000000
# 4 0.000000 0.000000 0.000000 0.047982 0.000000 -0.002235
# 5 -0.012997 0.005911 -0.003873 0.000000 0.056635 0.000000
# 6 0.000000 0.000000 0.000000 -0.002235 0.000000 0.036791
#
#
# Mechanical properties :
#
#
# Convention : Reuss Voigt Hill
#
# Bulk Modulus (GPa) = 47.55962 58.15118 52.85540
# Shear Modulus (GPa) = 19.92010 22.82441 21.37225
#
# Velocity S-wave (km/s) = 3.63323 3.88908 3.76333
# Velocity P-wave (km/s) = 7.00832 7.66167 7.34227
#
# Compressibility (1/GPa) = 0.02102624
#
# Stress axis : x y z
#
# Youngs Moduli (GPa) = 62.73988 47.38367 40.38270
#
# Poissons Ratio (x) = 0.33180 0.18843
# Poissons Ratio (y) = 0.43933 0.35219
# Poissons Ratio (z) = 0.29276 0.41325
#
# Static dielectric constant tensor:
#      x y z
#    x 3.116070 0.000000 0.242520 
#    y 0.000000 3.006810 0.000000 
#    z 0.242520 0.000000 2.696220 
# 
# 
# High freq. dielectric constant tensor:
#      x y z
#    x 1.577330 0.000000 0.021330 
#    y 0.000000 1.592250 0.000000 
#    z 0.021330 0.000000 1.532640 
# 
# From -- ./inp_files/56025.got.cif
#   From: 2010.06.25/outbox.cif.g09.slc.cpg/sg11_29_cif.got.tgz:56025.got - 2010.06.27 23:14:04.
