data_PCOD8070524
_publ_section_title
;
Structure prediction by ZEFSAII (Michael W. Deem and Ramdas Pophale) SiO2 
 PCOD8070524
Probable space group: P 21/M
;
_chemical_formula_sum "Si O2"
_cell_formula_units_Z 32
_cell_length_a 26.056770
_cell_length_b 8.872018
_cell_length_c 14.330934
_cell_angle_alpha 90.000000
_cell_angle_beta 144.954709
_cell_angle_gamma 90.000000
_cell_volume 1902.386090
_symmetry_space_group_name_H-M "P 21/M"
_symmetry_group_IT_number 11
_symmetry_cell_setting 'monoclinic'
loop_
_space_group_symop_operation_xyz
x,y,z
-x,1/2+y,-z
-x,-y,-z
x,1/2-y,z
loop_
_atom_site_type_symbol
_atom_site_label
_atom_site_fract_x
_atom_site_fract_y
_atom_site_fract_z
Si Si1 0.090098 0.926527 0.748733
Si Si2 0.554770 0.081011 0.330973
Si Si3 0.092194 0.573914 0.537230
Si Si4 0.650068 0.582443 0.986642
Si Si5 0.580810 0.926657 0.178379
Si Si6 0.411638 0.572151 0.412696
Si Si7 0.719326 0.424598 0.262360
Si Si8 0.742295 0.574362 0.932876
O O1 0.099064 0.750000 0.778709
O O2 0.111578 0.971340 0.673394
O O3 0.990305 0.979416 0.625960
O O4 0.157064 0.009980 0.919912
O O5 0.584335 0.250000 0.345558
O O6 0.450432 0.076850 0.198220
O O7 0.599941 0.030940 0.495166
O O8 0.579254 0.967474 0.284845
O O9 0.069140 0.750000 0.496844
O O10 0.177481 0.531221 0.600794
O O11 0.673459 0.750000 0.060117
O O12 0.710711 0.540449 0.990093
O O13 0.663551 0.458741 0.086100
O O14 0.570980 0.750000 0.150735
O O15 0.677128 0.979992 0.283650
O O16 0.500000 0.000000 0.000000
O O17 0.500000 0.500000 0.500000
O O18 0.420353 0.750000 0.411177
O O19 0.320965 0.512644 0.232366
O O20 0.708676 0.250000 0.270398
O O21 0.741086 0.750000 0.905668
#
# Coordination Sequence:
#
# PCOD8070524 Si02
#       8
#     4   4   4   4   4   4   4   4
#     4  10  19  32  50  75 104 137 174 212 257 308
#     4  10  21  38  53  72 102 137 176 218 258 298
#     4   9  19  33  49  74 104 136 172 211 258 309
#     4  10  19  31  49  72 103 139 175 213 253 298
#     4  12  24  36  52  75 102 136 176 215 258 306
#     4  11  22  36  54  76 104 137 176 217 259 308
#     4  11  21  34  52  75 103 137 176 214 256 306
#     4  11  21  34  51  75 106 141 177 214 258 305
#
# _framework density 16.820981
#
# number of rings (size 3 to 8) (size 9 to 14) (size 15 to 20)
#    0.000    1.500    3.750    2.625    0.000    3.000 
#    0.000    0.000    0.000    0.000    0.000    0.875 
#    0.000    0.000    0.000    0.000    0.000    0.000 
#
# Total GULP energy -396839.145427 kJ/mol
# GULP energy per Si atom -12401.223295 kJ/mol
# Density = 1.678270 g / cm^3
# Si number density = 16.820981 Si / 1000 Ang^3
#
#
#
# Elastic Constant Matrix: (Units=GPa)
#
#
# Indices 1 2 3 4 5 6 
#
# 1 75.7533 52.0718 46.2450 0.0000 8.4825 0.0000
# 2 52.0718 93.1793 49.3938 0.0000 -3.2158 0.0000
# 3 46.2450 49.3938 112.6926 0.0000 0.0569 0.0000
# 4 0.0000 0.0000 0.0000 30.3421 0.0000 1.3124
# 5 8.4825 -3.2158 0.0569 0.0000 18.9491 0.0000
# 6 0.0000 0.0000 0.0000 1.3124 0.0000 26.5672
#
#
#
# Elastic Compliance Matrix: (Units=1/GPa)
#
#
# Indices 1 2 3 4 5 6 
#
# 1 0.026721 -0.012518 -0.005472 0.000000 -0.014069 0.000000
# 2 -0.012518 0.019953 -0.003613 0.000000 0.009001 0.000000
# 3 -0.005472 -0.003613 0.012702 0.000000 0.001798 0.000000
# 4 0.000000 0.000000 0.000000 0.033028 0.000000 -0.001632
# 5 -0.014069 0.009001 0.001798 0.000000 0.060593 0.000000
# 6 0.000000 0.000000 0.000000 -0.001632 0.000000 0.037721
#
#
# Mechanical properties :
#
#
# Convention : Reuss Voigt Hill
#
# Bulk Modulus (GPa) = 61.83991 64.11627 62.97809
# Shear Modulus (GPa) = 20.89304 24.09931 22.49618
#
# Velocity S-wave (km/s) = 3.52814 3.78920 3.66100
# Velocity P-wave (km/s) = 7.31030 7.57256 7.44258
#
# Compressibility (1/GPa) = 0.01617079
#
# Stress axis : x y z
#
# Youngs Moduli (GPa) = 37.42386 50.11680 78.72804
#
# Poissons Ratio (x) = 0.62734 0.43077
# Poissons Ratio (y) = 0.46846 0.28448
# Poissons Ratio (z) = 0.20477 0.18109
#
# Static dielectric constant tensor:
#      x y z
#    x 3.087640 0.000000 0.091500 
#    y 0.000000 3.234270 0.000000 
#    z 0.091500 0.000000 3.128050 
# 
# 
# High freq. dielectric constant tensor:
#      x y z
#    x 1.626180 0.000000 0.010630 
#    y 0.000000 1.659970 0.000000 
#    z 0.010630 0.000000 1.635870 
# 
# From -- ./inp_files/56176.got.cif
#   From: 2010.06.25/outbox.cif.g09.slc.cpg/sg11_29_cif.got.tgz:56176.got - 2010.06.27 23:14:04.
