data_PCOD8070374
_publ_section_title
;
Structure prediction by ZEFSAII (Michael W. Deem and Ramdas Pophale) SiO2 
 PCOD8070374
Probable space group: P 21/M
;
_chemical_formula_sum "Si O2"
_cell_formula_units_Z 32
_cell_length_a 21.106996
_cell_length_b 9.288601
_cell_length_c 23.506779
_cell_angle_alpha 90.000000
_cell_angle_beta 23.533655
_cell_angle_gamma 90.000000
_cell_volume 1840.160746
_symmetry_space_group_name_H-M "P 21/M"
_symmetry_group_IT_number 11
_symmetry_cell_setting 'monoclinic'
loop_
_space_group_symop_operation_xyz
x,y,z
-x,1/2+y,-z
-x,-y,-z
x,1/2-y,z
loop_
_atom_site_type_symbol
_atom_site_label
_atom_site_fract_x
_atom_site_fract_y
_atom_site_fract_z
Si Si1 0.985462 0.582461 0.280247
Si Si2 0.663749 0.583227 0.734404
Si Si3 0.682598 0.414300 0.943235
Si Si4 0.822983 0.583205 0.299374
Si Si5 0.866556 0.079873 0.145774
Si Si6 0.478143 0.912933 0.573980
Si Si7 0.210070 0.082660 0.248672
Si Si8 0.129786 0.918590 0.520062
O O1 0.949406 0.750000 0.321334
O O2 0.942256 0.539343 0.251494
O O3 0.879461 0.489171 0.410301
O O4 0.170309 0.544357 0.137256
O O5 0.706163 0.750000 0.688635
O O6 0.475927 0.557236 0.890919
O O7 0.745754 0.527828 0.724960
O O8 0.722742 0.487542 0.633835
O O9 0.694219 0.250000 0.913718
O O10 0.678749 0.505890 0.888849
O O11 0.847282 0.750000 0.261224
O O12 0.861632 0.482378 0.213888
O O13 0.642098 0.561470 0.473957
O O14 0.904603 0.250000 0.116694
O O15 0.694308 0.048640 0.256476
O O16 0.000000 0.000000 0.000000
O O17 0.466192 0.750000 0.563735
O O18 0.500000 0.000000 0.500000
O O19 0.247616 0.250000 0.212191
O O20 0.027217 0.045748 0.387111
O O21 0.157490 0.750000 0.504639
#
# Coordination Sequence:
#
# PCOD8070374 Si02
#       8
#     4   4   4   4   4   4   4   4
#     4   9  18  34  53  70  91 123 160 194 231 277
#     4  10  19  31  47  68  94 121 152 193 241 288
#     4   9  18  31  48  70  94 122 156 193 234 283
#     4   9  17  32  54  74  93 123 161 195 229 273
#     4  10  19  31  49  75 105 130 153 187 231 274
#     4   8  15  28  47  71  95 120 152 188 224 263
#     4   9  18  31  47  68  92 120 154 193 239 288
#     4  10  20  32  47  68  93 121 156 197 237 278
#
# _framework density 17.389785
#
# number of rings (size 3 to 8) (size 9 to 14) (size 15 to 20)
#    0.000    2.750    0.000    1.500    0.000    2.500 
#    0.000    1.250    0.000    7.500    0.000    0.000 
#    0.000    0.000    0.000    0.000    0.000    0.000 
#
# Total GULP energy -396591.576592 kJ/mol
# GULP energy per Si atom -12393.486769 kJ/mol
# Density = 1.735021 g / cm^3
# Si number density = 17.389785 Si / 1000 Ang^3
#
#
#
# Elastic Constant Matrix: (Units=GPa)
#
#
# Indices 1 2 3 4 5 6 
#
# 1 82.3729 35.9296 47.7744 0.0000 2.6360 0.0000
# 2 35.9296 67.6570 53.6534 0.0000 5.0234 0.0000
# 3 47.7744 53.6534 117.5899 0.0000 2.9501 0.0000
# 4 0.0000 0.0000 0.0000 30.4385 0.0000 4.8831
# 5 2.6360 5.0234 2.9501 0.0000 16.1951 0.0000
# 6 0.0000 0.0000 0.0000 4.8831 0.0000 22.5331
#
#
#
# Elastic Compliance Matrix: (Units=1/GPa)
#
#
# Indices 1 2 3 4 5 6 
#
# 1 0.017143 -0.005589 -0.004408 0.000000 -0.000254 0.000000
# 2 -0.005589 0.025442 -0.009205 0.000000 -0.005305 0.000000
# 3 -0.004408 -0.009205 0.014471 0.000000 0.000937 0.000000
# 4 0.000000 0.000000 0.000000 0.034036 0.000000 -0.007376
# 5 -0.000254 -0.005305 0.000937 0.000000 0.063263 0.000000
# 6 0.000000 0.000000 0.000000 -0.007376 0.000000 0.045978
#
#
# Mechanical properties :
#
#
# Convention : Reuss Voigt Hill
#
# Bulk Modulus (GPa) = 53.61328 60.25941 56.93634
# Shear Modulus (GPa) = 20.41193 22.51748 21.46471
#
# Velocity S-wave (km/s) = 3.42978 3.60233 3.51711
# Velocity P-wave (km/s) = 6.82508 7.21317 7.02181
#
# Compressibility (1/GPa) = 0.01865210
#
# Stress axis : x y z
#
# Youngs Moduli (GPa) = 58.33453 39.30507 69.10139
#
# Poissons Ratio (x) = 0.21968 0.30461
# Poissons Ratio (y) = 0.32603 0.63606
# Poissons Ratio (z) = 0.25715 0.36179
#
# Static dielectric constant tensor:
#      x y z
#    x 3.302520 0.000000 -0.401370 
#    y 0.000000 3.262370 0.000000 
#    z -0.401370 0.000000 3.392330 
# 
# 
# High freq. dielectric constant tensor:
#      x y z
#    x 1.652030 0.000000 -0.017350 
#    y 0.000000 1.674750 0.000000 
#    z -0.017350 0.000000 1.670920 
# 
# From -- ./inp_files/67795.got.cif
#   From: 2010.06.25/outbox.cif.g09.slc.cpg/sg11_34_cif.got.tgz:67795.got - 2010.06.27 23:14:04.
