data_PCOD8070207
_publ_section_title
;
Structure prediction by ZEFSAII (Michael W. Deem and Ramdas Pophale) SiO2 
 PCOD8070207
Probable space group: P 21/M
;
_chemical_formula_sum "Si O2"
_cell_formula_units_Z 32
_cell_length_a 22.523002
_cell_length_b 9.051860
_cell_length_c 17.191709
_cell_angle_alpha 90.000000
_cell_angle_beta 30.028662
_cell_angle_gamma 90.000000
_cell_volume 1753.998580
_symmetry_space_group_name_H-M "P 21/M"
_symmetry_group_IT_number 11
_symmetry_cell_setting 'monoclinic'
loop_
_space_group_symop_operation_xyz
x,y,z
-x,1/2+y,-z
-x,-y,-z
x,1/2-y,z
loop_
_atom_site_type_symbol
_atom_site_label
_atom_site_fract_x
_atom_site_fract_y
_atom_site_fract_z
Si Si1 0.422837 0.079135 0.217995
Si Si2 0.364349 0.922179 0.740019
Si Si3 0.275767 0.921504 0.509749
Si Si4 0.065046 0.923644 0.645237
Si Si5 0.199623 0.074497 0.048518
Si Si6 0.754221 0.422539 0.687465
Si Si7 0.698037 0.080942 0.920520
Si Si8 0.393635 0.919603 0.531301
O O1 0.389571 0.250000 0.256506
O O2 0.378194 0.008683 0.348975
O O3 0.361330 0.005961 0.213147
O O4 0.562107 0.052021 0.053677
O O5 0.357010 0.750000 0.768588
O O6 0.340135 0.955448 0.676547
O O7 0.494679 0.978107 0.615439
O O8 0.264940 0.007903 0.900135
O O9 0.292718 0.750000 0.469859
O O10 0.145624 0.973437 0.627799
O O11 0.290291 0.950846 0.585410
O O12 0.048472 0.750000 0.663037
O O13 0.129446 0.975533 0.492360
O O14 0.933980 0.992557 0.800136
O O15 0.203018 0.250000 0.038105
O O16 0.262599 0.028181 0.056582
O O17 0.730557 0.250000 0.700421
O O18 0.773119 0.455844 0.757338
O O19 0.718113 0.250000 0.924618
O O20 0.437185 0.750000 0.478282
#
# Coordination Sequence:
#
# PCOD8070207 Si02
#       8
#     4   4   4   4   4   4   4   4
#     4  10  19  30  47  76 108 130 156 200 251 299
#     4  10  20  34  52  77 109 135 159 201 251 295
#     4   9  17  33  55  74  96 130 169 204 244 296
#     4   8  17  34  53  71  94 129 171 212 247 286
#     4  11  22  35  51  71  98 134 174 208 245 296
#     4   9  18  35  55  72  96 132 169 205 252 302
#     4  10  21  34  50  74 102 131 164 208 258 301
#     4   9  18  33  56  82 103 130 166 200 243 301
#
# _framework density 18.244028
#
# number of rings (size 3 to 8) (size 9 to 14) (size 15 to 20)
#    0.000    2.500    0.000    3.000    0.000    5.000 
#    0.000    5.625    0.000    0.000    0.000    0.000 
#    0.000    0.000    0.000    0.000    0.000    0.000 
#
# Total GULP energy -396762.618453 kJ/mol
# GULP energy per Si atom -12398.831827 kJ/mol
# Density = 1.820250 g / cm^3
# Si number density = 18.244028 Si / 1000 Ang^3
#
#
#
# Elastic Constant Matrix: (Units=GPa)
#
#
# Indices 1 2 3 4 5 6 
#
# 1 78.8817 36.6668 58.2378 0.0000 15.9432 0.0000
# 2 36.6668 69.4577 48.4006 0.0000 1.1001 0.0000
# 3 58.2378 48.4006 124.2551 0.0000 4.9751 0.0000
# 4 0.0000 0.0000 0.0000 19.5912 0.0000 1.4307
# 5 15.9432 1.1001 4.9751 0.0000 20.5254 0.0000
# 6 0.0000 0.0000 0.0000 1.4307 0.0000 21.1779
#
#
#
# Elastic Compliance Matrix: (Units=1/GPa)
#
#
# Indices 1 2 3 4 5 6 
#
# 1 0.026117 -0.007511 -0.008603 0.000000 -0.017799 0.000000
# 2 -0.007511 0.021935 -0.005261 0.000000 0.005934 0.000000
# 3 -0.008603 -0.005261 0.013986 0.000000 0.003574 0.000000
# 4 0.000000 0.000000 0.000000 0.051296 0.000000 -0.003465
# 5 -0.017799 0.005934 0.003574 0.000000 0.061361 0.000000
# 6 0.000000 0.000000 0.000000 -0.003465 0.000000 0.047453
#
#
# Mechanical properties :
#
#
# Convention : Reuss Voigt Hill
#
# Bulk Modulus (GPa) = 51.84466 62.13388 56.98927
# Shear Modulus (GPa) = 18.42786 20.87818 19.65302
#
# Velocity S-wave (km/s) = 3.18162 3.38655 3.28568
# Velocity P-wave (km/s) = 6.47888 7.03012 6.76012
#
# Compressibility (1/GPa) = 0.01928839
#
# Stress axis : x y z
#
# Youngs Moduli (GPa) = 38.28877 45.59026 71.49804
#
# Poissons Ratio (x) = 0.34242 0.61508
# Poissons Ratio (y) = 0.28758 0.37618
# Poissons Ratio (z) = 0.32939 0.23987
#
# Static dielectric constant tensor:
#      x y z
#    x 3.453770 0.000000 0.050320 
#    y 0.000000 3.293060 0.000000 
#    z 0.050320 0.000000 3.450340 
# 
# 
# High freq. dielectric constant tensor:
#      x y z
#    x 1.709870 0.000000 0.008840 
#    y 0.000000 1.698570 0.000000 
#    z 0.008840 0.000000 1.698590 
# 
# From -- ./inp_files/61775.got.cif
#   From: 2010.06.25/outbox.cif.g09.slc.cpg/sg11_31_cif.got.tgz:61775.got - 2010.06.27 23:14:04.
