data_PCOD8070520
_publ_section_title
;
Structure prediction by ZEFSAII (Michael W. Deem and Ramdas Pophale) SiO2 
 PCOD8070520
Probable space group: P 21/M
;
_chemical_formula_sum "Si O2"
_cell_formula_units_Z 20
_cell_length_a 25.987949
_cell_length_b 8.590120
_cell_length_c 5.207801
_cell_angle_alpha 90.000000
_cell_angle_beta 59.935656
_cell_angle_gamma 90.000000
_cell_volume 1006.176799
_symmetry_space_group_name_H-M "P 21/M"
_symmetry_group_IT_number 11
_symmetry_cell_setting 'monoclinic'
loop_
_space_group_symop_operation_xyz
x,y,z
-x,1/2+y,-z
-x,-y,-z
x,1/2-y,z
loop_
_atom_site_type_symbol
_atom_site_label
_atom_site_fract_x
_atom_site_fract_y
_atom_site_fract_z
Si Si1 0.232288 0.565623 0.169181
Si Si2 0.161463 0.565042 0.846212
Si Si3 0.968978 0.566792 0.827553
Si Si4 0.565666 0.434807 0.835821
Si Si5 0.365665 0.564488 0.835853
O O1 0.236348 0.750000 0.159161
O O2 0.197727 0.508170 0.507224
O O3 0.197785 0.508238 0.003610
O O4 0.298850 0.495991 0.002864
O O5 0.150793 0.750000 0.872850
O O6 0.099548 0.477597 0.001160
O O7 0.976888 0.750000 0.807779
O O8 0.000000 0.500000 0.500000
O O9 0.000000 0.500000 0.000000
O O10 0.563009 0.250000 0.842475
O O11 0.600189 0.497923 0.500007
O O12 0.500000 0.500000 0.000000
O O13 0.600197 0.497929 0.998979
O O14 0.363692 0.750000 0.840789
#
# Coordination Sequence:
#
# PCOD8070520 Si02
#       5
#     4   4   4   4   4
#     4   9  17  30  52  79 105 134 175 222 268 321
#     4  10  19  33  55  82 109 139 177 225 276 329
#     4  12  25  42  63  88 120 157 196 239 286 342
#     4  10  19  31  49  71  99 132 171 216 264 315
#     4   9  17  30  49  74 100 132 173 218 262 311
#
# _framework density 19.877220000000001
#
# number of rings (size 3 to 8) (size 9 to 14) (size 15 to 20)
#    0.000    2.000    0.000    4.800    0.000    6.400 
#    0.000    0.000    0.000    7.200    0.000    0.000 
#    0.000    0.000    0.000    0.000    0.000    0.000 
#
# Total GULP energy -248047.108151 kJ/mol
# GULP energy per Si atom -12402.355408 kJ/mol
# Density = 1.983198 g / cm^3
# Si number density = 19.877220 Si / 1000 Ang^3
#
#
#
# Elastic Constant Matrix: (Units=GPa)
#
#
# Indices 1 2 3 4 5 6 
#
# 1 217.4364 39.7141 127.8359 0.0000 3.1862 0.0000
# 2 39.7141 57.6367 39.4667 0.0000 -0.5843 0.0000
# 3 127.8359 39.4667 221.2913 0.0000 5.2103 0.0000
# 4 0.0000 0.0000 0.0000 20.6427 0.0000 -9.1483
# 5 3.1862 -0.5843 5.2103 0.0000 50.6939 0.0000
# 6 0.0000 0.0000 0.0000 -9.1483 0.0000 24.2087
#
#
#
# Elastic Compliance Matrix: (Units=1/GPa)
#
#
# Indices 1 2 3 4 5 6 
#
# 1 0.007250 -0.002427 -0.003753 0.000000 -0.000098 0.000000
# 2 -0.002427 0.020594 -0.002286 0.000000 0.000625 0.000000
# 3 -0.003753 -0.002286 0.007107 0.000000 -0.000521 0.000000
# 4 0.000000 0.000000 0.000000 0.058188 0.000000 0.021989
# 5 -0.000098 0.000625 -0.000521 0.000000 0.019793 0.000000
# 6 0.000000 0.000000 0.000000 0.021989 0.000000 0.049617
#
#
# Mechanical properties :
#
#
# Convention : Reuss Voigt Hill
#
# Bulk Modulus (GPa) = 55.49492 101.15530 78.32511
# Shear Modulus (GPa) = 26.95603 38.39892 32.67747
#
# Velocity S-wave (km/s) = 3.68656 4.40000 4.05898
# Velocity P-wave (km/s) = 6.78973 8.76435 7.83946
#
# Compressibility (1/GPa) = 0.01801967
#
# Stress axis : x y z
#
# Youngs Moduli (GPa) = 137.92414 48.55879 140.70551
#
# Poissons Ratio (x) = 0.11784 0.52811
# Poissons Ratio (y) = 0.33470 0.32160
# Poissons Ratio (z) = 0.51767 0.11099
#
# Static dielectric constant tensor:
#      x y z
#    x 3.961340 0.000000 0.114680 
#    y 0.000000 3.149030 0.000000 
#    z 0.114680 0.000000 4.005920 
# 
# 
# High freq. dielectric constant tensor:
#      x y z
#    x 1.798130 0.000000 0.001090 
#    y 0.000000 1.726460 0.000000 
#    z 0.001090 0.000000 1.798560 
# 
# From -- ./inp_files/8476.got.cif
#   From: 2010.06.25/outbox.cif.g09.slc.cpg/sg11_5_cif.got.tgz:8476.got - 2010.06.27 23:14:04.
