data_PCOD8070591
_publ_section_title
;
Structure prediction by ZEFSAII (Michael W. Deem and Ramdas Pophale) SiO2 
 PCOD8070591
Probable space group: P 21/M
;
_chemical_formula_sum "Si O2"
_cell_formula_units_Z 28
_cell_length_a 28.079723
_cell_length_b 8.553461
_cell_length_c 9.588249
_cell_angle_alpha 90.000000
_cell_angle_beta 140.590542
_cell_angle_gamma 90.000000
_cell_volume 1462.011005
_symmetry_space_group_name_H-M "P 21/M"
_symmetry_group_IT_number 11
_symmetry_cell_setting 'monoclinic'
loop_
_space_group_symop_operation_xyz
x,y,z
-x,1/2+y,-z
-x,-y,-z
x,1/2-y,z
loop_
_atom_site_type_symbol
_atom_site_label
_atom_site_fract_x
_atom_site_fract_y
_atom_site_fract_z
Si Si1 0.186976 0.566073 0.258388
Si Si2 0.263503 0.430511 0.952105
Si Si3 0.582562 0.934396 0.200221
Si Si4 0.957615 0.068474 0.207936
Si Si5 0.702141 0.066248 0.259339
Si Si6 0.315959 0.566025 0.349923
Si Si7 0.104420 0.928988 0.626312
O O1 0.183801 0.750000 0.229984
O O2 0.219968 0.521601 0.484375
O O3 0.241959 0.501762 0.262014
O O4 0.101786 0.504351 0.042478
O O5 0.275174 0.250000 0.011729
O O6 0.301549 0.471228 0.891461
O O7 0.175509 0.467960 0.746857
O O8 0.307479 0.528994 0.168133
O O9 0.584195 0.750000 0.179630
O O10 0.632300 0.019647 0.196250
O O11 0.612746 0.977113 0.422864
O O12 0.500000 0.000000 0.000000
O O13 0.977291 0.250000 0.233626
O O14 0.918414 0.037142 0.267252
O O15 0.034593 0.972401 0.367993
O O16 0.699226 0.250000 0.221674
O O17 0.327435 0.750000 0.398265
O O18 0.126828 0.750000 0.652579
#
# Coordination Sequence:
#
# PCOD8070591 Si02
#       7
#     4   4   4   4   4   4   4
#     4   8  15  31  55  79 104 139 186 234 280 332
#     4  12  23  36  54  82 116 151 190 237 286 341
#     4  11  22  40  64  93 121 150 185 225 270 327
#     4   9  16  30  50  76 106 139 184 239 288 335
#     4  10  21  38  60  84 113 152 189 231 284 338
#     4  10  19  36  60  86 113 149 190 232 277 332
#     4  10  19  31  49  75 108 146 186 235 289 341
#
# _framework density 19.151702
#
# number of rings (size 3 to 8) (size 9 to 14) (size 15 to 20)
#    0.000    2.000    1.429    4.714    0.000    0.571 
#    0.000    2.857    0.000    0.000    0.000    0.000 
#    0.000    0.000    0.000    0.000    0.000    0.000 
#
# Total GULP energy -347185.568865 kJ/mol
# GULP energy per Si atom -12399.484602 kJ/mol
# Density = 1.910811 g / cm^3
# Si number density = 19.151702 Si / 1000 Ang^3
#
#
#
# Elastic Constant Matrix: (Units=GPa)
#
#
# Indices 1 2 3 4 5 6 
#
# 1 52.1979 13.6733 39.2524 0.0000 -2.7940 0.0000
# 2 13.6733 58.6610 13.2241 0.0000 1.3905 0.0000
# 3 39.2524 13.2241 130.0689 0.0000 7.5433 0.0000
# 4 0.0000 0.0000 0.0000 30.4395 0.0000 0.5942
# 5 -2.7940 1.3905 7.5433 0.0000 29.3348 0.0000
# 6 0.0000 0.0000 0.0000 0.5942 0.0000 26.5819
#
#
#
# Elastic Compliance Matrix: (Units=1/GPa)
#
#
# Indices 1 2 3 4 5 6 
#
# 1 0.026463 -0.004522 -0.007801 0.000000 0.004741 0.000000
# 2 -0.004522 0.018224 -0.000419 0.000000 -0.001187 0.000000
# 3 -0.007801 -0.000419 0.010280 0.000000 -0.003367 0.000000
# 4 0.000000 0.000000 0.000000 0.032866 0.000000 -0.000735
# 5 0.004741 -0.001187 -0.003367 0.000000 0.035463 0.000000
# 6 0.000000 0.000000 0.000000 -0.000735 0.000000 0.037636
#
#
# Mechanical properties :
#
#
# Convention : Reuss Voigt Hill
#
# Bulk Modulus (GPa) = 33.91909 41.46968 37.69439
# Shear Modulus (GPa) = 25.47850 28.92309 27.20080
#
# Velocity S-wave (km/s) = 3.65136 3.89036 3.77275
# Velocity P-wave (km/s) = 5.96035 6.47148 6.22117
#
# Compressibility (1/GPa) = 0.02948192
#
# Stress axis : x y z
#
# Youngs Moduli (GPa) = 37.78932 54.87333 97.27299
#
# Poissons Ratio (x) = 0.24813 0.75884
# Poissons Ratio (y) = 0.17088 0.04079
# Poissons Ratio (z) = 0.29480 0.02301
#
# Static dielectric constant tensor:
#      x y z
#    x 3.217390 0.000000 0.050720 
#    y 0.000000 3.452200 0.000000 
#    z 0.050720 0.000000 3.813120 
# 
# 
# High freq. dielectric constant tensor:
#      x y z
#    x 1.714000 0.000000 0.001050 
#    y 0.000000 1.740150 0.000000 
#    z 0.001050 0.000000 1.755570 
# 
# From -- ./inp_files/28611.got.cif
#   From: 2010.06.25/outbox.cif.g09.slc.cpg/sg11_15_cif.got.tgz:28611.got - 2010.06.27 23:14:04.
