data_PCOD8070651
_publ_section_title
;
Structure prediction by ZEFSAII (Michael W. Deem and Ramdas Pophale) SiO2 
 PCOD8070651
Probable space group: P 21/M
;
_chemical_formula_sum "Si O2"
_cell_formula_units_Z 28
_cell_length_a 10.791453
_cell_length_b 11.195842
_cell_length_c 12.030963
_cell_angle_alpha 90.000000
_cell_angle_beta 90.683193
_cell_angle_gamma 90.000000
_cell_volume 1453.470430
_symmetry_space_group_name_H-M "P 21/M"
_symmetry_group_IT_number 11
_symmetry_cell_setting 'monoclinic'
loop_
_space_group_symop_operation_xyz
x,y,z
-x,1/2+y,-z
-x,-y,-z
x,1/2-y,z
loop_
_atom_site_type_symbol
_atom_site_label
_atom_site_fract_x
_atom_site_fract_y
_atom_site_fract_z
Si Si1 0.490311 0.494301 0.195071
Si Si2 0.897533 0.607340 0.486131
Si Si3 0.377362 0.618931 0.997489
Si Si4 0.832920 0.950819 0.076670
Si Si5 0.959549 0.882423 0.864672
Si Si6 0.716359 0.619747 0.289340
Si Si7 0.748459 0.612059 0.704838
O O1 0.453376 0.603885 0.113251
O O2 0.600241 0.529999 0.281402
O O3 0.379393 0.456032 0.274543
O O4 0.534234 0.390527 0.110412
O O5 0.945763 0.750000 0.486227
O O6 0.824302 0.575322 0.372808
O O7 0.795157 0.592261 0.580698
O O8 0.000000 0.500000 0.500000
O O9 0.317478 0.750000 0.996712
O O10 0.270606 0.520357 0.994649
O O11 0.915612 0.043736 0.147155
O O12 0.771992 0.864924 0.166136
O O13 0.916503 0.876268 0.992618
O O14 0.988757 0.750000 0.821423
O O15 0.853225 0.941207 0.787758
O O16 0.669755 0.750000 0.328254
O O17 0.725390 0.750000 0.732584
#
# Coordination Sequence:
#
# PCOD8070651 Si02
#       7
#     4   4   4   4   4   4   4
#     4  10  20  34  52  80 109 148 188 226 277 339
#     4  10  22  42  65  87 114 150 193 240 289 343
#     4  10  19  32  50  76 112 147 185 230 275 332
#     4  10  19  32  51  77 108 142 181 226 276 338
#     4  10  19  31  50  76 106 140 178 224 278 331
#     4  10  21  37  57  80 110 147 185 231 286 339
#     4  10  20  36  57  80 111 149 188 234 284 338
#
# _framework density 19.264237000000001
#
# number of rings (size 3 to 8) (size 9 to 14) (size 15 to 20)
#    0.000    2.000    1.429    2.571    0.000    0.571 
#    0.000    5.000    0.000    0.000    0.000    0.000 
#    0.000    0.000    0.000    0.000    0.000    0.000 
#
# Total GULP energy -346992.801981 kJ/mol
# GULP energy per Si atom -12392.600071 kJ/mol
# Density = 1.922039 g / cm^3
# Si number density = 19.264237 Si / 1000 Ang^3
#
#
#
# Elastic Constant Matrix: (Units=GPa)
#
#
# Indices 1 2 3 4 5 6 
#
# 1 88.4247 33.2438 23.9100 0.0000 11.6407 0.0000
# 2 33.2438 83.0866 24.2117 0.0000 10.7895 0.0000
# 3 23.9100 24.2117 76.0598 0.0000 14.6174 0.0000
# 4 0.0000 0.0000 0.0000 15.2482 0.0000 6.4674
# 5 11.6407 10.7895 14.6174 0.0000 37.4140 0.0000
# 6 0.0000 0.0000 0.0000 6.4674 0.0000 19.6851
#
#
#
# Elastic Compliance Matrix: (Units=1/GPa)
#
#
# Indices 1 2 3 4 5 6 
#
# 1 0.013992 -0.004592 -0.002546 0.000000 -0.002034 0.000000
# 2 -0.004592 0.014968 -0.002991 0.000000 -0.001719 0.000000
# 3 -0.002546 -0.002991 0.015766 0.000000 -0.004505 0.000000
# 4 0.000000 0.000000 0.000000 0.076200 0.000000 -0.025035
# 5 -0.002034 -0.001719 -0.004505 0.000000 0.029617 0.000000
# 6 0.000000 0.000000 0.000000 -0.025035 0.000000 0.059025
#
#
# Mechanical properties :
#
#
# Convention : Reuss Voigt Hill
#
# Bulk Modulus (GPa) = 40.86948 45.58913 43.22931
# Shear Modulus (GPa) = 21.01023 25.54982 23.28003
#
# Velocity S-wave (km/s) = 3.30606 3.64577 3.48006
# Velocity P-wave (km/s) = 5.98620 6.43729 6.21584
#
# Compressibility (1/GPa) = 0.02446813
#
# Stress axis : x y z
#
# Youngs Moduli (GPa) = 71.47096 66.81026 63.42945
#
# Poissons Ratio (x) = 0.30681 0.16147
# Poissons Ratio (y) = 0.32821 0.18969
# Poissons Ratio (z) = 0.18194 0.19980
#
# Static dielectric constant tensor:
#      x y z
#    x 3.478470 0.000000 0.109260 
#    y 0.000000 3.427920 0.000000 
#    z 0.109260 0.000000 3.440580 
# 
# 
# High freq. dielectric constant tensor:
#      x y z
#    x 1.747570 0.000000 0.008600 
#    y 0.000000 1.737520 0.000000 
#    z 0.008600 0.000000 1.744920 
# 
# From -- ./inp_files/34405.got.cif
#   From: 2010.06.25/outbox.cif.g09.slc.cpg/sg11_18_cif.got.tgz:34405.got - 2010.06.27 23:14:04.
