data_PCOD8070290
_publ_section_title
;
Structure prediction by ZEFSAII (Michael W. Deem and Ramdas Pophale) SiO2 
 PCOD8070290
Probable space group: P 21/M
;
_chemical_formula_sum "Si O2"
_cell_formula_units_Z 28
_cell_length_a 17.584681
_cell_length_b 8.994479
_cell_length_c 14.158704
_cell_angle_alpha 90.000000
_cell_angle_beta 43.975248
_cell_angle_gamma 90.000000
_cell_volume 1554.930260
_symmetry_space_group_name_H-M "P 21/M"
_symmetry_group_IT_number 11
_symmetry_cell_setting 'monoclinic'
loop_
_space_group_symop_operation_xyz
x,y,z
-x,1/2+y,-z
-x,-y,-z
x,1/2-y,z
loop_
_atom_site_type_symbol
_atom_site_label
_atom_site_fract_x
_atom_site_fract_y
_atom_site_fract_z
Si Si1 0.360630 0.073292 0.370221
Si Si2 0.829218 0.926314 0.328032
Si Si3 0.075222 0.575129 0.121544
Si Si4 0.738005 0.080977 0.907971
Si Si5 0.779935 0.573976 0.162031
Si Si6 0.595823 0.079224 0.218382
Si Si7 0.611449 0.925864 0.866587
O O1 0.357391 0.250000 0.371873
O O2 0.256758 0.006645 0.519566
O O3 0.471099 0.021790 0.325093
O O4 0.358935 0.015140 0.264360
O O5 0.822077 0.750000 0.336104
O O6 0.799439 0.984357 0.250550
O O7 0.950965 0.978590 0.248207
O O8 0.083731 0.750000 0.092213
O O9 0.144007 0.535992 0.154210
O O10 0.124023 0.492163 0.987762
O O11 0.739230 0.250000 0.869803
O O12 0.711548 0.972587 0.844876
O O13 0.645608 0.060972 0.069820
O O14 0.785066 0.750000 0.150605
O O15 0.660423 0.520037 0.236004
O O16 0.603997 0.250000 0.243924
O O17 0.595524 0.750000 0.882878
O O18 0.500000 0.000000 0.000000
#
# Coordination Sequence:
#
# PCOD8070290 Si02
#       7
#     4   4   4   4   4   4   4
#     4   9  18  33  51  72 100 134 170 202 242 303
#     4   9  18  33  52  73  99 134 172 207 243 292
#     4   9  18  34  55  74  97 134 172 203 243 298
#     4   9  17  31  50  75 101 127 165 205 246 291
#     4  10  19  30  50  79 103 126 166 215 252 284
#     4   9  17  32  51  72 101 136 168 200 246 303
#     4  11  20  32  53  77 100 128 164 204 248 295
#
# _framework density 18.007238000000001
#
# number of rings (size 3 to 8) (size 9 to 14) (size 15 to 20)
#    0.000    2.571    1.429    2.143    0.000    2.857 
#    0.000    1.429    0.000    6.857    0.000    0.000 
#    0.000    0.000    0.000    0.000    0.000    0.000 
#
# Total GULP energy -347176.231185 kJ/mol
# GULP energy per Si atom -12399.151114 kJ/mol
# Density = 1.796625 g / cm^3
# Si number density = 18.007238 Si / 1000 Ang^3
#
#
#
# Elastic Constant Matrix: (Units=GPa)
#
#
# Indices 1 2 3 4 5 6 
#
# 1 147.8597 36.6383 92.8898 0.0000 -10.4055 0.0000
# 2 36.6383 45.4576 31.7660 0.0000 1.4060 0.0000
# 3 92.8898 31.7660 136.6751 0.0000 -15.6837 0.0000
# 4 0.0000 0.0000 0.0000 16.4475 0.0000 0.9911
# 5 -10.4055 1.4060 -15.6837 0.0000 25.4359 0.0000
# 6 0.0000 0.0000 0.0000 0.9911 0.0000 28.3246
#
#
#
# Elastic Compliance Matrix: (Units=1/GPa)
#
#
# Indices 1 2 3 4 5 6 
#
# 1 0.012715 -0.005154 -0.007333 0.000000 0.000965 0.000000
# 2 -0.005154 0.029119 -0.003973 0.000000 -0.006168 0.000000
# 3 -0.007333 -0.003973 0.013887 0.000000 0.005783 0.000000
# 4 0.000000 0.000000 0.000000 0.060928 0.000000 -0.002132
# 5 0.000965 -0.006168 0.005783 0.000000 0.043616 0.000000
# 6 0.000000 0.000000 0.000000 -0.002132 0.000000 0.035380
#
#
# Mechanical properties :
#
#
# Convention : Reuss Voigt Hill
#
# Bulk Modulus (GPa) = 43.85517 72.50898 58.18207
# Shear Modulus (GPa) = 21.17159 25.28813 23.22986
#
# Velocity S-wave (km/s) = 3.43261 3.75151 3.59559
# Velocity P-wave (km/s) = 6.33383 7.68889 7.04402
#
# Compressibility (1/GPa) = 0.02280233
#
# Stress axis : x y z
#
# Youngs Moduli (GPa) = 78.64782 34.34136 72.00725
#
# Poissons Ratio (x) = 0.17698 0.52803
# Poissons Ratio (y) = 0.40531 0.28610
# Poissons Ratio (z) = 0.57673 0.13644
#
# Static dielectric constant tensor:
#      x y z
#    x 3.577940 0.000000 -0.097920 
#    y 0.000000 3.056220 0.000000 
#    z -0.097920 0.000000 3.421100 
# 
# 
# High freq. dielectric constant tensor:
#      x y z
#    x 1.711150 0.000000 -0.007390 
#    y 0.000000 1.668800 0.000000 
#    z -0.007390 0.000000 1.682510 
# 
# From -- ./inp_files/53209.got.cif
#   From: 2010.06.25/outbox.cif.g09.slc.cpg/sg11_27_cif.got.tgz:53209.got - 2010.06.27 23:14:04.
