data_PCOD8070667
_publ_section_title
;
Structure prediction by ZEFSAII (Michael W. Deem and Ramdas Pophale) SiO2 
 PCOD8070667
Probable space group: P 21/M
;
_chemical_formula_sum "Si O2"
_cell_formula_units_Z 32
_cell_length_a 12.160118
_cell_length_b 8.896003
_cell_length_c 28.458999
_cell_angle_alpha 90.000000
_cell_angle_beta 144.415304
_cell_angle_gamma 90.000000
_cell_volume 1791.451236
_symmetry_space_group_name_H-M "P 21/M"
_symmetry_group_IT_number 11
_symmetry_cell_setting 'monoclinic'
loop_
_space_group_symop_operation_xyz
x,y,z
-x,1/2+y,-z
-x,-y,-z
x,1/2-y,z
loop_
_atom_site_type_symbol
_atom_site_label
_atom_site_fract_x
_atom_site_fract_y
_atom_site_fract_z
Si Si1 0.565536 0.427351 0.372748
Si Si2 0.842760 0.923730 0.732529
Si Si3 0.281280 0.072991 0.664372
Si Si4 0.885743 0.575859 0.543787
Si Si5 0.627912 0.923543 0.200644
Si Si6 0.011010 0.421023 0.317009
Si Si7 0.485919 0.074554 0.067235
Si Si8 0.790865 0.573850 0.109032
O O1 0.582689 0.250000 0.370330
O O2 0.363621 0.474685 0.323216
O O3 0.586429 0.514875 0.331139
O O4 0.721447 0.478763 0.463949
O O5 0.879348 0.750000 0.756382
O O6 0.857614 0.956693 0.681987
O O7 0.994460 0.017813 0.815167
O O8 0.240043 0.250000 0.645442
O O9 0.391621 0.036194 0.751142
O O10 0.084685 0.984360 0.593675
O O11 0.866729 0.750000 0.522381
O O12 0.867694 0.554127 0.593592
O O13 0.594847 0.750000 0.179790
O O14 0.470723 0.011505 0.115167
O O15 0.836147 0.966386 0.255277
O O16 0.933364 0.250000 0.288549
O O17 0.517725 0.250000 0.080194
O O18 0.672652 0.005627 0.108705
O O19 0.298331 0.031918 0.972780
O O20 0.781666 0.750000 0.115006
#
# Coordination Sequence:
#
# PCOD8070667 Si02
#       8
#     4   4   4   4   4   4   4   4
#     4  11  23  37  53  75 103 139 180 216 260 314
#     4  10  21  36  53  74 106 143 175 213 258 309
#     4  10  21  37  56  78 104 133 173 224 267 304
#     4  10  20  35  56  79 103 133 172 219 267 312
#     4  10  19  31  52  81 106 132 171 217 261 306
#     4   9  18  33  52  75 104 138 171 207 261 315
#     4  10  19  31  50  78 111 140 168 207 256 306
#     4  10  20  32  50  78 108 140 175 209 248 302
#
# _framework density 17.862613
#
# number of rings (size 3 to 8) (size 9 to 14) (size 15 to 20)
#    0.000    2.000    1.250    2.625    0.000    5.000 
#    0.000    0.000    0.000    0.750    0.000    0.000 
#    0.000    0.000    0.000    0.000    0.000    0.000 
#
# Total GULP energy -396849.325294 kJ/mol
# GULP energy per Si atom -12401.541415 kJ/mol
# Density = 1.782196 g / cm^3
# Si number density = 17.862613 Si / 1000 Ang^3
#
#
#
# Elastic Constant Matrix: (Units=GPa)
#
#
# Indices 1 2 3 4 5 6 
#
# 1 108.3462 31.0376 54.4321 0.0000 -9.8003 0.0000
# 2 31.0376 57.2722 28.0523 0.0000 -10.1644 0.0000
# 3 54.4321 28.0523 72.6477 0.0000 -25.7539 0.0000
# 4 0.0000 0.0000 0.0000 32.9829 0.0000 -3.9715
# 5 -9.8003 -10.1644 -25.7539 0.0000 24.4506 0.0000
# 6 0.0000 0.0000 0.0000 -3.9715 0.0000 24.5235
#
#
#
# Elastic Compliance Matrix: (Units=1/GPa)
#
#
# Indices 1 2 3 4 5 6 
#
# 1 0.016819 -0.003678 -0.014896 0.000000 -0.010478 0.000000
# 2 -0.003678 0.022339 -0.004948 0.000000 0.002600 0.000000
# 3 -0.014896 -0.004948 0.038288 0.000000 0.032301 0.000000
# 4 0.000000 0.000000 0.000000 0.030922 0.000000 0.005008
# 5 -0.010478 0.002600 0.032301 0.000000 0.071803 0.000000
# 6 0.000000 0.000000 0.000000 0.005008 0.000000 0.041588
#
#
# Mechanical properties :
#
#
# Convention : Reuss Voigt Hill
#
# Bulk Modulus (GPa) = 32.89404 51.70114 42.29759
# Shear Modulus (GPa) = 17.92519 24.70768 21.31644
#
# Velocity S-wave (km/s) = 3.17125 3.72318 3.45824
# Velocity P-wave (km/s) = 5.64483 6.89126 6.29895
#
# Compressibility (1/GPa) = 0.03040064
#
# Stress axis : x y z
#
# Youngs Moduli (GPa) = 59.45561 44.76477 26.11812
#
# Poissons Ratio (x) = 0.16465 0.38906
# Poissons Ratio (y) = 0.21869 0.12924
# Poissons Ratio (z) = 0.88566 0.22151
#
# Static dielectric constant tensor:
#      x y z
#    x 3.292620 0.000000 -0.305360 
#    y 0.000000 3.398330 0.000000 
#    z -0.305360 0.000000 3.365930 
# 
# 
# High freq. dielectric constant tensor:
#      x y z
#    x 1.674040 0.000000 -0.028260 
#    y 0.000000 1.704400 0.000000 
#    z -0.028260 0.000000 1.686770 
# 
# From -- ./inp_files/40613.got.cif
#   From: 2010.06.25/outbox.cif.g09.slc.cpg/sg11_21_cif.got.tgz:40613.got - 2010.06.27 23:14:04.
