data_PCOD8070381
_publ_section_title
;
Structure prediction by ZEFSAII (Michael W. Deem and Ramdas Pophale) SiO2 
 PCOD8070381
Probable space group: P 21/M
;
_chemical_formula_sum "Si O2"
_cell_formula_units_Z 32
_cell_length_a 28.081749
_cell_length_b 13.573164
_cell_length_c 10.205641
_cell_angle_alpha 90.000000
_cell_angle_beta 151.541138
_cell_angle_gamma 90.000000
_cell_volume 1853.675220
_symmetry_space_group_name_H-M "P 21/M"
_symmetry_group_IT_number 11
_symmetry_cell_setting 'monoclinic'
loop_
_space_group_symop_operation_xyz
x,y,z
-x,1/2+y,-z
-x,-y,-z
x,1/2-y,z
loop_
_atom_site_type_symbol
_atom_site_label
_atom_site_fract_x
_atom_site_fract_y
_atom_site_fract_z
Si Si1 0.604285 0.859333 0.532890
Si Si2 0.243394 0.860565 0.827729
Si Si3 0.305981 0.358679 0.959276
Si Si4 0.133953 0.463475 0.665471
Si Si5 0.057253 0.477361 0.948014
Si Si6 0.433386 0.971182 0.217601
Si Si7 0.185939 0.367125 0.057135
Si Si8 0.910791 0.362810 0.772596
O O1 0.568288 0.750000 0.407607
O O2 0.508537 0.931974 0.285903
O O3 0.695711 0.892157 0.661079
O O4 0.645074 0.859503 0.779295
O O5 0.233678 0.750000 0.859319
O O6 0.186641 0.872759 0.552847
O O7 0.194959 0.932939 0.819142
O O8 0.359344 0.884195 0.083694
O O9 0.308002 0.250000 0.900987
O O10 0.191455 0.394515 0.698109
O O11 0.368123 0.433316 0.015299
O O12 0.021618 0.480511 0.347162
O O13 0.129080 0.412965 0.794851
O O14 0.007580 0.401480 0.929108
O O15 0.143946 0.416808 0.085859
O O16 0.106491 0.570230 0.141108
O O17 0.500000 0.000000 0.500000
O O18 0.167219 0.250000 0.011781
O O19 0.929071 0.250000 0.859407
#
# Coordination Sequence:
#
# PCOD8070381 Si02
#       8
#     4   4   4   4   4   4   4   4
#     4   8  14  24  39  61  87 115 147 180 218 271
#     4   9  17  30  48  69  96 127 157 193 236 280
#     4   8  14  24  38  60  91 121 147 179 222 271
#     4   9  17  29  45  70  98 124 155 192 237 287
#     4  10  19  32  50  69  92 124 163 200 236 280
#     4   9  15  24  42  67  93 119 152 189 230 280
#     4  10  19  31  47  68  97 127 155 193 239 287
#     4   9  19  34  50  69  91 119 160 204 240 278
#
# _framework density 17.263003000000001
#
# number of rings (size 3 to 8) (size 9 to 14) (size 15 to 20)
#    0.000    3.000    0.000    3.000    0.000    2.000 
#    0.000    0.625    0.000    2.250    0.000    0.000 
#    0.000    0.000    0.000    0.000    0.000    0.000 
#
# Total GULP energy -396609.373571 kJ/mol
# GULP energy per Si atom -12394.042924 kJ/mol
# Density = 1.722371 g / cm^3
# Si number density = 17.263003 Si / 1000 Ang^3
#
#
#
# Elastic Constant Matrix: (Units=GPa)
#
#
# Indices 1 2 3 4 5 6 
#
# 1 94.4612 56.6052 29.2136 0.0000 14.4196 0.0000
# 2 56.6052 138.1330 27.7246 0.0000 5.9443 0.0000
# 3 29.2136 27.7246 32.0023 0.0000 12.4476 0.0000
# 4 0.0000 0.0000 0.0000 22.3685 0.0000 0.6573
# 5 14.4196 5.9443 12.4476 0.0000 21.0510 0.0000
# 6 0.0000 0.0000 0.0000 0.6573 0.0000 28.9257
#
#
#
# Elastic Compliance Matrix: (Units=1/GPa)
#
#
# Indices 1 2 3 4 5 6 
#
# 1 0.017239 -0.004928 -0.009630 0.000000 -0.004722 0.000000
# 2 -0.004928 0.010284 -0.005967 0.000000 0.004000 0.000000
# 3 -0.009630 -0.005967 0.054528 0.000000 -0.023961 0.000000
# 4 0.000000 0.000000 0.000000 0.044736 0.000000 -0.001017
# 5 -0.004722 0.004000 -0.023961 0.000000 0.063777 0.000000
# 6 0.000000 0.000000 0.000000 -0.001017 0.000000 0.034594
#
#
# Mechanical properties :
#
#
# Convention : Reuss Voigt Hill
#
# Bulk Modulus (GPa) = 24.38988 54.63148 39.51068
# Shear Modulus (GPa) = 17.86507 24.53925 21.20216
#
# Velocity S-wave (km/s) = 3.22044 3.77436 3.50835
# Velocity P-wave (km/s) = 5.29031 7.12107 6.27284
#
# Compressibility (1/GPa) = 0.04100062
#
# Stress axis : x y z
#
# Youngs Moduli (GPa) = 58.00910 97.23535 18.33916
#
# Poissons Ratio (x) = 0.47918 0.17661
# Poissons Ratio (y) = 0.28587 0.10943
# Poissons Ratio (z) = 0.55865 0.58018
#
# Static dielectric constant tensor:
#      x y z
#    x 3.071790 0.000000 0.338680 
#    y 0.000000 3.642630 0.000000 
#    z 0.338680 0.000000 3.067410 
# 
# 
# High freq. dielectric constant tensor:
#      x y z
#    x 1.632940 0.000000 0.032630 
#    y 0.000000 1.681600 0.000000 
#    z 0.032630 0.000000 1.642320 
# 
# From -- ./inp_files/28868.got.cif
#   From: 2010.06.25/outbox.cif.g09.slc.cpg/sg11_15_cif.got.tgz:28868.got - 2010.06.27 23:14:04.
