data_PCOD8070260
_publ_section_title
;
Structure prediction by ZEFSAII (Michael W. Deem and Ramdas Pophale) SiO2 
 PCOD8070260
Probable space group: P 21/M
;
_chemical_formula_sum "Si O2"
_cell_formula_units_Z 20
_cell_length_a 12.063694
_cell_length_b 9.111876
_cell_length_c 12.159562
_cell_angle_alpha 90.000000
_cell_angle_beta 117.818148
_cell_angle_gamma 90.000000
_cell_volume 1182.145913
_symmetry_space_group_name_H-M "P 21/M"
_symmetry_group_IT_number 11
_symmetry_cell_setting 'monoclinic'
loop_
_space_group_symop_operation_xyz
x,y,z
-x,1/2+y,-z
-x,-y,-z
x,1/2-y,z
loop_
_atom_site_type_symbol
_atom_site_label
_atom_site_fract_x
_atom_site_fract_y
_atom_site_fract_z
Si Si1 0.824406 0.580398 0.501697
Si Si2 0.517197 0.921204 0.840054
Si Si3 0.317342 0.918591 0.929137
Si Si4 0.100375 0.582120 0.679096
Si Si5 0.422516 0.575328 0.559444
O O1 0.782788 0.750000 0.479562
O O2 0.847939 0.527246 0.388840
O O3 0.719271 0.483582 0.512206
O O4 0.952569 0.559465 0.630751
O O5 0.539589 0.750000 0.850789
O O6 0.402982 0.968572 0.865824
O O7 0.485355 0.975340 0.703026
O O8 0.646015 0.993324 0.943925
O O9 0.340160 0.750000 0.967622
O O10 0.173479 0.950187 0.827184
O O11 0.128869 0.750000 0.654016
O O12 0.500000 0.500000 0.500000
O O13 0.421862 0.750000 0.545222
#
# Coordination Sequence:
#
# PCOD8070260 Si02
#       5
#     4   4   4   4   4
#     4  10  19  30  49  75 101 132 169 202 246 299
#     4   9  18  31  47  70 100 130 161 202 248 291
#     4   9  16  29  49  72 101 131 158 198 249 295
#     4   9  17  31  49  73 105 134 160 203 252 294
#     4  11  22  37  53  71 101 134 169 209 248 292
#
# _framework density 16.918386000000002
#
# number of rings (size 3 to 8) (size 9 to 14) (size 15 to 20)
#    0.000    2.400    2.000    1.200    0.000    3.200 
#    0.000    0.000    0.000    1.200    0.000    0.000 
#    0.000    0.000    0.000    0.000    0.000    0.000 
#
# Total GULP energy -247968.200584 kJ/mol
# GULP energy per Si atom -12398.410029 kJ/mol
# Density = 1.687988 g / cm^3
# Si number density = 16.918386 Si / 1000 Ang^3
#
#
#
# Elastic Constant Matrix: (Units=GPa)
#
#
# Indices 1 2 3 4 5 6 
#
# 1 90.9818 44.8429 57.3624 0.0000 11.0625 0.0000
# 2 44.8429 66.6686 47.5617 0.0000 6.1988 0.0000
# 3 57.3624 47.5617 117.6803 0.0000 21.0331 0.0000
# 4 0.0000 0.0000 0.0000 29.5222 0.0000 2.1119
# 5 11.0625 6.1988 21.0331 0.0000 28.9018 0.0000
# 6 0.0000 0.0000 0.0000 2.1119 0.0000 26.8674
#
#
#
# Elastic Compliance Matrix: (Units=1/GPa)
#
#
# Indices 1 2 3 4 5 6 
#
# 1 0.018870 -0.008682 -0.005438 0.000000 -0.001403 0.000000
# 2 -0.008682 0.025165 -0.006401 0.000000 0.002584 0.000000
# 3 -0.005438 -0.006401 0.015079 0.000000 -0.007519 0.000000
# 4 0.000000 0.000000 0.000000 0.034064 0.000000 -0.002678
# 5 -0.001403 0.002584 -0.007519 0.000000 0.040055 0.000000
# 6 0.000000 0.000000 0.000000 -0.002678 0.000000 0.037430
#
#
# Mechanical properties :
#
#
# Convention : Reuss Voigt Hill
#
# Bulk Modulus (GPa) = 55.33284 63.87386 59.60335
# Shear Modulus (GPa) = 22.96423 25.42918 24.19671
#
# Velocity S-wave (km/s) = 3.68822 3.88112 3.78590
# Velocity P-wave (km/s) = 7.13541 7.61054 7.37680
#
# Compressibility (1/GPa) = 0.01807245
#
# Stress axis : x y z
#
# Youngs Moduli (GPa) = 52.99503 39.73718 66.31640
#
# Poissons Ratio (x) = 0.34500 0.36064
# Poissons Ratio (y) = 0.46011 0.42446
# Poissons Ratio (z) = 0.28820 0.25434
#
# Static dielectric constant tensor:
#      x y z
#    x 3.070710 0.000000 0.352750 
#    y 0.000000 3.224900 0.000000 
#    z 0.352750 0.000000 3.282940 
# 
# 
# High freq. dielectric constant tensor:
#      x y z
#    x 1.622820 0.000000 0.031770 
#    y 0.000000 1.659200 0.000000 
#    z 0.031770 0.000000 1.645950 
# 
# From -- ./inp_files/33413.got.cif
#   From: 2010.06.25/outbox.cif.g09.slc.cpg/sg11_17_cif.got.tgz:33413.got - 2010.06.27 23:14:04.
