data_PCOD8070281
_publ_section_title
;
Structure prediction by ZEFSAII (Michael W. Deem and Ramdas Pophale) SiO2 
 PCOD8070281
Probable space group: P 21/M
;
_chemical_formula_sum "Si O2"
_cell_formula_units_Z 28
_cell_length_a 17.612078
_cell_length_b 8.898935
_cell_length_c 17.260832
_cell_angle_alpha 90.000000
_cell_angle_beta 34.720098
_cell_angle_gamma 90.000000
_cell_volume 1540.833982
_symmetry_space_group_name_H-M "P 21/M"
_symmetry_group_IT_number 11
_symmetry_cell_setting 'monoclinic'
loop_
_space_group_symop_operation_xyz
x,y,z
-x,1/2+y,-z
-x,-y,-z
x,1/2-y,z
loop_
_atom_site_type_symbol
_atom_site_label
_atom_site_fract_x
_atom_site_fract_y
_atom_site_fract_z
Si Si1 0.415186 0.424206 0.684605
Si Si2 0.308034 0.071445 0.347249
Si Si3 0.139456 0.928122 0.359335
Si Si4 0.836833 0.071852 0.836808
Si Si5 0.674643 0.575799 0.405250
Si Si6 0.604513 0.072182 0.140614
Si Si7 0.878427 0.926524 0.357839
O O1 0.420377 0.250000 0.700479
O O2 0.563176 0.477118 0.540081
O O3 0.318327 0.457288 0.692393
O O4 0.357476 0.510953 0.806619
O O5 0.298825 0.250000 0.344255
O O6 0.458605 0.017828 0.236830
O O7 0.217622 0.012149 0.493905
O O8 0.259201 0.990947 0.310574
O O9 0.127295 0.750000 0.377900
O O10 0.174915 0.977166 0.242355
O O11 0.000000 0.000000 0.500000
O O12 0.837631 0.250000 0.843343
O O13 0.973911 0.003621 0.757915
O O14 0.711776 0.006835 0.989608
O O15 0.638321 0.750000 0.451552
O O16 0.816154 0.533790 0.325936
O O17 0.610037 0.250000 0.140415
O O18 0.889394 0.750000 0.360397
#
# Coordination Sequence:
#
# PCOD8070281 Si02
#       7
#     4   4   4   4   4   4   4
#     4  10  19  30  49  79 110 134 168 219 265 302
#     4  10  19  33  55  78 101 135 176 213 254 309
#     4  11  21  35  55  81 108 134 173 219 262 304
#     4   9  19  34  54  76 100 135 176 213 251 312
#     4   9  17  31  53  78 103 138 176 211 256 311
#     4  10  20  36  55  74 102 141 178 208 254 316
#     4   9  15  30  54  77  99 131 176 213 246 303
#
# _framework density 18.171977999999999
#
# number of rings (size 3 to 8) (size 9 to 14) (size 15 to 20)
#    0.000    2.286    2.857    0.857    0.000    1.714 
#    0.000    2.143    0.000    0.000    0.000    0.000 
#    0.000    0.000    0.000    0.000    0.000    0.000 
#
# Total GULP energy -347157.303691 kJ/mol
# GULP energy per Si atom -12398.475132 kJ/mol
# Density = 1.813062 g / cm^3
# Si number density = 18.171978 Si / 1000 Ang^3
#
#
#
# Elastic Constant Matrix: (Units=GPa)
#
#
# Indices 1 2 3 4 5 6 
#
# 1 165.7074 29.5170 81.1734 0.0000 6.1555 0.0000
# 2 29.5170 27.5054 25.1984 0.0000 3.5147 0.0000
# 3 81.1734 25.1984 145.7722 0.0000 1.8130 0.0000
# 4 0.0000 0.0000 0.0000 16.8631 0.0000 7.4341
# 5 6.1555 3.5147 1.8130 0.0000 30.2289 0.0000
# 6 0.0000 0.0000 0.0000 7.4341 0.0000 27.1840
#
#
#
# Elastic Compliance Matrix: (Units=1/GPa)
#
#
# Indices 1 2 3 4 5 6 
#
# 1 0.009104 -0.005963 -0.004027 0.000000 -0.000919 0.000000
# 2 -0.005963 0.047745 -0.004883 0.000000 -0.004044 0.000000
# 3 -0.004027 -0.004883 0.009937 0.000000 0.000792 0.000000
# 4 0.000000 0.000000 0.000000 0.067431 0.000000 -0.018441
# 5 -0.000919 -0.004044 0.000792 0.000000 0.033691 0.000000
# 6 0.000000 0.000000 0.000000 -0.018441 0.000000 0.041829
#
#
# Mechanical properties :
#
#
# Convention : Reuss Voigt Hill
#
# Bulk Modulus (GPa) = 26.99753 67.86252 47.43003
# Shear Modulus (GPa) = 19.85475 28.39492 24.12484
#
# Velocity S-wave (km/s) = 3.30904 3.95722 3.64756
# Velocity P-wave (km/s) = 5.43034 7.63578 6.62547
#
# Compressibility (1/GPa) = 0.03704042
#
# Stress axis : x y z
#
# Youngs Moduli (GPa) = 109.84421 20.94456 100.63584
#
# Poissons Ratio (x) = 0.12488 0.40529
# Poissons Ratio (y) = 0.65496 0.49137
# Poissons Ratio (z) = 0.44238 0.10227
#
# Static dielectric constant tensor:
#      x y z
#    x 3.662490 0.000000 0.024870 
#    y 0.000000 3.075720 0.000000 
#    z 0.024870 0.000000 3.462120 
# 
# 
# High freq. dielectric constant tensor:
#      x y z
#    x 1.720620 0.000000 0.008250 
#    y 0.000000 1.674660 0.000000 
#    z 0.008250 0.000000 1.689160 
# 
# From -- ./inp_files/53221.got.cif
#   From: 2010.06.25/outbox.cif.g09.slc.cpg/sg11_27_cif.got.tgz:53221.got - 2010.06.27 23:14:04.
