data_PCOD8070371
_publ_section_title
;
Structure prediction by ZEFSAII (Michael W. Deem and Ramdas Pophale) SiO2 
 PCOD8070371
Probable space group: P 21/M
;
_chemical_formula_sum "Si O2"
_cell_formula_units_Z 32
_cell_length_a 23.670884
_cell_length_b 13.482289
_cell_length_c 13.012387
_cell_angle_alpha 90.000000
_cell_angle_beta 24.210036
_cell_angle_gamma 90.000000
_cell_volume 1702.968560
_symmetry_space_group_name_H-M "P 21/M"
_symmetry_group_IT_number 11
_symmetry_cell_setting 'monoclinic'
loop_
_space_group_symop_operation_xyz
x,y,z
-x,1/2+y,-z
-x,-y,-z
x,1/2-y,z
loop_
_atom_site_type_symbol
_atom_site_label
_atom_site_fract_x
_atom_site_fract_y
_atom_site_fract_z
Si Si1 0.004403 0.951598 0.325362
Si Si2 0.246701 0.139085 0.354494
Si Si3 0.786429 0.970784 0.165399
Si Si4 0.807298 0.472875 0.817499
Si Si5 0.412216 0.861944 0.478735
Si Si6 0.678423 0.638866 0.158919
Si Si7 0.310487 0.364052 0.477920
Si Si8 0.432604 0.506202 0.920733
O O1 0.132090 0.909395 0.185472
O O2 0.905135 0.867179 0.444877
O O3 0.061302 0.019065 0.136269
O O4 0.920781 0.024432 0.539647
O O5 0.304685 0.250000 0.232022
O O6 0.230371 0.127160 0.503566
O O7 0.340730 0.047905 0.159831
O O8 0.728994 0.082884 0.259949
O O9 0.688468 0.904097 0.256665
O O10 0.783841 0.921500 0.282244
O O11 0.664105 0.436297 0.003097
O O12 0.773313 0.582342 0.918626
O O13 0.376142 0.750000 0.506651
O O14 0.516654 0.865628 0.401198
O O15 0.480695 0.916456 0.269271
O O16 0.735172 0.750000 0.062685
O O17 0.328343 0.250000 0.481858
O O18 0.462701 0.411510 0.210124
#
# Coordination Sequence:
#
# PCOD8070371 Si02
#       8
#     4   4   4   4   4   4   4   4
#     4   9  18  32  49  70 100 132 165 202 247 297
#     4  10  20  34  54  77 101 133 174 213 250 298
#     4  10  19  31  47  68 102 140 169 205 250 302
#     4   8  16  31  51  75  99 126 163 209 252 302
#     4   9  17  28  45  72 100 127 165 210 259 310
#     4   9  16  28  48  71  97 131 168 206 252 306
#     4  10  21  35  52  76 102 133 174 213 250 299
#     4   9  17  33  56  76 100 129 163 214 269 304
#
# _framework density 18.790717999999998
#
# number of rings (size 3 to 8) (size 9 to 14) (size 15 to 20)
#    0.000    2.750    0.000    1.500    0.000    5.000 
#    0.000    0.625    0.000   18.000    0.000    3.500 
#    0.000    0.000    0.000    0.000    0.000    0.000 
#
# Total GULP energy -396456.354964 kJ/mol
# GULP energy per Si atom -12389.261093 kJ/mol
# Density = 1.874795 g / cm^3
# Si number density = 18.790718 Si / 1000 Ang^3
#
#
#
# Elastic Constant Matrix: (Units=GPa)
#
#
# Indices 1 2 3 4 5 6 
#
# 1 93.8477 31.3329 32.3065 0.0000 2.2147 0.0000
# 2 31.3329 69.8805 29.6309 0.0000 -2.3825 0.0000
# 3 32.3065 29.6309 81.6906 0.0000 9.9661 0.0000
# 4 0.0000 0.0000 0.0000 18.7167 0.0000 -0.6376
# 5 2.2147 -2.3825 9.9661 0.0000 21.8495 0.0000
# 6 0.0000 0.0000 0.0000 -0.6376 0.0000 24.0672
#
#
#
# Elastic Compliance Matrix: (Units=1/GPa)
#
#
# Indices 1 2 3 4 5 6 
#
# 1 0.013412 -0.004467 -0.003662 0.000000 -0.000176 0.000000
# 2 -0.004467 0.018912 -0.005718 0.000000 0.005123 0.000000
# 3 -0.003662 -0.005718 0.016725 0.000000 -0.007881 0.000000
# 4 0.000000 0.000000 0.000000 0.053476 0.000000 0.001417
# 5 -0.000176 0.005123 -0.007881 0.000000 0.049939 0.000000
# 6 0.000000 0.000000 0.000000 0.001417 0.000000 0.041588
#
#
# Mechanical properties :
#
#
# Convention : Reuss Voigt Hill
#
# Bulk Modulus (GPa) = 46.82862 47.99549 47.41206
# Shear Modulus (GPa) = 21.84685 23.06991 22.45838
#
# Velocity S-wave (km/s) = 3.41345 3.50770 3.46089
# Velocity P-wave (km/s) = 6.36481 6.48096 6.42315
#
# Compressibility (1/GPa) = 0.02135446
#
# Stress axis : x y z
#
# Youngs Moduli (GPa) = 74.56153 52.87562 59.78926
#
# Poissons Ratio (x) = 0.23617 0.21897
# Poissons Ratio (y) = 0.33304 0.34190
# Poissons Ratio (z) = 0.27307 0.30237
#
# Static dielectric constant tensor:
#      x y z
#    x 3.592140 0.000000 -0.017460 
#    y 0.000000 3.290940 0.000000 
#    z -0.017460 0.000000 3.440100 
# 
# 
# High freq. dielectric constant tensor:
#      x y z
#    x 1.728820 0.000000 0.008330 
#    y 0.000000 1.700860 0.000000 
#    z 0.008330 0.000000 1.725990 
# 
# From -- ./inp_files/44213.got.cif
#   From: 2010.06.25/outbox.cif.g09.slc.cpg/sg11_23_cif.got.tgz:44213.got - 2010.06.27 23:14:04.
