data_PCOD8070336
_publ_section_title
;
Structure prediction by ZEFSAII (Michael W. Deem and Ramdas Pophale) SiO2 
 PCOD8070336
Probable space group: P 21/M
;
_chemical_formula_sum "Si O2"
_cell_formula_units_Z 28
_cell_length_a 31.676692
_cell_length_b 8.566048
_cell_length_c 31.676693
_cell_angle_alpha 90.000000
_cell_angle_beta 9.445241
_cell_angle_gamma 90.000000
_cell_volume 1410.528106
_symmetry_space_group_name_H-M "P 21/M"
_symmetry_group_IT_number 11
_symmetry_cell_setting 'monoclinic'
loop_
_space_group_symop_operation_xyz
x,y,z
-x,1/2+y,-z
-x,-y,-z
x,1/2-y,z
loop_
_atom_site_type_symbol
_atom_site_label
_atom_site_fract_x
_atom_site_fract_y
_atom_site_fract_z
Si Si1 0.523438 0.064651 0.023426
Si Si2 0.619679 0.436385 0.119688
Si Si3 0.761055 0.433542 0.261055
Si Si4 0.667277 0.065061 0.167273
Si Si5 0.047740 0.064195 0.547733
Si Si6 0.904508 0.936164 0.404497
Si Si7 0.192396 0.435542 0.692387
O O1 0.522657 0.250000 0.022630
O O2 0.785172 0.000841 0.786153
O O3 0.286167 0.000846 0.285159
O O4 0.500000 0.000000 0.000000
O O5 0.619996 0.250000 0.120010
O O6 0.643537 0.503782 0.143529
O O7 0.357620 0.499944 0.357528
O O8 0.857508 0.499946 0.857637
O O9 0.500000 0.500000 0.500000
O O10 0.758237 0.250000 0.258234
O O11 0.785459 0.478165 0.285459
O O12 0.000000 0.500000 0.000000
O O13 0.665931 0.250000 0.165954
O O14 0.427845 0.007159 0.431202
O O15 0.931211 0.007164 0.927835
O O16 0.048207 0.250000 0.548225
O O17 0.071610 0.998204 0.571606
O O18 0.904707 0.750000 0.404685
O O19 0.196041 0.250000 0.696025
#
# Coordination Sequence:
#
# PCOD8070336 Si02
#       7
#     4   4   4   4   4   4   4
#     4  10  19  31  46  64  89 118 153 193 239 291
#     4   9  15  23  37  61  93 127 159 194 239 295
#     4  12  25  42  63  88 117 150 191 237 284 335
#     4   9  17  28  45  70 102 137 170 206 252 303
#     4   9  17  28  42  62  89 122 154 192 241 293
#     4   9  15  23  37  58  89 124 155 189 238 293
#     4  10  19  33  52  75 106 142 176 213 260 312
#
# _framework density 19.850721
#
# number of rings (size 3 to 8) (size 9 to 14) (size 15 to 20)
#    0.000    2.286    0.000    4.286    0.000    8.000 
#    0.000    0.000    0.000    0.000    0.000    0.000 
#    0.000   22.857    0.000    0.000    0.000    0.000 
#
# Total GULP energy -347234.939576 kJ/mol
# GULP energy per Si atom -12401.247842 kJ/mol
# Density = 1.980554 g / cm^3
# Si number density = 19.850721 Si / 1000 Ang^3
#
#
#
# Elastic Constant Matrix: (Units=GPa)
#
#
# Indices 1 2 3 4 5 6 
#
# 1 222.2384 28.6617 126.1202 0.0000 -0.0299 0.0000
# 2 28.6617 38.6042 27.8296 0.0000 0.0728 0.0000
# 3 126.1202 27.8296 234.4163 0.0000 -1.0378 0.0000
# 4 0.0000 0.0000 0.0000 9.8251 0.0000 1.1227
# 5 -0.0299 0.0728 -1.0378 0.0000 48.3337 0.0000
# 6 0.0000 0.0000 0.0000 1.1227 0.0000 22.5600
#
#
#
# Elastic Compliance Matrix: (Units=1/GPa)
#
#
# Indices 1 2 3 4 5 6 
#
# 1 0.006708 -0.002601 -0.003301 0.000000 -0.000063 0.000000
# 2 -0.002601 0.029337 -0.002084 0.000000 -0.000091 0.000000
# 3 -0.003301 -0.002084 0.006290 0.000000 0.000136 0.000000
# 4 0.000000 0.000000 0.000000 0.102363 0.000000 -0.005094
# 5 -0.000063 -0.000091 0.000136 0.000000 0.020693 0.000000
# 6 0.000000 0.000000 0.000000 -0.005094 0.000000 0.044580
#
#
# Mechanical properties :
#
#
# Convention : Reuss Voigt Hill
#
# Bulk Modulus (GPa) = 37.93009 95.60911 66.76960
# Shear Modulus (GPa) = 21.30111 36.98691 29.14401
#
# Velocity S-wave (km/s) = 3.27932 4.32122 3.83581
# Velocity P-wave (km/s) = 5.78686 8.55371 7.30252
#
# Compressibility (1/GPa) = 0.02636429
#
# Stress axis : x y z
#
# Youngs Moduli (GPa) = 149.07082 34.08612 158.98951
#
# Poissons Ratio (x) = 0.08866 0.52477
# Poissons Ratio (y) = 0.38773 0.33132
# Poissons Ratio (z) = 0.49203 0.07103
#
# Static dielectric constant tensor:
#      x y z
#    x 3.878610 0.000000 -0.016060 
#    y 0.000000 2.955520 0.000000 
#    z -0.016060 0.000000 4.060490 
# 
# 
# High freq. dielectric constant tensor:
#      x y z
#    x 1.796280 0.000000 -0.000120 
#    y 0.000000 1.705150 0.000000 
#    z -0.000120 0.000000 1.797670 
# 
# From -- ./inp_files/9595.got.cif
#   From: 2010.06.25/outbox.cif.g09.slc.cpg/sg11_5_cif.got.tgz:9595.got - 2010.06.27 23:14:04.
