data_PCOD8070152
_publ_section_title
;
Structure prediction by ZEFSAII (Michael W. Deem and Ramdas Pophale) SiO2 
 PCOD8070152
Probable space group: P 21/M
;
_chemical_formula_sum "Si O2"
_cell_formula_units_Z 24
_cell_length_a 25.479119
_cell_length_b 9.261877
_cell_length_c 18.448830
_cell_angle_alpha 90.000000
_cell_angle_beta 18.620403
_cell_angle_gamma 90.000000
_cell_volume 1390.102410
_symmetry_space_group_name_H-M "P 21/M"
_symmetry_group_IT_number 11
_symmetry_cell_setting 'monoclinic'
loop_
_space_group_symop_operation_xyz
x,y,z
-x,1/2+y,-z
-x,-y,-z
x,1/2-y,z
loop_
_atom_site_type_symbol
_atom_site_label
_atom_site_fract_x
_atom_site_fract_y
_atom_site_fract_z
Si Si1 0.745555 0.911252 0.662061
Si Si2 0.387607 0.420412 0.377441
Si Si3 0.402964 0.590667 0.027491
Si Si4 0.737478 0.916476 0.165499
Si Si5 0.517239 0.581181 0.587378
Si Si6 0.112832 0.580419 0.650821
O O1 0.818976 0.750000 0.574041
O O2 0.569164 0.905094 0.855955
O O3 0.865729 0.009060 0.456323
O O4 0.727000 0.980619 0.766602
O O5 0.346504 0.250000 0.425922
O O6 0.547340 0.457347 0.118921
O O7 0.426432 0.472330 0.407527
O O8 0.230316 0.508816 0.556485
O O9 0.322599 0.750000 0.132121
O O10 0.703729 0.750000 0.192990
O O11 0.660726 0.961592 0.343298
O O12 0.652644 0.004904 0.211883
O O13 0.929372 0.951106 0.917693
O O14 0.481964 0.750000 0.634544
O O15 0.151881 0.750000 0.593596
#
# Coordination Sequence:
#
# PCOD8070152 Si02
#       6
#     4   4   4   4   4   4
#     4   9  16  26  42  65  92 122 156 191 228 274
#     4   9  18  31  48  72  98 123 155 194 234 277
#     4   8  14  25  41  63  92 122 150 185 231 277
#     4   9  19  34  50  70  95 124 159 194 231 279
#     4   9  18  34  53  70  92 124 159 194 233 279
#     4  10  19  30  46  70  99 127 155 192 235 275
#
# _framework density 17.264914999999998
#
# number of rings (size 3 to 8) (size 9 to 14) (size 15 to 20)
#    0.000    3.000    0.000    2.000    0.000    6.667 
#    0.000    0.000    0.000    1.000    0.000    0.000 
#    0.000    0.000    0.000    0.000    0.000    0.000 
#
# Total GULP energy -297547.209703 kJ/mol
# GULP energy per Si atom -12397.800404 kJ/mol
# Density = 1.722562 g / cm^3
# Si number density = 17.264915 Si / 1000 Ang^3
#
#
#
# Elastic Constant Matrix: (Units=GPa)
#
#
# Indices 1 2 3 4 5 6 
#
# 1 114.7981 60.5439 69.1391 0.0000 16.5087 0.0000
# 2 60.5439 85.9414 42.6308 0.0000 6.8499 0.0000
# 3 69.1391 42.6308 52.9370 0.0000 13.1518 0.0000
# 4 0.0000 0.0000 0.0000 26.1908 0.0000 1.6543
# 5 16.5087 6.8499 13.1518 0.0000 17.6198 0.0000
# 6 0.0000 0.0000 0.0000 1.6543 0.0000 25.3637
#
#
#
# Elastic Compliance Matrix: (Units=1/GPa)
#
#
# Indices 1 2 3 4 5 6 
#
# 1 0.041611 -0.003855 -0.051474 0.000000 0.000933 0.000000
# 2 -0.003855 0.020106 -0.012415 0.000000 0.005062 0.000000
# 3 -0.051474 -0.012415 0.101816 0.000000 -0.022944 0.000000
# 4 0.000000 0.000000 0.000000 0.038339 0.000000 -0.002501
# 5 0.000933 0.005062 -0.022944 0.000000 0.071038 0.000000
# 6 0.000000 0.000000 0.000000 -0.002501 0.000000 0.039590
#
#
# Mechanical properties :
#
#
# Convention : Reuss Voigt Hill
#
# Bulk Modulus (GPa) = 35.65474 66.47824 51.06649
# Shear Modulus (GPa) = 10.93289 19.25904 15.09596
#
# Velocity S-wave (km/s) = 2.51916 3.34354 2.96019
# Velocity P-wave (km/s) = 5.39981 7.31396 6.42853
#
# Compressibility (1/GPa) = 0.02804676
#
# Stress axis : x y z
#
# Youngs Moduli (GPa) = 24.03221 49.73561 9.82163
#
# Poissons Ratio (x) = 0.19173 0.50556
# Poissons Ratio (y) = 0.09264 0.12193
# Poissons Ratio (z) = 1.23703 0.61744
#
# Static dielectric constant tensor:
#      x y z
#    x 3.206740 0.000000 0.345960 
#    y 0.000000 3.346670 0.000000 
#    z 0.345960 0.000000 3.119690 
# 
# 
# High freq. dielectric constant tensor:
#      x y z
#    x 1.648960 0.000000 0.028670 
#    y 0.000000 1.672040 0.000000 
#    z 0.028670 0.000000 1.648640 
# 
# From -- ./inp_files/40508.got.cif
#   From: 2010.06.25/outbox.cif.g09.slc.cpg/sg11_21_cif.got.tgz:40508.got - 2010.06.27 23:14:04.
