data_PCOD8070465
_publ_section_title
;
Structure prediction by ZEFSAII (Michael W. Deem and Ramdas Pophale) SiO2 
 PCOD8070465
Probable space group: P 21/M
;
_chemical_formula_sum "Si O2"
_cell_formula_units_Z 28
_cell_length_a 17.370507
_cell_length_b 8.550404
_cell_length_c 14.466349
_cell_angle_alpha 90.000000
_cell_angle_beta 49.696554
_cell_angle_gamma 90.000000
_cell_volume 1638.595008
_symmetry_space_group_name_H-M "P 21/M"
_symmetry_group_IT_number 11
_symmetry_cell_setting 'monoclinic'
loop_
_space_group_symop_operation_xyz
x,y,z
-x,1/2+y,-z
-x,-y,-z
x,1/2-y,z
loop_
_atom_site_type_symbol
_atom_site_label
_atom_site_fract_x
_atom_site_fract_y
_atom_site_fract_z
Si Si1 0.912019 0.068303 0.192225
Si Si2 0.762553 0.432920 0.955171
Si Si3 0.610857 0.065753 0.920841
Si Si4 0.864525 0.568324 0.041547
Si Si5 0.778634 0.435946 0.649215
Si Si6 0.913844 0.933457 0.695745
Si Si7 0.120968 0.432596 0.590194
O O1 0.900439 0.250000 0.223625
O O2 0.850573 0.026236 0.147408
O O3 0.863923 0.971214 0.313747
O O4 0.029379 0.021494 0.088588
O O5 0.758839 0.250000 0.979101
O O6 0.662903 0.489646 0.976636
O O7 0.859552 0.470023 0.818385
O O8 0.772658 0.523428 0.044623
O O9 0.605780 0.250000 0.923848
O O10 0.677663 0.008482 0.781669
O O11 0.500000 0.000000 0.000000
O O12 0.861644 0.750000 0.067715
O O13 0.784482 0.250000 0.639312
O O14 0.876499 0.502744 0.626454
O O15 0.780329 0.512914 0.545419
O O16 0.890803 0.750000 0.724189
O O17 0.031690 0.964336 0.616020
O O18 0.100454 0.250000 0.593280
#
# Coordination Sequence:
#
# PCOD8070465 Si02
#       7
#     4   4   4   4   4   4   4
#     4  10  20  32  47  68  99 136 172 209 246 284
#     4  10  19  32  50  73 101 133 167 205 249 295
#     4   9  20  36  55  77 100 127 160 204 253 298
#     4  10  19  31  48  71  98 133 173 208 247 288
#     4  10  21  36  50  69  97 129 165 203 246 297
#     4  11  20  31  46  68  97 132 169 204 242 288
#     4  12  22  32  47  69  98 134 170 205 243 288
#
# _framework density 17.087810000000001
#
# number of rings (size 3 to 8) (size 9 to 14) (size 15 to 20)
#    0.000    1.714    1.429    5.571    0.000    4.571 
#    0.000    0.000    0.000    0.000    0.000    1.000 
#    0.000    0.000    0.000    0.000    0.000    0.000 
#
# Total GULP energy -347205.530134 kJ/mol
# GULP energy per Si atom -12400.197505 kJ/mol
# Density = 1.704892 g / cm^3
# Si number density = 17.087810 Si / 1000 Ang^3
#
#
#
# Elastic Constant Matrix: (Units=GPa)
#
#
# Indices 1 2 3 4 5 6 
#
# 1 98.2914 24.7625 57.8432 0.0000 12.6313 0.0000
# 2 24.7625 53.5676 18.4944 0.0000 3.3290 0.0000
# 3 57.8432 18.4944 77.7886 0.0000 11.7055 0.0000
# 4 0.0000 0.0000 0.0000 26.3124 0.0000 4.6090
# 5 12.6313 3.3290 11.7055 0.0000 21.4158 0.0000
# 6 0.0000 0.0000 0.0000 4.6090 0.0000 28.8871
#
#
#
# Elastic Compliance Matrix: (Units=1/GPa)
#
#
# Indices 1 2 3 4 5 6 
#
# 1 0.019202 -0.004258 -0.012707 0.000000 -0.003719 0.000000
# 2 -0.004258 0.021288 -0.001934 0.000000 0.000259 0.000000
# 3 -0.012707 -0.001934 0.023526 0.000000 -0.005064 0.000000
# 4 0.000000 0.000000 0.000000 0.039098 0.000000 -0.006238
# 5 -0.003719 0.000259 -0.005064 0.000000 0.051615 0.000000
# 6 0.000000 0.000000 0.000000 -0.006238 0.000000 0.035613
#
#
# Mechanical properties :
#
#
# Convention : Reuss Voigt Hill
#
# Bulk Modulus (GPa) = 38.14145 47.98310 43.06228
# Shear Modulus (GPa) = 21.10785 23.89288 22.50036
#
# Velocity S-wave (km/s) = 3.51844 3.74336 3.63264
# Velocity P-wave (km/s) = 6.23500 6.84288 6.54600
#
# Compressibility (1/GPa) = 0.02621819
#
# Stress axis : x y z
#
# Youngs Moduli (GPa) = 52.07731 46.97475 42.50675
#
# Poissons Ratio (x) = 0.20004 0.54012
# Poissons Ratio (y) = 0.22177 0.08220
# Poissons Ratio (z) = 0.66173 0.09084
#
# Static dielectric constant tensor:
#      x y z
#    x 2.950260 0.000000 0.443660 
#    y 0.000000 3.192710 0.000000 
#    z 0.443660 0.000000 2.955980 
# 
# 
# High freq. dielectric constant tensor:
#      x y z
#    x 1.637180 0.000000 0.031660 
#    y 0.000000 1.673250 0.000000 
#    z 0.031660 0.000000 1.633610 
# 
# From -- ./inp_files/50996.got.cif
#   From: 2010.06.25/outbox.cif.g09.slc.cpg/sg11_26_cif.got.tgz:50996.got - 2010.06.27 23:14:04.
