data_PCOD8070257
_publ_section_title
;
Structure prediction by ZEFSAII (Michael W. Deem and Ramdas Pophale) SiO2 
 PCOD8070257
Probable space group: P 21/M
;
_chemical_formula_sum "Si O2"
_cell_formula_units_Z 28
_cell_length_a 28.062335
_cell_length_b 9.116096
_cell_length_c 9.463003
_cell_angle_alpha 90.000000
_cell_angle_beta 140.675237
_cell_angle_gamma 90.000000
_cell_volume 1534.107667
_symmetry_space_group_name_H-M "P 21/M"
_symmetry_group_IT_number 11
_symmetry_cell_setting 'monoclinic'
loop_
_space_group_symop_operation_xyz
x,y,z
-x,1/2+y,-z
-x,-y,-z
x,1/2-y,z
loop_
_atom_site_type_symbol
_atom_site_label
_atom_site_fract_x
_atom_site_fract_y
_atom_site_fract_z
Si Si1 0.194006 0.582030 0.264309
Si Si2 0.253596 0.420207 0.911619
Si Si3 0.578240 0.078251 0.203260
Si Si4 0.956923 0.082609 0.212954
Si Si5 0.700159 0.083153 0.246749
Si Si6 0.310709 0.420778 0.348382
Si Si7 0.099134 0.920446 0.605269
O O1 0.213005 0.750000 0.262079
O O2 0.222548 0.554996 0.488958
O O3 0.234837 0.473527 0.250078
O O4 0.104329 0.554074 0.051056
O O5 0.235705 0.250000 0.853371
O O6 0.303331 0.475737 0.894449
O O7 0.175094 0.504077 0.730711
O O8 0.302268 0.451224 0.162813
O O9 0.565923 0.250000 0.200208
O O10 0.629924 0.047187 0.186029
O O11 0.617432 0.010810 0.431928
O O12 0.500000 0.000000 0.000000
O O13 0.984905 0.250000 0.279182
O O14 0.915568 0.043486 0.264848
O O15 0.029047 0.980814 0.352548
O O16 0.696488 0.250000 0.184169
O O17 0.322863 0.250000 0.409244
O O18 0.107331 0.750000 0.592809
#
# Coordination Sequence:
#
# PCOD8070257 Si02
#       7
#     4   4   4   4   4   4   4
#     4   9  17  33  54  77 103 138 182 227 272 319
#     4  11  22  35  52  78 111 144 181 222 265 315
#     4  10  21  39  63  88 112 139 173 214 259 313
#     4   9  17  30  49  74 104 136 177 229 277 320
#     4   9  20  36  56  80 108 140 175 215 264 319
#     4  10  20  33  54  82 109 140 179 220 259 311
#     4  10  19  30  49  74 104 141 179 225 276 321
#
# _framework density 18.251653000000001
#
# number of rings (size 3 to 8) (size 9 to 14) (size 15 to 20)
#    0.000    2.286    1.429    2.571    0.000    5.714 
#    0.000    1.429    0.000    0.000    0.000    0.000 
#    0.000    0.000    0.000    0.000    0.000    0.000 
#
# Total GULP energy -347242.523716 kJ/mol
# GULP energy per Si atom -12401.518704 kJ/mol
# Density = 1.821011 g / cm^3
# Si number density = 18.251653 Si / 1000 Ang^3
#
#
#
# Elastic Constant Matrix: (Units=GPa)
#
#
# Indices 1 2 3 4 5 6 
#
# 1 69.1369 55.2767 55.0987 0.0000 -1.1938 0.0000
# 2 55.2767 114.7302 74.7570 0.0000 0.7644 0.0000
# 3 55.0987 74.7570 127.7523 0.0000 11.5080 0.0000
# 4 0.0000 0.0000 0.0000 33.0729 0.0000 3.1998
# 5 -1.1938 0.7644 11.5080 0.0000 26.5353 0.0000
# 6 0.0000 0.0000 0.0000 3.1998 0.0000 29.2243
#
#
#
# Elastic Compliance Matrix: (Units=1/GPa)
#
#
# Indices 1 2 3 4 5 6 
#
# 1 0.026892 -0.008345 -0.007124 0.000000 0.004540 0.000000
# 2 -0.008345 0.016960 -0.006502 0.000000 0.001956 0.000000
# 3 -0.007124 -0.006502 0.015315 0.000000 -0.006775 0.000000
# 4 0.000000 0.000000 0.000000 0.030560 0.000000 -0.003346
# 5 0.004540 0.001956 -0.006775 0.000000 0.040772 0.000000
# 6 0.000000 0.000000 0.000000 -0.003346 0.000000 0.034584
#
#
# Mechanical properties :
#
#
# Convention : Reuss Voigt Hill
#
# Bulk Modulus (GPa) = 65.67719 75.76489 70.72104
# Shear Modulus (GPa) = 23.35366 26.19898 24.77632
#
# Velocity S-wave (km/s) = 3.58094 3.79282 3.68840
# Velocity P-wave (km/s) = 7.29108 7.79628 7.54791
#
# Compressibility (1/GPa) = 0.01522599
#
# Stress axis : x y z
#
# Youngs Moduli (GPa) = 37.18608 58.96269 65.29487
#
# Poissons Ratio (x) = 0.49202 0.46517
# Poissons Ratio (y) = 0.31030 0.42452
# Poissons Ratio (z) = 0.26492 0.38335
#
# Static dielectric constant tensor:
#      x y z
#    x 3.047950 0.000000 -0.002330 
#    y 0.000000 3.444320 0.000000 
#    z -0.002330 0.000000 3.484820 
# 
# 
# High freq. dielectric constant tensor:
#      x y z
#    x 1.676480 0.000000 0.002340 
#    y 0.000000 1.716670 0.000000 
#    z 0.002340 0.000000 1.712230 
# 
# From -- ./inp_files/28610.got.cif
#   From: 2010.06.25/outbox.cif.g09.slc.cpg/sg11_15_cif.got.tgz:28610.got - 2010.06.27 23:14:04.
