data_PCOD8070375
_publ_section_title
;
Structure prediction by ZEFSAII (Michael W. Deem and Ramdas Pophale) SiO2 
 PCOD8070375
Probable space group: P 21/M
;
_chemical_formula_sum "Si O2"
_cell_formula_units_Z 32
_cell_length_a 23.009981
_cell_length_b 8.908579
_cell_length_c 19.042012
_cell_angle_alpha 90.000000
_cell_angle_beta 28.857250
_cell_angle_gamma 90.000000
_cell_volume 1883.870217
_symmetry_space_group_name_H-M "P 21/M"
_symmetry_group_IT_number 11
_symmetry_cell_setting 'monoclinic'
loop_
_space_group_symop_operation_xyz
x,y,z
-x,1/2+y,-z
-x,-y,-z
x,1/2-y,z
loop_
_atom_site_type_symbol
_atom_site_label
_atom_site_fract_x
_atom_site_fract_y
_atom_site_fract_z
Si Si1 0.705441 0.417392 0.165184
Si Si2 0.378090 0.927842 0.602591
Si Si3 0.761366 0.924471 0.973595
Si Si4 0.822585 0.423426 0.644647
Si Si5 0.498083 0.928192 0.205490
Si Si6 0.582730 0.928182 0.853213
Si Si7 0.084434 0.076501 0.318324
Si Si8 0.571517 0.921417 0.585336
O O1 0.751274 0.250000 0.105428
O O2 0.721287 0.462578 0.230942
O O3 0.785032 0.513605 0.026935
O O4 0.565339 0.433073 0.294933
O O5 0.395734 0.750000 0.574631
O O6 0.500000 0.000000 0.500000
O O7 0.343196 0.002887 0.564833
O O8 0.755362 0.750000 0.989730
O O9 0.635121 0.980109 0.074680
O O10 0.869284 0.972683 0.807556
O O11 0.782152 0.250000 0.687565
O O12 0.720518 0.526227 0.719352
O O13 0.847961 0.472846 0.697297
O O14 0.941514 0.448483 0.471767
O O15 0.484598 0.750000 0.211122
O O16 0.457886 0.010794 0.178320
O O17 0.413258 0.985630 0.358727
O O18 0.569767 0.750000 0.869555
O O19 0.500000 0.000000 0.000000
O O20 0.117622 0.250000 0.299180
O O21 0.612140 0.750000 0.554081
#
# Coordination Sequence:
#
# PCOD8070375 Si02
#       8
#     4   4   4   4   4   4   4   4
#     4   8  15  24  35  55  84 115 148 185 222 265
#     4   9  15  23  35  53  79 113 151 189 228 269
#     4   9  17  28  44  65  90 120 151 185 225 270
#     4  10  20  34  52  72  93 120 154 191 233 277
#     4  10  19  31  47  68  94 123 155 190 230 275
#     4  12  24  37  52  70  94 122 155 193 233 277
#     4   9  18  33  51  71  95 121 152 191 232 276
#     4   9  16  26  39  57  83 117 154 188 224 268
#
# _framework density 16.986308000000001
#
# number of rings (size 3 to 8) (size 9 to 14) (size 15 to 20)
#    0.000    2.500    0.000    4.125    0.000    6.000 
#    0.000    0.000    0.000    0.000    0.000    0.000 
#    0.000    1.000    0.000    3.000    0.000    5.500 
#
# Total GULP energy -396634.090573 kJ/mol
# GULP energy per Si atom -12394.815330 kJ/mol
# Density = 1.694765 g / cm^3
# Si number density = 16.986308 Si / 1000 Ang^3
#
#
#
# Elastic Constant Matrix: (Units=GPa)
#
#
# Indices 1 2 3 4 5 6 
#
# 1 70.4473 45.1858 58.6901 0.0000 27.7491 0.0000
# 2 45.1858 94.2113 48.0926 0.0000 15.0969 0.0000
# 3 58.6901 48.0926 111.3550 0.0000 34.9456 0.0000
# 4 0.0000 0.0000 0.0000 26.1815 0.0000 9.1110
# 5 27.7491 15.0969 34.9456 0.0000 31.0449 0.0000
# 6 0.0000 0.0000 0.0000 9.1110 0.0000 28.1670
#
#
#
# Elastic Compliance Matrix: (Units=1/GPa)
#
#
# Indices 1 2 3 4 5 6 
#
# 1 0.033534 -0.009058 -0.008872 0.000000 -0.015582 0.000000
# 2 -0.009058 0.016063 -0.003483 0.000000 0.004206 0.000000
# 3 -0.008872 -0.003483 0.018772 0.000000 -0.011506 0.000000
# 4 0.000000 0.000000 0.000000 0.043040 0.000000 -0.013922
# 5 -0.015582 0.004206 -0.011506 0.000000 0.057046 0.000000
# 6 0.000000 0.000000 0.000000 -0.013922 0.000000 0.040006
#
#
# Mechanical properties :
#
#
# Convention : Reuss Voigt Hill
#
# Bulk Modulus (GPa) = 39.15115 64.43894 51.79505
# Shear Modulus (GPa) = 19.24555 25.34836 22.29695
#
# Velocity S-wave (km/s) = 3.36966 3.86720 3.62697
# Velocity P-wave (km/s) = 6.18370 7.61305 6.93530
#
# Compressibility (1/GPa) = 0.02554203
#
# Stress axis : x y z
#
# Youngs Moduli (GPa) = 29.82031 62.25539 53.27160
#
# Poissons Ratio (x) = 0.56388 0.47265
# Poissons Ratio (y) = 0.27010 0.18556
# Poissons Ratio (z) = 0.26458 0.21686
#
# Static dielectric constant tensor:
#      x y z
#    x 3.051080 0.000000 0.425780 
#    y 0.000000 3.305470 0.000000 
#    z 0.425780 0.000000 3.362410 
# 
# 
# High freq. dielectric constant tensor:
#      x y z
#    x 1.619170 0.000000 0.043930 
#    y 0.000000 1.667430 0.000000 
#    z 0.043930 0.000000 1.644160 
# 
# From -- ./inp_files/61773.got.cif
#   From: 2010.06.25/outbox.cif.g09.slc.cpg/sg11_31_cif.got.tgz:61773.got - 2010.06.27 23:14:04.
