data_PCOD8070575
_publ_section_title
;
Structure prediction by ZEFSAII (Michael W. Deem and Ramdas Pophale) SiO2 
 PCOD8070575
Probable space group: P 21/M
;
_chemical_formula_sum "Si O2"
_cell_formula_units_Z 28
_cell_length_a 11.700357
_cell_length_b 9.226939
_cell_length_c 15.419847
_cell_angle_alpha 90.000000
_cell_angle_beta 63.660630
_cell_angle_gamma 90.000000
_cell_volume 1491.876702
_symmetry_space_group_name_H-M "P 21/M"
_symmetry_group_IT_number 11
_symmetry_cell_setting 'monoclinic'
loop_
_space_group_symop_operation_xyz
x,y,z
-x,1/2+y,-z
-x,-y,-z
x,1/2-y,z
loop_
_atom_site_type_symbol
_atom_site_label
_atom_site_fract_x
_atom_site_fract_y
_atom_site_fract_z
Si Si1 0.423565 0.079037 0.270809
Si Si2 0.176834 0.414681 0.026408
Si Si3 0.031566 0.080614 0.619894
Si Si4 0.712612 0.417898 0.172302
Si Si5 0.197630 0.580516 0.429244
Si Si6 0.060429 0.917335 0.785478
Si Si7 0.392199 0.416060 0.086145
O O1 0.404847 0.250000 0.293094
O O2 0.569060 0.027974 0.238476
O O3 0.382800 0.031262 0.188096
O O4 0.334692 0.990703 0.366210
O O5 0.191454 0.250000 0.990227
O O6 0.257302 0.443790 0.086484
O O7 0.031723 0.450836 0.101687
O O8 0.225158 0.511033 0.932282
O O9 0.065481 0.250000 0.607665
O O10 0.895728 0.051078 0.620414
O O11 0.142044 0.993464 0.533796
O O12 0.024874 0.023411 0.719716
O O13 0.709548 0.250000 0.150398
O O14 0.796231 0.449270 0.229847
O O15 0.214845 0.750000 0.441890
O O16 0.043789 0.750000 0.761351
O O17 0.434336 0.250000 0.070181
O O18 0.500000 0.500000 0.000000
#
# Coordination Sequence:
#
# PCOD8070575 Si02
#       7
#     4   4   4   4   4   4   4
#     4  10  20  35  54  79 112 148 183 222 271 322
#     4  10  20  33  52  78 108 146 187 228 275 321
#     4  10  21  38  60  86 111 137 174 222 274 326
#     4  10  21  36  54  77 109 150 189 225 267 318
#     4  10  21  37  60  87 111 138 173 219 274 330
#     4  10  21  37  56  79 109 145 186 229 271 318
#     4  10  19  31  49  74 106 142 178 220 269 316
#
# _framework density 18.768305999999999
#
# number of rings (size 3 to 8) (size 9 to 14) (size 15 to 20)
#    0.000    2.000    1.429    2.143    0.000    5.143 
#    0.000    0.714    0.000    0.000    0.000    0.000 
#    0.000    0.000    0.000    0.000    0.000    0.000 
#
# Total GULP energy -347272.387775 kJ/mol
# GULP energy per Si atom -12402.585278 kJ/mol
# Density = 1.872559 g / cm^3
# Si number density = 18.768306 Si / 1000 Ang^3
#
#
#
# Elastic Constant Matrix: (Units=GPa)
#
#
# Indices 1 2 3 4 5 6 
#
# 1 84.7262 35.8142 35.0820 0.0000 -15.8946 0.0000
# 2 35.8142 72.0007 45.0098 0.0000 -8.9285 0.0000
# 3 35.0820 45.0098 85.5710 0.0000 -18.1793 0.0000
# 4 0.0000 0.0000 0.0000 39.4966 0.0000 -2.4682
# 5 -15.8946 -8.9285 -18.1793 0.0000 25.2925 0.0000
# 6 0.0000 0.0000 0.0000 -2.4682 0.0000 24.7635
#
#
#
# Elastic Compliance Matrix: (Units=1/GPa)
#
#
# Indices 1 2 3 4 5 6 
#
# 1 0.016502 -0.006016 -0.002182 0.000000 0.006678 0.000000
# 2 -0.006016 0.022894 -0.010223 0.000000 -0.003047 0.000000
# 3 -0.002182 -0.010223 0.019946 0.000000 0.009356 0.000000
# 4 0.000000 0.000000 0.000000 0.025477 0.000000 0.002539
# 5 0.006678 -0.003047 0.009356 0.000000 0.049383 0.000000
# 6 0.000000 0.000000 0.000000 0.002539 0.000000 0.040635
#
#
# Mechanical properties :
#
#
# Convention : Reuss Voigt Hill
#
# Bulk Modulus (GPa) = 44.44572 52.67887 48.56230
# Shear Modulus (GPa) = 22.81226 26.33665 24.57445
#
# Velocity S-wave (km/s) = 3.49014 3.75006 3.62243
# Velocity P-wave (km/s) = 6.32251 6.84687 6.58990
#
# Compressibility (1/GPa) = 0.02249935
#
# Stress axis : x y z
#
# Youngs Moduli (GPa) = 60.59804 43.67935 50.13589
#
# Poissons Ratio (x) = 0.26278 0.10941
# Poissons Ratio (y) = 0.36456 0.51254
# Poissons Ratio (z) = 0.13225 0.44653
#
# Static dielectric constant tensor:
#      x y z
#    x 4.084870 0.000000 -0.413000 
#    y 0.000000 3.406640 0.000000 
#    z -0.413000 0.000000 3.511430 
# 
# 
# High freq. dielectric constant tensor:
#      x y z
#    x 1.732090 0.000000 -0.008250 
#    y 0.000000 1.726830 0.000000 
#    z -0.008250 0.000000 1.721300 
# 
# From -- ./inp_files/37338.got.cif
#   From: 2010.06.25/outbox.cif.g09.slc.cpg/sg11_19_cif.got.tgz:37338.got - 2010.06.27 23:14:04.
