data_PCOD8070419
_publ_section_title
;
Structure prediction by ZEFSAII (Michael W. Deem and Ramdas Pophale) SiO2 
 PCOD8070419
Probable space group: P 21/M
;
_chemical_formula_sum "Si O2"
_cell_formula_units_Z 28
_cell_length_a 15.937379
_cell_length_b 10.318325
_cell_length_c 14.402818
_cell_angle_alpha 90.000000
_cell_angle_beta 139.149907
_cell_angle_gamma 90.000000
_cell_volume 1549.194324
_symmetry_space_group_name_H-M "P 21/M"
_symmetry_group_IT_number 11
_symmetry_cell_setting 'monoclinic'
loop_
_space_group_symop_operation_xyz
x,y,z
-x,1/2+y,-z
-x,-y,-z
x,1/2-y,z
loop_
_atom_site_type_symbol
_atom_site_label
_atom_site_fract_x
_atom_site_fract_y
_atom_site_fract_z
Si Si1 0.187599 0.101699 0.489717
Si Si2 0.344007 0.099811 0.445163
Si Si3 0.356056 0.603528 0.300835
Si Si4 0.451086 0.109780 0.066334
Si Si5 0.094292 0.599755 0.728847
Si Si6 0.694798 0.102592 0.947920
Si Si7 0.298683 0.482496 0.771822
O O1 0.165311 0.250000 0.446836
O O2 0.268647 0.044546 0.471664
O O3 0.046848 0.035046 0.378950
O O4 0.266852 0.090842 0.650597
O O5 0.310821 0.250000 0.392850
O O6 0.493580 0.085116 0.592398
O O7 0.303721 0.004973 0.327376
O O8 0.329066 0.750000 0.315443
O O9 0.283151 0.580193 0.142674
O O10 0.432676 0.250000 0.099600
O O11 0.600419 0.097463 0.163949
O O12 0.413124 0.994115 0.103632
O O13 0.364942 0.112711 0.901258
O O14 0.080869 0.750000 0.694086
O O15 0.166740 0.536908 0.702705
O O16 0.170747 0.575551 0.888598
O O17 0.647179 0.250000 0.927166
#
# Coordination Sequence:
#
# PCOD8070419 Si02
#       7
#     4   4   4   4   4   4   4
#     4  10  19  32  50  70  96 132 170 203 239 287
#     4   9  18  31  49  74  97 121 159 202 242 290
#     4   9  17  32  52  72  96 125 155 195 250 300
#     4  10  20  31  48  76 104 129 163 206 247 289
#     4   9  18  32  49  70  96 130 171 206 236 283
#     4   9  18  33  53  74  99 131 164 200 245 295
#     4  10  19  31  48  69 101 134 166 201 244 290
#
# _framework density 18.073910000000001
#
# number of rings (size 3 to 8) (size 9 to 14) (size 15 to 20)
#    0.000    2.571    0.000    2.143    0.000    5.714 
#    0.000    5.000    0.000    5.143    0.000    0.000 
#    0.000    0.000    0.000    0.000    0.000    0.000 
#
# Total GULP energy -347091.853134 kJ/mol
# GULP energy per Si atom -12396.137612 kJ/mol
# Density = 1.803277 g / cm^3
# Si number density = 18.073910 Si / 1000 Ang^3
#
#
#
# Elastic Constant Matrix: (Units=GPa)
#
#
# Indices 1 2 3 4 5 6 
#
# 1 116.7916 41.0232 47.2471 0.0000 -4.2858 0.0000
# 2 41.0232 77.8021 26.8165 0.0000 -7.3368 0.0000
# 3 47.2471 26.8165 65.0352 0.0000 -5.8861 0.0000
# 4 0.0000 0.0000 0.0000 6.3392 0.0000 -2.7264
# 5 -4.2858 -7.3368 -5.8861 0.0000 31.6168 0.0000
# 6 0.0000 0.0000 0.0000 -2.7264 0.0000 23.3994
#
#
#
# Elastic Compliance Matrix: (Units=1/GPa)
#
#
# Indices 1 2 3 4 5 6 
#
# 1 0.013257 -0.004328 -0.007907 0.000000 -0.000680 0.000000
# 2 -0.004328 0.016572 -0.003452 0.000000 0.002616 0.000000
# 3 -0.007907 -0.003452 0.022758 0.000000 0.002364 0.000000
# 4 0.000000 0.000000 0.000000 0.166071 0.000000 0.019350
# 5 -0.000680 0.002616 0.002364 0.000000 0.032584 0.000000
# 6 0.000000 0.000000 0.000000 0.019350 0.000000 0.044991
#
#
# Mechanical properties :
#
#
# Convention : Reuss Voigt Hill
#
# Bulk Modulus (GPa) = 47.14502 54.42251 50.78377
# Shear Modulus (GPa) = 14.93975 21.90722 18.42348
#
# Velocity S-wave (km/s) = 2.87817 3.48529 3.19618
# Velocity P-wave (km/s) = 6.09806 6.80975 6.46371
#
# Compressibility (1/GPa) = 0.02121115
#
# Stress axis : x y z
#
# Youngs Moduli (GPa) = 75.43418 60.34304 43.94015
#
# Poissons Ratio (x) = 0.26119 0.34745
# Poissons Ratio (y) = 0.32651 0.15168
# Poissons Ratio (z) = 0.59649 0.20830
#
# Static dielectric constant tensor:
#      x y z
#    x 3.359750 0.000000 0.065310 
#    y 0.000000 3.211080 0.000000 
#    z 0.065310 0.000000 3.328160 
# 
# 
# High freq. dielectric constant tensor:
#      x y z
#    x 1.690060 0.000000 -0.003530 
#    y 0.000000 1.684600 0.000000 
#    z -0.003530 0.000000 1.696050 
# 
# From -- ./inp_files/43235.got.cif
#   From: 2010.06.25/outbox.cif.g09.slc.cpg/sg11_22_cif.got.tgz:43235.got - 2010.06.27 23:14:04.
