data_PCOD8070824
_publ_section_title
;
Structure prediction by ZEFSAII (Michael W. Deem and Ramdas Pophale) SiO2 
 PCOD8070824
Probable space group: P 21/M
;
_chemical_formula_sum "Si O2"
_cell_formula_units_Z 32
_cell_length_a 15.448955
_cell_length_b 8.819050
_cell_length_c 25.941435
_cell_angle_alpha 90.000000
_cell_angle_beta 29.887601
_cell_angle_gamma 90.000000
_cell_volume 1761.188774
_symmetry_space_group_name_H-M "P 21/M"
_symmetry_group_IT_number 11
_symmetry_cell_setting 'monoclinic'
loop_
_space_group_symop_operation_xyz
x,y,z
-x,1/2+y,-z
-x,-y,-z
x,1/2-y,z
loop_
_atom_site_type_symbol
_atom_site_label
_atom_site_fract_x
_atom_site_fract_y
_atom_site_fract_z
Si Si1 0.604329 0.426080 0.737907
Si Si2 0.420429 0.073491 0.465740
Si Si3 0.870594 0.071766 0.852696
Si Si4 0.311556 0.927815 0.418499
Si Si5 0.947290 0.070454 0.617852
Si Si6 0.577110 0.074481 0.080466
Si Si7 0.230910 0.926322 0.655028
Si Si8 0.235601 0.071300 0.196913
O O1 0.599825 0.250000 0.751096
O O2 0.583334 0.463327 0.688372
O O3 0.789549 0.487068 0.663260
O O4 0.445069 0.496298 0.852382
O O5 0.373341 0.250000 0.493295
O O6 0.614527 0.041111 0.384939
O O7 0.409160 0.016693 0.413261
O O8 0.282063 0.983268 0.571767
O O9 0.863690 0.250000 0.844249
O O10 0.780036 0.981009 0.853530
O O11 0.762558 0.031835 0.960110
O O12 0.066752 0.018381 0.760801
O O13 0.309203 0.750000 0.432084
O O14 0.117355 0.986114 0.509971
O O15 0.977452 0.250000 0.600598
O O16 0.910997 0.017609 0.695040
O O17 0.562252 0.250000 0.099281
O O18 0.425523 0.023892 0.119281
O O19 0.183902 0.750000 0.675449
O O20 0.201713 0.250000 0.218593
#
# Coordination Sequence:
#
# PCOD8070824 Si02
#       8
#     4   4   4   4   4   4   4   4
#     4   9  20  35  51  72 100 135 172 210 249 290
#     4  10  21  37  56  78 103 131 163 201 248 300
#     4  11  21  33  51  76 103 132 168 207 250 298
#     4  11  21  33  51  76 103 132 168 207 250 298
#     4  10  19  32  49  72 103 137 171 206 246 292
#     4   9  20  35  51  72 100 135 172 210 249 290
#     4  10  21  37  56  78 103 131 163 201 248 300
#     4  10  19  32  49  72 103 137 171 206 246 292
#
# _framework density 18.169546
#
# number of rings (size 3 to 8) (size 9 to 14) (size 15 to 20)
#    0.000    2.000    0.000    3.750    0.000    4.500 
#    0.000    0.000    0.000    0.750    0.000    0.000 
#    0.000    0.000    0.000    0.000    0.000    0.000 
#
# Total GULP energy -396890.408754 kJ/mol
# GULP energy per Si atom -12402.825274 kJ/mol
# Density = 1.812819 g / cm^3
# Si number density = 18.169546 Si / 1000 Ang^3
#
#
#
# Elastic Constant Matrix: (Units=GPa)
#
#
# Indices 1 2 3 4 5 6 
#
# 1 82.3458 23.1859 41.6281 0.0000 13.2447 0.0000
# 2 23.1859 35.4837 24.7333 0.0000 3.0419 0.0000
# 3 41.6281 24.7333 110.1749 0.0000 7.6766 0.0000
# 4 0.0000 0.0000 0.0000 31.7919 0.0000 1.9733
# 5 13.2447 3.0419 7.6766 0.0000 23.4945 0.0000
# 6 0.0000 0.0000 0.0000 1.9733 0.0000 28.0952
#
#
#
# Elastic Compliance Matrix: (Units=1/GPa)
#
#
# Indices 1 2 3 4 5 6 
#
# 1 0.017832 -0.007912 -0.004433 0.000000 -0.007580 0.000000
# 2 -0.007912 0.037005 -0.005418 0.000000 0.001439 0.000000
# 3 -0.004433 -0.005418 0.012018 0.000000 -0.000726 0.000000
# 4 0.000000 0.000000 0.000000 0.031592 0.000000 -0.002219
# 5 -0.007580 0.001439 -0.000726 0.000000 0.046887 0.000000
# 6 0.000000 0.000000 0.000000 -0.002219 0.000000 0.035749
#
#
# Mechanical properties :
#
#
# Convention : Reuss Voigt Hill
#
# Bulk Modulus (GPa) = 31.91963 45.23322 38.57643
# Shear Modulus (GPa) = 22.02124 25.90679 23.96402
#
# Velocity S-wave (km/s) = 3.48514 3.78012 3.63562
# Velocity P-wave (km/s) = 5.81384 6.63337 6.23708
#
# Compressibility (1/GPa) = 0.03132868
#
# Stress axis : x y z
#
# Youngs Moduli (GPa) = 56.07929 27.02334 83.20522
#
# Poissons Ratio (x) = 0.21381 0.36887
# Poissons Ratio (y) = 0.44369 0.45083
# Poissons Ratio (z) = 0.24861 0.14642
#
# Static dielectric constant tensor:
#      x y z
#    x 3.216000 0.000000 0.065990 
#    y 0.000000 3.420130 0.000000 
#    z 0.065990 0.000000 3.390610 
# 
# 
# High freq. dielectric constant tensor:
#      x y z
#    x 1.685530 0.000000 0.009250 
#    y 0.000000 1.715590 0.000000 
#    z 0.009250 0.000000 1.699020 
# 
# From -- ./inp_files/56187.got.cif
#   From: 2010.06.25/outbox.cif.g09.slc.cpg/sg11_29_cif.got.tgz:56187.got - 2010.06.27 23:14:04.
