data_PCOD8070011
_publ_section_title
;
Structure prediction by ZEFSAII (Michael W. Deem and Ramdas Pophale) SiO2 
 PCOD8070011
Probable space group: P 21/M
;
_chemical_formula_sum "Si O2"
_cell_formula_units_Z 24
_cell_length_a 11.509513
_cell_length_b 8.858570
_cell_length_c 13.025520
_cell_angle_alpha 90.000000
_cell_angle_beta 90.402123
_cell_angle_gamma 90.000000
_cell_volume 1328.021001
_symmetry_space_group_name_H-M "P 21/M"
_symmetry_group_IT_number 11
_symmetry_cell_setting 'monoclinic'
loop_
_space_group_symop_operation_xyz
x,y,z
-x,1/2+y,-z
-x,-y,-z
x,1/2-y,z
loop_
_atom_site_type_symbol
_atom_site_label
_atom_site_fract_x
_atom_site_fract_y
_atom_site_fract_z
Si Si1 0.295068 0.074238 0.741371
Si Si2 0.447669 0.584539 0.593292
Si Si3 0.337270 0.415646 0.264127
Si Si4 0.144151 0.926901 0.401665
Si Si5 0.097725 0.573499 0.633965
Si Si6 0.495748 0.570999 0.111083
O O1 0.267166 0.250000 0.746803
O O2 0.382443 0.023770 0.832857
O O3 0.352699 0.031164 0.633808
O O4 0.173623 0.983162 0.732803
O O5 0.500000 0.500000 0.500000
O O6 0.392762 0.750000 0.563902
O O7 0.545239 0.614394 0.676056
O O8 0.287148 0.250000 0.231088
O O9 0.248163 0.501614 0.337017
O O10 0.377582 0.512472 0.165361
O O11 0.146491 0.750000 0.382235
O O12 0.156203 0.965122 0.523226
O O13 0.024616 0.990871 0.356981
O O14 0.076156 0.750000 0.645036
O O15 0.486755 0.750000 0.105543
O O16 0.500000 0.500000 0.000000
#
# Coordination Sequence:
#
# PCOD8070011 Si02
#       6
#     4   4   4   4   4   4
#     4  10  20  33  50  73 101 132 167 208 253 302
#     4  10  19  29  44  68  99 133 166 203 247 297
#     4  10  20  33  50  73 101 133 170 210 253 303
#     4  10  20  33  50  74 106 142 178 213 249 294
#     4  10  20  33  51  75 105 142 179 212 248 295
#     4  10  21  37  57  79 102 130 166 211 263 313
#
# _framework density 18.072005000000001
#
# number of rings (size 3 to 8) (size 9 to 14) (size 15 to 20)
#    0.000    2.000    0.000    4.000    0.000    8.667 
#    0.000    0.000    0.000    1.000    0.000    0.000 
#    0.000    0.000    0.000    0.000    0.000    0.000 
#
# Total GULP energy -297375.588359 kJ/mol
# GULP energy per Si atom -12390.649515 kJ/mol
# Density = 1.803087 g / cm^3
# Si number density = 18.072005 Si / 1000 Ang^3
#
#
#
# Elastic Constant Matrix: (Units=GPa)
#
#
# Indices 1 2 3 4 5 6 
#
# 1 80.2517 41.2824 20.8425 0.0000 5.4308 0.0000
# 2 41.2824 104.5284 36.4301 0.0000 1.0521 0.0000
# 3 20.8425 36.4301 58.3119 0.0000 2.0194 0.0000
# 4 0.0000 0.0000 0.0000 27.4638 0.0000 -0.9565
# 5 5.4308 1.0521 2.0194 0.0000 25.0008 0.0000
# 6 0.0000 0.0000 0.0000 -0.9565 0.0000 32.3086
#
#
#
# Elastic Compliance Matrix: (Units=1/GPa)
#
#
# Indices 1 2 3 4 5 6 
#
# 1 0.016099 -0.005572 -0.002166 0.000000 -0.003088 0.000000
# 2 -0.005572 0.014158 -0.006894 0.000000 0.001171 0.000000
# 3 -0.002166 -0.006894 0.022267 0.000000 -0.001038 0.000000
# 4 0.000000 0.000000 0.000000 0.036449 0.000000 0.001079
# 5 -0.003088 0.001171 -0.001038 0.000000 0.040704 0.000000
# 6 0.000000 0.000000 0.000000 0.001079 0.000000 0.030983
#
#
# Mechanical properties :
#
#
# Convention : Reuss Voigt Hill
#
# Bulk Modulus (GPa) = 42.99484 48.91131 45.95308
# Shear Modulus (GPa) = 25.29368 26.59045 25.94207
#
# Velocity S-wave (km/s) = 3.74519 3.83999 3.79289
# Velocity P-wave (km/s) = 6.52261 6.83990 6.68314
#
# Compressibility (1/GPa) = 0.02325860
#
# Stress axis : x y z
#
# Youngs Moduli (GPa) = 62.11722 70.62958 44.91036
#
# Poissons Ratio (x) = 0.39354 0.09728
# Poissons Ratio (y) = 0.34611 0.30963
# Poissons Ratio (z) = 0.13456 0.48695
#
# Static dielectric constant tensor:
#      x y z
#    x 2.230230 0.000000 -0.998120 
#    y 0.000000 3.749560 0.000000 
#    z -0.998120 0.000000 2.173770 
# 
# 
# High freq. dielectric constant tensor:
#      x y z
#    x 1.697890 0.000000 0.004460 
#    y 0.000000 1.721590 0.000000 
#    z 0.004460 0.000000 1.666120 
# 
# From -- ./inp_files/33782.got.cif
#   From: 2010.06.25/outbox.cif.g09.slc.cpg/sg11_17_cif.got.tgz:33782.got - 2010.06.27 23:14:04.
