data_PCOD8070440
_publ_section_title
;
Structure prediction by ZEFSAII (Michael W. Deem and Ramdas Pophale) SiO2 
 PCOD8070440
Probable space group: P 21/M
;
_chemical_formula_sum "Si O2"
_cell_formula_units_Z 32
_cell_length_a 22.647703
_cell_length_b 9.012468
_cell_length_c 11.511476
_cell_angle_alpha 90.000000
_cell_angle_beta 49.499796
_cell_angle_gamma 90.000000
_cell_volume 1786.664893
_symmetry_space_group_name_H-M "P 21/M"
_symmetry_group_IT_number 11
_symmetry_cell_setting 'monoclinic'
loop_
_space_group_symop_operation_xyz
x,y,z
-x,1/2+y,-z
-x,-y,-z
x,1/2-y,z
loop_
_atom_site_type_symbol
_atom_site_label
_atom_site_fract_x
_atom_site_fract_y
_atom_site_fract_z
Si Si1 0.693533 0.413577 0.227458
Si Si2 0.196122 0.416826 0.225813
Si Si3 0.136025 0.916624 0.096311
Si Si4 0.365686 0.084251 0.898672
Si Si5 0.735697 0.077561 0.655486
Si Si6 0.222383 0.575472 0.658250
Si Si7 0.076092 0.427061 0.954418
Si Si8 0.428622 0.923973 0.029100
O O1 0.655945 0.250000 0.271450
O O2 0.636103 0.522710 0.231156
O O3 0.706964 0.464749 0.343674
O O4 0.777000 0.409799 0.060894
O O5 0.164755 0.250000 0.279585
O O6 0.135403 0.508511 0.224552
O O7 0.202475 0.489919 0.344696
O O8 0.279649 0.418405 0.059180
O O9 0.101495 0.750000 0.148958
O O10 0.084594 0.015884 0.075596
O O11 0.399693 0.250000 0.851958
O O12 0.421517 0.984247 0.906813
O O13 0.750467 0.250000 0.659333
O O14 0.749032 0.032571 0.505736
O O15 0.647990 0.034170 0.800220
O O16 0.201190 0.750000 0.697559
O O17 0.147669 0.477920 0.783282
O O18 0.069994 0.250000 0.962149
O O19 0.000000 0.500000 0.000000
O O20 0.443045 0.750000 0.005005
O O21 0.500000 0.000000 0.000000
#
# Coordination Sequence:
#
# PCOD8070440 Si02
#       8
#     4   4   4   4   4   4   4   4
#     4   8  14  25  43  66  91 118 150 192 237 277
#     4   9  16  26  43  69  97 123 156 199 241 280
#     4   9  16  28  46  68  94 124 159 198 239 281
#     4   9  16  26  42  65  92 120 153 194 235 277
#     4   9  18  32  50  71  97 130 163 196 239 289
#     4   9  18  33  51  72  98 128 162 198 238 286
#     4  11  21  33  50  73 100 129 161 197 239 285
#     4  10  19  31  48  70  96 126 159 196 239 285
#
# _framework density 17.910467000000001
#
# number of rings (size 3 to 8) (size 9 to 14) (size 15 to 20)
#    0.000    2.750    0.000    3.375    0.000    7.000 
#    0.000    0.000    0.000    1.500    0.000    0.000 
#    0.000    0.000    0.000    0.000    0.000    0.000 
#
# Total GULP energy -396719.746970 kJ/mol
# GULP energy per Si atom -12397.492093 kJ/mol
# Density = 1.786970 g / cm^3
# Si number density = 17.910467 Si / 1000 Ang^3
#
#
#
# Elastic Constant Matrix: (Units=GPa)
#
#
# Indices 1 2 3 4 5 6 
#
# 1 141.1059 81.0024 54.8730 0.0000 36.2925 0.0000
# 2 81.0024 136.4612 43.0054 0.0000 20.2683 0.0000
# 3 54.8730 43.0054 61.5835 0.0000 32.5598 0.0000
# 4 0.0000 0.0000 0.0000 17.7529 0.0000 6.3717
# 5 36.2925 20.2683 32.5598 0.0000 32.3417 0.0000
# 6 0.0000 0.0000 0.0000 6.3717 0.0000 37.4176
#
#
#
# Elastic Compliance Matrix: (Units=1/GPa)
#
#
# Indices 1 2 3 4 5 6 
#
# 1 0.014173 -0.005865 -0.004421 0.000000 -0.007779 0.000000
# 2 -0.005865 0.011858 -0.005571 0.000000 0.004758 0.000000
# 3 -0.004421 -0.005571 0.041902 0.000000 -0.033733 0.000000
# 4 0.000000 0.000000 0.000000 0.059996 0.000000 -0.010216
# 5 -0.007779 0.004758 -0.033733 0.000000 0.070627 0.000000
# 6 0.000000 0.000000 0.000000 -0.010216 0.000000 0.028465
#
#
# Mechanical properties :
#
#
# Convention : Reuss Voigt Hill
#
# Bulk Modulus (GPa) = 27.60819 77.43469 52.52144
# Shear Modulus (GPa) = 18.46322 28.18709 23.32516
#
# Velocity S-wave (km/s) = 3.21419 3.97139 3.61268
# Velocity P-wave (km/s) = 5.40580 8.02231 6.84033
#
# Compressibility (1/GPa) = 0.03622114
#
# Stress axis : x y z
#
# Youngs Moduli (GPa) = 70.55489 84.32927 23.86499
#
# Poissons Ratio (x) = 0.49456 0.10550
# Poissons Ratio (y) = 0.41378 0.13295
# Poissons Ratio (z) = 0.31191 0.46980
#
# Static dielectric constant tensor:
#      x y z
#    x 3.433920 0.000000 0.413830 
#    y 0.000000 3.495660 0.000000 
#    z 0.413830 0.000000 3.036700 
# 
# 
# High freq. dielectric constant tensor:
#      x y z
#    x 1.694530 0.000000 0.037210 
#    y 0.000000 1.703520 0.000000 
#    z 0.037210 0.000000 1.644230 
# 
# From -- ./inp_files/42429.got.cif
#   From: 2010.06.25/outbox.cif.g09.slc.cpg/sg11_22_cif.got.tgz:42429.got - 2010.06.27 23:14:04.
