data_PCOD8070254
_publ_section_title
;
Structure prediction by ZEFSAII (Michael W. Deem and Ramdas Pophale) SiO2 
 PCOD8070254
Probable space group: P 21/M
;
_chemical_formula_sum "Si O2"
_cell_formula_units_Z 32
_cell_length_a 14.904115
_cell_length_b 8.714050
_cell_length_c 15.007475
_cell_angle_alpha 90.000000
_cell_angle_beta 100.421928
_cell_angle_gamma 90.000000
_cell_volume 1916.943240
_symmetry_space_group_name_H-M "P 21/M"
_symmetry_group_IT_number 11
_symmetry_cell_setting 'monoclinic'
loop_
_space_group_symop_operation_xyz
x,y,z
-x,1/2+y,-z
-x,-y,-z
x,1/2-y,z
loop_
_atom_site_type_symbol
_atom_site_label
_atom_site_fract_x
_atom_site_fract_y
_atom_site_fract_z
Si Si1 0.760247 0.428592 0.252508
Si Si2 0.371957 0.569435 0.916917
Si Si3 0.882003 0.073075 0.562790
Si Si4 0.701990 0.571092 0.578690
Si Si5 0.087102 0.072783 0.617950
Si Si6 0.444945 0.571786 0.112219
Si Si7 0.623833 0.071927 0.388395
Si Si8 0.567395 0.071352 0.690705
O O1 0.786391 0.250000 0.255573
O O2 0.719614 0.486980 0.150163
O O3 0.851659 0.526162 0.286514
O O4 0.684130 0.464111 0.313039
O O5 0.374146 0.750000 0.908174
O O6 0.459225 0.511763 0.878991
O O7 0.375219 0.515814 0.021276
O O8 0.853315 0.250000 0.565470
O O9 0.981434 0.041249 0.622792
O O10 0.808997 0.971109 0.602523
O O11 0.881401 0.031422 0.458513
O O12 0.688564 0.750000 0.594181
O O13 0.661739 0.528751 0.475710
O O14 0.652585 0.475879 0.646597
O O15 0.101624 0.250000 0.594748
O O16 0.465031 0.750000 0.102235
O O17 0.403596 0.536690 0.201777
O O18 0.628147 0.250000 0.416100
O O19 0.519815 0.027537 0.351972
O O20 0.544317 0.250000 0.672872
#
# Coordination Sequence:
#
# PCOD8070254 Si02
#       8
#     4   4   4   4   4   4   4   4
#     4  10  19  30  49  73 102 135 162 195 240 288
#     4   9  17  31  49  71  98 127 160 198 241 287
#     4  10  20  35  51  71  97 127 161 202 246 287
#     4  12  24  36  51  70  94 131 171 208 243 286
#     4  10  20  32  51  74  99 127 160 199 241 292
#     4   9  18  31  49  71  95 126 163 201 242 285
#     4  11  21  34  49  70 100 135 169 203 237 281
#     4  11  22  35  50  70  98 133 169 207 243 286
#
# _framework density 16.693242000000001
#
# number of rings (size 3 to 8) (size 9 to 14) (size 15 to 20)
#    0.000    1.750    2.500    3.000    0.000    3.000 
#    0.000    0.000    0.000    0.000    0.000    0.875 
#    0.000    0.000    0.000    0.000    0.000    0.000 
#
# Total GULP energy -396796.490024 kJ/mol
# GULP energy per Si atom -12399.890313 kJ/mol
# Density = 1.665525 g / cm^3
# Si number density = 16.693242 Si / 1000 Ang^3
#
#
#
# Elastic Constant Matrix: (Units=GPa)
#
#
# Indices 1 2 3 4 5 6 
#
# 1 87.8382 17.7566 44.9725 0.0000 16.4512 0.0000
# 2 17.7566 34.5481 20.3299 0.0000 6.5148 0.0000
# 3 44.9725 20.3299 85.6789 0.0000 18.6373 0.0000
# 4 0.0000 0.0000 0.0000 17.7744 0.0000 4.7159
# 5 16.4512 6.5148 18.6373 0.0000 24.9844 0.0000
# 6 0.0000 0.0000 0.0000 4.7159 0.0000 25.2586
#
#
#
# Elastic Compliance Matrix: (Units=1/GPa)
#
#
# Indices 1 2 3 4 5 6 
#
# 1 0.016471 -0.003582 -0.006732 0.000000 -0.004890 0.000000
# 2 -0.003582 0.034660 -0.005838 0.000000 -0.002324 0.000000
# 3 -0.006732 -0.005838 0.018258 0.000000 -0.007664 0.000000
# 4 0.000000 0.000000 0.000000 0.059193 0.000000 -0.011052
# 5 -0.004890 -0.002324 -0.007664 0.000000 0.049568 0.000000
# 6 0.000000 0.000000 0.000000 -0.011052 0.000000 0.041654
#
#
# Mechanical properties :
#
#
# Convention : Reuss Voigt Hill
#
# Bulk Modulus (GPa) = 26.96594 41.57591 34.27092
# Shear Modulus (GPa) = 18.90573 21.93724 20.42148
#
# Velocity S-wave (km/s) = 3.36897 3.62904 3.50142
# Velocity P-wave (km/s) = 5.59662 6.52072 6.07626
#
# Compressibility (1/GPa) = 0.03708381
#
# Stress axis : x y z
#
# Youngs Moduli (GPa) = 60.71168 28.85160 54.77155
#
# Poissons Ratio (x) = 0.10335 0.36873
# Poissons Ratio (y) = 0.21748 0.31978
# Poissons Ratio (z) = 0.40872 0.16845
#
# Static dielectric constant tensor:
#      x y z
#    x 3.083770 0.000000 0.192870 
#    y 0.000000 3.195610 0.000000 
#    z 0.192870 0.000000 3.334860 
# 
# 
# High freq. dielectric constant tensor:
#      x y z
#    x 1.624490 0.000000 0.016610 
#    y 0.000000 1.652460 0.000000 
#    z 0.016610 0.000000 1.631080 
# 
# From -- ./inp_files/51397.got.cif
#   From: 2010.06.25/outbox.cif.g09.slc.cpg/sg11_26_cif.got.tgz:51397.got - 2010.06.27 23:14:04.
