data_PCOD8070796
_publ_section_title
;
Structure prediction by ZEFSAII (Michael W. Deem and Ramdas Pophale) SiO2 
 PCOD8070796
Probable space group: P 21/M
;
_chemical_formula_sum "Si O2"
_cell_formula_units_Z 32
_cell_length_a 19.149864
_cell_length_b 9.113805
_cell_length_c 23.666498
_cell_angle_alpha 90.000000
_cell_angle_beta 28.104821
_cell_angle_gamma 90.000000
_cell_volume 1945.806808
_symmetry_space_group_name_H-M "P 21/M"
_symmetry_group_IT_number 11
_symmetry_cell_setting 'monoclinic'
loop_
_space_group_symop_operation_xyz
x,y,z
-x,1/2+y,-z
-x,-y,-z
x,1/2-y,z
loop_
_atom_site_type_symbol
_atom_site_label
_atom_site_fract_x
_atom_site_fract_y
_atom_site_fract_z
Si Si1 0.302097 0.079459 0.593855
Si Si2 0.161197 0.912462 0.201496
Si Si3 0.854352 0.420858 0.083098
Si Si4 0.639535 0.418779 0.335768
Si Si5 0.193548 0.576363 0.010042
Si Si6 0.434097 0.912347 0.920929
Si Si7 0.606439 0.421014 0.880540
Si Si8 0.973575 0.423944 0.252173
O O1 0.258082 0.250000 0.624960
O O2 0.465329 0.051810 0.452456
O O3 0.291220 0.021892 0.665709
O O4 0.191755 0.988057 0.632967
O O5 0.088560 0.750000 0.252954
O O6 0.223106 0.950204 0.220605
O O7 0.041785 0.029451 0.264314
O O8 0.303220 0.912948 0.059846
O O9 0.889596 0.250000 0.058110
O O10 0.717022 0.459531 0.221612
O O11 0.811136 0.474134 0.051382
O O12 0.000000 0.500000 0.000000
O O13 0.668776 0.250000 0.332324
O O14 0.164796 0.750000 0.038758
O O15 0.357574 0.534978 0.916900
O O16 0.066681 0.489671 0.133894
O O17 0.501399 0.750000 0.866010
O O18 0.570384 0.016369 0.843515
O O19 0.569795 0.250000 0.907215
O O20 0.500000 0.500000 0.000000
O O21 0.971175 0.250000 0.249556
#
# Coordination Sequence:
#
# PCOD8070796 Si02
#       8
#     4   4   4   4   4   4   4   4
#     4  10  19  32  49  65  86 114 140 174 220 260
#     4   8  15  26  37  53  80 112 143 173 210 254
#     4  10  20  33  48  66  88 113 143 177 212 251
#     4   9  19  34  50  68  86 108 144 182 211 250
#     4   9  18  31  44  60  86 118 146 175 215 258
#     4   8  14  24  37  53  76 108 142 171 203 248
#     4   9  15  22  34  52  76 107 140 173 207 245
#     4  11  20  28  42  64  88 114 147 182 211 249
#
# _framework density 16.445620999999999
#
# number of rings (size 3 to 8) (size 9 to 14) (size 15 to 20)
#    0.000    2.750    0.000    4.125    0.000    8.500 
#    0.000    0.000    0.000    0.000    0.000    0.000 
#    0.000    1.000    0.000    2.000    0.000    3.875 
#
# Total GULP energy -396603.288886 kJ/mol
# GULP energy per Si atom -12393.852778 kJ/mol
# Density = 1.640819 g / cm^3
# Si number density = 16.445621 Si / 1000 Ang^3
#
#
#
# Elastic Constant Matrix: (Units=GPa)
#
#
# Indices 1 2 3 4 5 6 
#
# 1 139.7469 57.8305 48.5938 0.0000 -27.3373 0.0000
# 2 57.8305 91.9954 36.3577 0.0000 -18.1671 0.0000
# 3 48.5938 36.3577 55.3878 0.0000 -10.8312 0.0000
# 4 0.0000 0.0000 0.0000 18.1757 0.0000 -8.0798
# 5 -27.3373 -18.1671 -10.8312 0.0000 20.8956 0.0000
# 6 0.0000 0.0000 0.0000 -8.0798 0.0000 29.0557
#
#
#
# Elastic Compliance Matrix: (Units=1/GPa)
#
#
# Indices 1 2 3 4 5 6 
#
# 1 0.013104 -0.003282 -0.007287 0.000000 0.010514 0.000000
# 2 -0.003282 0.017051 -0.006959 0.000000 0.006924 0.000000
# 3 -0.007287 -0.006959 0.028897 0.000000 -0.000605 0.000000
# 4 0.000000 0.000000 0.000000 0.062779 0.000000 0.017458
# 5 0.010514 0.006924 -0.000605 0.000000 0.067318 0.000000
# 6 0.000000 0.000000 0.000000 0.017458 0.000000 0.039271
#
#
# Mechanical properties :
#
#
# Convention : Reuss Voigt Hill
#
# Bulk Modulus (GPa) = 41.67200 63.63268 52.65234
# Shear Modulus (GPa) = 18.41786 23.24861 20.83324
#
# Velocity S-wave (km/s) = 3.35016 3.76395 3.56307
# Velocity P-wave (km/s) = 6.35288 7.59385 7.00091
#
# Compressibility (1/GPa) = 0.02399693
#
# Stress axis : x y z
#
# Youngs Moduli (GPa) = 76.31048 58.64859 34.60508
#
# Poissons Ratio (x) = 0.19246 0.25216
# Poissons Ratio (y) = 0.25042 0.24083
# Poissons Ratio (z) = 0.55606 0.40816
#
# Static dielectric constant tensor:
#      x y z
#    x 3.819630 0.000000 -0.390310 
#    y 0.000000 3.313950 0.000000 
#    z -0.390310 0.000000 2.814570 
# 
# 
# High freq. dielectric constant tensor:
#      x y z
#    x 1.639980 0.000000 -0.032560 
#    y 0.000000 1.636860 0.000000 
#    z -0.032560 0.000000 1.579550 
# 
# From -- ./inp_files/72087.got.cif
#   From: 2010.06.25/outbox.cif.g09.slc.cpg/sg11_37_cif.got.tgz:72087.got - 2010.06.27 23:14:04.
