data_PCOD8070092
_publ_section_title
;
Structure prediction by ZEFSAII (Michael W. Deem and Ramdas Pophale) SiO2 
 PCOD8070092
Probable space group: P 21/M
;
_chemical_formula_sum "Si O2"
_cell_formula_units_Z 32
_cell_length_a 28.080777
_cell_length_b 8.826372
_cell_length_c 21.187876
_cell_angle_alpha 90.000000
_cell_angle_beta 158.921849
_cell_angle_gamma 90.000000
_cell_volume 1888.634775
_symmetry_space_group_name_H-M "P 21/M"
_symmetry_group_IT_number 11
_symmetry_cell_setting 'monoclinic'
loop_
_space_group_symop_operation_xyz
x,y,z
-x,1/2+y,-z
-x,-y,-z
x,1/2-y,z
loop_
_atom_site_type_symbol
_atom_site_label
_atom_site_fract_x
_atom_site_fract_y
_atom_site_fract_z
Si Si1 0.023970 0.573075 0.962395
Si Si2 0.291542 0.426534 0.249998
Si Si3 0.496740 0.575856 0.721484
Si Si4 0.194526 0.921210 0.387168
Si Si5 0.464324 0.926488 0.361706
Si Si6 0.432921 0.926036 0.069877
Si Si7 0.367212 0.924702 0.858626
Si Si8 0.306281 0.575491 0.651868
O O1 0.034487 0.750000 0.985734
O O2 0.902020 0.538308 0.765554
O O3 0.157564 0.515221 0.096390
O O4 0.000000 0.500000 0.000000
O O5 0.259254 0.250000 0.206495
O O6 0.393026 0.465157 0.431855
O O7 0.350918 0.479782 0.256939
O O8 0.525676 0.750000 0.741443
O O9 0.343681 0.548207 0.548708
O O10 0.535757 0.473487 0.710802
O O11 0.589875 0.524587 0.895260
O O12 0.151024 0.750000 0.316220
O O13 0.187137 0.947864 0.454259
O O14 0.431787 0.750000 0.328400
O O15 0.418283 0.750000 0.069971
O O16 0.579204 0.957710 0.223907
O O17 0.331280 0.976538 0.886460
O O18 0.400326 0.750000 0.906932
O O19 0.260831 0.951866 0.669560
O O20 0.500000 0.000000 0.000000
O O21 0.358388 0.750000 0.708479
#
# Coordination Sequence:
#
# PCOD8070092 Si02
#       8
#     4   4   4   4   4   4   4   4
#     4  12  24  36  51  70  94 122 154 191 229 270
#     4  10  21  37  55  73  93 118 149 185 227 274
#     4  10  19  30  45  65  92 126 159 190 227 271
#     4   9  18  31  46  65  91 123 158 193 229 272
#     4  10  20  34  53  74  94 117 148 187 228 270
#     4   9  15  22  35  57  85 115 149 188 225 265
#     4   8  13  21  34  53  78 111 148 183 221 264
#     4   8  14  25  39  55  80 115 151 185 223 270
#
# _framework density 16.943455
#
# number of rings (size 3 to 8) (size 9 to 14) (size 15 to 20)
#    0.000    2.500    0.000    4.125    0.000    6.500 
#    0.000    0.000    0.000    0.000    0.000    0.000 
#    0.000    1.000    0.000    2.750    0.000    6.000 
#
# Total GULP energy -396443.494551 kJ/mol
# GULP energy per Si atom -12388.859205 kJ/mol
# Density = 1.690489 g / cm^3
# Si number density = 16.943455 Si / 1000 Ang^3
#
#
#
# Elastic Constant Matrix: (Units=GPa)
#
#
# Indices 1 2 3 4 5 6 
#
# 1 110.8826 30.9809 47.1253 0.0000 -32.4932 0.0000
# 2 30.9809 69.5606 26.6094 0.0000 -4.2566 0.0000
# 3 47.1253 26.6094 51.2604 0.0000 -15.9301 0.0000
# 4 0.0000 0.0000 0.0000 20.3767 0.0000 -1.8624
# 5 -32.4932 -4.2566 -15.9301 0.0000 27.6407 0.0000
# 6 0.0000 0.0000 0.0000 -1.8624 0.0000 27.2941
#
#
#
# Elastic Compliance Matrix: (Units=1/GPa)
#
#
# Indices 1 2 3 4 5 6 
#
# 1 0.019298 -0.003392 -0.011077 0.000000 0.015780 0.000000
# 2 -0.003392 0.018766 -0.008483 0.000000 -0.005987 0.000000
# 3 -0.011077 -0.008483 0.036110 0.000000 0.006484 0.000000
# 4 0.000000 0.000000 0.000000 0.049384 0.000000 0.003370
# 5 0.015780 -0.005987 0.006484 0.000000 0.057543 0.000000
# 6 0.000000 0.000000 0.000000 0.003370 0.000000 0.036868
#
#
# Mechanical properties :
#
#
# Convention : Reuss Voigt Hill
#
# Bulk Modulus (GPa) = 35.37390 49.01500 42.19445
# Shear Modulus (GPa) = 18.29520 23.52814 20.91167
#
# Velocity S-wave (km/s) = 3.28957 3.73047 3.51693
# Velocity P-wave (km/s) = 5.94569 6.89540 6.43808
#
# Compressibility (1/GPa) = 0.02826943
#
# Stress axis : x y z
#
# Youngs Moduli (GPa) = 51.81869 53.28912 27.69325
#
# Poissons Ratio (x) = 0.18077 0.30675
# Poissons Ratio (y) = 0.17578 0.23493
# Poissons Ratio (z) = 0.57397 0.45207
#
# Static dielectric constant tensor:
#      x y z
#    x 3.493920 0.000000 -0.524610 
#    y 0.000000 3.216010 0.000000 
#    z -0.524610 0.000000 3.037280 
# 
# 
# High freq. dielectric constant tensor:
#      x y z
#    x 1.656460 0.000000 -0.045990 
#    y 0.000000 1.664580 0.000000 
#    z -0.045990 0.000000 1.604590 
# 
# From -- ./inp_files/64231.got.cif
#   From: 2010.06.25/outbox.cif.g09.slc.cpg/sg11_33_cif.got.tgz:64231.got - 2010.06.27 23:14:04.
