data_PCOD8070139
_publ_section_title
;
Structure prediction by ZEFSAII (Michael W. Deem and Ramdas Pophale) SiO2 
 PCOD8070139
Probable space group: P 21/M
;
_chemical_formula_sum "Si O2"
_cell_formula_units_Z 24
_cell_length_a 20.494161
_cell_length_b 9.224074
_cell_length_c 11.803253
_cell_angle_alpha 90.000000
_cell_angle_beta 38.730687
_cell_angle_gamma 90.000000
_cell_volume 1396.025705
_symmetry_space_group_name_H-M "P 21/M"
_symmetry_group_IT_number 11
_symmetry_cell_setting 'monoclinic'
loop_
_space_group_symop_operation_xyz
x,y,z
-x,1/2+y,-z
-x,-y,-z
x,1/2-y,z
loop_
_atom_site_type_symbol
_atom_site_label
_atom_site_fract_x
_atom_site_fract_y
_atom_site_fract_z
Si Si1 0.890057 0.577521 0.650062
Si Si2 0.276171 0.917833 0.986992
Si Si3 0.578381 0.912782 0.054158
Si Si4 0.396337 0.581760 0.603227
Si Si5 0.345675 0.914620 0.424431
Si Si6 0.741068 0.913929 0.649365
O O1 0.901511 0.750000 0.648828
O O2 0.832237 0.535579 0.611283
O O3 0.000000 0.500000 0.500000
O O4 0.823797 0.514532 0.845051
O O5 0.253608 0.750000 0.046183
O O6 0.302153 0.939267 0.819439
O O7 0.377711 0.969571 0.917953
O O8 0.606724 0.750000 0.059759
O O9 0.455225 0.931902 0.211079
O O10 0.629778 0.935190 0.861776
O O11 0.500000 0.500000 0.500000
O O12 0.427449 0.750000 0.547957
O O13 0.355467 0.520547 0.537987
O O14 0.308275 0.750000 0.482136
O O15 0.258459 0.996107 0.467958
O O16 0.760349 0.750000 0.586764
#
# Coordination Sequence:
#
# PCOD8070139 Si02
#       6
#     4   4   4   4   4   4
#     4  10  21  38  59  80 101 126 161 212 265 311
#     4  10  19  31  50  77 104 134 173 212 251 299
#     4   9  17  30  46  67 101 138 171 210 250 293
#     4  10  20  32  48  72 104 142 180 212 244 289
#     4  10  19  30  46  69 102 141 174 207 247 293
#     4   9  19  32  47  72 101 129 164 206 255 306
#
# _framework density 17.191662000000001
#
# number of rings (size 3 to 8) (size 9 to 14) (size 15 to 20)
#    0.000    2.333    1.667    2.500    0.000    5.333 
#    0.000    0.000    0.000    1.000    0.000    0.000 
#    0.000    0.000    0.000    0.000    0.000    0.000 
#
# Total GULP energy -297536.882616 kJ/mol
# GULP energy per Si atom -12397.370109 kJ/mol
# Density = 1.715253 g / cm^3
# Si number density = 17.191662 Si / 1000 Ang^3
#
#
#
# Elastic Constant Matrix: (Units=GPa)
#
#
# Indices 1 2 3 4 5 6 
#
# 1 110.7945 56.5738 56.4051 0.0000 15.8256 0.0000
# 2 56.5738 83.9146 45.3044 0.0000 4.7844 0.0000
# 3 56.4051 45.3044 71.6312 0.0000 4.5057 0.0000
# 4 0.0000 0.0000 0.0000 23.9605 0.0000 0.0024
# 5 15.8256 4.7844 4.5057 0.0000 22.2271 0.0000
# 6 0.0000 0.0000 0.0000 0.0024 0.0000 32.4730
#
#
#
# Elastic Compliance Matrix: (Units=1/GPa)
#
#
# Indices 1 2 3 4 5 6 
#
# 1 0.019091 -0.006867 -0.010056 0.000000 -0.010076 0.000000
# 2 -0.006867 0.020622 -0.007763 0.000000 0.002024 0.000000
# 3 -0.010056 -0.007763 0.026572 0.000000 0.003444 0.000000
# 4 0.000000 0.000000 0.000000 0.041735 0.000000 -0.000003
# 5 -0.010076 0.002024 0.003444 0.000000 0.051030 0.000000
# 6 0.000000 0.000000 0.000000 -0.000003 0.000000 0.030795
#
#
# Mechanical properties :
#
#
# Convention : Reuss Voigt Hill
#
# Bulk Modulus (GPa) = 59.12472 64.76743 61.94608
# Shear Modulus (GPa) = 20.42034 22.93594 21.67814
#
# Velocity S-wave (km/s) = 3.45019 3.65654 3.55486
# Velocity P-wave (km/s) = 7.09492 7.45537 7.27738
#
# Compressibility (1/GPa) = 0.01691340
#
# Stress axis : x y z
#
# Youngs Moduli (GPa) = 52.38122 48.49146 37.63415
#
# Poissons Ratio (x) = 0.33300 0.37844
# Poissons Ratio (y) = 0.35972 0.29214
# Poissons Ratio (z) = 0.52673 0.37642
#
# Static dielectric constant tensor:
#      x y z
#    x 3.055960 0.000000 0.160510 
#    y 0.000000 3.285500 0.000000 
#    z 0.160510 0.000000 3.125540 
# 
# 
# High freq. dielectric constant tensor:
#      x y z
#    x 1.648340 0.000000 0.015320 
#    y 0.000000 1.669220 0.000000 
#    z 0.015320 0.000000 1.643100 
# 
# From -- ./inp_files/36995.got.cif
#   From: 2010.06.25/outbox.cif.g09.slc.cpg/sg11_19_cif.got.tgz:36995.got - 2010.06.27 23:14:04.
