data_PCOD8070634
_publ_section_title
;
Structure prediction by ZEFSAII (Michael W. Deem and Ramdas Pophale) SiO2 
 PCOD8070634
Probable space group: P 21/M
;
_chemical_formula_sum "Si O2"
_cell_formula_units_Z 32
_cell_length_a 14.818056
_cell_length_b 12.773776
_cell_length_c 14.600874
_cell_angle_alpha 90.000000
_cell_angle_beta 40.684424
_cell_angle_gamma 90.000000
_cell_volume 1801.628396
_symmetry_space_group_name_H-M "P 21/M"
_symmetry_group_IT_number 11
_symmetry_cell_setting 'monoclinic'
loop_
_space_group_symop_operation_xyz
x,y,z
-x,1/2+y,-z
-x,-y,-z
x,1/2-y,z
loop_
_atom_site_type_symbol
_atom_site_label
_atom_site_fract_x
_atom_site_fract_y
_atom_site_fract_z
Si Si1 0.677555 0.491990 0.457313
Si Si2 0.395323 0.374541 0.660968
Si Si3 0.784517 0.869366 0.530997
Si Si4 0.954697 0.373492 0.266072
Si Si5 0.462755 0.128192 0.932457
Si Si6 0.762995 0.626524 0.037239
Si Si7 0.965774 0.493957 0.632488
Si Si8 0.318987 0.466460 0.208106
O O1 0.548815 0.413753 0.567797
O O2 0.658934 0.571903 0.388621
O O3 0.688223 0.560205 0.540783
O O4 0.815649 0.424934 0.333737
O O5 0.399939 0.250000 0.644587
O O6 0.287947 0.408378 0.823267
O O7 0.759392 0.750000 0.524295
O O8 0.744329 0.890956 0.666652
O O9 0.948287 0.896285 0.391008
O O10 0.937645 0.250000 0.273786
O O11 0.983564 0.403697 0.349985
O O12 0.082889 0.415463 0.104646
O O13 0.495638 0.250000 0.892231
O O14 0.345666 0.085187 0.954176
O O15 0.601682 0.062897 0.805422
O O16 0.418665 0.106416 0.070937
O O17 0.766649 0.750000 0.026180
O O18 0.800095 0.484016 0.766210
O O19 0.000000 0.500000 0.500000
#
# Coordination Sequence:
#
# PCOD8070634 Si02
#       8
#     4   4   4   4   4   4   4   4
#     4  10  21  35  54  80 105 136 176 218 268 319
#     4  10  20  36  56  79 107 136 172 219 269 324
#     4  10  20  34  51  72 102 138 173 213 264 315
#     4  10  19  34  55  78 106 137 176 222 266 317
#     4  10  19  31  50  75 104 137 173 217 260 310
#     4   9  18  32  53  77 102 138 175 212 266 314
#     4   9  19  32  48  75 102 135 178 215 259 311
#     4  10  19  32  50  74 103 136 178 214 259 314
#
# _framework density 17.761710000000001
#
# number of rings (size 3 to 8) (size 9 to 14) (size 15 to 20)
#    0.000    2.250    1.250    1.875    0.000    3.000 
#    0.000    6.250    0.000    0.000    0.000    4.375 
#    0.000    0.000    0.000    0.000    0.000    0.000 
#
# Total GULP energy -396670.877283 kJ/mol
# GULP energy per Si atom -12395.964915 kJ/mol
# Density = 1.772128 g / cm^3
# Si number density = 17.761710 Si / 1000 Ang^3
#
#
#
# Elastic Constant Matrix: (Units=GPa)
#
#
# Indices 1 2 3 4 5 6 
#
# 1 94.7435 35.7448 39.1684 0.0000 -12.7321 0.0000
# 2 35.7448 89.6962 39.5655 0.0000 -8.7389 0.0000
# 3 39.1684 39.5655 80.6567 0.0000 -8.6673 0.0000
# 4 0.0000 0.0000 0.0000 22.4550 0.0000 0.2589
# 5 -12.7321 -8.7389 -8.6673 0.0000 33.8156 0.0000
# 6 0.0000 0.0000 0.0000 0.2589 0.0000 22.5792
#
#
#
# Elastic Compliance Matrix: (Units=1/GPa)
#
#
# Indices 1 2 3 4 5 6 
#
# 1 0.014260 -0.003145 -0.005031 0.000000 0.003267 0.000000
# 2 -0.003145 0.015046 -0.005720 0.000000 0.001238 0.000000
# 3 -0.005031 -0.005720 0.017775 0.000000 0.001183 0.000000
# 4 0.000000 0.000000 0.000000 0.044539 0.000000 -0.000511
# 5 0.003267 0.001238 0.001183 0.000000 0.031425 0.000000
# 6 0.000000 0.000000 0.000000 -0.000511 0.000000 0.044294
#
#
# Mechanical properties :
#
#
# Convention : Reuss Voigt Hill
#
# Bulk Modulus (GPa) = 51.84682 54.89487 53.37085
# Shear Modulus (GPa) = 24.80614 25.81115 25.30864
#
# Velocity S-wave (km/s) = 3.74118 3.81621 3.77888
# Velocity P-wave (km/s) = 6.92210 7.09869 7.01095
#
# Compressibility (1/GPa) = 0.01928759
#
# Stress axis : x y z
#
# Youngs Moduli (GPa) = 70.12392 66.46262 56.25999
#
# Poissons Ratio (x) = 0.20905 0.28305
# Poissons Ratio (y) = 0.22057 0.32182
# Poissons Ratio (z) = 0.35280 0.38018
#
# Static dielectric constant tensor:
#      x y z
#    x 3.446720 0.000000 -0.186200 
#    y 0.000000 3.106440 0.000000 
#    z -0.186200 0.000000 3.506210 
# 
# 
# High freq. dielectric constant tensor:
#      x y z
#    x 1.694190 0.000000 -0.006810 
#    y 0.000000 1.669820 0.000000 
#    z -0.006810 0.000000 1.689400 
# 
# From -- ./inp_files/52274.got.cif
#   From: 2010.06.25/outbox.cif.g09.slc.cpg/sg11_27_cif.got.tgz:52274.got - 2010.06.27 23:14:04.
