data_PCOD8070818
_publ_section_title
;
Structure prediction by ZEFSAII (Michael W. Deem and Ramdas Pophale) SiO2 
 PCOD8070818
Probable space group: P 21/M
;
_chemical_formula_sum "Si O2"
_cell_formula_units_Z 32
_cell_length_a 21.050696
_cell_length_b 9.027734
_cell_length_c 23.494892
_cell_angle_alpha 90.000000
_cell_angle_beta 156.594529
_cell_angle_gamma 90.000000
_cell_volume 1773.645187
_symmetry_space_group_name_H-M "P 21/M"
_symmetry_group_IT_number 11
_symmetry_cell_setting 'monoclinic'
loop_
_space_group_symop_operation_xyz
x,y,z
-x,1/2+y,-z
-x,-y,-z
x,1/2-y,z
loop_
_atom_site_type_symbol
_atom_site_label
_atom_site_fract_x
_atom_site_fract_y
_atom_site_fract_z
Si Si1 0.005608 0.075744 0.065168
Si Si2 0.166555 0.920892 0.768135
Si Si3 0.306417 0.425666 0.176863
Si Si4 0.286876 0.922067 0.746428
Si Si5 0.184803 0.418276 0.556170
Si Si6 0.641128 0.578821 0.649616
Si Si7 0.486838 0.925103 0.227775
Si Si8 0.373810 0.423118 0.026009
O O1 0.971742 0.250000 0.031717
O O2 0.185290 0.048705 0.237712
O O3 0.862819 0.998359 0.983337
O O4 0.000000 0.000000 0.000000
O O5 0.217117 0.750000 0.819398
O O6 0.243171 0.984072 0.772728
O O7 0.976310 0.939165 0.611517
O O8 0.222754 0.022234 0.866151
O O9 0.293256 0.250000 0.159274
O O10 0.349594 0.472765 0.276918
O O11 0.445472 0.491767 0.252046
O O12 0.248647 0.750000 0.714068
O O13 0.470149 0.959843 0.883273
O O14 0.173080 0.991982 0.605129
O O15 0.212970 0.250000 0.597823
O O16 0.330733 0.470565 0.636286
O O17 0.500000 0.500000 0.500000
O O18 0.598647 0.750000 0.612640
O O19 0.462360 0.750000 0.214639
O O20 0.374204 0.985842 0.084870
O O21 0.359825 0.250000 0.028573
#
# Coordination Sequence:
#
# PCOD8070818 Si02
#       8
#     4   4   4   4   4   4   4   4
#     4   9  17  31  51  78 107 137 171 206 243 286
#     4  10  19  32  49  72 100 129 163 209 259 308
#     4  10  20  35  55  79 103 133 173 213 248 294
#     4   9  18  31  49  72  98 128 165 207 255 308
#     4   9  19  33  50  72  99 130 167 208 254 307
#     4   9  19  33  52  80 112 139 166 202 247 292
#     4  10  20  36  55  73  95 131 172 209 251 302
#     4  10  20  33  49  72  99 129 165 208 254 303
#
# _framework density 18.04194
#
# number of rings (size 3 to 8) (size 9 to 14) (size 15 to 20)
#    0.000    2.500    0.000    3.000    0.000    5.000 
#    0.000    1.250    0.000    4.500    0.000    0.000 
#    0.000    0.000    0.000    0.000    0.000    0.000 
#
# Total GULP energy -396736.829859 kJ/mol
# GULP energy per Si atom -12398.025933 kJ/mol
# Density = 1.800088 g / cm^3
# Si number density = 18.041940 Si / 1000 Ang^3
#
#
#
# Elastic Constant Matrix: (Units=GPa)
#
#
# Indices 1 2 3 4 5 6 
#
# 1 88.8902 35.7706 40.4877 0.0000 2.3633 0.0000
# 2 35.7706 73.7322 42.6143 0.0000 -1.1336 0.0000
# 3 40.4877 42.6143 99.3012 0.0000 -3.8942 0.0000
# 4 0.0000 0.0000 0.0000 31.1741 0.0000 -1.6258
# 5 2.3633 -1.1336 -3.8942 0.0000 17.3278 0.0000
# 6 0.0000 0.0000 0.0000 -1.6258 0.0000 29.2915
#
#
#
# Elastic Compliance Matrix: (Units=1/GPa)
#
#
# Indices 1 2 3 4 5 6 
#
# 1 0.015279 -0.005037 -0.004200 0.000000 -0.003357 0.000000
# 2 -0.005037 0.019702 -0.006380 0.000000 0.000542 0.000000
# 3 -0.004200 -0.006380 0.014656 0.000000 0.003449 0.000000
# 4 0.000000 0.000000 0.000000 0.032171 0.000000 0.001786
# 5 -0.003357 0.000542 0.003449 0.000000 0.058979 0.000000
# 6 0.000000 0.000000 0.000000 0.001786 0.000000 0.034239
#
#
# Mechanical properties :
#
#
# Convention : Reuss Voigt Hill
#
# Bulk Modulus (GPa) = 54.33726 55.51876 54.92801
# Shear Modulus (GPa) = 23.54121 25.09539 24.31830
#
# Velocity S-wave (km/s) = 3.61613 3.73359 3.67533
# Velocity P-wave (km/s) = 6.90056 7.03030 6.96573
#
# Compressibility (1/GPa) = 0.01840358
#
# Stress axis : x y z
#
# Youngs Moduli (GPa) = 65.44999 50.75659 68.23166
#
# Poissons Ratio (x) = 0.25565 0.28656
# Poissons Ratio (y) = 0.32965 0.43532
# Poissons Ratio (z) = 0.27488 0.32383
#
# Static dielectric constant tensor:
#      x y z
#    x 3.260310 0.000000 0.199490 
#    y 0.000000 3.387120 0.000000 
#    z 0.199490 0.000000 3.402060 
# 
# 
# High freq. dielectric constant tensor:
#      x y z
#    x 1.681170 0.000000 0.012030 
#    y 0.000000 1.704150 0.000000 
#    z 0.012030 0.000000 1.696120 
# 
# From -- ./inp_files/72292.got.cif
#   From: 2010.06.25/outbox.cif.g09.slc.cpg/sg11_37_cif.got.tgz:72292.got - 2010.06.27 23:14:04.
