data_PCOD8070179
_publ_section_title
;
Structure prediction by ZEFSAII (Michael W. Deem and Ramdas Pophale) SiO2 
 PCOD8070179
Probable space group: P 21/M
;
_chemical_formula_sum "Si O2"
_cell_formula_units_Z 28
_cell_length_a 13.978899
_cell_length_b 9.370370
_cell_length_c 13.978796
_cell_angle_alpha 90.000000
_cell_angle_beta 121.476076
_cell_angle_gamma 90.000000
_cell_volume 1561.623494
_symmetry_space_group_name_H-M "P 21/M"
_symmetry_group_IT_number 11
_symmetry_cell_setting 'monoclinic'
loop_
_space_group_symop_operation_xyz
x,y,z
-x,1/2+y,-z
-x,-y,-z
x,1/2-y,z
loop_
_atom_site_type_symbol
_atom_site_label
_atom_site_fract_x
_atom_site_fract_y
_atom_site_fract_z
Si Si1 0.921708 0.413635 0.327484
Si Si2 0.842558 0.586751 0.465430
Si Si3 0.773681 0.583241 0.123787
Si Si4 0.348895 0.914415 0.106914
Si Si5 0.557800 0.909089 0.108156
Si Si6 0.387675 0.583686 0.337408
Si Si7 0.642821 0.916428 0.497065
O O1 0.882504 0.250000 0.297919
O O2 0.862488 0.480415 0.389052
O O3 0.886203 0.499992 0.212984
O O4 0.055684 0.425219 0.405806
O O5 0.833115 0.750000 0.422092
O O6 0.728815 0.538725 0.458685
O O7 0.799042 0.750000 0.118785
O O8 0.691036 0.558201 0.173863
O O9 0.721482 0.517186 0.999518
O O10 0.315280 0.750000 0.067988
O O11 0.486047 0.932166 0.167606
O O12 0.326059 0.954650 0.205178
O O13 0.543041 0.750000 0.063081
O O14 0.500000 0.000000 0.000000
O O15 0.376644 0.750000 0.354375
O O16 0.325364 0.497808 0.388472
O O17 0.518381 0.539461 0.399262
O O18 0.653983 0.750000 0.524666
#
# Coordination Sequence:
#
# PCOD8070179 Si02
#       7
#     4   4   4   4   4   4   4
#     4  10  20  33  50  75 101 128 164 204 244 291
#     4   9  19  35  54  73  97 130 165 202 247 291
#     4  10  19  30  47  70  98 132 164 199 242 291
#     4   9  17  30  47  68  97 131 163 199 241 287
#     4   8  15  26  41  61  89 124 159 189 226 277
#     4   9  18  31  50  75 101 129 162 199 243 291
#     4   9  18  33  53  73  98 130 162 200 244 292
#
# _framework density 17.930057999999999
#
# number of rings (size 3 to 8) (size 9 to 14) (size 15 to 20)
#    0.000    2.857    0.000    0.857    2.000    2.286 
#    0.000    0.000    0.000    0.857    0.000    0.000 
#    0.000    0.000    0.000    0.000    0.000    0.000 
#
# Total GULP energy -346917.641525 kJ/mol
# GULP energy per Si atom -12389.915769 kJ/mol
# Density = 1.788925 g / cm^3
# Si number density = 17.930058 Si / 1000 Ang^3
#
#
#
# Elastic Constant Matrix: (Units=GPa)
#
#
# Indices 1 2 3 4 5 6 
#
# 1 45.6489 19.7926 7.6368 0.0000 -1.6591 0.0000
# 2 19.7926 80.9676 41.1096 0.0000 -2.4804 0.0000
# 3 7.6368 41.1096 74.4056 0.0000 -2.8014 0.0000
# 4 0.0000 0.0000 0.0000 30.3586 0.0000 -3.6651
# 5 -1.6591 -2.4804 -2.8014 0.0000 19.5264 0.0000
# 6 0.0000 0.0000 0.0000 -3.6651 0.0000 22.8045
#
#
#
# Elastic Compliance Matrix: (Units=1/GPa)
#
#
# Indices 1 2 3 4 5 6 
#
# 1 0.024608 -0.006556 0.001150 0.000000 0.001423 0.000000
# 2 -0.006556 0.018926 -0.009767 0.000000 0.000446 0.000000
# 3 0.001150 -0.009767 0.018777 0.000000 0.001551 0.000000
# 4 0.000000 0.000000 0.000000 0.033591 0.000000 0.005399
# 5 0.001423 0.000446 0.001551 0.000000 0.051613 0.000000
# 6 0.000000 0.000000 0.000000 0.005399 0.000000 0.044719
#
#
# Mechanical properties :
#
#
# Convention : Reuss Voigt Hill
#
# Bulk Modulus (GPa) = 31.28425 37.56666 34.42546
# Shear Modulus (GPa) = 21.43769 23.37010 22.40390
#
# Velocity S-wave (km/s) = 3.46154 3.61418 3.53868
# Velocity P-wave (km/s) = 5.78465 6.19788 5.99482
#
# Compressibility (1/GPa) = 0.03196497
#
# Stress axis : x y z
#
# Youngs Moduli (GPa) = 40.63693 52.83785 53.25794
#
# Poissons Ratio (x) = 0.34639 -0.06125
# Poissons Ratio (y) = 0.26641 0.52017
# Poissons Ratio (z) = -0.04673 0.51607
#
# Static dielectric constant tensor:
#      x y z
#    x 2.217460 0.000000 0.358420 
#    y 0.000000 3.348680 0.000000 
#    z 0.358420 0.000000 3.107940 
# 
# 
# High freq. dielectric constant tensor:
#      x y z
#    x 1.665770 0.000000 0.000330 
#    y 0.000000 1.697610 0.000000 
#    z 0.000330 0.000000 1.686660 
# 
# From -- ./inp_files/51788.got.cif
#   From: 2010.06.25/outbox.cif.g09.slc.cpg/sg11_26_cif.got.tgz:51788.got - 2010.06.27 23:14:04.
