data_PCOD8070313
_publ_section_title
;
Structure prediction by ZEFSAII (Michael W. Deem and Ramdas Pophale) SiO2 
 PCOD8070313
Probable space group: P 21/M
;
_chemical_formula_sum "Si O2"
_cell_formula_units_Z 24
_cell_length_a 14.664288
_cell_length_b 9.250720
_cell_length_c 14.990055
_cell_angle_alpha 90.000000
_cell_angle_beta 139.244731
_cell_angle_gamma 90.000000
_cell_volume 1327.515068
_symmetry_space_group_name_H-M "P 21/M"
_symmetry_group_IT_number 11
_symmetry_cell_setting 'monoclinic'
loop_
_space_group_symop_operation_xyz
x,y,z
-x,1/2+y,-z
-x,-y,-z
x,1/2-y,z
loop_
_atom_site_type_symbol
_atom_site_label
_atom_site_fract_x
_atom_site_fract_y
_atom_site_fract_z
Si Si1 0.622129 0.582161 0.387321
Si Si2 0.313757 0.580004 0.223745
Si Si3 0.323236 0.916920 0.936770
Si Si4 0.207398 0.078911 0.313171
Si Si5 0.105836 0.920232 0.917501
Si Si6 0.405249 0.917439 0.804312
O O1 0.636261 0.750000 0.375012
O O2 0.464322 0.541379 0.295855
O O3 0.725775 0.536734 0.542979
O O4 0.668421 0.493509 0.334148
O O5 0.299667 0.750000 0.231227
O O6 0.297763 0.496542 0.304134
O O7 0.196976 0.521973 0.068073
O O8 0.360672 0.750000 0.986546
O O9 0.179103 0.962594 0.878053
O O10 0.307646 0.940787 0.819107
O O11 0.444178 0.014221 0.067012
O O12 0.212851 0.250000 0.301489
O O13 0.049908 0.014937 0.194698
O O14 0.094206 0.750000 0.916277
O O15 0.426464 0.750000 0.798603
#
# Coordination Sequence:
#
# PCOD8070313 Si02
#       6
#     4   4   4   4   4   4
#     4  10  20  35  52  72 103 138 167 201 251 301
#     4  10  19  33  53  72  97 137 171 204 252 295
#     4   9  17  33  54  75 103 133 162 202 253 303
#     4  10  21  34  51  75 101 133 171 208 245 294
#     4   9  17  33  54  74 100 134 167 199 249 306
#     4  10  19  30  52  81 101 126 168 212 247 287
#
# _framework density 18.078890999999999
#
# number of rings (size 3 to 8) (size 9 to 14) (size 15 to 20)
#    0.000    2.333    1.667    1.500    0.000    2.000 
#    0.000    1.667    0.000    0.000    0.000    0.000 
#    0.000    0.000    0.000    0.000    0.000    0.000 
#
# Total GULP energy -297607.783286 kJ/mol
# GULP energy per Si atom -12400.324304 kJ/mol
# Density = 1.803774 g / cm^3
# Si number density = 18.078891 Si / 1000 Ang^3
#
#
#
# Elastic Constant Matrix: (Units=GPa)
#
#
# Indices 1 2 3 4 5 6 
#
# 1 76.4638 34.7419 29.8234 0.0000 -24.8207 0.0000
# 2 34.7419 48.0538 28.4910 0.0000 -13.4492 0.0000
# 3 29.8234 28.4910 96.3518 0.0000 -7.7866 0.0000
# 4 0.0000 0.0000 0.0000 20.0186 0.0000 -11.0004
# 5 -24.8207 -13.4492 -7.7866 0.0000 26.2105 0.0000
# 6 0.0000 0.0000 0.0000 -11.0004 0.0000 25.7907
#
#
#
# Elastic Compliance Matrix: (Units=1/GPa)
#
#
# Indices 1 2 3 4 5 6 
#
# 1 0.024943 -0.011591 -0.002935 0.000000 0.016801 0.000000
# 2 -0.011591 0.034145 -0.006127 0.000000 0.004724 0.000000
# 3 -0.002935 -0.006127 0.012931 0.000000 -0.002082 0.000000
# 4 0.000000 0.000000 0.000000 0.065246 0.000000 0.027829
# 5 0.016801 0.004724 -0.002082 0.000000 0.055868 0.000000
# 6 0.000000 0.000000 0.000000 0.027829 0.000000 0.050643
#
#
# Mechanical properties :
#
#
# Convention : Reuss Voigt Hill
#
# Bulk Modulus (GPa) = 32.56051 45.22022 38.89036
# Shear Modulus (GPa) = 16.93080 22.92484 19.92782
#
# Velocity S-wave (km/s) = 3.06354 3.56482 3.32365
# Velocity P-wave (km/s) = 5.52839 6.48159 6.02387
#
# Compressibility (1/GPa) = 0.03071205
#
# Stress axis : x y z
#
# Youngs Moduli (GPa) = 40.09136 29.28711 77.33520
#
# Poissons Ratio (x) = 0.33946 0.22701
# Poissons Ratio (y) = 0.46469 0.47384
# Poissons Ratio (z) = 0.11768 0.17945
#
# Static dielectric constant tensor:
#      x y z
#    x 3.486790 0.000000 -0.057880 
#    y 0.000000 3.152770 0.000000 
#    z -0.057880 0.000000 3.428790 
# 
# 
# High freq. dielectric constant tensor:
#      x y z
#    x 1.706620 0.000000 -0.013760 
#    y 0.000000 1.680490 0.000000 
#    z -0.013760 0.000000 1.693160 
# 
# From -- ./inp_files/25746.got.cif
#   From: 2010.06.25/outbox.cif.g09.slc.cpg/sg11_13_cif.got.tgz:25746.got - 2010.06.27 23:14:04.
