data_PCOD8070842
_publ_section_title
;
Structure prediction by ZEFSAII (Michael W. Deem and Ramdas Pophale) SiO2 
 PCOD8070842
Probable space group: P 21/M
;
_chemical_formula_sum "Si O2"
_cell_formula_units_Z 32
_cell_length_a 21.194444
_cell_length_b 9.166757
_cell_length_c 12.217652
_cell_angle_alpha 90.000000
_cell_angle_beta 127.883443
_cell_angle_gamma 90.000000
_cell_volume 1873.468743
_symmetry_space_group_name_H-M "P 21/M"
_symmetry_group_IT_number 11
_symmetry_cell_setting 'monoclinic'
loop_
_space_group_symop_operation_xyz
x,y,z
-x,1/2+y,-z
-x,-y,-z
x,1/2-y,z
loop_
_atom_site_type_symbol
_atom_site_label
_atom_site_fract_x
_atom_site_fract_y
_atom_site_fract_z
Si Si1 0.836392 0.923414 0.442323
Si Si2 0.862864 0.075958 0.039756
Si Si3 0.958021 0.922561 0.745085
Si Si4 0.171969 0.078501 0.217617
Si Si5 0.400760 0.081195 0.989101
Si Si6 0.292151 0.421866 0.527450
Si Si7 0.779575 0.577649 0.149791
Si Si8 0.550406 0.579888 0.203505
O O1 0.830734 0.750000 0.440292
O O2 0.918922 0.976423 0.588243
O O3 0.762994 0.989192 0.434869
O O4 0.830281 0.974464 0.310213
O O5 0.860105 0.250000 0.037085
O O6 0.953110 0.013514 0.148240
O O7 0.810378 0.014753 0.081702
O O8 0.825830 0.016489 0.888660
O O9 0.961679 0.750000 0.748756
O O10 0.903304 0.972350 0.788809
O O11 0.166719 0.250000 0.184084
O O12 0.254512 0.040999 0.369248
O O13 0.414537 0.250000 0.024037
O O14 0.466156 0.999422 0.133710
O O15 0.312497 0.034487 0.930999
O O16 0.413077 0.039926 0.875795
O O17 0.292361 0.250000 0.546344
O O18 0.383765 0.477022 0.637655
O O19 0.789702 0.750000 0.139085
O O20 0.533660 0.750000 0.197744
#
# Coordination Sequence:
#
# PCOD8070842 Si02
#       8
#     4   4   4   4   4   4   4   4
#     4   8  13  26  48  71  93 121 157 193 231 273
#     4  11  22  33  45  67  99 129 157 195 243 281
#     4   8  16  30  50  73  94 118 153 201 245 279
#     4   9  17  32  54  73  89 118 163 202 232 275
#     4   9  17  28  44  70 100 126 152 186 225 274
#     4   8  13  25  49  76  95 115 152 199 234 270
#     4  10  19  32  50  68  93 130 167 193 218 273
#     4   9  15  26  47  74  99 121 148 185 234 281
#
# _framework density 17.080615000000002
#
# number of rings (size 3 to 8) (size 9 to 14) (size 15 to 20)
#    0.000    3.000    1.250    2.250    0.000    1.000 
#    0.000    1.250    0.000    4.500    0.000    0.000 
#    0.000    0.000    0.000    0.000    0.000    0.000 
#
# Total GULP energy -396580.080828 kJ/mol
# GULP energy per Si atom -12393.127526 kJ/mol
# Density = 1.704174 g / cm^3
# Si number density = 17.080615 Si / 1000 Ang^3
#
#
#
# Elastic Constant Matrix: (Units=GPa)
#
#
# Indices 1 2 3 4 5 6 
#
# 1 64.5580 30.8792 73.7333 0.0000 -5.4431 0.0000
# 2 30.8792 35.3529 43.9360 0.0000 -1.0913 0.0000
# 3 73.7333 43.9360 145.1595 0.0000 12.8250 0.0000
# 4 0.0000 0.0000 0.0000 18.3948 0.0000 4.0537
# 5 -5.4431 -1.0913 12.8250 0.0000 24.4639 0.0000
# 6 0.0000 0.0000 0.0000 4.0537 0.0000 19.1970
#
#
#
# Elastic Compliance Matrix: (Units=1/GPa)
#
#
# Indices 1 2 3 4 5 6 
#
# 1 0.051936 -0.014875 -0.023950 0.000000 0.023447 0.000000
# 2 -0.014875 0.051892 -0.008454 0.000000 0.003437 0.000000
# 3 -0.023950 -0.008454 0.023191 0.000000 -0.017864 0.000000
# 4 0.000000 0.000000 0.000000 0.057017 0.000000 -0.012040
# 5 0.023447 0.003437 -0.017864 0.000000 0.055612 0.000000
# 6 0.000000 0.000000 0.000000 -0.012040 0.000000 0.054634
#
#
# Mechanical properties :
#
#
# Convention : Reuss Voigt Hill
#
# Bulk Modulus (GPa) = 30.80675 60.24081 45.52378
# Shear Modulus (GPa) = 12.51065 18.84593 15.67829
#
# Velocity S-wave (km/s) = 2.70931 3.32528 3.03297
# Velocity P-wave (km/s) = 5.27849 7.07731 6.24303
#
# Compressibility (1/GPa) = 0.03246042
#
# Stress axis : x y z
#
# Youngs Moduli (GPa) = 19.25458 19.27087 43.11954
#
# Poissons Ratio (x) = 0.28666 1.03271
# Poissons Ratio (y) = 0.28642 0.36454
# Poissons Ratio (z) = 0.46114 0.16292
#
# Static dielectric constant tensor:
#      x y z
#    x 3.129460 0.000000 0.312920 
#    y 0.000000 2.800800 0.000000 
#    z 0.312920 0.000000 3.542810 
# 
# 
# High freq. dielectric constant tensor:
#      x y z
#    x 1.638110 0.000000 0.017690 
#    y 0.000000 1.619610 0.000000 
#    z 0.017690 0.000000 1.669540 
# 
# From -- ./inp_files/42507.got.cif
#   From: 2010.06.25/outbox.cif.g09.slc.cpg/sg11_22_cif.got.tgz:42507.got - 2010.06.27 23:14:04.
