data_PCOD8070338
_publ_section_title
;
Structure prediction by ZEFSAII (Michael W. Deem and Ramdas Pophale) SiO2 
 PCOD8070338
Probable space group: P 21/M
;
_chemical_formula_sum "Si O2"
_cell_formula_units_Z 28
_cell_length_a 18.512830
_cell_length_b 8.791136
_cell_length_c 14.067707
_cell_angle_alpha 90.000000
_cell_angle_beta 48.731160
_cell_angle_gamma 90.000000
_cell_volume 1720.842664
_symmetry_space_group_name_H-M "P 21/M"
_symmetry_group_IT_number 11
_symmetry_cell_setting 'monoclinic'
loop_
_space_group_symop_operation_xyz
x,y,z
-x,1/2+y,-z
-x,-y,-z
x,1/2-y,z
loop_
_atom_site_type_symbol
_atom_site_label
_atom_site_fract_x
_atom_site_fract_y
_atom_site_fract_z
Si Si1 0.170787 0.928851 0.498314
Si Si2 0.221255 0.930396 0.243187
Si Si3 0.405061 0.571454 0.625153
Si Si4 0.967578 0.929487 0.626502
Si Si5 0.670486 0.070725 0.501686
Si Si6 0.534960 0.570481 0.248219
Si Si7 0.581023 0.930395 0.995835
O O1 0.185809 0.750000 0.482960
O O2 0.204191 0.988752 0.365818
O O3 0.238223 0.002063 0.521994
O O4 0.058084 0.965100 0.618239
O O5 0.230185 0.750000 0.227502
O O6 0.131343 0.988462 0.256187
O O7 0.316210 0.007888 0.122660
O O8 0.500000 0.500000 0.500000
O O9 0.418318 0.750000 0.625334
O O10 0.322499 0.533567 0.617822
O O11 0.386937 0.498794 0.744802
O O12 0.950185 0.750000 0.631819
O O13 0.000000 0.000000 0.500000
O O14 0.670521 0.250000 0.517018
O O15 0.571513 0.007892 0.633740
O O16 0.540351 0.750000 0.253060
O O17 0.561369 0.515411 0.120281
O O18 0.577907 0.750000 0.989441
O O19 0.500000 0.000000 0.000000
#
# Coordination Sequence:
#
# PCOD8070338 Si02
#       7
#     4   4   4   4   4   4   4
#     4   8  14  25  43  65  89 116 145 178 222 270
#     4  10  19  31  46  64  90 124 155 185 221 266
#     4   9  16  26  43  64  87 115 148 185 224 266
#     4   9  16  27  44  65  88 117 151 187 226 270
#     4   8  13  24  42  64  87 112 142 177 218 264
#     4   9  18  31  45  61  88 123 153 181 218 266
#     4  11  22  34  48  67  91 121 155 189 223 264
#
# _framework density 16.271097999999999
#
# number of rings (size 3 to 8) (size 9 to 14) (size 15 to 20)
#    0.000    2.857    0.000    4.286    0.000    3.429 
#    0.000    0.000    0.000   16.286    0.000    1.000 
#    0.000    0.000    0.000    0.000    0.000    0.000 
#
# Total GULP energy -346873.132595 kJ/mol
# GULP energy per Si atom -12388.326164 kJ/mol
# Density = 1.623406 g / cm^3
# Si number density = 16.271098 Si / 1000 Ang^3
#
#
#
# Elastic Constant Matrix: (Units=GPa)
#
#
# Indices 1 2 3 4 5 6 
#
# 1 156.7386 32.8231 73.0677 0.0000 2.4274 0.0000
# 2 32.8231 42.5922 27.6043 0.0000 4.6642 0.0000
# 3 73.0677 27.6043 83.5149 0.0000 -0.8405 0.0000
# 4 0.0000 0.0000 0.0000 22.5946 0.0000 -0.8764
# 5 2.4274 4.6642 -0.8405 0.0000 28.6984 0.0000
# 6 0.0000 0.0000 0.0000 -0.8764 0.0000 23.3165
#
#
#
# Elastic Compliance Matrix: (Units=1/GPa)
#
#
# Indices 1 2 3 4 5 6 
#
# 1 0.011057 -0.002755 -0.008771 0.000000 -0.000744 0.000000
# 2 -0.002755 0.031345 -0.008001 0.000000 -0.005096 0.000000
# 3 -0.008771 -0.008001 0.022320 0.000000 0.002696 0.000000
# 4 0.000000 0.000000 0.000000 0.044323 0.000000 0.001666
# 5 -0.000744 -0.005096 0.002696 0.000000 0.035815 0.000000
# 6 0.000000 0.000000 0.000000 0.001666 0.000000 0.042951
#
#
# Mechanical properties :
#
#
# Convention : Reuss Voigt Hill
#
# Bulk Modulus (GPa) = 38.96018 61.09289 50.02653
# Shear Modulus (GPa) = 21.23844 24.87862 23.05853
#
# Velocity S-wave (km/s) = 3.61679 3.91449 3.76858
# Velocity P-wave (km/s) = 6.43723 7.61967 7.05328
#
# Compressibility (1/GPa) = 0.02566723
#
# Stress axis : x y z
#
# Youngs Moduli (GPa) = 90.43756 31.90252 44.80371
#
# Poissons Ratio (x) = 0.08790 0.39297
# Poissons Ratio (y) = 0.24917 0.35850
# Poissons Ratio (z) = 0.79323 0.25527
#
# Static dielectric constant tensor:
#      x y z
#    x 3.955830 0.000000 -0.028690 
#    y 0.000000 3.098180 0.000000 
#    z -0.028690 0.000000 2.992880 
# 
# 
# High freq. dielectric constant tensor:
#      x y z
#    x 1.636420 0.000000 -0.001760 
#    y 0.000000 1.615880 0.000000 
#    z -0.001760 0.000000 1.584960 
# 
# From -- ./inp_files/52871.got.cif
#   From: 2010.06.25/outbox.cif.g09.slc.cpg/sg11_27_cif.got.tgz:52871.got - 2010.06.27 23:14:04.
