data_PCOD8070255
_publ_section_title
;
Structure prediction by ZEFSAII (Michael W. Deem and Ramdas Pophale) SiO2 
 PCOD8070255
Probable space group: P 21/M
;
_chemical_formula_sum "Si O2"
_cell_formula_units_Z 28
_cell_length_a 11.054701
_cell_length_b 15.329789
_cell_length_c 13.214813
_cell_angle_alpha 90.000000
_cell_angle_beta 137.928610
_cell_angle_gamma 90.000000
_cell_volume 1500.566770
_symmetry_space_group_name_H-M "P 21/M"
_symmetry_group_IT_number 11
_symmetry_cell_setting 'monoclinic'
loop_
_space_group_symop_operation_xyz
x,y,z
-x,1/2+y,-z
-x,-y,-z
x,1/2-y,z
loop_
_atom_site_type_symbol
_atom_site_label
_atom_site_fract_x
_atom_site_fract_y
_atom_site_fract_z
Si Si1 0.234263 0.653286 0.535384
Si Si2 0.333267 0.904097 0.811124
Si Si3 0.699026 0.969342 0.954360
Si Si4 0.630040 0.649290 0.729251
Si Si5 0.120060 0.346198 0.298543
Si Si6 0.276609 0.843247 0.998884
Si Si7 0.032194 0.009169 0.705444
O O1 0.173195 0.750000 0.465467
O O2 0.271989 0.653837 0.678469
O O3 0.417814 0.626289 0.591274
O O4 0.075138 0.589273 0.406319
O O5 0.317673 0.849317 0.904308
O O6 0.538602 0.934114 0.925037
O O7 0.198475 0.987319 0.733835
O O8 0.885572 0.966349 0.133414
O O9 0.649341 0.071240 0.896554
O O10 0.726557 0.913026 0.871015
O O11 0.657778 0.750000 0.779932
O O12 0.714050 0.630624 0.672169
O O13 0.153164 0.250000 0.369866
O O14 0.099261 0.423865 0.367729
O O15 0.938684 0.341069 0.119009
O O16 0.357976 0.750000 0.088822
#
# Coordination Sequence:
#
# PCOD8070255 Si02
#       7
#     4   4   4   4   4   4   4
#     4  10  20  32  47  68  96 126 155 189 230 276
#     4   9  17  33  49  66  93 128 159 186 225 278
#     4   9  18  31  49  71  95 121 153 192 231 274
#     4   9  18  33  51  68  90 124 159 188 226 279
#     4   8  16  31  50  70  90 119 158 191 226 277
#     4   9  16  27  47  71  94 120 153 193 230 270
#     4  10  19  30  49  73  96 119 151 197 236 266
#
# _framework density 18.659617000000001
#
# number of rings (size 3 to 8) (size 9 to 14) (size 15 to 20)
#    0.000    3.143    0.000    2.571    0.000    4.571 
#    0.000    2.143    0.000    4.286    0.000    0.000 
#    0.000    0.000    0.000    0.000    0.000    0.000 
#
# Total GULP energy -346929.081686 kJ/mol
# GULP energy per Si atom -12390.324346 kJ/mol
# Density = 1.861715 g / cm^3
# Si number density = 18.659617 Si / 1000 Ang^3
#
#
#
# Elastic Constant Matrix: (Units=GPa)
#
#
# Indices 1 2 3 4 5 6 
#
# 1 51.5774 8.4156 3.6977 0.0000 7.5104 0.0000
# 2 8.4156 104.4518 30.8530 0.0000 -2.4788 0.0000
# 3 3.6977 30.8530 33.8546 0.0000 4.1934 0.0000
# 4 0.0000 0.0000 0.0000 29.9026 0.0000 -1.7910
# 5 7.5104 -2.4788 4.1934 0.0000 12.4278 0.0000
# 6 0.0000 0.0000 0.0000 -1.7910 0.0000 18.9915
#
#
#
# Elastic Compliance Matrix: (Units=1/GPa)
#
#
# Indices 1 2 3 4 5 6 
#
# 1 0.021767 -0.002617 0.001776 0.000000 -0.014275 0.000000
# 2 -0.002617 0.014013 -0.013595 0.000000 0.008964 0.000000
# 3 0.001776 -0.013595 0.044044 0.000000 -0.018646 0.000000
# 4 0.000000 0.000000 0.000000 0.033632 0.000000 0.003172
# 5 -0.014275 0.008964 -0.018646 0.000000 0.097171 0.000000
# 6 0.000000 0.000000 0.000000 0.003172 0.000000 0.052954
#
#
# Mechanical properties :
#
#
# Convention : Reuss Voigt Hill
#
# Bulk Modulus (GPa) = 19.62686 30.64624 25.13655
# Shear Modulus (GPa) = 16.15837 22.05887 19.10862
#
# Velocity S-wave (km/s) = 2.94590 3.44200 3.20357
# Velocity P-wave (km/s) = 4.70237 5.67944 5.21384
#
# Compressibility (1/GPa) = 0.05095058
#
# Stress axis : x y z
#
# Youngs Moduli (GPa) = 45.94170 71.36171 22.70481
#
# Poissons Ratio (x) = 0.18676 -0.04032
# Poissons Ratio (y) = 0.12023 0.30868
# Poissons Ratio (z) = -0.08158 0.97017
#
# Static dielectric constant tensor:
#      x y z
#    x 3.440930 0.000000 0.218180 
#    y 0.000000 3.669200 0.000000 
#    z 0.218180 0.000000 2.958850 
# 
# 
# High freq. dielectric constant tensor:
#      x y z
#    x 1.725470 0.000000 0.020080 
#    y 0.000000 1.737530 0.000000 
#    z 0.020080 0.000000 1.671800 
# 
# From -- ./inp_files/50252.got.cif
#   From: 2010.06.25/outbox.cif.g09.slc.cpg/sg11_26_cif.got.tgz:50252.got - 2010.06.27 23:14:04.
