data_PCOD8070727
_publ_section_title
;
Structure prediction by ZEFSAII (Michael W. Deem and Ramdas Pophale) SiO2 
 PCOD8070727
Probable space group: P 21/M
;
_chemical_formula_sum "Si O2"
_cell_formula_units_Z 28
_cell_length_a 20.221712
_cell_length_b 9.538091
_cell_length_c 15.090085
_cell_angle_alpha 90.000000
_cell_angle_beta 29.991917
_cell_angle_gamma 90.000000
_cell_volume 1454.906004
_symmetry_space_group_name_H-M "P 21/M"
_symmetry_group_IT_number 11
_symmetry_cell_setting 'monoclinic'
loop_
_space_group_symop_operation_xyz
x,y,z
-x,1/2+y,-z
-x,-y,-z
x,1/2-y,z
loop_
_atom_site_type_symbol
_atom_site_label
_atom_site_fract_x
_atom_site_fract_y
_atom_site_fract_z
Si Si1 0.320481 0.583743 0.461773
Si Si2 0.047104 0.912935 0.862332
Si Si3 0.929596 0.408879 0.656019
Si Si4 0.636973 0.596484 0.751516
Si Si5 0.397807 0.403905 0.835872
Si Si6 0.654722 0.008083 0.919359
Si Si7 0.883785 0.917064 0.877680
O O1 0.329050 0.750000 0.435674
O O2 0.198493 0.544911 0.666197
O O3 0.301047 0.515518 0.387911
O O4 0.457731 0.523262 0.346667
O O5 0.035332 0.750000 0.899261
O O6 0.956032 0.951849 0.884892
O O7 0.000000 0.000000 0.000000
O O8 0.986790 0.250000 0.596764
O O9 0.774796 0.393821 0.811397
O O10 0.953590 0.492613 0.719984
O O11 0.000000 0.500000 0.500000
O O12 0.683593 0.750000 0.666626
O O13 0.695299 0.568207 0.781320
O O14 0.477516 0.598175 0.941376
O O15 0.412052 0.250000 0.779723
O O16 0.370933 0.395591 0.972808
O O17 0.269931 0.471152 0.935572
O O18 0.890016 0.750000 0.847716
#
# Coordination Sequence:
#
# PCOD8070727 Si02
#       7
#     4   4   4   4   4   4   4
#     4   9  19  34  53  78 107 140 177 224 278 326
#     4  10  22  40  60  82 109 141 177 224 283 339
#     4  11  23  36  52  76 110 150 189 226 267 320
#     4  10  19  31  52  79 106 141 186 228 268 318
#     4   8  14  30  54  75 103 142 181 218 262 321
#     4   9  19  32  47  73 111 147 181 223 268 313
#     4   9  19  37  58  80 107 143 182 224 275 327
#
# _framework density 19.245228999999998
#
# number of rings (size 3 to 8) (size 9 to 14) (size 15 to 20)
#    0.000    2.571    0.000    1.286    2.000    6.857 
#    0.000    0.714    0.000    0.000    0.000    0.000 
#    0.000    0.000    0.000    0.000    0.000    0.000 
#
# Total GULP energy -346948.184861 kJ/mol
# GULP energy per Si atom -12391.006602 kJ/mol
# Density = 1.920143 g / cm^3
# Si number density = 19.245229 Si / 1000 Ang^3
#
#
#
# Elastic Constant Matrix: (Units=GPa)
#
#
# Indices 1 2 3 4 5 6 
#
# 1 105.3481 41.4109 63.1206 0.0000 3.4878 0.0000
# 2 41.4109 89.0154 47.8186 0.0000 10.4069 0.0000
# 3 63.1206 47.8186 130.0767 0.0000 7.0860 0.0000
# 4 0.0000 0.0000 0.0000 26.7680 0.0000 8.6467
# 5 3.4878 10.4069 7.0860 0.0000 23.4076 0.0000
# 6 0.0000 0.0000 0.0000 8.6467 0.0000 20.7182
#
#
#
# Elastic Compliance Matrix: (Units=1/GPa)
#
#
# Indices 1 2 3 4 5 6 
#
# 1 0.014304 -0.003782 -0.005619 0.000000 0.001251 0.000000
# 2 -0.003782 0.015537 -0.003590 0.000000 -0.005257 0.000000
# 3 -0.005619 -0.003590 0.011796 0.000000 -0.001138 0.000000
# 4 0.000000 0.000000 0.000000 0.043179 0.000000 -0.018021
# 5 0.001251 -0.005257 -0.001138 0.000000 0.045217 0.000000
# 6 0.000000 0.000000 0.000000 -0.018021 0.000000 0.055788
#
#
# Mechanical properties :
#
#
# Convention : Reuss Voigt Hill
#
# Bulk Modulus (GPa) = 63.87779 69.90448 66.89113
# Shear Modulus (GPa) = 23.03925 25.65144 24.34534
#
# Velocity S-wave (km/s) = 3.46373 3.65481 3.56055
# Velocity P-wave (km/s) = 7.01855 7.36289 7.19278
#
# Compressibility (1/GPa) = 0.01565489
#
# Stress axis : x y z
#
# Youngs Moduli (GPa) = 69.90850 64.36405 84.77396
#
# Poissons Ratio (x) = 0.24345 0.47635
# Poissons Ratio (y) = 0.26442 0.30432
# Poissons Ratio (z) = 0.39282 0.23105
#
# Static dielectric constant tensor:
#      x y z
#    x 3.559720 0.000000 -0.393200 
#    y 0.000000 3.309510 0.000000 
#    z -0.393200 0.000000 3.587550 
# 
# 
# High freq. dielectric constant tensor:
#      x y z
#    x 1.740420 0.000000 -0.026920 
#    y 0.000000 1.728530 0.000000 
#    z -0.026920 0.000000 1.741010 
# 
# From -- ./inp_files/54505.got.cif
#   From: 2010.06.25/outbox.cif.g09.slc.cpg/sg11_28_cif.got.tgz:54505.got - 2010.06.27 23:14:04.
