data_PCOD8070272
_publ_section_title
;
Structure prediction by ZEFSAII (Michael W. Deem and Ramdas Pophale) SiO2 
 PCOD8070272
Probable space group: P 21/M
;
_chemical_formula_sum "Si O2"
_cell_formula_units_Z 24
_cell_length_a 11.469678
_cell_length_b 9.604838
_cell_length_c 12.361410
_cell_angle_alpha 90.000000
_cell_angle_beta 91.851703
_cell_angle_gamma 90.000000
_cell_volume 1361.076191
_symmetry_space_group_name_H-M "P 21/M"
_symmetry_group_IT_number 11
_symmetry_cell_setting 'monoclinic'
loop_
_space_group_symop_operation_xyz
x,y,z
-x,1/2+y,-z
-x,-y,-z
x,1/2-y,z
loop_
_atom_site_type_symbol
_atom_site_label
_atom_site_fract_x
_atom_site_fract_y
_atom_site_fract_z
Si Si1 0.974773 0.402811 0.900743
Si Si2 0.385266 0.410374 0.006105
Si Si3 0.220384 0.096092 0.803730
Si Si4 0.868461 0.595276 0.586519
Si Si5 0.215804 0.405480 0.190297
Si Si6 0.863661 0.088349 0.383195
O O1 0.934913 0.250000 0.939574
O O2 0.872772 0.470766 0.830336
O O3 0.087048 0.388676 0.831096
O O4 0.000000 0.500000 0.000000
O O5 0.419173 0.250000 0.992256
O O6 0.294810 0.456808 0.909400
O O7 0.500000 0.500000 0.000000
O O8 0.331995 0.436243 0.124502
O O9 0.265004 0.250000 0.767608
O O10 0.222149 0.984298 0.706893
O O11 0.868266 0.750000 0.533156
O O12 0.770547 0.591214 0.678912
O O13 0.834798 0.480145 0.497996
O O14 0.998800 0.567586 0.638863
O O15 0.169886 0.250000 0.154222
O O16 0.829202 0.250000 0.386016
#
# Coordination Sequence:
#
# PCOD8070272 Si02
#       6
#     4   4   4   4   4   4
#     4  11  20  30  48  76 108 139 170 209 259 318
#     4  10  22  39  56  76 103 136 176 222 267 312
#     4  10  20  34  52  74 107 142 171 211 261 312
#     4   9  18  31  49  74 109 145 171 203 254 311
#     4  10  19  35  54  76 107 140 174 213 259 314
#     4  10  19  30  49  77 109 141 175 210 248 307
#
# _framework density 17.633106000000002
#
# number of rings (size 3 to 8) (size 9 to 14) (size 15 to 20)
#    0.000    2.000    3.333    1.000    0.000    3.333 
#    0.000    0.000    0.000    1.000    0.000    0.000 
#    0.000    0.000    0.000    0.000    0.000    0.000 
#
# Total GULP energy -297403.668924 kJ/mol
# GULP energy per Si atom -12391.819538 kJ/mol
# Density = 1.759297 g / cm^3
# Si number density = 17.633106 Si / 1000 Ang^3
#
#
#
# Elastic Constant Matrix: (Units=GPa)
#
#
# Indices 1 2 3 4 5 6 
#
# 1 71.2499 44.3619 36.7550 0.0000 -10.3142 0.0000
# 2 44.3619 129.0538 63.9440 0.0000 -2.6820 0.0000
# 3 36.7550 63.9440 108.5375 0.0000 -11.5009 0.0000
# 4 0.0000 0.0000 0.0000 30.2012 0.0000 1.5174
# 5 -10.3142 -2.6820 -11.5009 0.0000 14.5995 0.0000
# 6 0.0000 0.0000 0.0000 1.5174 0.0000 24.5350
#
#
#
# Elastic Compliance Matrix: (Units=1/GPa)
#
#
# Indices 1 2 3 4 5 6 
#
# 1 0.020421 -0.005590 -0.002403 0.000000 0.011507 0.000000
# 2 -0.005590 0.012625 -0.006239 0.000000 -0.006544 0.000000
# 3 -0.002403 -0.006239 0.014622 0.000000 0.008675 0.000000
# 4 0.000000 0.000000 0.000000 0.033214 0.000000 -0.002054
# 5 0.011507 -0.006544 0.008675 0.000000 0.082257 0.000000
# 6 0.000000 0.000000 0.000000 -0.002054 0.000000 0.040885
#
#
# Mechanical properties :
#
#
# Convention : Reuss Voigt Hill
#
# Bulk Modulus (GPa) = 52.06885 66.55145 59.31015
# Shear Modulus (GPa) = 20.93029 24.78583 22.85806
#
# Velocity S-wave (km/s) = 3.44901 3.75326 3.60434
# Velocity P-wave (km/s) = 6.74196 7.52375 7.14356
#
# Compressibility (1/GPa) = 0.01920534
#
# Stress axis : x y z
#
# Youngs Moduli (GPa) = 48.96980 79.20575 68.39165
#
# Poissons Ratio (x) = 0.44276 0.16432
# Poissons Ratio (y) = 0.27374 0.42667
# Poissons Ratio (z) = 0.11766 0.49413
#
# Static dielectric constant tensor:
#      x y z
#    x 2.905840 0.000000 -0.013300 
#    y 0.000000 3.448320 0.000000 
#    z -0.013300 0.000000 3.327190 
# 
# 
# High freq. dielectric constant tensor:
#      x y z
#    x 1.626200 0.000000 -0.006220 
#    y 0.000000 1.698060 0.000000 
#    z -0.006220 0.000000 1.682430 
# 
# From -- ./inp_files/33776.got.cif
#   From: 2010.06.25/outbox.cif.g09.slc.cpg/sg11_17_cif.got.tgz:33776.got - 2010.06.27 23:14:04.
