data_PCOD8070498
_publ_section_title
;
Structure prediction by ZEFSAII (Michael W. Deem and Ramdas Pophale) SiO2 
 PCOD8070498
Probable space group: P 21/M
;
_chemical_formula_sum "Si O2"
_cell_formula_units_Z 32
_cell_length_a 23.627182
_cell_length_b 8.820812
_cell_length_c 12.465685
_cell_angle_alpha 90.000000
_cell_angle_beta 46.365656
_cell_angle_gamma 90.000000
_cell_volume 1880.313377
_symmetry_space_group_name_H-M "P 21/M"
_symmetry_group_IT_number 11
_symmetry_cell_setting 'monoclinic'
loop_
_space_group_symop_operation_xyz
x,y,z
-x,1/2+y,-z
-x,-y,-z
x,1/2-y,z
loop_
_atom_site_type_symbol
_atom_site_label
_atom_site_fract_x
_atom_site_fract_y
_atom_site_fract_z
Si Si1 0.494727 0.926746 0.622161
Si Si2 0.340624 0.070672 0.842529
Si Si3 0.079121 0.429289 0.441048
Si Si4 0.915086 0.427541 0.942173
Si Si5 0.074645 0.927819 0.674692
Si Si6 0.666715 0.924634 0.394867
Si Si7 0.182734 0.573096 0.728418
Si Si8 0.811249 0.427174 0.870583
O O1 0.474754 0.750000 0.638203
O O2 0.581025 0.950741 0.560984
O O3 0.500000 0.000000 0.500000
O O4 0.424768 0.011071 0.777203
O O5 0.336425 0.250000 0.860931
O O6 0.330908 0.017577 0.731596
O O7 0.274843 0.992630 0.000058
O O8 0.072100 0.250000 0.441385
O O9 0.091715 0.475926 0.546957
O O10 0.152810 0.487956 0.278165
O O11 0.000000 0.500000 0.500000
O O12 0.935962 0.250000 0.924669
O O13 0.864155 0.461173 0.904156
O O14 0.993259 0.525245 0.834513
O O15 0.868189 0.491272 0.106044
O O16 0.072695 0.750000 0.649954
O O17 0.143330 0.969445 0.667586
O O18 0.689351 0.750000 0.365377
O O19 0.729652 0.009669 0.385181
O O20 0.188791 0.750000 0.737430
O O21 0.806158 0.250000 0.852181
#
# Coordination Sequence:
#
# PCOD8070498 Si02
#       8
#     4   4   4   4   4   4   4   4
#     4   9  17  29  45  70 102 137 174 211 255 307
#     4  10  19  31  48  75 106 138 174 210 256 309
#     4  12  24  39  57  75  99 132 174 220 264 309
#     4  10  20  34  52  75 103 137 174 210 257 308
#     4  11  23  37  54  75 101 135 176 219 260 304
#     4   9  18  30  47  72 103 138 173 208 251 303
#     4  10  21  35  51  75 105 138 175 212 254 308
#     4  11  21  34  55  79 104 135 173 215 260 308
#
# _framework density 17.018439000000001
#
# number of rings (size 3 to 8) (size 9 to 14) (size 15 to 20)
#    0.000    1.750    2.500    3.750    0.000    4.500 
#    0.000    0.000    0.000    0.000    0.000    0.875 
#    0.000    0.000    0.000    0.000    0.000    0.000 
#
# Total GULP energy -396812.775709 kJ/mol
# GULP energy per Si atom -12400.399241 kJ/mol
# Density = 1.697970 g / cm^3
# Si number density = 17.018439 Si / 1000 Ang^3
#
#
#
# Elastic Constant Matrix: (Units=GPa)
#
#
# Indices 1 2 3 4 5 6 
#
# 1 94.5007 50.9366 64.5718 0.0000 -15.0147 0.0000
# 2 50.9366 87.0089 48.0791 0.0000 -7.9812 0.0000
# 3 64.5718 48.0791 94.9523 0.0000 -24.7619 0.0000
# 4 0.0000 0.0000 0.0000 31.7956 0.0000 -6.0372
# 5 -15.0147 -7.9812 -24.7619 0.0000 25.7003 0.0000
# 6 0.0000 0.0000 0.0000 -6.0372 0.0000 26.1404
#
#
#
# Elastic Compliance Matrix: (Units=1/GPa)
#
#
# Indices 1 2 3 4 5 6 
#
# 1 0.022092 -0.006388 -0.011940 0.000000 -0.000582 0.000000
# 2 -0.006388 0.018085 -0.005772 0.000000 -0.003677 0.000000
# 3 -0.011940 -0.005772 0.025760 0.000000 0.016051 0.000000
# 4 0.000000 0.000000 0.000000 0.032893 0.000000 0.007597
# 5 -0.000582 -0.003677 0.016051 0.000000 0.052893 0.000000
# 6 0.000000 0.000000 0.000000 0.007597 0.000000 0.040009
#
#
# Mechanical properties :
#
#
# Convention : Reuss Voigt Hill
#
# Bulk Modulus (GPa) = 56.38367 67.07075 61.72721
# Shear Modulus (GPa) = 20.33796 24.25221 22.29508
#
# Velocity S-wave (km/s) = 3.46071 3.77908 3.62339
# Velocity P-wave (km/s) = 7.01224 7.65102 7.33859
#
# Compressibility (1/GPa) = 0.01773563
#
# Stress axis : x y z
#
# Youngs Moduli (GPa) = 45.26627 55.29425 38.81981
#
# Poissons Ratio (x) = 0.35323 0.46352
# Poissons Ratio (y) = 0.28917 0.22407
# Poissons Ratio (z) = 0.54049 0.31916
#
# Static dielectric constant tensor:
#      x y z
#    x 3.225940 0.000000 -0.268110 
#    y 0.000000 3.297560 0.000000 
#    z -0.268110 0.000000 3.315980 
# 
# 
# High freq. dielectric constant tensor:
#      x y z
#    x 1.636040 0.000000 -0.024320 
#    y 0.000000 1.668120 0.000000 
#    z -0.024320 0.000000 1.647570 
# 
# From -- ./inp_files/42778.got.cif
#   From: 2010.06.25/outbox.cif.g09.slc.cpg/sg11_22_cif.got.tgz:42778.got - 2010.06.27 23:14:04.
