data_PCOD8070340
_publ_section_title
;
Structure prediction by ZEFSAII (Michael W. Deem and Ramdas Pophale) SiO2 
 PCOD8070340
Probable space group: P 21/M
;
_chemical_formula_sum "Si O2"
_cell_formula_units_Z 24
_cell_length_a 11.339310
_cell_length_b 9.240009
_cell_length_c 19.953632
_cell_angle_alpha 90.000000
_cell_angle_beta 136.532017
_cell_angle_gamma 90.000000
_cell_volume 1438.259679
_symmetry_space_group_name_H-M "P 21/M"
_symmetry_group_IT_number 11
_symmetry_cell_setting 'monoclinic'
loop_
_space_group_symop_operation_xyz
x,y,z
-x,1/2+y,-z
-x,-y,-z
x,1/2-y,z
loop_
_atom_site_type_symbol
_atom_site_label
_atom_site_fract_x
_atom_site_fract_y
_atom_site_fract_z
Si Si1 0.262002 0.081787 0.864816
Si Si2 0.891308 0.419933 0.670607
Si Si3 0.373555 0.918514 0.036159
Si Si4 0.176815 0.578502 0.086608
Si Si5 0.613143 0.580590 0.492141
Si Si6 0.692307 0.082180 0.718959
O O1 0.263468 0.250000 0.883508
O O2 0.426820 0.036339 0.888761
O O3 0.092649 0.042761 0.752521
O O4 0.258354 0.999646 0.933913
O O5 0.855457 0.250000 0.646084
O O6 0.801340 0.506376 0.571688
O O7 0.810537 0.478377 0.707308
O O8 0.348709 0.750000 0.012332
O O9 0.311877 0.962729 0.084434
O O10 0.145430 0.750000 0.076213
O O11 0.255655 0.513955 0.188193
O O12 0.000000 0.500000 0.000000
O O13 0.500000 0.500000 0.500000
O O14 0.628519 0.750000 0.515345
O O15 0.511240 0.556826 0.379843
O O16 0.733090 0.250000 0.740932
#
# Coordination Sequence:
#
# PCOD8070340 Si02
#       6
#     4   4   4   4   4   4
#     4   9  17  30  47  65  89 119 147 180 223 265
#     4   9  16  27  44  64  85 112 146 179 217 262
#     4   9  18  30  45  67  90 115 150 186 217 256
#     4  10  19  31  46  65  90 117 147 179 214 261
#     4   9  16  27  43  63  86 112 143 178 218 259
#     4   8  15  27  42  60  84 114 141 169 211 260
#
# _framework density 16.686834000000001
#
# number of rings (size 3 to 8) (size 9 to 14) (size 15 to 20)
#    0.000    3.000    0.000    2.500    0.000    2.667 
#    0.000    5.833    0.000    1.000    0.000    0.000 
#    0.000    0.000    0.000    0.000    0.000    0.667 
#
# Total GULP energy -297427.831851 kJ/mol
# GULP energy per Si atom -12392.826327 kJ/mol
# Density = 1.664885 g / cm^3
# Si number density = 16.686834 Si / 1000 Ang^3
#
#
#
# Elastic Constant Matrix: (Units=GPa)
#
#
# Indices 1 2 3 4 5 6 
#
# 1 68.8909 24.0248 52.4381 0.0000 1.7924 0.0000
# 2 24.0248 44.9335 46.6680 0.0000 5.1090 0.0000
# 3 52.4381 46.6680 150.9095 0.0000 9.4179 0.0000
# 4 0.0000 0.0000 0.0000 30.1862 0.0000 3.8748
# 5 1.7924 5.1090 9.4179 0.0000 23.9777 0.0000
# 6 0.0000 0.0000 0.0000 3.8748 0.0000 16.9169
#
#
#
# Elastic Compliance Matrix: (Units=1/GPa)
#
#
# Indices 1 2 3 4 5 6 
#
# 1 0.020622 -0.005410 -0.005606 0.000000 0.001813 0.000000
# 2 -0.005410 0.034428 -0.008544 0.000000 -0.003575 0.000000
# 3 -0.005606 -0.008544 0.011355 0.000000 -0.002221 0.000000
# 4 0.000000 0.000000 0.000000 0.034131 0.000000 -0.007818
# 5 0.001813 -0.003575 -0.002221 0.000000 0.043204 0.000000
# 6 0.000000 0.000000 0.000000 -0.007818 0.000000 0.060903
#
#
# Mechanical properties :
#
#
# Convention : Reuss Voigt Hill
#
# Bulk Modulus (GPa) = 36.64894 56.77729 46.71311
# Shear Modulus (GPa) = 19.77400 23.65639 21.71519
#
# Velocity S-wave (km/s) = 3.44613 3.76928 3.61132
# Velocity P-wave (km/s) = 6.15182 7.28302 6.74119
#
# Compressibility (1/GPa) = 0.02728592
#
# Stress axis : x y z
#
# Youngs Moduli (GPa) = 48.49115 29.04654 88.06629
#
# Poissons Ratio (x) = 0.15714 0.49370
# Poissons Ratio (y) = 0.26234 0.75240
# Poissons Ratio (z) = 0.27184 0.24816
#
# Static dielectric constant tensor:
#      x y z
#    x 3.091800 0.000000 0.104330 
#    y 0.000000 3.088860 0.000000 
#    z 0.104330 0.000000 3.634410 
# 
# 
# High freq. dielectric constant tensor:
#      x y z
#    x 1.609620 0.000000 0.013390 
#    y 0.000000 1.628940 0.000000 
#    z 0.013390 0.000000 1.654200 
# 
# From -- ./inp_files/37249.got.cif
#   From: 2010.06.25/outbox.cif.g09.slc.cpg/sg11_19_cif.got.tgz:37249.got - 2010.06.27 23:14:04.
