data_PCOD8070862
_publ_section_title
;
Structure prediction by ZEFSAII (Michael W. Deem and Ramdas Pophale) SiO2 
 PCOD8070862
Probable space group: P 21/M
;
_chemical_formula_sum "Si O2"
_cell_formula_units_Z 28
_cell_length_a 19.148877
_cell_length_b 9.223772
_cell_length_c 14.441181
_cell_angle_alpha 90.000000
_cell_angle_beta 41.240695
_cell_angle_gamma 90.000000
_cell_volume 1681.463313
_symmetry_space_group_name_H-M "P 21/M"
_symmetry_group_IT_number 11
_symmetry_cell_setting 'monoclinic'
loop_
_space_group_symop_operation_xyz
x,y,z
-x,1/2+y,-z
-x,-y,-z
x,1/2-y,z
loop_
_atom_site_type_symbol
_atom_site_label
_atom_site_fract_x
_atom_site_fract_y
_atom_site_fract_z
Si Si1 0.396347 0.583832 0.002855
Si Si2 0.120673 0.916799 0.964722
Si Si3 0.318232 0.916585 0.886944
Si Si4 0.120101 0.080594 0.780963
Si Si5 0.711552 0.081246 0.499926
Si Si6 0.610961 0.081319 0.786330
Si Si7 0.499778 0.078879 0.598173
O O1 0.432416 0.750000 0.969980
O O2 0.313606 0.555552 0.002360
O O3 0.500066 0.493582 0.877582
O O4 0.345898 0.541494 0.153437
O O5 0.127298 0.750000 0.926122
O O6 0.200710 0.951522 0.968109
O O7 0.155366 0.013572 0.843475
O O8 0.002838 0.955156 0.116681
O O9 0.349744 0.750000 0.833446
O O10 0.402558 0.021314 0.755580
O O11 0.143205 0.250000 0.761377
O O12 0.187922 0.010555 0.631922
O O13 0.739225 0.250000 0.462975
O O14 0.693716 0.034211 0.624759
O O15 0.608750 0.042114 0.541760
O O16 0.587892 0.250000 0.797849
O O17 0.486113 0.250000 0.596918
O O18 0.500000 0.000000 0.500000
#
# Coordination Sequence:
#
# PCOD8070862 Si02
#       7
#     4   4   4   4   4   4   4
#     4   9  17  29  49  73  95 122 159 196 231 282
#     4   9  19  35  51  69  96 126 157 198 244 283
#     4  10  19  32  50  72  97 125 156 193 240 289
#     4  10  20  33  51  72  92 122 166 205 234 275
#     4  10  20  33  48  67  97 131 157 190 239 285
#     4   9  17  31  48  69  97 127 157 192 236 282
#     4  11  22  33  45  67  99 131 158 190 235 285
#
# _framework density 16.652162000000001
#
# number of rings (size 3 to 8) (size 9 to 14) (size 15 to 20)
#    0.000    2.286    1.429    1.714    0.000    6.286 
#    0.000    0.000    0.000    0.857    0.000    0.000 
#    0.000    0.000    0.000    0.000    0.000    0.429 
#
# Total GULP energy -347159.352900 kJ/mol
# GULP energy per Si atom -12398.548318 kJ/mol
# Density = 1.661426 g / cm^3
# Si number density = 16.652162 Si / 1000 Ang^3
#
#
#
# Elastic Constant Matrix: (Units=GPa)
#
#
# Indices 1 2 3 4 5 6 
#
# 1 112.8514 40.5965 72.0380 0.0000 17.7539 0.0000
# 2 40.5965 60.1732 53.8453 0.0000 7.9371 0.0000
# 3 72.0380 53.8453 123.1993 0.0000 16.5060 0.0000
# 4 0.0000 0.0000 0.0000 29.6820 0.0000 -0.0959
# 5 17.7539 7.9371 16.5060 0.0000 24.3186 0.0000
# 6 0.0000 0.0000 0.0000 -0.0959 0.0000 19.6270
#
#
#
# Elastic Compliance Matrix: (Units=1/GPa)
#
#
# Indices 1 2 3 4 5 6 
#
# 1 0.015239 -0.003682 -0.006569 0.000000 -0.005465 0.000000
# 2 -0.003682 0.028200 -0.010229 0.000000 0.000427 0.000000
# 3 -0.006569 -0.010229 0.016874 0.000000 -0.003318 0.000000
# 4 0.000000 0.000000 0.000000 0.033691 0.000000 0.000165
# 5 -0.005465 0.000427 -0.003318 0.000000 0.047223 0.000000
# 6 0.000000 0.000000 0.000000 0.000165 0.000000 0.050951
#
#
# Mechanical properties :
#
#
# Convention : Reuss Voigt Hill
#
# Bulk Modulus (GPa) = 51.67567 69.90927 60.79247
# Shear Modulus (GPa) = 20.86908 23.37513 22.12210
#
# Velocity S-wave (km/s) = 3.54395 3.75070 3.64879
# Velocity P-wave (km/s) = 6.91707 7.79938 7.37144
#
# Compressibility (1/GPa) = 0.01935147
#
# Stress axis : x y z
#
# Youngs Moduli (GPa) = 65.62185 35.46096 59.26431
#
# Poissons Ratio (x) = 0.13056 0.38932
# Poissons Ratio (y) = 0.24161 0.60624
# Poissons Ratio (z) = 0.43109 0.36275
#
# Static dielectric constant tensor:
#      x y z
#    x 3.314010 0.000000 0.203820 
#    y 0.000000 3.202010 0.000000 
#    z 0.203820 0.000000 3.139870 
# 
# 
# High freq. dielectric constant tensor:
#      x y z
#    x 1.637460 0.000000 0.014760 
#    y 0.000000 1.647090 0.000000 
#    z 0.014760 0.000000 1.629560 
# 
# From -- ./inp_files/37083.got.cif
#   From: 2010.06.25/outbox.cif.g09.slc.cpg/sg11_19_cif.got.tgz:37083.got - 2010.06.27 23:14:04.
