data_PCOD8070410
_publ_section_title
;
Structure prediction by ZEFSAII (Michael W. Deem and Ramdas Pophale) SiO2 
 PCOD8070410
Probable space group: P 21/M
;
_chemical_formula_sum "Si O2"
_cell_formula_units_Z 32
_cell_length_a 9.528381
_cell_length_b 9.006758
_cell_length_c 21.303847
_cell_angle_alpha 90.000000
_cell_angle_beta 88.756315
_cell_angle_gamma 90.000000
_cell_volume 1827.861654
_symmetry_space_group_name_H-M "P 21/M"
_symmetry_group_IT_number 11
_symmetry_cell_setting 'monoclinic'
loop_
_space_group_symop_operation_xyz
x,y,z
-x,1/2+y,-z
-x,-y,-z
x,1/2-y,z
loop_
_atom_site_type_symbol
_atom_site_label
_atom_site_fract_x
_atom_site_fract_y
_atom_site_fract_z
Si Si1 0.249076 0.425430 0.038318
Si Si2 0.256660 0.426033 0.897402
Si Si3 0.235226 0.074978 0.237417
Si Si4 0.649162 0.425534 0.510946
Si Si5 0.533735 0.925329 0.861261
Si Si6 0.811961 0.924890 0.623698
Si Si7 0.019285 0.074172 0.136920
Si Si8 0.078933 0.579929 0.553613
O O1 0.255809 0.250000 0.035594
O O2 0.381035 0.480806 0.078162
O O3 0.104801 0.473165 0.073538
O O4 0.255830 0.492666 0.968334
O O5 0.254688 0.250000 0.897916
O O6 0.390992 0.484183 0.859014
O O7 0.125085 0.486486 0.860501
O O8 0.221790 0.250000 0.241048
O O9 0.380702 0.031497 0.202327
O O10 0.230222 0.009988 0.307784
O O11 0.104785 0.018361 0.197004
O O12 0.500000 0.500000 0.500000
O O13 0.625896 0.250000 0.518242
O O14 0.719509 0.487749 0.573735
O O15 0.754806 0.464302 0.450502
O O16 0.504351 0.750000 0.864491
O O17 0.777674 0.750000 0.617278
O O18 0.982765 0.951871 0.616108
O O19 0.992402 0.250000 0.138542
O O20 0.072053 0.750000 0.535666
O O21 0.000000 0.500000 0.500000
#
# Coordination Sequence:
#
# PCOD8070410 Si02
#       8
#     4   4   4   4   4   4   4   4
#     4   8  16  30  48  67  89 118 157 198 238 285
#     4  11  20  29  43  69  98 121 149 194 245 289
#     4   8  16  32  54  72  87 115 161 201 231 274
#     4  10  19  31  47  73 105 134 158 187 228 275
#     4   9  17  32  50  67  89 122 158 193 233 285
#     4   9  16  31  54  75  92 118 156 200 239 274
#     4   9  17  32  50  67  89 121 157 196 237 283
#     4   8  15  27  46  70  95 119 149 185 223 263
#
# _framework density 17.506793999999999
#
# number of rings (size 3 to 8) (size 9 to 14) (size 15 to 20)
#    0.000    3.000    0.000    3.000    0.000    0.500 
#    0.000    6.250    0.000    4.500    0.000    0.000 
#    0.000    0.000    0.000    0.000    0.000    0.000 
#
# Total GULP energy -396454.125164 kJ/mol
# GULP energy per Si atom -12389.191411 kJ/mol
# Density = 1.746695 g / cm^3
# Si number density = 17.506794 Si / 1000 Ang^3
#
#
#
# Elastic Constant Matrix: (Units=GPa)
#
#
# Indices 1 2 3 4 5 6 
#
# 1 161.6759 47.7080 63.2957 0.0000 -9.2073 0.0000
# 2 47.7080 46.7490 29.1624 0.0000 -3.3673 0.0000
# 3 63.2957 29.1624 108.3376 0.0000 -11.3880 0.0000
# 4 0.0000 0.0000 0.0000 18.0051 0.0000 0.8022
# 5 -9.2073 -3.3673 -11.3880 0.0000 16.1016 0.0000
# 6 0.0000 0.0000 0.0000 0.8022 0.0000 21.5568
#
#
#
# Elastic Compliance Matrix: (Units=1/GPa)
#
#
# Indices 1 2 3 4 5 6 
#
# 1 0.009985 -0.007860 -0.003554 0.000000 0.001552 0.000000
# 2 -0.007860 0.031900 -0.004068 0.000000 -0.000701 0.000000
# 3 -0.003554 -0.004068 0.013071 0.000000 0.006361 0.000000
# 4 0.000000 0.000000 0.000000 0.055632 0.000000 -0.002070
# 5 0.001552 -0.000701 0.006361 0.000000 0.067345 0.000000
# 6 0.000000 0.000000 0.000000 -0.002070 0.000000 0.046466
#
#
# Mechanical properties :
#
#
# Convention : Reuss Voigt Hill
#
# Bulk Modulus (GPa) = 41.68538 66.34386 54.01462
# Shear Modulus (GPa) = 18.98536 22.90580 20.94558
#
# Velocity S-wave (km/s) = 3.29668 3.62110 3.46269
# Velocity P-wave (km/s) = 6.19302 7.44725 6.84890
#
# Compressibility (1/GPa) = 0.02398922
#
# Stress axis : x y z
#
# Youngs Moduli (GPa) = 100.15399 31.34831 76.50644
#
# Poissons Ratio (x) = 0.24641 0.27194
# Poissons Ratio (y) = 0.78725 0.31123
# Poissons Ratio (z) = 0.35600 0.12753
#
# Static dielectric constant tensor:
#      x y z
#    x 3.488630 0.000000 -0.367410 
#    y 0.000000 2.977180 0.000000 
#    z -0.367410 0.000000 3.594910 
# 
# 
# High freq. dielectric constant tensor:
#      x y z
#    x 1.684050 0.000000 -0.016180 
#    y 0.000000 1.653970 0.000000 
#    z -0.016180 0.000000 1.658310 
# 
# From -- ./inp_files/67797.got.cif
#   From: 2010.06.25/outbox.cif.g09.slc.cpg/sg11_34_cif.got.tgz:67797.got - 2010.06.27 23:14:04.
