data_PCOD8070915
_publ_section_title
;
Structure prediction by ZEFSAII (Michael W. Deem and Ramdas Pophale) SiO2 
 PCOD8070915
Probable space group: P 21/M
;
_chemical_formula_sum "Si O2"
_cell_formula_units_Z 32
_cell_length_a 20.662876
_cell_length_b 8.996431
_cell_length_c 23.054586
_cell_angle_alpha 90.000000
_cell_angle_beta 155.715419
_cell_angle_gamma 90.000000
_cell_volume 1762.562005
_symmetry_space_group_name_H-M "P 21/M"
_symmetry_group_IT_number 11
_symmetry_cell_setting 'monoclinic'
loop_
_space_group_symop_operation_xyz
x,y,z
-x,1/2+y,-z
-x,-y,-z
x,1/2-y,z
loop_
_atom_site_type_symbol
_atom_site_label
_atom_site_fract_x
_atom_site_fract_y
_atom_site_fract_z
Si Si1 0.418468 0.076730 0.847221
Si Si2 0.286106 0.423165 0.863519
Si Si3 0.193521 0.079040 0.124505
Si Si4 0.006724 0.073920 0.813787
Si Si5 0.043281 0.926287 0.355817
Si Si6 0.342347 0.078268 0.132526
Si Si7 0.098439 0.419997 0.166009
Si Si8 0.345217 0.572364 0.671168
O O1 0.429416 0.250000 0.842214
O O2 0.315017 0.044042 0.819639
O O3 0.331713 0.992414 0.724458
O O4 0.593827 0.013902 0.998360
O O5 0.309956 0.250000 0.897805
O O6 0.111596 0.479052 0.736240
O O7 0.132680 0.250000 0.066444
O O8 0.342397 0.054353 0.202889
O O9 0.232488 0.052991 0.225095
O O10 0.062967 0.962675 0.997646
O O11 0.002379 0.250000 0.811862
O O12 0.960550 0.011422 0.712995
O O13 0.879675 0.015750 0.757540
O O14 0.181377 0.013410 0.973008
O O15 0.048729 0.750000 0.358380
O O16 0.196513 0.988734 0.513485
O O17 0.349661 0.250000 0.122280
O O18 0.498038 0.005883 0.231799
O O19 0.094223 0.250000 0.182176
O O20 0.343740 0.750000 0.672885
#
# Coordination Sequence:
#
# PCOD8070915 Si02
#       8
#     4   4   4   4   4   4   4   4
#     4  10  20  33  51  75  99 123 153 191 236 281
#     4   9  18  35  55  72  94 124 158 194 229 273
#     4   8  14  25  40  60  88 118 147 183 228 275
#     4   9  16  28  45  64  89 119 152 191 231 271
#     4   9  18  32  51  72  92 123 165 198 226 270
#     4   8  14  26  46  67  86 116 155 190 225 268
#     4   9  15  23  39  64  89 113 146 188 232 275
#     4  10  19  32  51  72  95 125 160 195 231 275
#
# _framework density 18.155391000000002
#
# number of rings (size 3 to 8) (size 9 to 14) (size 15 to 20)
#    0.000    3.000    0.000    2.250    0.000    3.500 
#    0.000    6.875    0.000    0.750    0.000    0.000 
#    0.000    0.000    0.000    0.000    0.000    1.125 
#
# Total GULP energy -396518.646683 kJ/mol
# GULP energy per Si atom -12391.207709 kJ/mol
# Density = 1.811407 g / cm^3
# Si number density = 18.155391 Si / 1000 Ang^3
#
#
#
# Elastic Constant Matrix: (Units=GPa)
#
#
# Indices 1 2 3 4 5 6 
#
# 1 126.4746 28.8954 72.6916 0.0000 -27.4369 0.0000
# 2 28.8954 31.6666 25.0115 0.0000 -5.3681 0.0000
# 3 72.6916 25.0115 109.7118 0.0000 -18.2120 0.0000
# 4 0.0000 0.0000 0.0000 15.5711 0.0000 -7.4057
# 5 -27.4369 -5.3681 -18.2120 0.0000 15.9310 0.0000
# 6 0.0000 0.0000 0.0000 -7.4057 0.0000 25.4607
#
#
#
# Elastic Compliance Matrix: (Units=1/GPa)
#
#
# Indices 1 2 3 4 5 6 
#
# 1 0.018040 -0.007589 -0.006775 0.000000 0.020766 0.000000
# 2 -0.007589 0.041878 -0.005364 0.000000 -0.005091 0.000000
# 3 -0.006775 -0.005364 0.015538 0.000000 0.004287 0.000000
# 4 0.000000 0.000000 0.000000 0.074532 0.000000 0.021679
# 5 0.020766 -0.005091 0.004287 0.000000 0.101720 0.000000
# 6 0.000000 0.000000 0.000000 0.021679 0.000000 0.045582
#
#
# Mechanical properties :
#
#
# Convention : Reuss Voigt Hill
#
# Bulk Modulus (GPa) = 27.77863 57.89444 42.83653
# Shear Modulus (GPa) = 14.33711 20.80954 17.57332
#
# Velocity S-wave (km/s) = 2.81319 3.38922 3.11455
# Velocity P-wave (km/s) = 5.08780 6.87555 6.04810
#
# Compressibility (1/GPa) = 0.03599890
#
# Stress axis : x y z
#
# Youngs Moduli (GPa) = 55.43374 23.87914 64.35730
#
# Poissons Ratio (x) = 0.18123 0.43603
# Poissons Ratio (y) = 0.42071 0.34519
# Poissons Ratio (z) = 0.37557 0.12808
#
# Static dielectric constant tensor:
#      x y z
#    x 3.818130 0.000000 -0.110240 
#    y 0.000000 3.067300 0.000000 
#    z -0.110240 0.000000 3.183320 
# 
# 
# High freq. dielectric constant tensor:
#      x y z
#    x 1.726400 0.000000 -0.017080 
#    y 0.000000 1.673330 0.000000 
#    z -0.017080 0.000000 1.661260 
# 
# From -- ./inp_files/66463.got.cif
#   From: 2010.06.25/outbox.cif.g09.slc.cpg/sg11_34_cif.got.tgz:66463.got - 2010.06.27 23:14:04.
