data_PCOD8070471
_publ_section_title
;
Structure prediction by ZEFSAII (Michael W. Deem and Ramdas Pophale) SiO2 
 PCOD8070471
Probable space group: P 21/M
;
_chemical_formula_sum "Si O2"
_cell_formula_units_Z 32
_cell_length_a 24.119408
_cell_length_b 9.750668
_cell_length_c 8.119146
_cell_angle_alpha 90.000000
_cell_angle_beta 71.816825
_cell_angle_gamma 90.000000
_cell_volume 1814.112026
_symmetry_space_group_name_H-M "P 21/M"
_symmetry_group_IT_number 11
_symmetry_cell_setting 'monoclinic'
loop_
_space_group_symop_operation_xyz
x,y,z
-x,1/2+y,-z
-x,-y,-z
x,1/2-y,z
loop_
_atom_site_type_symbol
_atom_site_label
_atom_site_fract_x
_atom_site_fract_y
_atom_site_fract_z
Si Si1 0.447028 0.595369 0.604760
Si Si2 0.244626 0.089035 0.523102
Si Si3 0.052534 0.406867 0.893343
Si Si4 0.375571 0.090745 0.477274
Si Si5 0.484207 0.398541 0.153722
Si Si6 0.052649 0.406950 0.508955
Si Si7 0.822790 0.587441 0.096895
Si Si8 0.177428 0.087366 0.268224
O O1 0.500000 0.500000 0.500000
O O2 0.447137 0.750000 0.525573
O O3 0.387117 0.512637 0.620395
O O4 0.457628 0.610676 0.788744
O O5 0.231460 0.250000 0.536023
O O6 0.313228 0.057267 0.456678
O O7 0.216814 0.025755 0.717475
O O8 0.217183 0.025305 0.380140
O O9 0.036897 0.250000 0.950505
O O10 0.065055 0.425208 0.689645
O O11 0.110222 0.454933 0.936123
O O12 0.000000 0.500000 0.000000
O O13 0.380043 0.250000 0.530099
O O14 0.425609 0.052585 0.300281
O O15 0.471133 0.250000 0.088398
O O16 0.500000 0.500000 0.000000
O O17 0.037146 0.250000 0.480419
O O18 0.110458 0.455300 0.359794
O O19 0.000000 0.500000 0.500000
O O20 0.816454 0.750000 0.105246
O O21 0.803668 0.532509 0.932014
O O22 0.183442 0.250000 0.266193
#
# Coordination Sequence:
#
# PCOD8070471 Si02
#       8
#     4   4   4   4   4   4   4   4
#     4   9  17  31  51  73  98 129 164 200 240 288
#     4   9  16  30  48  69 100 130 165 211 249 297
#     4  10  19  31  48  72 101 129 166 212 256 308
#     4   9  18  32  50  75 103 130 164 206 247 292
#     4   9  18  31  47  72 104 132 161 200 244 288
#     4  10  19  31  48  72 101 130 164 211 259 307
#     4   9  16  28  47  70  95 129 167 205 257 305
#     4   9  16  28  47  69  97 130 164 208 256 300
#
# _framework density 17.639483999999999
#
# number of rings (size 3 to 8) (size 9 to 14) (size 15 to 20)
#    0.000    2.750    1.250    1.875    0.000    4.000 
#    2.250    0.000    0.000    1.500    0.000    0.000 
#    0.000    0.000    0.000    0.000    0.000    0.000 
#
# Total GULP energy -396474.728224 kJ/mol
# GULP energy per Si atom -12389.835257 kJ/mol
# Density = 1.759934 g / cm^3
# Si number density = 17.639484 Si / 1000 Ang^3
#
#
#
# Elastic Constant Matrix: (Units=GPa)
#
#
# Indices 1 2 3 4 5 6 
#
# 1 127.0522 40.3684 64.6309 0.0000 11.9133 0.0000
# 2 40.3684 57.8554 27.8646 0.0000 3.9479 0.0000
# 3 64.6309 27.8646 114.7664 0.0000 10.7988 0.0000
# 4 0.0000 0.0000 0.0000 20.8083 0.0000 1.7608
# 5 11.9133 3.9479 10.7988 0.0000 22.1409 0.0000
# 6 0.0000 0.0000 0.0000 1.7608 0.0000 24.2655
#
#
#
# Elastic Compliance Matrix: (Units=1/GPa)
#
#
# Indices 1 2 3 4 5 6 
#
# 1 0.012910 -0.006153 -0.005477 0.000000 -0.003178 0.000000
# 2 -0.006153 0.022538 -0.002034 0.000000 0.000284 0.000000
# 3 -0.005477 -0.002034 0.012557 0.000000 -0.002814 0.000000
# 4 0.000000 0.000000 0.000000 0.048355 0.000000 -0.003509
# 5 -0.003178 0.000284 -0.002814 0.000000 0.048197 0.000000
# 6 0.000000 0.000000 0.000000 -0.003509 0.000000 0.041465
#
#
# Mechanical properties :
#
#
# Convention : Reuss Voigt Hill
#
# Bulk Modulus (GPa) = 48.36479 62.82244 55.59362
# Shear Modulus (GPa) = 22.70229 24.56362 23.63295
#
# Velocity S-wave (km/s) = 3.59139 3.73572 3.66427
# Velocity P-wave (km/s) = 6.68397 7.36882 7.03473
#
# Compressibility (1/GPa) = 0.02067620
#
# Stress axis : x y z
#
# Youngs Moduli (GPa) = 77.45856 44.36982 79.63974
#
# Poissons Ratio (x) = 0.27301 0.43622
# Poissons Ratio (y) = 0.47661 0.16196
# Poissons Ratio (z) = 0.42427 0.09023
#
# Static dielectric constant tensor:
#      x y z
#    x 2.405560 0.000000 0.761270 
#    y 0.000000 3.145260 0.000000 
#    z 0.761270 0.000000 3.212150 
# 
# 
# High freq. dielectric constant tensor:
#      x y z
#    x 1.682620 0.000000 0.012930 
#    y 0.000000 1.640170 0.000000 
#    z 0.012930 0.000000 1.678440 
# 
# From -- ./inp_files/27956.got.cif
#   From: 2010.06.25/outbox.cif.g09.slc.cpg/sg11_14_cif.got.tgz:27956.got - 2010.06.27 23:14:04.
