data_PCOD8070705
_publ_section_title
;
Structure prediction by ZEFSAII (Michael W. Deem and Ramdas Pophale) SiO2 
 PCOD8070705
Probable space group: P 21/M
;
_chemical_formula_sum "Si O2"
_cell_formula_units_Z 32
_cell_length_a 5.374659
_cell_length_b 9.277990
_cell_length_c 29.958888
_cell_angle_alpha 90.000000
_cell_angle_beta 100.344258
_cell_angle_gamma 90.000000
_cell_volume 1469.649469
_symmetry_space_group_name_H-M "P 21/M"
_symmetry_group_IT_number 11
_symmetry_cell_setting 'monoclinic'
loop_
_space_group_symop_operation_xyz
x,y,z
-x,1/2+y,-z
-x,-y,-z
x,1/2-y,z
loop_
_atom_site_type_symbol
_atom_site_label
_atom_site_fract_x
_atom_site_fract_y
_atom_site_fract_z
Si Si1 0.081668 0.905767 0.585358
Si Si2 0.240891 0.421125 0.748029
Si Si3 0.546874 0.921451 0.047596
Si Si4 0.098426 0.920795 0.098815
Si Si5 0.203622 0.579871 0.200303
Si Si6 0.580939 0.090953 0.323892
Si Si7 0.712103 0.408666 0.627792
Si Si8 0.351374 0.410483 0.532625
O O1 0.967641 0.750000 0.568276
O O2 0.334753 0.883215 0.622068
O O3 0.106797 0.994820 0.539710
O O4 0.913261 0.985851 0.614826
O O5 0.227712 0.250000 0.738599
O O6 0.017558 0.474137 0.773534
O O7 0.212934 0.513320 0.701463
O O8 0.516734 0.468429 0.775651
O O9 0.539514 0.750000 0.040516
O O10 0.821616 0.972987 0.074014
O O11 0.324533 0.973620 0.073811
O O12 0.500000 0.000000 0.000000
O O13 0.102492 0.750000 0.101076
O O14 0.149397 0.986007 0.149623
O O15 0.189544 0.750000 0.196849
O O16 0.501177 0.250000 0.302484
O O17 0.359176 0.973652 0.325435
O O18 0.825342 0.250000 0.641302
O O19 0.494277 0.392705 0.583874
O O20 0.500000 0.500000 0.500000
O O21 0.282549 0.250000 0.512427
#
# Coordination Sequence:
#
# PCOD8070705 Si02
#       8
#     4   4   4   4   4   4   4   4
#     4  10  21  37  57  80 107 143 181 220 273 333
#     4  10  20  34  55  83 109 140 183 236 285 333
#     4  10  19  31  51  78 107 142 184 230 282 335
#     4   9  17  31  52  76 105 143 184 231 281 333
#     4   9  18  33  54  81 109 140 187 236 282 334
#     4  10  22  38  55  78 109 144 179 221 274 335
#     4  10  21  37  58  82 107 138 180 226 274 325
#     4  10  21  37  56  80 109 142 179 224 271 326
#
# _framework density 21.773899
#
# number of rings (size 3 to 8) (size 9 to 14) (size 15 to 20)
#    0.000    2.250    0.000    2.625    1.750    6.500 
#    0.000    0.000    0.000    4.500    0.000    0.000 
#    0.000    0.000    0.000    0.000    0.000    0.000 
#
# Total GULP energy -396432.453031 kJ/mol
# GULP energy per Si atom -12388.514157 kJ/mol
# Density = 2.172434 g / cm^3
# Si number density = 21.773899 Si / 1000 Ang^3
#
#
#
# Elastic Constant Matrix: (Units=GPa)
#
#
# Indices 1 2 3 4 5 6 
#
# 1 111.3209 21.0526 41.3604 0.0000 -29.0485 0.0000
# 2 21.0526 128.4637 31.7351 0.0000 -26.0443 0.0000
# 3 41.3604 31.7351 120.3423 0.0000 -24.3902 0.0000
# 4 0.0000 0.0000 0.0000 21.6056 0.0000 -27.6812
# 5 -29.0485 -26.0443 -24.3902 0.0000 47.5284 0.0000
# 6 0.0000 0.0000 0.0000 -27.6812 0.0000 -61.0315
#
#
#
# Elastic Compliance Matrix: (Units=1/GPa)
#
#
# Indices 1 2 3 4 5 6 
#
# 1 0.011485 -0.000065 -0.002807 0.000000 0.005543 0.000000
# 2 -0.000065 0.009004 -0.001518 0.000000 0.004115 0.000000
# 3 -0.002807 -0.001518 0.010221 0.000000 0.002698 0.000000
# 4 0.000000 0.000000 0.000000 0.029274 0.000000 -0.013277
# 5 0.005543 0.004115 0.002698 0.000000 0.028068 0.000000
# 6 0.000000 0.000000 0.000000 -0.013277 0.000000 -0.010363
#
#
# Mechanical properties :
#
#
# Convention : Reuss Voigt Hill
#
# Bulk Modulus (GPa) = 45.59723 60.93590 53.26656
# Shear Modulus (GPa) = 53.31744 19.35243 36.33494
#
# Velocity S-wave (km/s) = 4.95379 2.98449 4.08945
# Velocity P-wave (km/s) = 7.32849 6.31845 6.84213
#
# Compressibility (1/GPa) = 0.02193116
#
# Stress axis : x y z
#
# Youngs Moduli (GPa) = 87.07348 111.05790 97.83425
#
# Poissons Ratio (x) = 0.00721 0.27457
# Poissons Ratio (y) = 0.00565 0.14852
# Poissons Ratio (z) = 0.24437 0.16860
#
# Static dielectric constant tensor:
#      x y z
#    x 4.182620 0.000000 0.041490 
#    y 0.000000 4.058110 0.000000 
#    z 0.041490 0.000000 4.111050 
# 
# 
# High freq. dielectric constant tensor:
#      x y z
#    x 1.857000 0.000000 -0.008670 
#    y 0.000000 1.832440 0.000000 
#    z -0.008670 0.000000 1.859310 
# 
# From -- ./inp_files/72588.got.cif
#   From: 2010.06.25/outbox.cif.g09.slc.cpg/sg11_37_cif.got.tgz:72588.got - 2010.06.27 23:14:04.
