data_PCOD8070359
_publ_section_title
;
Structure prediction by ZEFSAII (Michael W. Deem and Ramdas Pophale) SiO2 
 PCOD8070359
Probable space group: P 21/M
;
_chemical_formula_sum "Si O2"
_cell_formula_units_Z 32
_cell_length_a 21.238878
_cell_length_b 18.730608
_cell_length_c 5.133005
_cell_angle_alpha 90.000000
_cell_angle_beta 118.469010
_cell_angle_gamma 90.000000
_cell_volume 1795.068788
_symmetry_space_group_name_H-M "P 21/M"
_symmetry_group_IT_number 11
_symmetry_cell_setting 'monoclinic'
loop_
_space_group_symop_operation_xyz
x,y,z
-x,1/2+y,-z
-x,-y,-z
x,1/2-y,z
loop_
_atom_site_type_symbol
_atom_site_label
_atom_site_fract_x
_atom_site_fract_y
_atom_site_fract_z
Si Si1 0.488930 0.829312 0.427901
Si Si2 0.420112 0.969109 0.367608
Si Si3 0.969214 0.669348 0.438247
Si Si4 0.417624 0.170009 0.888211
Si Si5 0.965023 0.577629 0.927932
Si Si6 0.344527 0.473899 0.719022
Si Si7 0.203398 0.415453 0.406039
Si Si8 0.199180 0.171786 0.895741
O O1 0.457141 0.750000 0.398866
O O2 0.423648 0.883805 0.340462
O O3 0.550598 0.843514 0.762278
O O4 0.520180 0.840621 0.201831
O O5 0.500000 0.000000 0.500000
O O6 0.388843 0.983720 0.590646
O O7 0.367335 0.999940 0.047562
O O8 0.003760 0.750000 0.505189
O O9 0.992664 0.623055 0.735172
O O10 0.885364 0.680047 0.281186
O O11 0.990647 0.623994 0.225795
O O12 0.385054 0.250000 0.801578
O O13 0.357387 0.111181 0.717295
O O14 0.879740 0.562423 0.755957
O O15 0.000000 0.500000 0.000000
O O16 0.258037 0.483433 0.511442
O O17 0.226398 0.371482 0.703973
O O18 0.223440 0.367826 0.200452
O O19 0.234952 0.250000 0.963024
#
# Coordination Sequence:
#
# PCOD8070359 Si02
#       8
#     4   4   4   4   4   4   4   4
#     4  10  20  34  51  72  94 121 161 206 245 292
#     4  12  21  35  56  73  97 132 168 209 252 301
#     4   9  17  30  50  77 105 135 176 217 251 306
#     4  10  19  31  46  69 100 128 154 192 240 290
#     4  10  19  33  53  77 106 144 177 219 263 309
#     4  12  22  34  50  75 101 134 170 208 252 297
#     4  10  21  33  47  74 106 135 177 212 252 307
#     4   9  17  31  49  68 100 142 174 200 238 297
#
# _framework density 17.826613999999999
#
# number of rings (size 3 to 8) (size 9 to 14) (size 15 to 20)
#    0.000    1.750    2.500    3.000    0.000    4.000 
#    0.000    1.250    0.000    0.000    0.000    5.250 
#    0.000    0.000    0.000    0.000    0.000    0.000 
#
# Total GULP energy -396683.514760 kJ/mol
# GULP energy per Si atom -12396.359836 kJ/mol
# Density = 1.778604 g / cm^3
# Si number density = 17.826614 Si / 1000 Ang^3
#
#
#
# Elastic Constant Matrix: (Units=GPa)
#
#
# Indices 1 2 3 4 5 6 
#
# 1 57.6699 33.3674 30.3982 0.0000 -10.1286 0.0000
# 2 33.3674 123.7253 37.1048 0.0000 1.2308 0.0000
# 3 30.3982 37.1048 88.2588 0.0000 -20.3148 0.0000
# 4 0.0000 0.0000 0.0000 -79.3920 0.0000 61.9740
# 5 -10.1286 1.2308 -20.3148 0.0000 32.8088 0.0000
# 6 0.0000 0.0000 0.0000 61.9740 0.0000 -18.5546
#
#
#
# Elastic Compliance Matrix: (Units=1/GPa)
#
#
# Indices 1 2 3 4 5 6 
#
# 1 0.023604 -0.004885 -0.005081 0.000000 0.004324 0.000000
# 2 -0.004885 0.010559 -0.003726 0.000000 -0.004211 0.000000
# 3 -0.005081 -0.003726 0.016698 0.000000 0.008910 0.000000
# 4 0.000000 0.000000 0.000000 0.007837 0.000000 0.026175
# 5 0.004324 -0.004211 0.008910 0.000000 0.037490 0.000000
# 6 0.000000 0.000000 0.000000 0.026175 0.000000 0.033531
#
#
# Mechanical properties :
#
#
# Convention : Reuss Voigt Hill
#
# Bulk Modulus (GPa) = 42.59430 52.37720 47.48575
# Shear Modulus (GPa) = 30.31631 -1.77531 14.27050
#
# Velocity S-wave (km/s) = 4.12833 -0.99902 2.83241
# Velocity P-wave (km/s) = 6.83152 5.30231 6.11491
#
# Compressibility (1/GPa) = 0.02347732
#
# Stress axis : x y z
#
# Youngs Moduli (GPa) = 42.36557 94.70435 59.88919
#
# Poissons Ratio (x) = 0.46264 0.30428
# Poissons Ratio (y) = 0.20696 0.22315
# Poissons Ratio (z) = 0.21524 0.35287
#
# Static dielectric constant tensor:
#      x y z
#    x 3.229730 0.000000 -0.418390 
#    y 0.000000 3.501450 0.000000 
#    z -0.418390 0.000000 3.423170 
# 
# 
# High freq. dielectric constant tensor:
#      x y z
#    x 1.670030 0.000000 -0.035780 
#    y 0.000000 1.685600 0.000000 
#    z -0.035780 0.000000 1.688760 
# 
# From -- ./inp_files/9157.got.cif
#   From: 2010.06.25/outbox.cif.g09.slc.cpg/sg11_5_cif.got.tgz:9157.got - 2010.06.27 23:14:04.
