data_PCOD8070225
_publ_section_title
;
Structure prediction by ZEFSAII (Michael W. Deem and Ramdas Pophale) SiO2 
 PCOD8070225
Probable space group: P 21/M
;
_chemical_formula_sum "Si O2"
_cell_formula_units_Z 32
_cell_length_a 16.354817
_cell_length_b 13.317963
_cell_length_c 8.304793
_cell_angle_alpha 90.000000
_cell_angle_beta 104.558977
_cell_angle_gamma 90.000000
_cell_volume 1750.806051
_symmetry_space_group_name_H-M "P 21/M"
_symmetry_group_IT_number 11
_symmetry_cell_setting 'monoclinic'
loop_
_space_group_symop_operation_xyz
x,y,z
-x,1/2+y,-z
-x,-y,-z
x,1/2-y,z
loop_
_atom_site_type_symbol
_atom_site_label
_atom_site_fract_x
_atom_site_fract_y
_atom_site_fract_z
Si Si1 0.978166 0.465683 0.736494
Si Si2 0.770933 0.466536 0.088395
Si Si3 0.920375 0.134539 0.023272
Si Si4 0.280911 0.138333 0.530249
Si Si5 0.388988 0.497098 0.810466
Si Si6 0.284734 0.135738 0.166876
Si Si7 0.124836 0.443555 0.591524
Si Si8 0.462918 0.134783 0.113902
O O1 0.902981 0.502386 0.586001
O O2 0.021934 0.563214 0.837805
O O3 0.045432 0.404719 0.658014
O O4 0.939939 0.389662 0.847157
O O5 0.819525 0.382161 0.007146
O O6 0.674981 0.443927 0.098198
O O7 0.824972 0.476242 0.276761
O O8 0.770220 0.568737 0.982113
O O9 0.943327 0.250000 0.070314
O O10 0.321260 0.250000 0.558400
O O11 0.341580 0.055961 0.639615
O O12 0.263861 0.105426 0.338684
O O13 0.190622 0.143898 0.576974
O O14 0.455414 0.577443 0.773783
O O15 0.438823 0.409644 0.928260
O O16 0.258559 0.250000 0.115264
O O17 0.385133 0.120731 0.196806
O O18 0.487452 0.250000 0.102544
#
# Coordination Sequence:
#
# PCOD8070225 Si02
#       8
#     4   4   4   4   4   4   4   4
#     4   9  19  36  52  72  99 126 163 203 241 290
#     4   9  18  33  51  72  99 127 161 199 240 291
#     4  10  20  34  52  72  98 131 162 198 243 289
#     4  10  19  30  48  74 100 127 162 202 244 289
#     4   9  18  31  49  73  98 129 162 200 244 283
#     4   9  18  32  51  74  99 127 159 200 247 289
#     4   9  18  33  52  71  98 128 158 202 246 283
#     4   9  17  31  50  71  97 128 162 198 240 291
#
# _framework density 18.277294999999999
#
# number of rings (size 3 to 8) (size 9 to 14) (size 15 to 20)
#    0.000    2.750    0.000    1.125    0.000    5.000 
#    0.000   12.500    0.000    4.500    0.000    0.000 
#    0.000    0.000    0.000    0.000    0.000    0.000 
#
# Total GULP energy -396567.198801 kJ/mol
# GULP energy per Si atom -12392.724963 kJ/mol
# Density = 1.823570 g / cm^3
# Si number density = 18.277295 Si / 1000 Ang^3
#
#
#
# Elastic Constant Matrix: (Units=GPa)
#
#
# Indices 1 2 3 4 5 6 
#
# 1 72.5590 37.9075 32.4072 0.0000 0.1241 0.0000
# 2 37.9075 83.2734 31.0246 0.0000 -1.2346 0.0000
# 3 32.4072 31.0246 91.8371 0.0000 -1.3992 0.0000
# 4 0.0000 0.0000 0.0000 17.4163 0.0000 -0.8070
# 5 0.1241 -1.2346 -1.3992 0.0000 28.0041 0.0000
# 6 0.0000 0.0000 0.0000 -0.8070 0.0000 27.0189
#
#
#
# Elastic Compliance Matrix: (Units=1/GPa)
#
#
# Indices 1 2 3 4 5 6 
#
# 1 0.019566 -0.007253 -0.004464 0.000000 -0.000630 0.000000
# 2 -0.007253 0.016430 -0.002982 0.000000 0.000608 0.000000
# 3 -0.004464 -0.002982 0.013480 0.000000 0.000562 0.000000
# 4 0.000000 0.000000 0.000000 0.057497 0.000000 0.001717
# 5 -0.000630 0.000608 0.000562 0.000000 0.035767 0.000000
# 6 0.000000 0.000000 0.000000 0.001717 0.000000 0.037062
#
#
# Mechanical properties :
#
#
# Convention : Reuss Voigt Hill
#
# Bulk Modulus (GPa) = 49.80357 50.03866 49.92112
# Shear Modulus (GPa) = 23.15972 24.24322 23.70147
#
# Velocity S-wave (km/s) = 3.56354 3.64594 3.60498
# Velocity P-wave (km/s) = 6.65130 6.72018 6.68583
#
# Compressibility (1/GPa) = 0.02007888
#
# Stress axis : x y z
#
# Youngs Moduli (GPa) = 51.10947 60.86322 74.18476
#
# Poissons Ratio (x) = 0.44144 0.33114
# Poissons Ratio (y) = 0.37070 0.22121
# Poissons Ratio (z) = 0.22814 0.18148
#
# Static dielectric constant tensor:
#      x y z
#    x 3.674710 0.000000 -0.151570 
#    y 0.000000 3.092960 0.000000 
#    z -0.151570 0.000000 3.352720 
# 
# 
# High freq. dielectric constant tensor:
#      x y z
#    x 1.717750 0.000000 -0.009150 
#    y 0.000000 1.676300 0.000000 
#    z -0.009150 0.000000 1.708210 
# 
# From -- ./inp_files/21909.got.cif
#   From: 2010.06.25/outbox.cif.g09.slc.cpg/sg11_11_cif.got.tgz:21909.got - 2010.06.27 23:14:04.
