data_PCOD8070002
_publ_section_title
;
Structure prediction by ZEFSAII (Michael W. Deem and Ramdas Pophale) SiO2 
 PCOD8070002
Probable space group: P 21/M
;
_chemical_formula_sum "Si O2"
_cell_formula_units_Z 32
_cell_length_a 20.633917
_cell_length_b 8.983139
_cell_length_c 30.913346
_cell_angle_alpha 90.000000
_cell_angle_beta 159.553256
_cell_angle_gamma 90.000000
_cell_volume 2001.704213
_symmetry_space_group_name_H-M "P 21/M"
_symmetry_group_IT_number 11
_symmetry_cell_setting 'monoclinic'
loop_
_space_group_symop_operation_xyz
x,y,z
-x,1/2+y,-z
-x,-y,-z
x,1/2-y,z
loop_
_atom_site_type_symbol
_atom_site_label
_atom_site_fract_x
_atom_site_fract_y
_atom_site_fract_z
Si Si1 0.687953 0.578983 0.605310
Si Si2 0.941123 0.574343 0.007598
Si Si3 0.647636 0.077171 0.497486
Si Si4 0.007036 0.080039 0.445916
Si Si5 0.561260 0.078470 0.791956
Si Si6 0.296031 0.919601 0.683264
Si Si7 0.219444 0.420237 0.243574
Si Si8 0.743613 0.917310 0.472348
O O1 0.500000 0.500000 0.500000
O O2 0.646198 0.750000 0.569641
O O3 0.763418 0.504328 0.608340
O O4 0.822409 0.561773 0.731092
O O5 0.940747 0.750000 0.001109
O O6 0.085791 0.531791 0.135233
O O7 0.738921 0.520917 0.894443
O O8 0.000000 0.500000 0.000000
O O9 0.678708 0.250000 0.523784
O O10 0.430481 0.035128 0.364018
O O11 0.730046 0.031190 0.503038
O O12 0.067473 0.250000 0.496976
O O13 0.787082 0.058087 0.319710
O O14 0.055658 0.059881 0.425426
O O15 0.123223 0.956949 0.544277
O O16 0.619918 0.250000 0.832875
O O17 0.417309 0.050995 0.663203
O O18 0.469252 0.025741 0.779943
O O19 0.359184 0.750000 0.715148
O O20 0.181612 0.250000 0.205435
O O21 0.723272 0.750000 0.477785
#
# Coordination Sequence:
#
# PCOD8070002 Si02
#       8
#     4   4   4   4   4   4   4   4
#     4   9  17  30  48  66  85 110 140 176 217 261
#     4  12  24  35  48  65  87 117 151 186 221 256
#     4  10  19  29  44  66  90 115 144 179 218 260
#     4   8  15  26  39  58  85 116 146 177 216 261
#     4  10  20  33  46  61  85 117 152 188 222 259
#     4   9  15  25  42  61  82 110 146 184 219 258
#     4   9  19  34  48  63  85 114 148 184 220 257
#     4   9  17  28  42  61  87 119 150 178 214 258
#
# _framework density 15.986376999999999
#
# number of rings (size 3 to 8) (size 9 to 14) (size 15 to 20)
#    0.000    2.500    0.000    4.875    0.000    8.000 
#    0.000    0.000    0.000    0.000    0.000    0.000 
#    0.000    1.000    0.000    3.000    0.000    4.250 
#
# Total GULP energy -396551.077589 kJ/mol
# GULP energy per Si atom -12392.221175 kJ/mol
# Density = 1.594999 g / cm^3
# Si number density = 15.986377 Si / 1000 Ang^3
#
#
#
# Elastic Constant Matrix: (Units=GPa)
#
#
# Indices 1 2 3 4 5 6 
#
# 1 121.3920 54.5592 43.4583 0.0000 6.2531 0.0000
# 2 54.5592 103.4032 35.4176 0.0000 -2.1782 0.0000
# 3 43.4583 35.4176 42.5327 0.0000 0.8712 0.0000
# 4 0.0000 0.0000 0.0000 21.2968 0.0000 -0.2562
# 5 6.2531 -2.1782 0.8712 0.0000 21.2536 0.0000
# 6 0.0000 0.0000 0.0000 -0.2562 0.0000 29.6926
#
#
#
# Elastic Compliance Matrix: (Units=1/GPa)
#
#
# Indices 1 2 3 4 5 6 
#
# 1 0.014151 -0.003677 -0.011313 0.000000 -0.004076 0.000000
# 2 -0.003677 0.014559 -0.008426 0.000000 0.002919 0.000000
# 3 -0.011313 -0.008426 0.042071 0.000000 0.000740 0.000000
# 4 0.000000 0.000000 0.000000 0.046960 0.000000 0.000405
# 5 -0.004076 0.002919 0.000740 0.000000 0.048519 0.000000
# 6 0.000000 0.000000 0.000000 0.000405 0.000000 0.033682
#
#
# Mechanical properties :
#
#
# Convention : Reuss Voigt Hill
#
# Bulk Modulus (GPa) = 41.75549 59.35534 50.55541
# Shear Modulus (GPa) = 19.62661 23.37476 21.50069
#
# Velocity S-wave (km/s) = 3.50767 3.82798 3.67132
# Velocity P-wave (km/s) = 6.52542 7.53307 7.04728
#
# Compressibility (1/GPa) = 0.02394895
#
# Stress axis : x y z
#
# Youngs Moduli (GPa) = 70.66887 68.68792 23.76920
#
# Poissons Ratio (x) = 0.25259 0.26890
# Poissons Ratio (y) = 0.25987 0.20027
# Poissons Ratio (z) = 0.79946 0.57874
#
# Static dielectric constant tensor:
#      x y z
#    x 3.419540 0.000000 0.052540 
#    y 0.000000 3.224070 0.000000 
#    z 0.052540 0.000000 2.739100 
# 
# 
# High freq. dielectric constant tensor:
#      x y z
#    x 1.622390 0.000000 0.007910 
#    y 0.000000 1.630480 0.000000 
#    z 0.007910 0.000000 1.553700 
# 
# From -- ./inp_files/73644.got.cif
#   From: 2010.06.25/outbox.cif.g09.slc.cpg/sg11_37_cif.got.tgz:73644.got - 2010.06.27 23:14:04.
