data_PCOD8070834
_publ_section_title
;
Structure prediction by ZEFSAII (Michael W. Deem and Ramdas Pophale) SiO2 
 PCOD8070834
Probable space group: P 21/M
;
_chemical_formula_sum "Si O2"
_cell_formula_units_Z 32
_cell_length_a 12.111333
_cell_length_b 9.067620
_cell_length_c 20.051232
_cell_angle_alpha 90.000000
_cell_angle_beta 56.260664
_cell_angle_gamma 90.000000
_cell_volume 1831.161715
_symmetry_space_group_name_H-M "P 21/M"
_symmetry_group_IT_number 11
_symmetry_cell_setting 'monoclinic'
loop_
_space_group_symop_operation_xyz
x,y,z
-x,1/2+y,-z
-x,-y,-z
x,1/2-y,z
loop_
_atom_site_type_symbol
_atom_site_label
_atom_site_fract_x
_atom_site_fract_y
_atom_site_fract_z
Si Si1 0.805895 0.578027 0.604482
Si Si2 0.899323 0.420044 0.449982
Si Si3 0.841924 0.578327 0.949498
Si Si4 0.613632 0.075026 0.770285
Si Si5 0.113228 0.424225 0.825132
Si Si6 0.686176 0.924310 0.129569
Si Si7 0.229313 0.418631 0.172599
Si Si8 0.074042 0.579646 0.707490
O O1 0.773574 0.750000 0.615474
O O2 0.807366 0.520197 0.527840
O O3 0.692468 0.494653 0.682586
O O4 0.946106 0.541560 0.591751
O O5 0.873620 0.250000 0.476700
O O6 0.860767 0.453959 0.386251
O O7 0.878028 0.750000 0.946578
O O8 0.754626 0.555936 0.911933
O O9 0.978786 0.490718 0.899646
O O10 0.757943 0.513317 0.039212
O O11 0.622782 0.250000 0.762067
O O12 0.463214 0.015574 0.815605
O O13 0.670246 0.024759 0.822631
O O14 0.097997 0.250000 0.827928
O O15 0.233973 0.474879 0.831774
O O16 0.145591 0.482786 0.740004
O O17 0.683027 0.750000 0.124457
O O18 0.260023 0.250000 0.182565
O O19 0.080823 0.460938 0.244294
O O20 0.090017 0.750000 0.722241
#
# Coordination Sequence:
#
# PCOD8070834 Si02
#       8
#     4   4   4   4   4   4   4   4
#     4  10  19  32  49  74 105 132 161 201 245 289
#     4   9  17  31  51  75 102 132 162 194 242 299
#     4   9  18  35  55  71  96 131 165 207 260 303
#     4  11  21  33  50  70 100 139 172 199 240 301
#     4  10  19  32  52  77 101 124 165 217 253 286
#     4   9  20  36  51  70  98 135 171 207 251 295
#     4   9  17  31  49  72 100 131 162 202 252 297
#     4   9  17  32  52  74 104 134 160 196 250 303
#
# _framework density 17.475244
#
# number of rings (size 3 to 8) (size 9 to 14) (size 15 to 20)
#    0.000    2.500    1.250    2.250    0.000    3.500 
#    0.000    4.375    0.000    0.750    0.000    0.000 
#    0.000    0.000    0.000    0.000    0.000    0.000 
#
# Total GULP energy -396804.341483 kJ/mol
# GULP energy per Si atom -12400.135671 kJ/mol
# Density = 1.743547 g / cm^3
# Si number density = 17.475244 Si / 1000 Ang^3
#
#
#
# Elastic Constant Matrix: (Units=GPa)
#
#
# Indices 1 2 3 4 5 6 
#
# 1 113.8444 49.4338 66.4532 0.0000 11.0297 0.0000
# 2 49.4338 68.9518 42.7349 0.0000 5.5473 0.0000
# 3 66.4532 42.7349 92.7856 0.0000 20.3234 0.0000
# 4 0.0000 0.0000 0.0000 26.9892 0.0000 5.0708
# 5 11.0297 5.5473 20.3234 0.0000 22.7849 0.0000
# 6 0.0000 0.0000 0.0000 5.0708 0.0000 23.4068
#
#
#
# Elastic Compliance Matrix: (Units=1/GPa)
#
#
# Indices 1 2 3 4 5 6 
#
# 1 0.017001 -0.006346 -0.009681 0.000000 0.001950 0.000000
# 2 -0.006346 0.022997 -0.006828 0.000000 0.003563 0.000000
# 3 -0.009681 -0.006828 0.024191 0.000000 -0.015229 0.000000
# 4 0.000000 0.000000 0.000000 0.038624 0.000000 -0.008367
# 5 0.001950 0.003563 -0.015229 0.000000 0.055662 0.000000
# 6 0.000000 0.000000 0.000000 -0.008367 0.000000 0.044535
#
#
# Mechanical properties :
#
#
# Convention : Reuss Voigt Hill
#
# Bulk Modulus (GPa) = 54.10739 65.86954 59.98847
# Shear Modulus (GPa) = 19.61712 22.43351 21.02531
#
# Velocity S-wave (km/s) = 3.35411 3.58681 3.47241
# Velocity P-wave (km/s) = 6.78451 7.41137 7.10486
#
# Compressibility (1/GPa) = 0.01848176
#
# Stress axis : x y z
#
# Youngs Moduli (GPa) = 58.81898 43.48327 41.33717
#
# Poissons Ratio (x) = 0.27593 0.40018
# Poissons Ratio (y) = 0.37325 0.28223
# Poissons Ratio (z) = 0.56941 0.29689
#
# Static dielectric constant tensor:
#      x y z
#    x 3.197520 0.000000 0.212630 
#    y 0.000000 3.141780 0.000000 
#    z 0.212630 0.000000 3.399350 
# 
# 
# High freq. dielectric constant tensor:
#      x y z
#    x 1.655660 0.000000 0.022520 
#    y 0.000000 1.667670 0.000000 
#    z 0.022520 0.000000 1.676100 
# 
# From -- ./inp_files/64396.got.cif
#   From: 2010.06.25/outbox.cif.g09.slc.cpg/sg11_33_cif.got.tgz:64396.got - 2010.06.27 23:14:04.
