data_PCOD8070017
_publ_section_title
;
Structure prediction by ZEFSAII (Michael W. Deem and Ramdas Pophale) SiO2 
 PCOD8070017
Probable space group: P 21/M
;
_chemical_formula_sum "Si O2"
_cell_formula_units_Z 28
_cell_length_a 17.730853
_cell_length_b 9.012007
_cell_length_c 16.665702
_cell_angle_alpha 90.000000
_cell_angle_beta 139.099921
_cell_angle_gamma 90.000000
_cell_volume 1743.591996
_symmetry_space_group_name_H-M "P 21/M"
_symmetry_group_IT_number 11
_symmetry_cell_setting 'monoclinic'
loop_
_space_group_symop_operation_xyz
x,y,z
-x,1/2+y,-z
-x,-y,-z
x,1/2-y,z
loop_
_atom_site_type_symbol
_atom_site_label
_atom_site_fract_x
_atom_site_fract_y
_atom_site_fract_z
Si Si1 0.046008 0.919363 0.160696
Si Si2 0.848799 0.080014 0.910674
Si Si3 0.330192 0.422907 0.818668
Si Si4 0.943105 0.422359 0.214641
Si Si5 0.295429 0.919316 0.063076
Si Si6 0.460968 0.421858 0.087037
Si Si7 0.089018 0.927011 0.631477
O O1 0.035169 0.750000 0.177279
O O2 0.157564 0.946267 0.191465
O O3 0.047535 0.008289 0.245813
O O4 0.937083 0.964134 0.019417
O O5 0.891503 0.250000 0.961584
O O6 0.726460 0.058859 0.858453
O O7 0.307665 0.250000 0.784322
O O8 0.423831 0.482577 0.830867
O O9 0.215228 0.515090 0.711372
O O10 0.374225 0.452435 0.943991
O O11 0.965270 0.250000 0.231879
O O12 0.945938 0.482053 0.307622
O O13 0.821055 0.464422 0.077241
O O14 0.328953 0.750000 0.069423
O O15 0.398594 0.025582 0.118326
O O16 0.494471 0.250000 0.120393
O O17 0.087429 0.750000 0.622828
O O18 0.000000 0.000000 0.500000
#
# Coordination Sequence:
#
# PCOD8070017 Si02
#       7
#     4   4   4   4   4   4   4
#     4   9  15  23  38  57  80 111 149 185 215 258
#     4   8  15  25  35  54  84 117 146 177 219 262
#     4  10  20  33  48  66  89 118 152 188 230 274
#     4   9  18  30  43  59  85 118 149 183 227 271
#     4   9  15  26  42  60  87 120 151 180 220 269
#     4  10  19  29  45  68  92 117 151 190 225 268
#     4  11  22  36  51  67  90 119 154 195 234 272
#
# _framework density 16.058803000000001
#
# number of rings (size 3 to 8) (size 9 to 14) (size 15 to 20)
#    0.000    2.571    1.429    2.571    0.000    5.143 
#    0.000    0.000    0.000    0.000    0.000    0.000 
#    0.000    1.143    0.000    3.429    0.000    5.571 
#
# Total GULP energy -346990.741291 kJ/mol
# GULP energy per Si atom -12392.526475 kJ/mol
# Density = 1.602225 g / cm^3
# Si number density = 16.058803 Si / 1000 Ang^3
#
#
#
# Elastic Constant Matrix: (Units=GPa)
#
#
# Indices 1 2 3 4 5 6 
#
# 1 145.4224 47.0272 37.0703 0.0000 -13.0077 0.0000
# 2 47.0272 58.8325 23.6462 0.0000 -0.4979 0.0000
# 3 37.0703 23.6462 44.9900 0.0000 0.0986 0.0000
# 4 0.0000 0.0000 0.0000 18.1178 0.0000 -0.0144
# 5 -13.0077 -0.4979 0.0986 0.0000 14.5611 0.0000
# 6 0.0000 0.0000 0.0000 -0.0144 0.0000 31.9342
#
#
#
# Elastic Compliance Matrix: (Units=1/GPa)
#
#
# Indices 1 2 3 4 5 6 
#
# 1 0.011450 -0.006677 -0.005947 0.000000 0.010040 0.000000
# 2 -0.006677 0.025453 -0.007865 0.000000 -0.005041 0.000000
# 3 -0.005947 -0.007865 0.031274 0.000000 -0.005793 0.000000
# 4 0.000000 0.000000 0.000000 0.055194 0.000000 0.000025
# 5 0.010040 -0.005041 -0.005793 0.000000 0.077512 0.000000
# 6 0.000000 0.000000 0.000000 0.000025 0.000000 0.031314
#
#
# Mechanical properties :
#
#
# Convention : Reuss Voigt Hill
#
# Bulk Modulus (GPa) = 36.76675 51.63693 44.20184
# Shear Modulus (GPa) = 17.71529 22.35604 20.03566
#
# Velocity S-wave (km/s) = 3.32498 3.73518 3.53603
# Velocity P-wave (km/s) = 6.13884 7.12929 6.65253
#
# Compressibility (1/GPa) = 0.02719848
#
# Stress axis : x y z
#
# Youngs Moduli (GPa) = 87.33765 39.28774 31.97575
#
# Poissons Ratio (x) = 0.26233 0.19015
# Poissons Ratio (y) = 0.58317 0.25149
# Poissons Ratio (z) = 0.51938 0.30900
#
# Static dielectric constant tensor:
#      x y z
#    x 3.492330 0.000000 -0.242360 
#    y 0.000000 3.097890 0.000000 
#    z -0.242360 0.000000 2.620470 
# 
# 
# High freq. dielectric constant tensor:
#      x y z
#    x 1.638150 0.000000 -0.018290 
#    y 0.000000 1.628700 0.000000 
#    z -0.018290 0.000000 1.538290 
# 
# From -- ./inp_files/53287.got.cif
#   From: 2010.06.25/outbox.cif.g09.slc.cpg/sg11_27_cif.got.tgz:53287.got - 2010.06.27 23:14:04.
