data_PCOD8070474
_publ_section_title
;
Structure prediction by ZEFSAII (Michael W. Deem and Ramdas Pophale) SiO2 
 PCOD8070474
Probable space group: P 21/M
;
_chemical_formula_sum "Si O2"
_cell_formula_units_Z 32
_cell_length_a 12.453679
_cell_length_b 8.911429
_cell_length_c 20.923113
_cell_angle_alpha 90.000000
_cell_angle_beta 125.732012
_cell_angle_gamma 90.000000
_cell_volume 1884.940119
_symmetry_space_group_name_H-M "P 21/M"
_symmetry_group_IT_number 11
_symmetry_cell_setting 'monoclinic'
loop_
_space_group_symop_operation_xyz
x,y,z
-x,1/2+y,-z
-x,-y,-z
x,1/2-y,z
loop_
_atom_site_type_symbol
_atom_site_label
_atom_site_fract_x
_atom_site_fract_y
_atom_site_fract_z
Si Si1 0.916638 0.073405 0.915297
Si Si2 0.455189 0.076096 0.079729
Si Si3 0.380897 0.923617 0.494774
Si Si4 0.981632 0.927759 0.186819
Si Si5 0.387397 0.574094 0.183086
Si Si6 0.707517 0.423910 0.082290
Si Si7 0.449311 0.078817 0.331322
Si Si8 0.208540 0.425624 0.341890
O O1 0.931998 0.250000 0.926466
O O2 0.971176 0.015973 0.866367
O O3 0.765056 0.022926 0.868875
O O4 0.000000 0.000000 0.000000
O O5 0.415329 0.250000 0.064854
O O6 0.597433 0.049097 0.097756
O O7 0.463275 0.015107 0.154194
O O8 0.342261 0.985060 0.003069
O O9 0.374004 0.750000 0.473000
O O10 0.412957 0.941411 0.581477
O O11 0.500000 0.000000 0.500000
O O12 0.246662 0.005389 0.424817
O O13 0.988404 0.750000 0.194804
O O14 0.073316 0.998893 0.272818
O O15 0.834292 0.984145 0.148914
O O16 0.402852 0.750000 0.176730
O O17 0.455656 0.531616 0.273561
O O18 0.743523 0.250000 0.086447
O O19 0.434698 0.250000 0.302559
O O20 0.323748 0.035715 0.331417
O O21 0.186746 0.250000 0.342462
#
# Coordination Sequence:
#
# PCOD8070474 Si02
#       8
#     4   4   4   4   4   4   4   4
#     4  10  22  34  45  67  97 132 165 199 243 294
#     4  10  21  37  55  74  98 129 168 214 259 300
#     4   9  17  29  46  69  98 133 170 206 246 296
#     4  11  21  34  51  73 102 135 169 206 252 300
#     4  11  21  33  50  73 101 132 169 208 249 297
#     4  10  21  37  55  75  98 127 169 216 257 299
#     4   9  18  31  47  70 100 135 169 202 246 296
#     4  10  19  31  48  72 101 136 171 206 248 296
#
# _framework density 16.976666999999999
#
# number of rings (size 3 to 8) (size 9 to 14) (size 15 to 20)
#    0.000    2.000    1.250    3.750    0.000    8.000 
#    0.000    0.000    0.000    0.000    0.000    0.875 
#    0.000    0.000    0.000    0.000    0.000    0.000 
#
# Total GULP energy -396858.350517 kJ/mol
# GULP energy per Si atom -12401.823454 kJ/mol
# Density = 1.693803 g / cm^3
# Si number density = 16.976667 Si / 1000 Ang^3
#
#
#
# Elastic Constant Matrix: (Units=GPa)
#
#
# Indices 1 2 3 4 5 6 
#
# 1 52.4509 33.8223 38.4271 0.0000 -0.5144 0.0000
# 2 33.8223 84.7812 51.4713 0.0000 1.2257 0.0000
# 3 38.4271 51.4713 131.5891 0.0000 5.1168 0.0000
# 4 0.0000 0.0000 0.0000 36.9406 0.0000 0.3735
# 5 -0.5144 1.2257 5.1168 0.0000 18.5632 0.0000
# 6 0.0000 0.0000 0.0000 0.3735 0.0000 23.8210
#
#
#
# Elastic Compliance Matrix: (Units=1/GPa)
#
#
# Indices 1 2 3 4 5 6 
#
# 1 0.028095 -0.008134 -0.005129 0.000000 0.002729 0.000000
# 2 -0.008134 0.017831 -0.004594 0.000000 -0.000136 0.000000
# 3 -0.005129 -0.004594 0.011006 0.000000 -0.002873 0.000000
# 4 0.000000 0.000000 0.000000 0.027075 0.000000 -0.000425
# 5 0.002729 -0.000136 -0.002873 0.000000 0.054747 0.000000
# 6 0.000000 0.000000 0.000000 -0.000425 0.000000 0.041986
#
#
# Mechanical properties :
#
#
# Convention : Reuss Voigt Hill
#
# Bulk Modulus (GPa) = 47.12938 57.36250 52.24594
# Shear Modulus (GPa) = 22.36882 25.53831 23.95356
#
# Velocity S-wave (km/s) = 3.63384 3.88276 3.76036
# Velocity P-wave (km/s) = 6.74003 7.34599 7.04952
#
# Compressibility (1/GPa) = 0.02121819
#
# Stress axis : x y z
#
# Youngs Moduli (GPa) = 35.59385 56.08229 90.86054
#
# Poissons Ratio (x) = 0.45615 0.46602
# Poissons Ratio (y) = 0.28951 0.41742
# Poissons Ratio (z) = 0.18256 0.25765
#
# Static dielectric constant tensor:
#      x y z
#    x 2.917700 0.000000 -0.008790 
#    y 0.000000 3.299050 0.000000 
#    z -0.008790 0.000000 3.430510 
# 
# 
# High freq. dielectric constant tensor:
#      x y z
#    x 1.614450 0.000000 0.000640 
#    y 0.000000 1.670310 0.000000 
#    z 0.000640 0.000000 1.662920 
# 
# From -- ./inp_files/42938.got.cif
#   From: 2010.06.25/outbox.cif.g09.slc.cpg/sg11_22_cif.got.tgz:42938.got - 2010.06.27 23:14:04.
