data_PCOD8070035
_publ_section_title
;
Structure prediction by ZEFSAII (Michael W. Deem and Ramdas Pophale) SiO2 
 PCOD8070035
Probable space group: P 21/M
;
_chemical_formula_sum "Si O2"
_cell_formula_units_Z 32
_cell_length_a 14.442227
_cell_length_b 9.344355
_cell_length_c 25.715449
_cell_angle_alpha 90.000000
_cell_angle_beta 147.677317
_cell_angle_gamma 90.000000
_cell_volume 1855.569327
_symmetry_space_group_name_H-M "P 21/M"
_symmetry_group_IT_number 11
_symmetry_cell_setting 'monoclinic'
loop_
_space_group_symop_operation_xyz
x,y,z
-x,1/2+y,-z
-x,-y,-z
x,1/2-y,z
loop_
_atom_site_type_symbol
_atom_site_label
_atom_site_fract_x
_atom_site_fract_y
_atom_site_fract_z
Si Si1 0.757112 0.082869 0.101035
Si Si2 0.264052 0.915211 0.451007
Si Si3 0.567580 0.415251 0.642009
Si Si4 0.935162 0.915818 0.560817
Si Si5 0.607773 0.586623 0.337081
Si Si6 0.470277 0.583409 0.908509
Si Si7 0.104228 0.911673 0.264205
Si Si8 0.323931 0.582588 0.728275
O O1 0.760819 0.250000 0.090456
O O2 0.681956 0.050423 0.122580
O O3 0.950018 0.023609 0.189008
O O4 0.640487 0.006925 0.002212
O O5 0.274786 0.750000 0.472716
O O6 0.220367 0.933765 0.370103
O O7 0.448769 0.988196 0.548646
O O8 0.112655 0.990640 0.411876
O O9 0.513571 0.250000 0.606783
O O10 0.534166 0.454757 0.686547
O O11 0.768995 0.440750 0.724579
O O12 0.935648 0.750000 0.578334
O O13 0.799215 0.944135 0.450321
O O14 0.123496 0.964015 0.630854
O O15 0.588301 0.750000 0.310736
O O16 0.573742 0.492542 0.269980
O O17 0.519962 0.750000 0.933243
O O18 0.404354 0.533214 0.821087
O O19 0.029444 0.750000 0.226840
O O20 0.345751 0.750000 0.730829
#
# Coordination Sequence:
#
# PCOD8070035 Si02
#       8
#     4   4   4   4   4   4   4   4
#     4  10  20  34  54  77  99 125 157 194 236 286
#     4  10  19  29  46  74 101 127 163 203 237 275
#     4   9  19  35  50  66  96 136 167 195 240 288
#     4   9  18  32  47  67 100 136 163 192 239 292
#     4   9  18  31  47  68  96 130 165 201 238 277
#     4   9  19  35  52  73 102 130 154 188 241 295
#     4  10  20  33  50  72  99 130 162 197 241 290
#     4  10  19  31  50  72  95 128 165 198 237 287
#
# _framework density 17.245380000000001
#
# number of rings (size 3 to 8) (size 9 to 14) (size 15 to 20)
#    0.000    2.500    0.000    3.000    0.000    6.000 
#    0.000    0.000    0.000    0.750    0.000    0.000 
#    0.000    0.000    0.000    0.000    0.000    0.000 
#
# Total GULP energy -396859.305160 kJ/mol
# GULP energy per Si atom -12401.853286 kJ/mol
# Density = 1.720613 g / cm^3
# Si number density = 17.245380 Si / 1000 Ang^3
#
#
#
# Elastic Constant Matrix: (Units=GPa)
#
#
# Indices 1 2 3 4 5 6 
#
# 1 107.1654 49.1857 54.7612 0.0000 -5.3187 0.0000
# 2 49.1857 72.7695 45.8794 0.0000 -0.5446 0.0000
# 3 54.7612 45.8794 76.6447 0.0000 -2.1763 0.0000
# 4 0.0000 0.0000 0.0000 29.6618 0.0000 0.3655
# 5 -5.3187 -0.5446 -2.1763 0.0000 25.1179 0.0000
# 6 0.0000 0.0000 0.0000 0.3655 0.0000 26.5059
#
#
#
# Elastic Compliance Matrix: (Units=1/GPa)
#
#
# Indices 1 2 3 4 5 6 
#
# 1 0.016274 -0.005937 -0.007999 0.000000 0.002624 0.000000
# 2 -0.005937 0.024249 -0.010320 0.000000 -0.001625 0.000000
# 3 -0.007999 -0.010320 0.024947 0.000000 0.000244 0.000000
# 4 0.000000 0.000000 0.000000 0.033719 0.000000 -0.000465
# 5 0.002624 -0.001625 0.000244 0.000000 0.040354 0.000000
# 6 0.000000 0.000000 0.000000 -0.000465 0.000000 0.037734
#
#
# Mechanical properties :
#
#
# Convention : Reuss Voigt Hill
#
# Bulk Modulus (GPa) = 58.96856 61.80357 60.38606
# Shear Modulus (GPa) = 21.60376 23.37399 22.48888
#
# Velocity S-wave (km/s) = 3.54323 3.68554 3.61508
# Velocity P-wave (km/s) = 7.14194 7.35027 7.24686
#
# Compressibility (1/GPa) = 0.01695819
#
# Stress axis : x y z
#
# Youngs Moduli (GPa) = 61.44775 41.23869 40.08527
#
# Poissons Ratio (x) = 0.24483 0.32065
# Poissons Ratio (y) = 0.36481 0.41367
# Poissons Ratio (z) = 0.49153 0.42558
#
# Static dielectric constant tensor:
#      x y z
#    x 3.240090 0.000000 0.025030 
#    y 0.000000 3.216480 0.000000 
#    z 0.025030 0.000000 3.017240 
# 
# 
# High freq. dielectric constant tensor:
#      x y z
#    x 1.664940 0.000000 0.000700 
#    y 0.000000 1.668870 0.000000 
#    z 0.000700 0.000000 1.642460 
# 
# From -- ./inp_files/51605.got.cif
#   From: 2010.06.25/outbox.cif.g09.slc.cpg/sg11_26_cif.got.tgz:51605.got - 2010.06.27 23:14:04.
