data_PCOD8070363
_publ_section_title
;
Structure prediction by ZEFSAII (Michael W. Deem and Ramdas Pophale) SiO2 
 PCOD8070363
Probable space group: P 21/M
;
_chemical_formula_sum "Si O2"
_cell_formula_units_Z 32
_cell_length_a 16.777524
_cell_length_b 8.842946
_cell_length_c 14.283021
_cell_angle_alpha 90.000000
_cell_angle_beta 127.148294
_cell_angle_gamma 90.000000
_cell_volume 1689.056657
_symmetry_space_group_name_H-M "P 21/M"
_symmetry_group_IT_number 11
_symmetry_cell_setting 'monoclinic'
loop_
_space_group_symop_operation_xyz
x,y,z
-x,1/2+y,-z
-x,-y,-z
x,1/2-y,z
loop_
_atom_site_type_symbol
_atom_site_label
_atom_site_fract_x
_atom_site_fract_y
_atom_site_fract_z
Si Si1 0.379571 0.927702 0.010484
Si Si2 0.993116 0.071662 0.098116
Si Si3 0.822672 0.423988 0.674537
Si Si4 0.509535 0.421670 0.408659
Si Si5 0.203748 0.077127 0.001118
Si Si6 0.291619 0.082375 0.257655
Si Si7 0.686571 0.427288 0.410373
Si Si8 0.608141 0.572656 0.177997
O O1 0.361981 0.750000 0.000199
O O2 0.493063 0.969111 0.122360
O O3 0.300111 0.003737 0.022415
O O4 0.359165 0.987044 0.892088
O O5 0.986149 0.250000 0.080430
O O6 0.087757 0.031770 0.230285
O O7 0.898446 0.012767 0.091508
O O8 0.000000 0.000000 0.000000
O O9 0.854337 0.250000 0.709186
O O10 0.728348 0.459006 0.675660
O O11 0.787687 0.455898 0.542529
O O12 0.500000 0.500000 0.500000
O O13 0.542573 0.250000 0.448780
O O14 0.399722 0.438606 0.285146
O O15 0.592123 0.495903 0.400487
O O16 0.194204 0.250000 0.960108
O O17 0.211295 0.066860 0.118747
O O18 0.285024 0.250000 0.298633
O O19 0.672997 0.250000 0.379125
O O20 0.686008 0.518209 0.312866
O O21 0.620436 0.750000 0.169996
#
# Coordination Sequence:
#
# PCOD8070363 Si02
#       8
#     4   4   4   4   4   4   4   4
#     4  10  21  38  60  88 119 151 189 238 289 340
#     4  12  24  39  58  82 113 150 194 241 290 341
#     4  11  22  36  55  78 109 150 193 234 280 336
#     4  10  19  31  46  71 106 146 185 223 270 325
#     4  11  22  37  59  85 113 148 190 238 290 343
#     4  10  20  32  50  75 109 148 185 228 278 331
#     4  10  21  36  54  79 112 153 192 234 285 338
#     4  10  21  37  60  88 117 153 193 235 283 341
#
# _framework density 18.945485000000001
#
# number of rings (size 3 to 8) (size 9 to 14) (size 15 to 20)
#    0.000    1.500    2.500    3.375    0.000    4.500 
#    0.000    0.000    0.000    0.750    0.000    0.000 
#    0.000    0.000    0.000    0.000    0.000    0.000 
#
# Total GULP energy -396735.571385 kJ/mol
# GULP energy per Si atom -12397.986606 kJ/mol
# Density = 1.890236 g / cm^3
# Si number density = 18.945485 Si / 1000 Ang^3
#
#
#
# Elastic Constant Matrix: (Units=GPa)
#
#
# Indices 1 2 3 4 5 6 
#
# 1 55.1299 33.2629 21.6476 0.0000 3.3791 0.0000
# 2 33.2629 102.9441 39.2730 0.0000 0.9973 0.0000
# 3 21.6476 39.2730 100.1761 0.0000 0.5429 0.0000
# 4 0.0000 0.0000 0.0000 31.3658 0.0000 -0.1755
# 5 3.3791 0.9973 0.5429 0.0000 22.1124 0.0000
# 6 0.0000 0.0000 0.0000 -0.1755 0.0000 32.1509
#
#
#
# Elastic Compliance Matrix: (Units=1/GPa)
#
#
# Indices 1 2 3 4 5 6 
#
# 1 0.023244 -0.006549 -0.002438 0.000000 -0.003197 0.000000
# 2 -0.006549 0.013271 -0.003790 0.000000 0.000495 0.000000
# 3 -0.002438 -0.003790 0.011994 0.000000 0.000249 0.000000
# 4 0.000000 0.000000 0.000000 0.031883 0.000000 0.000174
# 5 -0.003197 0.000495 0.000249 0.000000 0.045683 0.000000
# 6 0.000000 0.000000 0.000000 0.000174 0.000000 0.031104
#
#
# Mechanical properties :
#
#
# Convention : Reuss Voigt Hill
#
# Bulk Modulus (GPa) = 43.56582 49.62414 46.59498
# Shear Modulus (GPa) = 26.26241 28.06361 27.16301
#
# Velocity S-wave (km/s) = 3.72722 3.85292 3.79059
# Velocity P-wave (km/s) = 6.44734 6.78552 6.61859
#
# Compressibility (1/GPa) = 0.02295377
#
# Stress axis : x y z
#
# Youngs Moduli (GPa) = 43.02220 75.34978 83.37604
#
# Poissons Ratio (x) = 0.49350 0.20326
# Poissons Ratio (y) = 0.28177 0.31602
# Poissons Ratio (z) = 0.10489 0.28560
#
# Static dielectric constant tensor:
#      x y z
#    x 3.515160 0.000000 0.273790 
#    y 0.000000 3.431950 0.000000 
#    z 0.273790 0.000000 3.564410 
# 
# 
# High freq. dielectric constant tensor:
#      x y z
#    x 1.713340 0.000000 0.011260 
#    y 0.000000 1.742270 0.000000 
#    z 0.011260 0.000000 1.733720 
# 
# From -- ./inp_files/51771.got.cif
#   From: 2010.06.25/outbox.cif.g09.slc.cpg/sg11_26_cif.got.tgz:51771.got - 2010.06.27 23:14:04.
