data_PCOD8070061
_publ_section_title
;
Structure prediction by ZEFSAII (Michael W. Deem and Ramdas Pophale) SiO2 
 PCOD8070061
Probable space group: P 21/M
;
_chemical_formula_sum "Si O2"
_cell_formula_units_Z 32
_cell_length_a 14.367382
_cell_length_b 9.094771
_cell_length_c 15.542582
_cell_angle_alpha 90.000000
_cell_angle_beta 90.079053
_cell_angle_gamma 90.000000
_cell_volume 2030.916936
_symmetry_space_group_name_H-M "P 21/M"
_symmetry_group_IT_number 11
_symmetry_cell_setting 'monoclinic'
loop_
_space_group_symop_operation_xyz
x,y,z
-x,1/2+y,-z
-x,-y,-z
x,1/2-y,z
loop_
_atom_site_type_symbol
_atom_site_label
_atom_site_fract_x
_atom_site_fract_y
_atom_site_fract_z
Si Si1 0.596687 0.920891 0.682329
Si Si2 0.401795 0.422310 0.506400
Si Si3 0.287032 0.425258 0.159990
Si Si4 0.091819 0.078764 0.902650
Si Si5 0.598031 0.577226 0.003105
Si Si6 0.384891 0.924800 0.672242
Si Si7 0.711643 0.921829 0.172503
Si Si8 0.908678 0.577088 0.900007
O O1 0.588612 0.750000 0.702795
O O2 0.643898 0.946476 0.588353
O O3 0.662971 0.993030 0.755081
O O4 0.490858 0.982451 0.687803
O O5 0.500000 0.500000 0.500000
O O6 0.413238 0.250000 0.526549
O O7 0.345805 0.501675 0.583528
O O8 0.287380 0.250000 0.160968
O O9 0.341289 0.482509 0.076256
O O10 0.179997 0.479535 0.155150
O O11 0.071363 0.250000 0.897944
O O12 0.181684 0.036947 0.846876
O O13 0.108866 0.030295 0.001142
O O14 0.002071 0.996961 0.863288
O O15 0.582722 0.750000 0.995302
O O16 0.500000 0.500000 0.000000
O O17 0.649550 0.535125 0.090842
O O18 0.379690 0.750000 0.663248
O O19 0.319626 0.978641 0.748453
O O20 0.700822 0.750000 0.194925
O O21 0.920952 0.750000 0.891586
#
# Coordination Sequence:
#
# PCOD8070061 Si02
#       8
#     4   4   4   4   4   4   4   4
#     4   8  15  26  43  66  90 117 149 182 216 260
#     4   9  16  28  45  66  91 120 152 187 227 266
#     4   9  15  27  45  64  88 118 150 181 215 262
#     4   9  17  30  45  63  87 115 147 186 228 265
#     4  10  19  30  43  61  90 125 156 181 212 257
#     4  10  19  30  45  67  91 119 155 192 228 263
#     4  10  19  31  45  63  89 123 155 183 222 270
#     4   9  16  28  47  66  83 112 150 186 223 262
#
# _framework density 15.756429000000001
#
# number of rings (size 3 to 8) (size 9 to 14) (size 15 to 20)
#    0.000    2.750    1.250    2.250    0.000    2.000 
#    0.000    0.625    0.000    5.250    0.000    0.875 
#    0.000    0.000    0.000    0.000    0.000    0.000 
#
# Total GULP energy -396616.434686 kJ/mol
# GULP energy per Si atom -12394.263584 kJ/mol
# Density = 1.572057 g / cm^3
# Si number density = 15.756429 Si / 1000 Ang^3
#
#
#
# Elastic Constant Matrix: (Units=GPa)
#
#
# Indices 1 2 3 4 5 6 
#
# 1 112.0787 33.3206 55.0632 0.0000 -3.2734 0.0000
# 2 33.3206 44.2778 39.7230 0.0000 -6.1670 0.0000
# 3 55.0632 39.7230 114.2614 0.0000 -9.5991 0.0000
# 4 0.0000 0.0000 0.0000 20.1759 0.0000 -4.4861
# 5 -3.2734 -6.1670 -9.5991 0.0000 10.4952 0.0000
# 6 0.0000 0.0000 0.0000 -4.4861 0.0000 24.1935
#
#
#
# Elastic Compliance Matrix: (Units=1/GPa)
#
#
# Indices 1 2 3 4 5 6 
#
# 1 0.012789 -0.006288 -0.004282 0.000000 -0.003622 0.000000
# 2 -0.006288 0.036828 -0.008796 0.000000 0.011634 0.000000
# 3 -0.004282 -0.008796 0.014436 0.000000 0.006699 0.000000
# 4 0.000000 0.000000 0.000000 0.051696 0.000000 0.009586
# 5 -0.003622 0.011634 0.006699 0.000000 0.107116 0.000000
# 6 0.000000 0.000000 0.000000 0.009586 0.000000 0.043111
#
#
# Mechanical properties :
#
#
# Convention : Reuss Voigt Hill
#
# Bulk Modulus (GPa) = 39.48995 58.53686 49.01340
# Shear Modulus (GPa) = 15.96699 20.47365 18.22032
#
# Velocity S-wave (km/s) = 3.18679 3.60861 3.40424
# Velocity P-wave (km/s) = 6.21756 7.38881 6.82834
#
# Compressibility (1/GPa) = 0.02532290
#
# Stress axis : x y z
#
# Youngs Moduli (GPa) = 78.19003 27.15343 69.27199
#
# Poissons Ratio (x) = 0.17073 0.29659
# Poissons Ratio (y) = 0.49164 0.60930
# Poissons Ratio (z) = 0.33478 0.23883
#
# Static dielectric constant tensor:
#      x y z
#    x 2.971490 0.000000 0.136870 
#    y 0.000000 2.863290 0.000000 
#    z 0.136870 0.000000 3.231890 
# 
# 
# High freq. dielectric constant tensor:
#      x y z
#    x 1.586060 0.000000 -0.000670 
#    y 0.000000 1.587860 0.000000 
#    z -0.000670 0.000000 1.599300 
# 
# From -- ./inp_files/51336.got.cif
#   From: 2010.06.25/outbox.cif.g09.slc.cpg/sg11_26_cif.got.tgz:51336.got - 2010.06.27 23:14:04.
