data_PCOD8070916
_publ_section_title
;
Structure prediction by ZEFSAII (Michael W. Deem and Ramdas Pophale) SiO2 
 PCOD8070916
Probable space group: P 21/M
;
_chemical_formula_sum "Si O2"
_cell_formula_units_Z 32
_cell_length_a 23.924684
_cell_length_b 8.852308
_cell_length_c 12.601379
_cell_angle_alpha 90.000000
_cell_angle_beta 46.423130
_cell_angle_gamma 90.000000
_cell_volume 1933.433929
_symmetry_space_group_name_H-M "P 21/M"
_symmetry_group_IT_number 11
_symmetry_cell_setting 'monoclinic'
loop_
_space_group_symop_operation_xyz
x,y,z
-x,1/2+y,-z
-x,-y,-z
x,1/2-y,z
loop_
_atom_site_type_symbol
_atom_site_label
_atom_site_fract_x
_atom_site_fract_y
_atom_site_fract_z
Si Si1 0.508339 0.427322 0.603438
Si Si2 0.076419 0.070601 0.448725
Si Si3 0.659285 0.573002 0.406941
Si Si4 0.184692 0.070595 0.121983
Si Si5 0.825113 0.571788 0.272146
Si Si6 0.918639 0.428559 0.330397
Si Si7 0.088500 0.428809 0.049621
Si Si8 0.341515 0.427713 0.831792
O O1 0.500000 0.500000 0.500000
O O2 0.519742 0.250000 0.577432
O O3 0.583914 0.497112 0.561677
O O4 0.426519 0.465266 0.769573
O O5 0.066806 0.250000 0.464246
O O6 0.148197 0.018898 0.281025
O O7 0.094055 0.008178 0.541170
O O8 0.000000 0.000000 0.500000
O O9 0.644493 0.750000 0.424552
O O10 0.735382 0.531946 0.373185
O O11 0.667841 0.508623 0.275881
O O12 0.182927 0.250000 0.117657
O O13 0.134367 0.003953 0.090384
O O14 0.272678 0.007499 0.996134
O O15 0.837714 0.750000 0.271712
O O16 0.850682 0.482219 0.342650
O O17 0.874342 0.509906 0.107765
O O18 0.915983 0.250000 0.350717
O O19 0.999859 0.480924 0.173285
O O20 0.095910 0.250000 0.041042
O O21 0.330069 0.250000 0.838074
#
# Coordination Sequence:
#
# PCOD8070916 Si02
#       8
#     4   4   4   4   4   4   4   4
#     4   9  16  25  41  65  94 125 155 186 226 279
#     4  11  21  34  53  72  93 123 162 204 243 284
#     4   9  16  27  45  67  94 126 155 186 229 282
#     4   9  15  27  49  72  92 121 160 197 234 276
#     4  10  19  32  51  72  95 127 167 200 232 282
#     4  11  22  35  49  68  97 129 163 202 244 282
#     4   9  16  29  49  70  94 126 161 198 237 279
#     4   8  13  24  43  67  92 121 155 188 227 277
#
# _framework density 16.550861999999999
#
# number of rings (size 3 to 8) (size 9 to 14) (size 15 to 20)
#    0.000    2.500    2.500    2.250    0.000    0.500 
#    0.000    0.625    0.000    7.500    0.000    0.875 
#    0.000    0.000    0.000    0.000    0.000    0.000 
#
# Total GULP energy -396574.374979 kJ/mol
# GULP energy per Si atom -12392.949218 kJ/mol
# Density = 1.651319 g / cm^3
# Si number density = 16.550862 Si / 1000 Ang^3
#
#
#
# Elastic Constant Matrix: (Units=GPa)
#
#
# Indices 1 2 3 4 5 6 
#
# 1 114.7241 36.8427 81.3075 0.0000 -15.6978 0.0000
# 2 36.8427 43.5525 36.4379 0.0000 -6.6426 0.0000
# 3 81.3075 36.4379 114.4360 0.0000 -16.7111 0.0000
# 4 0.0000 0.0000 0.0000 17.9935 0.0000 -2.2461
# 5 -15.6978 -6.6426 -16.7111 0.0000 34.9076 0.0000
# 6 0.0000 0.0000 0.0000 -2.2461 0.0000 26.2112
#
#
#
# Elastic Compliance Matrix: (Units=1/GPa)
#
#
# Indices 1 2 3 4 5 6 
#
# 1 0.018922 -0.006406 -0.011117 0.000000 0.001968 0.000000
# 2 -0.006406 0.033520 -0.006033 0.000000 0.000610 0.000000
# 3 -0.011117 -0.006033 0.018988 0.000000 0.002943 0.000000
# 4 0.000000 0.000000 0.000000 0.056176 0.000000 0.004814
# 5 0.001968 0.000610 0.002943 0.000000 0.031057 0.000000
# 6 0.000000 0.000000 0.000000 0.004814 0.000000 0.038564
#
#
# Mechanical properties :
#
#
# Convention : Reuss Voigt Hill
#
# Bulk Modulus (GPa) = 41.12077 64.65432 52.88754
# Shear Modulus (GPa) = 19.80634 23.69745 21.75189
#
# Velocity S-wave (km/s) = 3.46308 3.78801 3.62919
# Velocity P-wave (km/s) = 6.39450 7.63419 7.04168
#
# Compressibility (1/GPa) = 0.02431861
#
# Stress axis : x y z
#
# Youngs Moduli (GPa) = 52.84887 29.83302 52.66495
#
# Poissons Ratio (x) = 0.19110 0.58548
# Poissons Ratio (y) = 0.33852 0.31773
# Poissons Ratio (z) = 0.58753 0.17998
#
# Static dielectric constant tensor:
#      x y z
#    x 3.233740 0.000000 -0.343670 
#    y 0.000000 2.914160 0.000000 
#    z -0.343670 0.000000 3.446090 
# 
# 
# High freq. dielectric constant tensor:
#      x y z
#    x 1.625780 0.000000 -0.026780 
#    y 0.000000 1.611830 0.000000 
#    z -0.026780 0.000000 1.626250 
# 
# From -- ./inp_files/43749.got.cif
#   From: 2010.06.25/outbox.cif.g09.slc.cpg/sg11_22_cif.got.tgz:43749.got - 2010.06.27 23:14:04.
