data_PCOD8070845
_publ_section_title
;
Structure prediction by ZEFSAII (Michael W. Deem and Ramdas Pophale) SiO2 
 PCOD8070845
Probable space group: P 21/M
;
_chemical_formula_sum "Si O2"
_cell_formula_units_Z 28
_cell_length_a 9.576211
_cell_length_b 9.053457
_cell_length_c 34.414508
_cell_angle_alpha 90.000000
_cell_angle_beta 33.972808
_cell_angle_gamma 90.000000
_cell_volume 1667.268851
_symmetry_space_group_name_H-M "P 21/M"
_symmetry_group_IT_number 11
_symmetry_cell_setting 'monoclinic'
loop_
_space_group_symop_operation_xyz
x,y,z
-x,1/2+y,-z
-x,-y,-z
x,1/2-y,z
loop_
_atom_site_type_symbol
_atom_site_label
_atom_site_fract_x
_atom_site_fract_y
_atom_site_fract_z
Si Si1 0.240903 0.417184 0.929336
Si Si2 0.463817 0.924344 0.567764
Si Si3 0.869302 0.077134 0.427588
Si Si4 0.512371 0.582369 0.204059
Si Si5 0.272348 0.924610 0.693903
Si Si6 0.556464 0.575197 0.704031
Si Si7 0.282269 0.075129 0.191254
O O1 0.240900 0.250000 0.945372
O O2 0.246480 0.418838 0.880644
O O3 0.493828 0.500814 0.885810
O O4 0.000000 0.500000 0.000000
O O5 0.500449 0.750000 0.560700
O O6 0.250411 0.968638 0.586001
O O7 0.383377 0.989347 0.628177
O O8 0.727327 0.995927 0.495361
O O9 0.846264 0.250000 0.440528
O O10 0.155659 0.025736 0.362212
O O11 0.422616 0.750000 0.232316
O O12 0.583388 0.503415 0.227859
O O13 0.291968 0.489655 0.233181
O O14 0.294078 0.750000 0.686691
O O15 0.429120 0.985381 0.694125
O O16 0.982793 0.970039 0.766071
O O17 0.524087 0.750000 0.715867
O O18 0.320154 0.250000 0.184211
#
# Coordination Sequence:
#
# PCOD8070845 Si02
#       7
#     4   4   4   4   4   4   4
#     4   9  18  31  51  80 106 127 160 202 241 285
#     4   9  17  31  48  66  92 126 165 209 251 292
#     4   9  18  31  47  68  92 124 166 209 251 295
#     4   9  19  32  48  74 102 126 161 203 241 288
#     4   9  18  31  49  73  98 129 169 206 244 295
#     4  10  19  32  50  70  97 132 169 205 245 297
#     4   9  16  30  52  74  99 130 161 200 244 288
#
# _framework density 16.793931000000001
#
# number of rings (size 3 to 8) (size 9 to 14) (size 15 to 20)
#    0.857    2.000    0.000    1.714    0.000    3.429 
#    0.000    6.429    0.000    0.857    0.000    0.000 
#    0.000    0.000    0.000    0.000    0.000    0.000 
#
# Total GULP energy -346997.731841 kJ/mol
# GULP energy per Si atom -12392.776137 kJ/mol
# Density = 1.675571 g / cm^3
# Si number density = 16.793931 Si / 1000 Ang^3
#
#
#
# Elastic Constant Matrix: (Units=GPa)
#
#
# Indices 1 2 3 4 5 6 
#
# 1 103.6715 34.6143 58.2337 0.0000 3.0063 0.0000
# 2 34.6143 69.6541 42.5750 0.0000 -1.9846 0.0000
# 3 58.2337 42.5750 107.8952 0.0000 -6.4486 0.0000
# 4 0.0000 0.0000 0.0000 30.6728 0.0000 2.0018
# 5 3.0063 -1.9846 -6.4486 0.0000 13.2227 0.0000
# 6 0.0000 0.0000 0.0000 2.0018 0.0000 14.9948
#
#
#
# Elastic Compliance Matrix: (Units=1/GPa)
#
#
# Indices 1 2 3 4 5 6 
#
# 1 0.015032 -0.003230 -0.007284 0.000000 -0.007455 0.000000
# 2 -0.003230 0.019623 -0.005953 0.000000 0.000776 0.000000
# 3 -0.007284 -0.005953 0.016063 0.000000 0.008596 0.000000
# 4 0.000000 0.000000 0.000000 0.032889 0.000000 -0.004391
# 5 -0.007455 0.000776 0.008596 0.000000 0.081632 0.000000
# 6 0.000000 0.000000 0.000000 -0.004391 0.000000 0.067276
#
#
# Mechanical properties :
#
#
# Convention : Reuss Voigt Hill
#
# Bulk Modulus (GPa) = 56.23571 61.34078 58.78824
# Shear Modulus (GPa) = 18.42460 21.49792 19.96126
#
# Velocity S-wave (km/s) = 3.31584 3.58173 3.45135
# Velocity P-wave (km/s) = 6.94393 7.32871 7.13891
#
# Compressibility (1/GPa) = 0.01778230
#
# Stress axis : x y z
#
# Youngs Moduli (GPa) = 66.52394 50.96098 62.25647
#
# Poissons Ratio (x) = 0.16462 0.45349
# Poissons Ratio (y) = 0.21489 0.37063
# Poissons Ratio (z) = 0.48457 0.30338
#
# Static dielectric constant tensor:
#      x y z
#    x 3.106660 0.000000 0.024980 
#    y 0.000000 3.033710 0.000000 
#    z 0.024980 0.000000 3.077300 
# 
# 
# High freq. dielectric constant tensor:
#      x y z
#    x 1.624040 0.000000 -0.001120 
#    y 0.000000 1.641370 0.000000 
#    z -0.001120 0.000000 1.641170 
# 
# From -- ./inp_files/72720.got.cif
#   From: 2010.06.25/outbox.cif.g09.slc.cpg/sg11_37_cif.got.tgz:72720.got - 2010.06.27 23:14:04.
