data_PCOD8070033
_publ_section_title
;
Structure prediction by ZEFSAII (Michael W. Deem and Ramdas Pophale) SiO2 
 PCOD8070033
Probable space group: P 21/M
;
_chemical_formula_sum "Si O2"
_cell_formula_units_Z 32
_cell_length_a 29.246354
_cell_length_b 14.288577
_cell_length_c 8.418152
_cell_angle_alpha 90.000000
_cell_angle_beta 148.601190
_cell_angle_gamma 90.000000
_cell_volume 1832.772035
_symmetry_space_group_name_H-M "P 21/M"
_symmetry_group_IT_number 11
_symmetry_cell_setting 'monoclinic'
loop_
_space_group_symop_operation_xyz
x,y,z
-x,1/2+y,-z
-x,-y,-z
x,1/2-y,z
loop_
_atom_site_type_symbol
_atom_site_label
_atom_site_fract_x
_atom_site_fract_y
_atom_site_fract_z
Si Si1 0.849135 1.000000 0.752507
Si Si2 0.587981 0.353686 0.361760
Si Si3 0.510679 1.000000 0.346202
Si Si4 0.918378 0.500000 0.639848
Si Si5 0.335213 0.000000 0.625438
Si Si6 0.009868 0.857615 0.716552
Si Si7 0.009867 0.357615 0.716552
Si Si8 0.412019 0.146314 0.638240
O O1 0.836645 1.000000 0.520802
O O2 0.753343 1.000000 0.539858
O O3 0.900473 0.907401 0.962463
O O4 0.900472 0.092599 0.962462
O O5 0.623410 0.250000 0.507730
O O6 0.566063 0.408515 0.458947
O O7 0.661120 0.408377 0.476133
O O8 0.500001 0.348526 0.000000
O O9 0.500000 0.000000 0.500000
O O10 0.566065 0.908516 0.458953
O O11 0.415485 0.999999 0.984962
O O12 0.925561 0.592451 0.550100
O O13 0.925561 0.407549 0.550099
O O14 0.000000 0.500000 0.000000
O O15 0.338881 0.091624 0.523871
O O16 0.012726 0.750000 0.778566
O O17 0.000000 0.868391 0.500000
O O18 0.012725 0.250000 0.778566
O O19 0.376590 0.250000 0.492270
#
# Coordination Sequence:
#
# PCOD8070033 Si02
#       8
#     4   4   4   4   4   4   4   4
#     4  10  19  29  46  70  93 118 148 190 231 267
#     4   8  15  30  50  67  87 120 157 185 214 266
#     4   9  17  30  48  71  94 119 151 189 226 265
#     4   8  16  28  44  66  90 119 153 184 220 269
#     4   9  18  31  46  67  93 120 153 187 227 267
#     4   9  17  31  50  68  88 118 154 187 222 270
#     4   9  17  31  50  68  88 118 154 187 222 270
#     4   8  15  30  50  67  87 120 157 185 214 266
#
# _framework density 17.459890000000001
#
# number of rings (size 3 to 8) (size 9 to 14) (size 15 to 20)
#    0.000    3.500    0.000    3.000    0.000    6.000 
#    0.000    5.000    0.000    0.000    0.000    0.000 
#    0.000    0.000    0.000    0.000    0.000    0.000 
#
# Total GULP energy -396496.182164 kJ/mol
# GULP energy per Si atom -12390.505693 kJ/mol
# Density = 1.742015 g / cm^3
# Si number density = 17.459890 Si / 1000 Ang^3
#
#
#
# Elastic Constant Matrix: (Units=GPa)
#
#
# Indices 1 2 3 4 5 6 
#
# 1 184.0482 87.5002 39.7259 0.0000 6.3607 0.0000
# 2 87.5002 184.0988 28.0779 0.0000 0.2057 0.0000
# 3 39.7259 28.0779 25.5552 0.0000 4.2798 0.0000
# 4 0.0000 0.0000 0.0000 15.5236 0.0000 -5.9580
# 5 6.3607 0.2057 4.2798 0.0000 34.1146 0.0000
# 6 0.0000 0.0000 0.0000 -5.9580 0.0000 13.2116
#
#
#
# Elastic Compliance Matrix: (Units=1/GPa)
#
#
# Indices 1 2 3 4 5 6 
#
# 1 0.009114 -0.002616 -0.011249 0.000000 -0.000272 0.000000
# 2 -0.002616 0.007302 -0.004117 0.000000 0.000960 0.000000
# 3 -0.011249 -0.004117 0.062089 0.000000 -0.005667 0.000000
# 4 0.000000 0.000000 0.000000 0.077901 0.000000 0.035131
# 5 -0.000272 0.000960 -0.005667 0.000000 0.030069 0.000000
# 6 0.000000 0.000000 0.000000 0.035131 0.000000 0.091534
#
#
# Mechanical properties :
#
#
# Convention : Reuss Voigt Hill
#
# Bulk Modulus (GPa) = 23.50580 78.25671 50.88125
# Shear Modulus (GPa) = 15.23673 28.46319 21.84996
#
# Velocity S-wave (km/s) = 2.95730 4.04196 3.54140
# Velocity P-wave (km/s) = 5.01526 8.16709 6.77695
#
# Compressibility (1/GPa) = 0.04254269
#
# Stress axis : x y z
#
# Youngs Moduli (GPa) = 109.71546 136.94670 16.10583
#
# Poissons Ratio (x) = 0.35827 0.18117
# Poissons Ratio (y) = 0.28703 0.06631
# Poissons Ratio (z) = 1.23414 0.56380
#
# Static dielectric constant tensor:
#      x y z
#    x 3.906400 0.000000 -0.087490 
#    y 0.000000 3.743010 0.000000 
#    z -0.087490 0.000000 2.718810 
# 
# 
# High freq. dielectric constant tensor:
#      x y z
#    x 1.689360 0.000000 -0.010030 
#    y 0.000000 1.683460 0.000000 
#    z -0.010030 0.000000 1.620570 
# 
# From -- ./inp_files/28817.got.cif
#   From: 2010.06.25/outbox.cif.g09.slc.cpg/sg11_15_cif.got.tgz:28817.got - 2010.06.27 23:14:04.
