data_PCOD8070576
_publ_section_title
;
Structure prediction by ZEFSAII (Michael W. Deem and Ramdas Pophale) SiO2 
 PCOD8070576
Probable space group: P 21/M
;
_chemical_formula_sum "Si O2"
_cell_formula_units_Z 32
_cell_length_a 15.339066
_cell_length_b 8.772790
_cell_length_c 22.920964
_cell_angle_alpha 90.000000
_cell_angle_beta 148.781231
_cell_angle_gamma 90.000000
_cell_volume 1598.662382
_symmetry_space_group_name_H-M "P 21/M"
_symmetry_group_IT_number 11
_symmetry_cell_setting 'monoclinic'
loop_
_space_group_symop_operation_xyz
x,y,z
-x,1/2+y,-z
-x,-y,-z
x,1/2-y,z
loop_
_atom_site_type_symbol
_atom_site_label
_atom_site_fract_x
_atom_site_fract_y
_atom_site_fract_z
Si Si1 0.090893 0.430080 0.277122
Si Si2 0.455366 0.071876 0.656225
Si Si3 0.916549 0.572583 0.594088
Si Si4 0.124871 0.429694 0.618176
Si Si5 0.966074 0.582081 0.921945
Si Si6 0.226401 0.917619 0.977011
Si Si7 0.480346 0.929557 0.792660
Si Si8 0.302753 0.926510 0.305420
O O1 0.096597 0.250000 0.272204
O O2 0.098237 0.483401 0.347913
O O3 0.262533 0.490528 0.344048
O O4 0.913132 0.488350 0.147635
O O5 0.496393 0.250000 0.687664
O O6 0.257042 0.041124 0.538985
O O7 0.538266 0.014600 0.642271
O O8 0.529387 0.984723 0.755131
O O9 0.964535 0.750000 0.619270
O O10 0.062769 0.475867 0.647167
O O11 0.125739 0.250000 0.610913
O O12 0.310296 0.490741 0.714958
O O13 0.000000 0.500000 0.500000
O O14 0.879683 0.750000 0.879869
O O15 0.858054 0.460377 0.825360
O O16 0.142210 0.605663 0.991335
O O17 0.000000 0.500000 0.000000
O O18 0.288399 0.750000 0.990122
O O19 0.383404 0.028672 0.079211
O O20 0.456428 0.750000 0.777820
O O21 0.323817 0.750000 0.331712
#
# Coordination Sequence:
#
# PCOD8070576 Si02
#       8
#     4   4   4   4   4   4   4   4
#     4   9  20  39  61  84 115 158 202 243 289 340
#     4  10  21  36  56  84 120 157 193 241 298 346
#     4  10  21  40  64  87 115 154 197 241 293 349
#     4  12  24  41  64  91 120 150 187 233 291 350
#     4  10  19  31  49  74 107 149 194 242 294 344
#     4   9  19  36  55  78 112 152 192 238 291 341
#     4  12  24  37  59  90 119 150 192 240 294 352
#     4  10  20  33  51  79 115 157 199 239 287 342
#
# _framework density 20.016732999999999
#
# number of rings (size 3 to 8) (size 9 to 14) (size 15 to 20)
#    0.000    1.750    1.250    4.500    0.000    7.500 
#    0.000    0.625    0.000    0.000    0.000    0.000 
#    0.000    0.000    0.000    0.000    0.000    0.000 
#
# Total GULP energy -396592.876724 kJ/mol
# GULP energy per Si atom -12393.527398 kJ/mol
# Density = 1.997117 g / cm^3
# Si number density = 20.016733 Si / 1000 Ang^3
#
#
#
# Elastic Constant Matrix: (Units=GPa)
#
#
# Indices 1 2 3 4 5 6 
#
# 1 103.8080 37.1986 13.2101 0.0000 6.6467 0.0000
# 2 37.1986 88.5741 24.8465 0.0000 7.2175 0.0000
# 3 13.2101 24.8465 49.2458 0.0000 9.1828 0.0000
# 4 0.0000 0.0000 0.0000 25.4082 0.0000 3.1179
# 5 6.6467 7.2175 9.1828 0.0000 29.1717 0.0000
# 6 0.0000 0.0000 0.0000 3.1179 0.0000 33.2445
#
#
#
# Elastic Compliance Matrix: (Units=1/GPa)
#
#
# Indices 1 2 3 4 5 6 
#
# 1 0.011410 -0.004537 -0.000527 0.000000 -0.001311 0.000000
# 2 -0.004537 0.014998 -0.006216 0.000000 -0.000720 0.000000
# 3 -0.000527 -0.006216 0.024726 0.000000 -0.006125 0.000000
# 4 0.000000 0.000000 0.000000 0.039816 0.000000 -0.003734
# 5 -0.001311 -0.000720 -0.006125 0.000000 0.036685 0.000000
# 6 0.000000 0.000000 0.000000 -0.003734 0.000000 0.030430
#
#
# Mechanical properties :
#
#
# Convention : Reuss Voigt Hill
#
# Bulk Modulus (GPa) = 34.99672 43.57094 39.28383
# Shear Modulus (GPa) = 26.29517 28.65638 27.47578
#
# Velocity S-wave (km/s) = 3.62838 3.78778 3.70894
# Velocity P-wave (km/s) = 5.92243 6.39877 6.16520
#
# Compressibility (1/GPa) = 0.02857410
#
# Stress axis : x y z
#
# Youngs Moduli (GPa) = 87.64198 66.67664 40.44349
#
# Poissons Ratio (x) = 0.30253 0.02131
# Poissons Ratio (y) = 0.39765 0.25138
# Poissons Ratio (z) = 0.04619 0.41443
#
# Static dielectric constant tensor:
#      x y z
#    x 3.686050 0.000000 0.141190 
#    y 0.000000 3.786570 0.000000 
#    z 0.141190 0.000000 3.550080 
# 
# 
# High freq. dielectric constant tensor:
#      x y z
#    x 1.780570 0.000000 0.000860 
#    y 0.000000 1.774980 0.000000 
#    z 0.000860 0.000000 1.773090 
# 
# From -- ./inp_files/69140.got.cif
#   From: 2010.06.25/outbox.cif.g09.slc.cpg/sg11_35_cif.got.tgz:69140.got - 2010.06.27 23:14:04.
