data_PCOD8070754
_publ_section_title
;
Structure prediction by ZEFSAII (Michael W. Deem and Ramdas Pophale) SiO2 
 PCOD8070754
Probable space group: P 21/M
;
_chemical_formula_sum "Si O2"
_cell_formula_units_Z 32
_cell_length_a 15.306640
_cell_length_b 9.202880
_cell_length_c 22.913330
_cell_angle_alpha 90.000000
_cell_angle_beta 31.349533
_cell_angle_gamma 90.000000
_cell_volume 1679.230361
_symmetry_space_group_name_H-M "P 21/M"
_symmetry_group_IT_number 11
_symmetry_cell_setting 'monoclinic'
loop_
_space_group_symop_operation_xyz
x,y,z
-x,1/2+y,-z
-x,-y,-z
x,1/2-y,z
loop_
_atom_site_type_symbol
_atom_site_label
_atom_site_fract_x
_atom_site_fract_y
_atom_site_fract_z
Si Si1 0.567832 0.906254 0.128101
Si Si2 0.756513 0.086077 0.508820
Si Si3 0.798342 0.418825 0.613582
Si Si4 0.186581 0.581783 0.943711
Si Si5 0.121629 0.084616 0.322668
Si Si6 0.418042 0.588546 0.096924
Si Si7 0.486137 0.077413 0.570590
Si Si8 0.807906 0.580577 0.175578
O O1 0.634963 0.750000 0.114074
O O2 0.375364 0.928242 0.253573
O O3 0.567151 0.904256 0.058893
O O4 0.682755 0.039785 0.081166
O O5 0.689403 0.250000 0.554168
O O6 0.753318 0.014176 0.575411
O O7 0.635256 0.016328 0.528431
O O8 0.952684 0.080518 0.379385
O O9 0.863314 0.250000 0.571976
O O10 0.918092 0.519363 0.588450
O O11 0.193617 0.750000 0.925541
O O12 0.250460 0.500048 0.849515
O O13 0.002982 0.536641 0.072989
O O14 0.185464 0.250000 0.293482
O O15 0.251224 0.989404 0.213801
O O16 0.365922 0.750000 0.106287
O O17 0.500000 0.500000 0.000000
O O18 0.502060 0.250000 0.551187
O O19 0.307682 0.036136 0.703059
O O20 0.500000 0.000000 0.500000
O O21 0.786441 0.750000 0.175994
#
# Coordination Sequence:
#
# PCOD8070754 Si02
#       8
#     4   4   4   4   4   4   4   4
#     4   9  18  32  51  76 106 140 173 208 260 318
#     4   9  18  33  55  79 105 142 179 217 267 322
#     4   9  17  32  54  79 109 144 179 212 259 319
#     4  10  19  31  53  85 111 134 174 222 270 323
#     4  10  19  32  52  81 113 139 171 216 265 318
#     4  10  21  38  56  74 101 140 179 215 258 310
#     4  10  21  40  59  75 103 144 189 230 273 322
#     4   9  19  36  56  76 107 143 173 219 278 326
#
# _framework density 19.056349000000001
#
# number of rings (size 3 to 8) (size 9 to 14) (size 15 to 20)
#    0.000    2.500    0.000    3.000    0.000    5.500 
#    2.250    2.500    0.000    0.000    0.000    0.000 
#    0.000    0.000    0.000    0.000    0.000    0.000 
#
# Total GULP energy -396496.023603 kJ/mol
# GULP energy per Si atom -12390.500738 kJ/mol
# Density = 1.901298 g / cm^3
# Si number density = 19.056349 Si / 1000 Ang^3
#
#
#
# Elastic Constant Matrix: (Units=GPa)
#
#
# Indices 1 2 3 4 5 6 
#
# 1 106.9256 29.1512 28.6729 0.0000 6.3144 0.0000
# 2 29.1512 68.0260 19.2801 0.0000 10.2062 0.0000
# 3 28.6729 19.2801 39.6676 0.0000 24.5702 0.0000
# 4 0.0000 0.0000 0.0000 27.3063 0.0000 3.3248
# 5 6.3144 10.2062 24.5702 0.0000 29.0102 0.0000
# 6 0.0000 0.0000 0.0000 3.3248 0.0000 31.7064
#
#
#
# Elastic Compliance Matrix: (Units=1/GPa)
#
#
# Indices 1 2 3 4 5 6 
#
# 1 0.013614 -0.003209 -0.015029 0.000000 0.010895 0.000000
# 2 -0.003209 0.017869 -0.006109 0.000000 -0.000414 0.000000
# 3 -0.015029 -0.006109 0.075063 0.000000 -0.058154 0.000000
# 4 0.000000 0.000000 0.000000 0.037095 0.000000 -0.003890
# 5 0.010895 -0.000414 -0.058154 0.000000 0.081499 0.000000
# 6 0.000000 0.000000 0.000000 -0.003890 0.000000 0.031947
#
#
# Mechanical properties :
#
#
# Convention : Reuss Voigt Hill
#
# Bulk Modulus (GPa) = 17.28549 40.98085 29.13317
# Shear Modulus (GPa) = 15.38149 26.77225 21.07687
#
# Velocity S-wave (km/s) = 2.84414 3.75226 3.32931
# Velocity P-wave (km/s) = 4.45824 6.35015 5.48636
#
# Compressibility (1/GPa) = 0.05785198
#
# Stress axis : x y z
#
# Youngs Moduli (GPa) = 73.45405 55.96286 13.32207
#
# Poissons Ratio (x) = 0.17958 0.20022
# Poissons Ratio (y) = 0.23571 0.08139
# Poissons Ratio (z) = 1.10394 0.34189
#
# Static dielectric constant tensor:
#      x y z
#    x 3.481990 0.000000 -0.134040 
#    y 0.000000 3.489210 0.000000 
#    z -0.134040 0.000000 3.443190 
# 
# 
# High freq. dielectric constant tensor:
#      x y z
#    x 1.732350 0.000000 -0.004160 
#    y 0.000000 1.729270 0.000000 
#    z -0.004160 0.000000 1.746640 
# 
# From -- ./inp_files/69051.got.cif
#   From: 2010.06.25/outbox.cif.g09.slc.cpg/sg11_35_cif.got.tgz:69051.got - 2010.06.27 23:14:04.
