data_PCOD8070619
_publ_section_title
;
Structure prediction by ZEFSAII (Michael W. Deem and Ramdas Pophale) SiO2 
 PCOD8070619
Probable space group: P 21/M
;
_chemical_formula_sum "Si O2"
_cell_formula_units_Z 28
_cell_length_a 9.570753
_cell_length_b 8.903191
_cell_length_c 31.352307
_cell_angle_alpha 90.000000
_cell_angle_beta 145.683940
_cell_angle_gamma 90.000000
_cell_volume 1506.099615
_symmetry_space_group_name_H-M "P 21/M"
_symmetry_group_IT_number 11
_symmetry_cell_setting 'monoclinic'
loop_
_space_group_symop_operation_xyz
x,y,z
-x,1/2+y,-z
-x,-y,-z
x,1/2-y,z
loop_
_atom_site_type_symbol
_atom_site_label
_atom_site_fract_x
_atom_site_fract_y
_atom_site_fract_z
Si Si1 0.753048 0.422294 0.210595
Si Si2 0.152344 0.423481 0.243310
Si Si3 0.192130 0.074014 0.080031
Si Si4 0.154963 0.076451 0.681690
Si Si5 0.727858 0.424453 0.813043
Si Si6 0.987859 0.576994 0.560716
Si Si7 0.390214 0.422608 0.604695
O O1 0.774341 0.250000 0.230900
O O2 0.466725 0.468273 0.132700
O O3 0.882426 0.523480 0.279292
O O4 0.889300 0.448938 0.200074
O O5 0.198320 0.250000 0.243835
O O6 0.148328 0.517984 0.199064
O O7 0.364516 0.478250 0.329341
O O8 0.145528 0.250000 0.069062
O O9 0.148707 0.011231 0.116491
O O10 0.000000 0.000000 0.000000
O O11 0.083646 0.250000 0.660654
O O12 0.435237 0.043790 0.737255
O O13 0.970640 0.981588 0.604886
O O14 0.786069 0.250000 0.833491
O O15 0.074205 0.750000 0.580951
O O16 0.720049 0.558237 0.470750
O O17 0.187631 0.473868 0.587692
O O18 0.455753 0.250000 0.631378
#
# Coordination Sequence:
#
# PCOD8070619 Si02
#       7
#     4   4   4   4   4   4   4
#     4   9  21  38  56  79 110 144 179 218 268 324
#     4  11  21  35  55  80 109 145 182 221 271 324
#     4  10  20  38  62  86 112 140 175 219 263 317
#     4  10  19  32  53  79 106 138 183 230 272 318
#     4  10  20  34  55  83 111 141 179 222 264 317
#     4  10  19  31  50  74 104 141 183 229 275 319
#     4  10  20  32  48  75 107 141 181 228 275 319
#
# _framework density 18.591066999999999
#
# number of rings (size 3 to 8) (size 9 to 14) (size 15 to 20)
#    0.000    2.000    1.429    2.571    0.000    4.571 
#    0.000    1.429    0.000    0.000    0.000    0.000 
#    0.000    0.000    0.000    0.000    0.000    0.000 
#
# Total GULP energy -347294.078140 kJ/mol
# GULP energy per Si atom -12403.359934 kJ/mol
# Density = 1.854875 g / cm^3
# Si number density = 18.591067 Si / 1000 Ang^3
#
#
#
# Elastic Constant Matrix: (Units=GPa)
#
#
# Indices 1 2 3 4 5 6 
#
# 1 86.7503 34.0126 40.3620 0.0000 -9.7952 0.0000
# 2 34.0126 86.7623 46.1943 0.0000 -12.5042 0.0000
# 3 40.3620 46.1943 111.3704 0.0000 -20.2587 0.0000
# 4 0.0000 0.0000 0.0000 35.1476 0.0000 -7.0283
# 5 -9.7952 -12.5042 -20.2587 0.0000 23.7518 0.0000
# 6 0.0000 0.0000 0.0000 -7.0283 0.0000 27.3954
#
#
#
# Elastic Compliance Matrix: (Units=1/GPa)
#
#
# Indices 1 2 3 4 5 6 
#
# 1 0.014791 -0.003715 -0.003629 0.000000 0.001049 0.000000
# 2 -0.003715 0.015911 -0.004744 0.000000 0.002798 0.000000
# 3 -0.003629 -0.004744 0.013654 0.000000 0.007652 0.000000
# 4 0.000000 0.000000 0.000000 0.029990 0.000000 0.007694
# 5 0.001049 0.002798 0.007652 0.000000 0.050534 0.000000
# 6 0.000000 0.000000 0.000000 0.007694 0.000000 0.038476
#
#
# Mechanical properties :
#
#
# Convention : Reuss Voigt Hill
#
# Bulk Modulus (GPa) = 49.55473 58.44675 54.00074
# Shear Modulus (GPa) = 25.73885 28.21324 26.97604
#
# Velocity S-wave (km/s) = 3.72489 3.89983 3.81336
# Velocity P-wave (km/s) = 6.72404 7.19615 6.96410
#
# Compressibility (1/GPa) = 0.02017971
#
# Stress axis : x y z
#
# Youngs Moduli (GPa) = 67.61042 62.84803 73.23958
#
# Poissons Ratio (x) = 0.23349 0.26575
# Poissons Ratio (y) = 0.25118 0.34748
# Poissons Ratio (z) = 0.24533 0.29818
#
# Static dielectric constant tensor:
#      x y z
#    x 3.214990 0.000000 -0.130270 
#    y 0.000000 3.529560 0.000000 
#    z -0.130270 0.000000 3.452870 
# 
# 
# High freq. dielectric constant tensor:
#      x y z
#    x 1.700850 0.000000 -0.017610 
#    y 0.000000 1.737960 0.000000 
#    z -0.017610 0.000000 1.711920 
# 
# From -- ./inp_files/28223.got.cif
#   From: 2010.06.25/outbox.cif.g09.slc.cpg/sg11_15_cif.got.tgz:28223.got - 2010.06.27 23:14:04.
