data_PCOD8070521
_publ_section_title
;
Structure prediction by ZEFSAII (Michael W. Deem and Ramdas Pophale) SiO2 
 PCOD8070521
Probable space group: P 21/M
;
_chemical_formula_sum "Si O2"
_cell_formula_units_Z 28
_cell_length_a 32.175855
_cell_length_b 8.409263
_cell_length_c 31.322939
_cell_angle_alpha 90.000000
_cell_angle_beta 170.815394
_cell_angle_gamma 90.000000
_cell_volume 1352.779010
_symmetry_space_group_name_H-M "P 21/M"
_symmetry_group_IT_number 11
_symmetry_cell_setting 'monoclinic'
loop_
_space_group_symop_operation_xyz
x,y,z
-x,1/2+y,-z
-x,-y,-z
x,1/2-y,z
loop_
_atom_site_type_symbol
_atom_site_label
_atom_site_fract_x
_atom_site_fract_y
_atom_site_fract_z
Si Si1 0.645954 0.061251 0.391079
Si Si2 0.741005 0.565832 0.579197
Si Si3 0.237081 0.938584 0.212715
Si Si4 0.883205 0.938294 0.189471
Si Si5 0.520559 0.061524 0.068386
Si Si6 0.260486 0.064402 0.142266
Si Si7 0.046584 0.060411 0.644276
O O1 0.650314 0.250000 0.402849
O O2 0.893807 0.998811 0.616061
O O3 0.634568 0.975377 0.424715
O O4 0.393887 0.005886 0.109210
O O5 0.809751 0.750000 0.653041
O O6 0.516435 0.524678 0.385196
O O7 0.006091 0.468674 0.855818
O O8 0.237207 0.750000 0.210974
O O9 0.500000 0.000000 0.500000
O O10 0.199686 0.008517 0.128028
O O11 0.000000 0.000000 0.000000
O O12 0.899790 0.750000 0.208824
O O13 0.924541 0.009600 0.278687
O O14 0.521110 0.250000 0.068390
O O15 0.781388 0.994978 0.354805
O O16 0.280831 0.994722 0.852842
O O17 0.500000 0.000000 0.000000
O O18 0.322925 0.250000 0.204262
O O19 0.049308 0.250000 0.648345
#
# Coordination Sequence:
#
# PCOD8070521 Si02
#       7
#     4   4   4   4   4   4   4
#     4  10  19  33  55  82 109 142 183 232 281 336
#     4  12  25  42  63  91 126 164 201 246 302 364
#     4  12  25  44  67  96 130 167 208 253 306 364
#     4   9  17  30  52  79 105 134 179 230 277 327
#     4  10  19  31  49  71  99 132 171 216 269 325
#     4  12  25  44  67  93 124 163 209 257 303 354
#     4   9  17  30  49  74 100 132 173 222 270 320
#
# _framework density 20.698132000000001
#
# number of rings (size 3 to 8) (size 9 to 14) (size 15 to 20)
#    0.000    1.429    0.000    6.857    0.000    4.571 
#    0.000    0.000    0.000    5.143    0.000    0.000 
#    0.000    0.000    0.000    0.000    0.000    0.000 
#
# Total GULP energy -347344.118910 kJ/mol
# GULP energy per Si atom -12405.147104 kJ/mol
# Density = 2.065102 g / cm^3
# Si number density = 20.698132 Si / 1000 Ang^3
#
#
#
# Elastic Constant Matrix: (Units=GPa)
#
#
# Indices 1 2 3 4 5 6 
#
# 1 132.1663 24.7467 37.8658 0.0000 2.4957 0.0000
# 2 24.7467 52.9688 19.0918 0.0000 -5.3148 0.0000
# 3 37.8658 19.0918 141.5662 0.0000 5.3824 0.0000
# 4 0.0000 0.0000 0.0000 20.9801 0.0000 -0.1271
# 5 2.4957 -5.3148 5.3824 0.0000 45.5799 0.0000
# 6 0.0000 0.0000 0.0000 -0.1271 0.0000 29.1884
#
#
#
# Elastic Compliance Matrix: (Units=1/GPa)
#
#
# Indices 1 2 3 4 5 6 
#
# 1 0.008762 -0.003495 -0.001847 0.000000 -0.000669 0.000000
# 2 -0.003495 0.021560 -0.002085 0.000000 0.002951 0.000000
# 3 -0.001847 -0.002085 0.007880 0.000000 -0.001072 0.000000
# 4 0.000000 0.000000 0.000000 0.047665 0.000000 0.000207
# 5 -0.000669 0.002951 -0.001072 0.000000 0.022447 0.000000
# 6 0.000000 0.000000 0.000000 0.000207 0.000000 0.034261
#
#
# Mechanical properties :
#
#
# Convention : Reuss Voigt Hill
#
# Bulk Modulus (GPa) = 42.83065 54.45666 48.64365
# Shear Modulus (GPa) = 30.26415 35.48282 32.87348
#
# Velocity S-wave (km/s) = 3.82798 4.14490 3.98959
# Velocity P-wave (km/s) = 6.34632 7.01955 6.69141
#
# Compressibility (1/GPa) = 0.02334776
#
# Stress axis : x y z
#
# Youngs Moduli (GPa) = 114.12327 46.38308 126.90679
#
# Poissons Ratio (x) = 0.16212 0.23439
# Poissons Ratio (y) = 0.39888 0.26459
# Poissons Ratio (z) = 0.21078 0.09670
#
# Static dielectric constant tensor:
#      x y z
#    x 4.021130 0.000000 0.036720 
#    y 0.000000 3.466710 0.000000 
#    z 0.036720 0.000000 4.051070 
# 
# 
# High freq. dielectric constant tensor:
#      x y z
#    x 1.829970 0.000000 0.000600 
#    y 0.000000 1.781160 0.000000 
#    z 0.000600 0.000000 1.830810 
# 
# From -- ./inp_files/72524.got.cif
#   From: 2010.06.25/outbox.cif.g09.slc.cpg/sg11_37_cif.got.tgz:72524.got - 2010.06.27 23:14:04.
