data_PCOD8070435
_publ_section_title
;
Structure prediction by ZEFSAII (Michael W. Deem and Ramdas Pophale) SiO2 
 PCOD8070435
Probable space group: P 21/M
;
_chemical_formula_sum "Si O2"
_cell_formula_units_Z 32
_cell_length_a 10.228224
_cell_length_b 8.798126
_cell_length_c 21.208051
_cell_angle_alpha 90.000000
_cell_angle_beta 72.168986
_cell_angle_gamma 90.000000
_cell_volume 1816.818705
_symmetry_space_group_name_H-M "P 21/M"
_symmetry_group_IT_number 11
_symmetry_cell_setting 'monoclinic'
loop_
_space_group_symop_operation_xyz
x,y,z
-x,1/2+y,-z
-x,-y,-z
x,1/2-y,z
loop_
_atom_site_type_symbol
_atom_site_label
_atom_site_fract_x
_atom_site_fract_y
_atom_site_fract_z
Si Si1 0.613743 0.923796 0.657053
Si Si2 0.569590 0.573585 0.071504
Si Si3 0.702914 0.923237 0.930772
Si Si4 0.383229 0.929773 0.474422
Si Si5 0.909699 0.929842 0.458136
Si Si6 0.811925 0.419713 0.802469
Si Si7 0.087202 0.425153 0.330103
Si Si8 0.511912 0.418471 0.786839
O O1 0.590342 0.750000 0.640768
O O2 0.768359 0.953552 0.656787
O O3 0.582863 0.031828 0.602953
O O4 0.508009 0.964681 0.729203
O O5 0.520106 0.750000 0.071356
O O6 0.452074 0.458044 0.067418
O O7 0.600588 0.542615 0.141702
O O8 0.704178 0.546492 0.006879
O O9 0.737153 0.750000 0.909687
O O10 0.813245 0.021746 0.874885
O O11 0.375650 0.750000 0.484491
O O12 0.500000 0.000000 0.500000
O O13 0.241917 0.004793 0.516403
O O14 0.905261 0.750000 0.467602
O O15 0.000000 0.000000 0.500000
O O16 0.973397 0.973204 0.381362
O O17 0.871687 0.250000 0.792237
O O18 0.906501 0.523795 0.743695
O O19 0.657272 0.426474 0.800626
O O20 0.043610 0.250000 0.339854
O O21 0.487429 0.250000 0.762768
#
# Coordination Sequence:
#
# PCOD8070435 Si02
#       8
#     4   4   4   4   4   4   4   4
#     4  10  19  31  48  70  96 124 161 204 250 300
#     4   8  14  22  31  46  71 105 147 190 233 283
#     4   9  14  20  31  47  71 106 147 190 234 283
#     4  12  25  41  59  78 104 135 169 210 258 310
#     4  12  23  37  57  81 106 134 169 210 255 303
#     4   9  16  25  36  54  82 115 152 194 241 290
#     4  10  19  31  49  72  97 125 163 207 249 294
#     4   8  14  24  37  54  79 112 152 194 240 287
#
# _framework density 17.613206000000002
#
# number of rings (size 3 to 8) (size 9 to 14) (size 15 to 20)
#    0.000    2.250    1.250    4.500    0.000    4.500 
#    0.000    0.000    0.000    0.000    0.000    0.000 
#    0.000    0.000    0.000    1.125    0.000   14.750 
#
# Total GULP energy -396584.874417 kJ/mol
# GULP energy per Si atom -12393.277326 kJ/mol
# Density = 1.757312 g / cm^3
# Si number density = 17.613206 Si / 1000 Ang^3
#
#
#
# Elastic Constant Matrix: (Units=GPa)
#
#
# Indices 1 2 3 4 5 6 
#
# 1 48.5891 31.8808 33.7279 0.0000 -3.6660 0.0000
# 2 31.8808 120.3696 56.3109 0.0000 -4.0731 0.0000
# 3 33.7279 56.3109 154.7111 0.0000 -18.4725 0.0000
# 4 0.0000 0.0000 0.0000 34.3682 0.0000 -3.3531
# 5 -3.6660 -4.0731 -18.4725 0.0000 8.7611 0.0000
# 6 0.0000 0.0000 0.0000 -3.3531 0.0000 15.5668
#
#
#
# Elastic Compliance Matrix: (Units=1/GPa)
#
#
# Indices 1 2 3 4 5 6 
#
# 1 0.026749 -0.005268 -0.003836 0.000000 0.000656 0.000000
# 2 -0.005268 0.011159 -0.003417 0.000000 -0.004221 0.000000
# 3 -0.003836 -0.003417 0.010908 0.000000 0.019807 0.000000
# 4 0.000000 0.000000 0.000000 0.029721 0.000000 0.006402
# 5 0.000656 -0.004221 0.019807 0.000000 0.154215 0.000000
# 6 0.000000 0.000000 0.000000 0.006402 0.000000 0.065618
#
#
# Mechanical properties :
#
#
# Convention : Reuss Voigt Hill
#
# Bulk Modulus (GPa) = 42.06117 63.05655 52.55886
# Shear Modulus (GPa) = 15.09035 25.18923 20.13979
#
# Velocity S-wave (km/s) = 2.93023 3.78581 3.38516
# Velocity P-wave (km/s) = 5.94816 7.41541 6.72194
#
# Compressibility (1/GPa) = 0.02377490
#
# Stress axis : x y z
#
# Youngs Moduli (GPa) = 37.38398 89.61568 91.67181
#
# Poissons Ratio (x) = 0.47211 0.35162
# Poissons Ratio (y) = 0.19695 0.31325
# Poissons Ratio (z) = 0.14339 0.30622
#
# Static dielectric constant tensor:
#      x y z
#    x 2.586660 0.000000 -0.194780 
#    y 0.000000 3.403990 0.000000 
#    z -0.194780 0.000000 3.860420 
# 
# 
# High freq. dielectric constant tensor:
#      x y z
#    x 1.585670 0.000000 -0.020280 
#    y 0.000000 1.695700 0.000000 
#    z -0.020280 0.000000 1.711310 
# 
# From -- ./inp_files/63192.got.cif
#   From: 2010.06.25/outbox.cif.g09.slc.cpg/sg11_32_cif.got.tgz:63192.got - 2010.06.27 23:14:04.
