data_PCOD8070400
_publ_section_title
;
Structure prediction by ZEFSAII (Michael W. Deem and Ramdas Pophale) SiO2 
 PCOD8070400
Probable space group: P 21/M
;
_chemical_formula_sum "Si O2"
_cell_formula_units_Z 28
_cell_length_a 14.699166
_cell_length_b 9.067321
_cell_length_c 18.770397
_cell_angle_alpha 90.000000
_cell_angle_beta 38.818733
_cell_angle_gamma 90.000000
_cell_volume 1568.247923
_symmetry_space_group_name_H-M "P 21/M"
_symmetry_group_IT_number 11
_symmetry_cell_setting 'monoclinic'
loop_
_space_group_symop_operation_xyz
x,y,z
-x,1/2+y,-z
-x,-y,-z
x,1/2-y,z
loop_
_atom_site_type_symbol
_atom_site_label
_atom_site_fract_x
_atom_site_fract_y
_atom_site_fract_z
Si Si1 0.875990 0.579968 0.032912
Si Si2 0.448801 0.921715 0.905219
Si Si3 0.989992 0.422956 0.342964
Si Si4 0.233970 0.420888 0.298446
Si Si5 0.822084 0.578282 0.905722
Si Si6 0.723060 0.574820 0.567310
Si Si7 0.443469 0.421281 0.759234
O O1 0.917080 0.750000 0.006659
O O2 0.721617 0.554088 0.167720
O O3 0.871671 0.523095 0.953652
O O4 0.000000 0.500000 0.000000
O O5 0.422430 0.750000 0.903418
O O6 0.611714 0.944591 0.836704
O O7 0.442013 0.020845 0.839774
O O8 0.320457 0.985598 0.033416
O O9 0.962447 0.250000 0.372269
O O10 0.840811 0.511688 0.440927
O O11 0.105100 0.490447 0.330002
O O12 0.048607 0.453071 0.228048
O O13 0.200155 0.250000 0.325579
O O14 0.238498 0.484259 0.376314
O O15 0.778723 0.750000 0.932660
O O16 0.717418 0.750000 0.566484
O O17 0.564671 0.511946 0.640920
O O18 0.485911 0.250000 0.731747
#
# Coordination Sequence:
#
# PCOD8070400 Si02
#       7
#     4   4   4   4   4   4   4
#     4   9  18  32  52  77  98 116 145 187 233 284
#     4   9  16  28  46  68  95 124 157 199 239 274
#     4  10  19  32  48  64  92 134 168 196 233 276
#     4   8  16  29  45  67  93 124 164 204 237 269
#     4   9  19  33  47  68  97 127 159 191 232 289
#     4  10  19  31  47  70  98 125 162 205 235 266
#     4   9  17  31  50  72  96 123 156 189 229 282
#
# _framework density 17.854320000000001
#
# number of rings (size 3 to 8) (size 9 to 14) (size 15 to 20)
#    0.000    2.857    0.000    3.429    0.000    4.000 
#    0.000    3.571    0.000    0.857    0.000    0.000 
#    0.000    0.000    0.000    0.000    0.000    0.000 
#
# Total GULP energy -346950.487852 kJ/mol
# GULP energy per Si atom -12391.088852 kJ/mol
# Density = 1.781368 g / cm^3
# Si number density = 17.854320 Si / 1000 Ang^3
#
#
#
# Elastic Constant Matrix: (Units=GPa)
#
#
# Indices 1 2 3 4 5 6 
#
# 1 54.1139 30.9595 49.4334 0.0000 -20.0277 0.0000
# 2 30.9595 66.9021 58.0173 0.0000 -17.4655 0.0000
# 3 49.4334 58.0173 133.8112 0.0000 -24.0858 0.0000
# 4 0.0000 0.0000 0.0000 31.4376 0.0000 -7.5944
# 5 -20.0277 -17.4655 -24.0858 0.0000 24.2753 0.0000
# 6 0.0000 0.0000 0.0000 -7.5944 0.0000 21.3454
#
#
#
# Elastic Compliance Matrix: (Units=1/GPa)
#
#
# Indices 1 2 3 4 5 6 
#
# 1 0.034675 -0.004950 -0.007494 0.000000 0.017611 0.000000
# 2 -0.004950 0.026169 -0.008356 0.000000 0.006453 0.000000
# 3 -0.007494 -0.008356 0.014207 0.000000 0.001902 0.000000
# 4 0.000000 0.000000 0.000000 0.034800 0.000000 0.012381
# 5 0.017611 0.006453 0.001902 0.000000 0.062253 0.000000
# 6 0.000000 0.000000 0.000000 0.012381 0.000000 0.051254
#
#
# Mechanical properties :
#
#
# Convention : Reuss Voigt Hill
#
# Bulk Modulus (GPa) = 29.89428 59.07198 44.48313
# Shear Modulus (GPa) = 18.10892 23.17279 20.64085
#
# Velocity S-wave (km/s) = 3.18820 3.60652 3.40379
# Velocity P-wave (km/s) = 5.50751 7.10634 6.35738
#
# Compressibility (1/GPa) = 0.03345121
#
# Stress axis : x y z
#
# Youngs Moduli (GPa) = 28.83928 38.21344 70.38908
#
# Poissons Ratio (x) = 0.18916 0.52747
# Poissons Ratio (y) = 0.14276 0.58816
# Poissons Ratio (z) = 0.21611 0.31931
#
# Static dielectric constant tensor:
#      x y z
#    x 3.201660 0.000000 -0.328140 
#    y 0.000000 3.260580 0.000000 
#    z -0.328140 0.000000 3.566270 
# 
# 
# High freq. dielectric constant tensor:
#      x y z
#    x 1.653640 0.000000 -0.027880 
#    y 0.000000 1.683590 0.000000 
#    z -0.027880 0.000000 1.692510 
# 
# From -- ./inp_files/42362.got.cif
#   From: 2010.06.25/outbox.cif.g09.slc.cpg/sg11_22_cif.got.tgz:42362.got - 2010.06.27 23:14:04.
