data_PCOD8070042
_publ_section_title
;
Structure prediction by ZEFSAII (Michael W. Deem and Ramdas Pophale) SiO2 
 PCOD8070042
Probable space group: P 21/M
;
_chemical_formula_sum "Si O2"
_cell_formula_units_Z 32
_cell_length_a 14.364420
_cell_length_b 9.304987
_cell_length_c 20.912958
_cell_angle_alpha 90.000000
_cell_angle_beta 42.824772
_cell_angle_gamma 90.000000
_cell_volume 1900.089068
_symmetry_space_group_name_H-M "P 21/M"
_symmetry_group_IT_number 11
_symmetry_cell_setting 'monoclinic'
loop_
_space_group_symop_operation_xyz
x,y,z
-x,1/2+y,-z
-x,-y,-z
x,1/2-y,z
loop_
_atom_site_type_symbol
_atom_site_label
_atom_site_fract_x
_atom_site_fract_y
_atom_site_fract_z
Si Si1 0.354056 0.584610 0.204853
Si Si2 0.906302 0.079786 0.867727
Si Si3 0.657119 0.586871 0.043195
Si Si4 0.926399 0.918768 0.094340
Si Si5 0.922457 0.418114 0.719638
Si Si6 0.630800 0.916526 0.673567
Si Si7 0.369596 0.415271 0.794848
Si Si8 0.073648 0.082416 0.519997
O O1 0.342523 0.750000 0.233915
O O2 0.501690 0.559234 0.097603
O O3 0.236661 0.544909 0.213523
O O4 0.334730 0.485467 0.275887
O O5 0.891242 0.250000 0.874449
O O6 0.958981 0.021795 0.772011
O O7 0.011606 0.029038 0.869361
O O8 0.755761 0.018470 0.955717
O O9 0.703602 0.750000 0.006756
O O10 0.665213 0.551688 0.114164
O O11 0.949421 0.750000 0.071189
O O12 0.764990 0.955764 0.178122
O O13 0.000000 0.000000 0.000000
O O14 0.947791 0.250000 0.707384
O O15 0.018650 0.482324 0.615197
O O16 0.597739 0.750000 0.700509
O O17 0.762917 0.939962 0.562217
O O18 0.498519 0.989712 0.707030
O O19 0.411143 0.250000 0.764493
O O20 0.035147 0.250000 0.531826
O O21 0.000000 0.000000 0.500000
#
# Coordination Sequence:
#
# PCOD8070042 Si02
#       8
#     4   4   4   4   4   4   4   4
#     4   9  17  31  49  66  95 137 165 186 233 295
#     4  10  20  32  49  72  96 127 167 203 237 284
#     4   9  17  29  45  67  96 131 165 193 234 286
#     4  10  19  32  51  74  97 126 165 204 242 286
#     4   9  18  33  50  69  97 133 164 194 241 294
#     4  10  19  29  47  77 100 118 158 209 245 275
#     4   9  18  32  49  69  97 132 161 191 245 301
#     4  10  19  32  52  74  98 127 161 201 244 287
#
# _framework density 16.841315000000002
#
# number of rings (size 3 to 8) (size 9 to 14) (size 15 to 20)
#    0.000    2.500    2.500    1.125    0.000    3.500 
#    0.000    1.250    0.000    0.750    0.000    0.000 
#    0.000    0.000    0.000    0.000    0.000    0.125 
#
# Total GULP energy -396689.505398 kJ/mol
# GULP energy per Si atom -12396.547044 kJ/mol
# Density = 1.680298 g / cm^3
# Si number density = 16.841315 Si / 1000 Ang^3
#
#
#
# Elastic Constant Matrix: (Units=GPa)
#
#
# Indices 1 2 3 4 5 6 
#
# 1 120.2905 37.9302 75.7135 0.0000 1.9278 0.0000
# 2 37.9302 49.7759 42.3030 0.0000 -3.9721 0.0000
# 3 75.7135 42.3030 115.4286 0.0000 -0.1865 0.0000
# 4 0.0000 0.0000 0.0000 22.3194 0.0000 -4.9481
# 5 1.9278 -3.9721 -0.1865 0.0000 22.7772 0.0000
# 6 0.0000 0.0000 0.0000 -4.9481 0.0000 18.7226
#
#
#
# Elastic Compliance Matrix: (Units=1/GPa)
#
#
# Indices 1 2 3 4 5 6 
#
# 1 0.014894 -0.004669 -0.008062 0.000000 -0.002141 0.000000
# 2 -0.004669 0.031222 -0.008371 0.000000 0.005772 0.000000
# 3 -0.008062 -0.008371 0.017018 0.000000 -0.000638 0.000000
# 4 0.000000 0.000000 0.000000 0.047593 0.000000 0.012578
# 5 -0.002141 0.005772 -0.000638 0.000000 0.045086 0.000000
# 6 0.000000 0.000000 0.000000 0.012578 0.000000 0.056735
#
#
# Mechanical properties :
#
#
# Convention : Reuss Voigt Hill
#
# Bulk Modulus (GPa) = 47.77473 66.37648 57.07561
# Shear Modulus (GPa) = 19.10373 21.40040 20.25207
#
# Velocity S-wave (km/s) = 3.37165 3.56857 3.47150
# Velocity P-wave (km/s) = 6.60201 7.51519 7.07335
#
# Compressibility (1/GPa) = 0.02093157
#
# Stress axis : x y z
#
# Youngs Moduli (GPa) = 67.14095 32.02827 58.76057
#
# Poissons Ratio (x) = 0.14953 0.47372
# Poissons Ratio (y) = 0.31347 0.49188
# Poissons Ratio (z) = 0.54128 0.26810
#
# Static dielectric constant tensor:
#      x y z
#    x 3.361360 0.000000 -0.083220 
#    y 0.000000 3.051840 0.000000 
#    z -0.083220 0.000000 3.265900 
# 
# 
# High freq. dielectric constant tensor:
#      x y z
#    x 1.641500 0.000000 -0.016090 
#    y 0.000000 1.636740 0.000000 
#    z -0.016090 0.000000 1.637780 
# 
# From -- ./inp_files/51376.got.cif
#   From: 2010.06.25/outbox.cif.g09.slc.cpg/sg11_26_cif.got.tgz:51376.got - 2010.06.27 23:14:04.
