data_PCOD8070402
_publ_section_title
;
Structure prediction by ZEFSAII (Michael W. Deem and Ramdas Pophale) SiO2 
 PCOD8070402
Probable space group: P 21/M
;
_chemical_formula_sum "Si O2"
_cell_formula_units_Z 32
_cell_length_a 18.322735
_cell_length_b 23.085162
_cell_length_c 14.282495
_cell_angle_alpha 90.000000
_cell_angle_beta 160.714257
_cell_angle_gamma 90.000000
_cell_volume 1995.303536
_symmetry_space_group_name_H-M "P 21/M"
_symmetry_group_IT_number 11
_symmetry_cell_setting 'monoclinic'
loop_
_space_group_symop_operation_xyz
x,y,z
-x,1/2+y,-z
-x,-y,-z
x,1/2-y,z
loop_
_atom_site_type_symbol
_atom_site_label
_atom_site_fract_x
_atom_site_fract_y
_atom_site_fract_z
Si Si1 0.862350 0.683871 0.178148
Si Si2 0.059647 0.867130 0.236305
Si Si3 0.404293 0.520512 0.238138
Si Si4 0.629678 0.470477 0.337529
Si Si5 0.588526 0.908256 0.626153
Si Si6 0.598248 0.185263 0.480444
Si Si7 0.834643 0.920629 0.269597
Si Si8 0.964172 0.521165 0.607650
O O1 0.915376 0.750000 0.269443
O O2 0.884451 0.645065 0.298256
O O3 0.032314 0.662696 0.304357
O O4 0.614971 0.675488 0.842155
O O5 0.189003 0.927183 0.401659
O O6 0.186577 0.823196 0.322376
O O7 0.826586 0.878887 0.904165
O O8 0.552513 0.514047 0.325327
O O9 0.394542 0.459088 0.277721
O O10 0.511706 0.569543 0.432486
O O11 0.157265 0.540891 0.912235
O O12 0.736675 0.510354 0.387059
O O13 0.425319 0.434832 0.047650
O O14 0.409992 0.860871 0.444971
O O15 0.601670 0.250000 0.526706
O O16 0.924187 0.928442 0.483183
O O17 0.964997 0.961756 0.356199
#
# Coordination Sequence:
#
# PCOD8070402 Si02
#       8
#     4   4   4   4   4   4   4   4
#     4  10  19  31  47  70  99 126 156 195 236 285
#     4  11  17  30  48  72 101 125 153 191 238 287
#     4  10  20  32  47  73  98 129 163 192 238 288
#     4  11  17  30  48  72 100 126 153 191 239 285
#     4  10  20  32  48  70 101 129 159 197 234 286
#     4  10  19  32  49  70  97 128 159 194 239 288
#     4  10  19  31  48  72  95 128 160 193 237 291
#     4  10  19  32  49  68 100 127 159 198 235 281
#
# _framework density 16.037661
#
# number of rings (size 3 to 8) (size 9 to 14) (size 15 to 20)
#    0.000    1.750    5.000    2.250    0.000    2.000 
#    0.000    0.000    0.000    0.750    0.000    0.875 
#    0.000    0.000    0.000    0.000    0.000    0.000 
#
# Total GULP energy -396881.152588 kJ/mol
# GULP energy per Si atom -12402.536018 kJ/mol
# Density = 1.600116 g / cm^3
# Si number density = 16.037661 Si / 1000 Ang^3
#
#
#
# Elastic Constant Matrix: (Units=GPa)
#
#
# Indices 1 2 3 4 5 6 
#
# 1 81.0605 47.3121 50.5325 0.0000 6.2916 0.0000
# 2 47.3121 97.0125 33.1154 0.0000 -4.1669 0.0000
# 3 50.5325 33.1154 70.1895 0.0000 6.8443 0.0000
# 4 0.0000 0.0000 0.0000 16.6309 0.0000 -2.1498
# 5 6.2916 -4.1669 6.8443 0.0000 31.4443 0.0000
# 6 0.0000 0.0000 0.0000 -2.1498 0.0000 25.0117
#
#
#
# Elastic Compliance Matrix: (Units=1/GPa)
#
#
# Indices 1 2 3 4 5 6 
#
# 1 0.026663 -0.007971 -0.015133 0.000000 -0.003097 0.000000
# 2 -0.007971 0.014944 -0.001697 0.000000 0.003944 0.000000
# 3 -0.015133 -0.001697 0.026226 0.000000 -0.002905 0.000000
# 4 0.000000 0.000000 0.000000 0.060805 0.000000 0.005226
# 5 -0.003097 0.003944 -0.002905 0.000000 0.033577 0.000000
# 6 0.000000 0.000000 0.000000 0.005226 0.000000 0.040431
#
#
# Mechanical properties :
#
#
# Convention : Reuss Voigt Hill
#
# Bulk Modulus (GPa) = 54.84979 56.68692 55.76835
# Shear Modulus (GPa) = 19.35560 22.43755 20.89657
#
# Velocity S-wave (km/s) = 3.47779 3.74445 3.61358
# Velocity P-wave (km/s) = 7.09941 7.35645 7.22907
#
# Compressibility (1/GPa) = 0.01823161
#
# Stress axis : x y z
#
# Youngs Moduli (GPa) = 37.50527 66.91783 38.12999
#
# Poissons Ratio (x) = 0.53337 0.57703
# Poissons Ratio (y) = 0.29894 0.06470
# Poissons Ratio (z) = 0.56758 0.11354
#
# Static dielectric constant tensor:
#      x y z
#    x 3.059050 0.000000 0.160530 
#    y 0.000000 2.943990 0.000000 
#    z 0.160530 0.000000 3.074690 
# 
# 
# High freq. dielectric constant tensor:
#      x y z
#    x 1.611870 0.000000 0.021380 
#    y 0.000000 1.596580 0.000000 
#    z 0.021380 0.000000 1.612580 
# 
# From -- ./inp_files/7181.got.cif
#   From: 2010.06.25/outbox.cif.g09.slc.cpg/sg11_4_cif.got.tgz:7181.got - 2010.06.27 23:14:04.
