data_PCOD8070512
_publ_section_title
;
Structure prediction by ZEFSAII (Michael W. Deem and Ramdas Pophale) SiO2 
 PCOD8070512
Probable space group: P 21/M
;
_chemical_formula_sum "Si O2"
_cell_formula_units_Z 32
_cell_length_a 35.913690
_cell_length_b 9.301729
_cell_length_c 5.180394
_cell_angle_alpha 90.000000
_cell_angle_beta 81.715197
_cell_angle_gamma 90.000000
_cell_volume 1712.499329
_symmetry_space_group_name_H-M "P 21/M"
_symmetry_group_IT_number 11
_symmetry_cell_setting 'monoclinic'
loop_
_space_group_symop_operation_xyz
x,y,z
-x,1/2+y,-z
-x,-y,-z
x,1/2-y,z
loop_
_atom_site_type_symbol
_atom_site_label
_atom_site_fract_x
_atom_site_fract_y
_atom_site_fract_z
Si Si1 0.539347 0.579234 0.965736
Si Si2 0.209227 0.917117 0.320281
Si Si3 0.713319 0.579222 0.777004
Si Si4 0.162224 0.583278 0.867220
Si Si5 0.914794 0.581621 0.064134
Si Si6 0.331243 0.420808 0.677009
Si Si7 0.961091 0.918667 0.519930
Si Si8 0.415464 0.420290 0.580096
O O1 0.532774 0.750000 0.972342
O O2 0.563211 0.527209 0.696261
O O3 0.500000 0.500000 0.000000
O O4 0.561796 0.525597 0.194122
O O5 0.220283 0.750000 0.295157
O O6 0.191082 0.958093 0.611824
O O7 0.245955 0.010993 0.244679
O O8 0.180278 0.957926 0.122824
O O9 0.717962 0.750000 0.770773
O O10 0.692277 0.522156 0.543327
O O11 0.688939 0.525780 0.043872
O O12 0.151625 0.750000 0.863696
O O13 0.124597 0.495475 0.863744
O O14 0.906675 0.750000 0.073511
O O15 0.934441 0.531715 0.780622
O O16 0.941445 0.536585 0.273528
O O17 0.333327 0.250000 0.666985
O O18 0.373384 0.485634 0.625702
O O19 0.969399 0.750000 0.526417
O O20 0.000000 0.000000 0.500000
O O21 0.412643 0.250000 0.587166
#
# Coordination Sequence:
#
# PCOD8070512 Si02
#       8
#     4   4   4   4   4   4   4   4
#     4  10  19  31  49  71  95 126 161 197 241 289
#     4  10  21  36  52  73 103 134 165 202 243 294
#     4  10  19  31  51  76  98 124 160 202 245 286
#     4  10  21  36  54  75  99 133 172 204 241 292
#     4  10  21  36  54  78 106 133 166 211 255 291
#     4   9  17  30  49  74  99 122 159 206 241 282
#     4  10  21  36  54  78 106 136 169 205 249 297
#     4   9  17  30  49  71  95 126 161 197 241 289
#
# _framework density 18.686139000000001
#
# number of rings (size 3 to 8) (size 9 to 14) (size 15 to 20)
#    0.000    2.250    0.000    3.000    0.000    5.000 
#    0.000    0.000    0.000    4.500    0.000    0.000 
#    0.000    0.000    0.000    0.000    0.000    0.000 
#
# Total GULP energy -396903.060149 kJ/mol
# GULP energy per Si atom -12403.220630 kJ/mol
# Density = 1.864361 g / cm^3
# Si number density = 18.686139 Si / 1000 Ang^3
#
#
#
# Elastic Constant Matrix: (Units=GPa)
#
#
# Indices 1 2 3 4 5 6 
#
# 1 127.6839 43.6992 32.8473 0.0000 -2.2162 0.0000
# 2 43.6992 30.0713 24.8492 0.0000 -1.4548 0.0000
# 3 32.8473 24.8492 121.4749 0.0000 3.0064 0.0000
# 4 0.0000 0.0000 0.0000 9.5307 0.0000 -1.1616
# 5 -2.2162 -1.4548 3.0064 0.0000 32.1917 0.0000
# 6 0.0000 0.0000 0.0000 -1.1616 0.0000 33.0264
#
#
#
# Elastic Compliance Matrix: (Units=1/GPa)
#
#
# Indices 1 2 3 4 5 6 
#
# 1 0.015607 -0.023098 0.000505 0.000000 -0.000017 0.000000
# 2 -0.023098 0.074418 -0.009042 0.000000 0.002617 0.000000
# 3 0.000505 -0.009042 0.009978 0.000000 -0.001306 0.000000
# 4 0.000000 0.000000 0.000000 0.105376 0.000000 0.003706
# 5 -0.000017 0.002617 -0.001306 0.000000 0.031303 0.000000
# 6 0.000000 0.000000 0.000000 0.003706 0.000000 0.030409
#
#
# Mechanical properties :
#
#
# Convention : Reuss Voigt Hill
#
# Bulk Modulus (GPa) = 27.22344 53.55794 40.39069
# Shear Modulus (GPa) = 14.59410 26.80539 20.69974
#
# Velocity S-wave (km/s) = 2.79769 3.79160 3.33191
# Velocity P-wave (km/s) = 5.00365 6.92043 6.03858
#
# Compressibility (1/GPa) = 0.03673305
#
# Stress axis : x y z
#
# Youngs Moduli (GPa) = 64.07514 13.43755 100.22489
#
# Poissons Ratio (x) = 0.31038 -0.05064
# Poissons Ratio (y) = 1.47999 0.90626
# Poissons Ratio (z) = -0.03237 0.12151
#
# Static dielectric constant tensor:
#      x y z
#    x 3.455200 0.000000 0.034980 
#    y 0.000000 3.087060 0.000000 
#    z 0.034980 0.000000 3.996290 
# 
# 
# High freq. dielectric constant tensor:
#      x y z
#    x 1.739380 0.000000 0.000920 
#    y 0.000000 1.687670 0.000000 
#    z 0.000920 0.000000 1.749750 
# 
# From -- ./inp_files/9684.got.cif
#   From: 2010.06.25/outbox.cif.g09.slc.cpg/sg11_5_cif.got.tgz:9684.got - 2010.06.27 23:14:04.
