data_PCOD8070948
_publ_section_title
;
Structure prediction by ZEFSAII (Michael W. Deem and Ramdas Pophale) SiO2 
 PCOD8070948
Probable space group: P 21/M
;
_chemical_formula_sum "Si O2"
_cell_formula_units_Z 28
_cell_length_a 24.711689
_cell_length_b 8.955952
_cell_length_c 19.562519
_cell_angle_alpha 90.000000
_cell_angle_beta 21.262420
_cell_angle_gamma 90.000000
_cell_volume 1570.054553
_symmetry_space_group_name_H-M "P 21/M"
_symmetry_group_IT_number 11
_symmetry_cell_setting 'monoclinic'
loop_
_space_group_symop_operation_xyz
x,y,z
-x,1/2+y,-z
-x,-y,-z
x,1/2-y,z
loop_
_atom_site_type_symbol
_atom_site_label
_atom_site_fract_x
_atom_site_fract_y
_atom_site_fract_z
Si Si1 0.350993 0.921952 0.091934
Si Si2 0.658466 0.926528 0.329696
Si Si3 0.321254 0.418378 0.264804
Si Si4 0.923889 0.425209 0.933646
Si Si5 0.128787 0.077920 0.808315
Si Si6 0.096503 0.074868 0.326841
Si Si7 0.007966 0.420823 0.684660
O O1 0.308296 0.750000 0.130934
O O2 0.298267 0.966917 0.230019
O O3 0.267252 0.023092 0.135055
O O4 0.526042 0.953183 0.875078
O O5 0.640216 0.750000 0.341750
O O6 0.710858 0.969406 0.346781
O O7 0.500000 0.000000 0.500000
O O8 0.786083 0.983892 0.127619
O O9 0.327339 0.250000 0.226947
O O10 0.187583 0.434663 0.476048
O O11 0.885646 0.250000 0.983995
O O12 0.941802 0.476361 0.834332
O O13 0.087079 0.456495 0.778041
O O14 0.111602 0.250000 0.844524
O O15 0.000000 0.000000 0.000000
O O16 0.080011 0.250000 0.354062
O O17 0.050767 0.026747 0.305358
O O18 0.000000 0.000000 0.500000
O O19 0.960762 0.250000 0.725196
#
# Coordination Sequence:
#
# PCOD8070948 Si02
#       7
#     4   4   4   4   4   4   4
#     4  10  19  32  51  75 100 130 172 220 267 314
#     4  10  19  32  53  81 112 144 179 215 256 307
#     4   9  18  32  51  74 100 131 169 214 265 318
#     4   9  18  34  55  78 105 137 175 219 268 316
#     4   8  15  29  50  75 101 132 171 210 249 300
#     4  12  23  35  52  75 103 139 181 225 271 323
#     4  10  20  35  55  78 104 135 173 221 273 325
#
# _framework density 17.833776
#
# number of rings (size 3 to 8) (size 9 to 14) (size 15 to 20)
#    0.000    2.286    1.429    2.143    0.000    1.714 
#    0.000    1.429    0.000    5.143    0.000    0.000 
#    0.000    0.000    0.000    0.000    0.000    0.000 
#
# Total GULP energy -346914.406342 kJ/mol
# GULP energy per Si atom -12389.800227 kJ/mol
# Density = 1.779319 g / cm^3
# Si number density = 17.833776 Si / 1000 Ang^3
#
#
#
# Elastic Constant Matrix: (Units=GPa)
#
#
# Indices 1 2 3 4 5 6 
#
# 1 136.8014 60.4485 66.1900 0.0000 -15.1607 0.0000
# 2 60.4485 89.2466 41.0861 0.0000 -7.9124 0.0000
# 3 66.1900 41.0861 92.7609 0.0000 -14.4251 0.0000
# 4 0.0000 0.0000 0.0000 24.8628 0.0000 -3.6587
# 5 -15.1607 -7.9124 -14.4251 0.0000 30.1134 0.0000
# 6 0.0000 0.0000 0.0000 -3.6587 0.0000 27.5772
#
#
#
# Elastic Compliance Matrix: (Units=1/GPa)
#
#
# Indices 1 2 3 4 5 6 
#
# 1 0.013281 -0.005776 -0.006607 0.000000 0.002004 0.000000
# 2 -0.005776 0.016604 -0.003248 0.000000 -0.000101 0.000000
# 3 -0.006607 -0.003248 0.017594 0.000000 0.004248 0.000000
# 4 0.000000 0.000000 0.000000 0.041022 0.000000 0.005442
# 5 0.002004 -0.000101 0.004248 0.000000 0.036225 0.000000
# 6 0.000000 0.000000 0.000000 0.005442 0.000000 0.036984
#
#
# Mechanical properties :
#
#
# Convention : Reuss Voigt Hill
#
# Bulk Modulus (GPa) = 61.66635 72.69532 67.18083
# Shear Modulus (GPa) = 25.20459 26.58297 25.89378
#
# Velocity S-wave (km/s) = 3.76348 3.86501 3.81458
# Velocity P-wave (km/s) = 7.31700 7.79545 7.56001
#
# Compressibility (1/GPa) = 0.01621630
#
# Stress axis : x y z
#
# Youngs Moduli (GPa) = 75.29668 60.22754 56.83784
#
# Poissons Ratio (x) = 0.34789 0.37550
# Poissons Ratio (y) = 0.43494 0.18462
# Poissons Ratio (z) = 0.49745 0.19563
#
# Static dielectric constant tensor:
#      x y z
#    x 3.791840 0.000000 -0.318930 
#    y 0.000000 3.365280 0.000000 
#    z -0.318930 0.000000 3.233930 
# 
# 
# High freq. dielectric constant tensor:
#      x y z
#    x 1.690080 0.000000 -0.025590 
#    y 0.000000 1.694520 0.000000 
#    z -0.025590 0.000000 1.668230 
# 
# From -- ./inp_files/66865.got.cif
#   From: 2010.06.25/outbox.cif.g09.slc.cpg/sg11_34_cif.got.tgz:66865.got - 2010.06.27 23:14:04.
