data_PCOD8070704
_publ_section_title
;
Structure prediction by ZEFSAII (Michael W. Deem and Ramdas Pophale) SiO2 
 PCOD8070704
Probable space group: P 21/M
;
_chemical_formula_sum "Si O2"
_cell_formula_units_Z 24
_cell_length_a 23.435030
_cell_length_b 9.293976
_cell_length_c 5.288910
_cell_angle_alpha 90.000000
_cell_angle_beta 98.024415
_cell_angle_gamma 90.000000
_cell_volume 1140.669853
_symmetry_space_group_name_H-M "P 21/M"
_symmetry_group_IT_number 11
_symmetry_cell_setting 'monoclinic'
loop_
_space_group_symop_operation_xyz
x,y,z
-x,1/2+y,-z
-x,-y,-z
x,1/2-y,z
loop_
_atom_site_type_symbol
_atom_site_label
_atom_site_fract_x
_atom_site_fract_y
_atom_site_fract_z
Si Si1 0.323031 0.079294 0.708133
Si Si2 0.872758 0.920483 0.922303
Si Si3 0.413339 0.907403 0.506282
Si Si4 0.256168 0.420249 0.163263
Si Si5 0.531330 0.593696 0.817031
Si Si6 0.060343 0.078936 0.535960
O O1 0.333931 0.250000 0.716969
O O2 0.287001 0.029596 0.439182
O O3 0.383599 0.992687 0.722762
O O4 0.290385 0.024628 0.937724
O O5 0.869220 0.750000 0.917950
O O6 0.808259 0.985703 0.881859
O O7 0.905582 0.973722 0.691757
O O8 0.905063 0.972933 0.194754
O O9 0.383946 0.750000 0.443013
O O10 0.481198 0.878981 0.581544
O O11 0.411753 0.013506 0.260387
O O12 0.252218 0.250000 0.151090
O O13 0.552722 0.750000 0.932235
O O14 0.500000 0.500000 0.000000
O O15 0.050838 0.250000 0.529793
O O16 0.000000 0.000000 0.500000
#
# Coordination Sequence:
#
# PCOD8070704 Si02
#       6
#     4   4   4   4   4   4
#     4  10  20  34  55  82 107 137 178 229 276 320
#     4   9  17  31  52  76 104 140 180 223 267 316
#     4  10  22  38  54  78 109 144 180 223 275 335
#     4   9  18  33  54  80 106 136 182 229 270 316
#     4  10  21  37  58  81 107 141 181 224 277 334
#     4  10  19  31  51  78 107 140 177 219 269 319
#
# _framework density 21.040268000000001
#
# number of rings (size 3 to 8) (size 9 to 14) (size 15 to 20)
#    0.000    2.333    0.000    2.500    2.333    6.000 
#    0.000    0.000    0.000    6.000    0.000    0.000 
#    0.000    0.000    0.000    0.000    0.000    0.000 
#
# Total GULP energy -297445.102962 kJ/mol
# GULP energy per Si atom -12393.545957 kJ/mol
# Density = 2.099238 g / cm^3
# Si number density = 21.040268 Si / 1000 Ang^3
#
#
#
# Elastic Constant Matrix: (Units=GPa)
#
#
# Indices 1 2 3 4 5 6 
#
# 1 112.9318 14.4991 42.0127 0.0000 -21.0848 0.0000
# 2 14.4991 88.5319 15.2725 0.0000 -21.6476 0.0000
# 3 42.0127 15.2725 134.8580 0.0000 -25.2935 0.0000
# 4 0.0000 0.0000 0.0000 15.0031 0.0000 -4.1479
# 5 -21.0848 -21.6476 -25.2935 0.0000 45.2050 0.0000
# 6 0.0000 0.0000 0.0000 -4.1479 0.0000 26.2799
#
#
#
# Elastic Compliance Matrix: (Units=1/GPa)
#
#
# Indices 1 2 3 4 5 6 
#
# 1 0.010486 -0.000485 -0.002612 0.000000 0.003197 0.000000
# 2 -0.000485 0.012829 -0.000214 0.000000 0.005797 0.000000
# 3 -0.002612 -0.000214 0.008944 0.000000 0.003683 0.000000
# 4 0.000000 0.000000 0.000000 0.069694 0.000000 0.011000
# 5 0.003197 0.005797 0.003683 0.000000 0.028450 0.000000
# 6 0.000000 0.000000 0.000000 0.011000 0.000000 0.039788
#
#
# Mechanical properties :
#
#
# Convention : Reuss Voigt Hill
#
# Bulk Modulus (GPa) = 39.00732 53.32114 46.16423
# Shear Modulus (GPa) = 26.97454 34.93341 30.95398
#
# Velocity S-wave (km/s) = 3.58445 4.07911 3.83975
# Velocity P-wave (km/s) = 5.97584 6.89804 6.45343
#
# Compressibility (1/GPa) = 0.02563622
#
# Stress axis : x y z
#
# Youngs Moduli (GPa) = 95.36684 77.94612 111.80550
#
# Poissons Ratio (x) = 0.03780 0.29205
# Poissons Ratio (y) = 0.04625 0.02398
# Poissons Ratio (z) = 0.24911 0.01672
#
# Static dielectric constant tensor:
#      x y z
#    x 4.173700 0.000000 0.055160 
#    y 0.000000 3.925960 0.000000 
#    z 0.055160 0.000000 4.108250 
# 
# 
# High freq. dielectric constant tensor:
#      x y z
#    x 1.824890 0.000000 -0.007980 
#    y 0.000000 1.785050 0.000000 
#    z -0.007980 0.000000 1.835950 
# 
# From -- ./inp_files/9247.got.cif
#   From: 2010.06.25/outbox.cif.g09.slc.cpg/sg11_5_cif.got.tgz:9247.got - 2010.06.27 23:14:04.
