data_PCOD8070172
_publ_section_title
;
Structure prediction by ZEFSAII (Michael W. Deem and Ramdas Pophale) SiO2 
 PCOD8070172
Probable space group: P 21/M
;
_chemical_formula_sum "Si O2"
_cell_formula_units_Z 32
_cell_length_a 12.624410
_cell_length_b 8.840900
_cell_length_c 23.311393
_cell_angle_alpha 90.000000
_cell_angle_beta 134.790987
_cell_angle_gamma 90.000000
_cell_volume 1846.457529
_symmetry_space_group_name_H-M "P 21/M"
_symmetry_group_IT_number 11
_symmetry_cell_setting 'monoclinic'
loop_
_space_group_symop_operation_xyz
x,y,z
-x,1/2+y,-z
-x,-y,-z
x,1/2-y,z
loop_
_atom_site_type_symbol
_atom_site_label
_atom_site_fract_x
_atom_site_fract_y
_atom_site_fract_z
Si Si1 0.559640 0.922813 0.784934
Si Si2 0.177402 0.426942 0.318920
Si Si3 0.547955 0.930521 0.653097
Si Si4 0.688993 0.070790 0.005947
Si Si5 0.583683 0.071120 0.156004
Si Si6 0.152403 0.571378 0.819234
Si Si7 0.619585 0.573458 0.504607
Si Si8 0.852049 0.924465 0.965274
O O1 0.512501 0.750000 0.759829
O O2 0.541976 0.998462 0.715471
O O3 0.452495 0.994322 0.793835
O O4 0.730743 0.939629 0.868736
O O5 0.167252 0.250000 0.302991
O O6 0.301781 0.491741 0.321820
O O7 0.222348 0.455769 0.403016
O O8 0.013731 0.501871 0.246960
O O9 0.545489 0.750000 0.651083
O O10 0.398886 0.992885 0.564240
O O11 0.672777 0.250000 0.998946
O O12 0.527302 0.998420 0.933612
O O13 0.804471 0.018164 0.002217
O O14 0.755747 0.010211 0.091338
O O15 0.552560 0.250000 0.143770
O O16 0.752821 0.030692 0.202089
O O17 0.135437 0.750000 0.817836
O O18 0.500000 0.500000 0.500000
O O19 0.588017 0.750000 0.485271
O O20 0.877405 0.750000 0.991570
O O21 0.000000 0.000000 0.000000
#
# Coordination Sequence:
#
# PCOD8070172 Si02
#       8
#     4   4   4   4   4   4   4   4
#     4   8  16  29  47  67  87 120 157 190 226 273
#     4   8  15  26  43  67  90 114 149 187 228 276
#     4   9  16  28  48  68  89 118 153 188 225 280
#     4  10  19  30  47  69  92 123 161 197 238 282
#     4   9  17  32  49  66  91 121 162 204 235 271
#     4   9  17  28  47  70  90 120 161 201 233 277
#     4   9  16  28  46  67  93 120 147 183 228 280
#     4  10  20  33  48  67  96 129 159 194 236 280
#
# _framework density 17.330483999999998
#
# number of rings (size 3 to 8) (size 9 to 14) (size 15 to 20)
#    0.000    3.000    0.000    3.000    1.750    0.000 
#    0.000    3.750    0.000    6.750    0.000    0.000 
#    0.000    0.000    0.000    0.000    0.000    0.500 
#
# Total GULP energy -396477.037519 kJ/mol
# GULP energy per Si atom -12389.907422 kJ/mol
# Density = 1.729104 g / cm^3
# Si number density = 17.330484 Si / 1000 Ang^3
#
#
#
# Elastic Constant Matrix: (Units=GPa)
#
#
# Indices 1 2 3 4 5 6 
#
# 1 90.0830 11.6794 68.5727 0.0000 -6.1358 0.0000
# 2 11.6794 29.6003 21.9318 0.0000 -1.1424 0.0000
# 3 68.5727 21.9318 120.5430 0.0000 -17.4809 0.0000
# 4 0.0000 0.0000 0.0000 23.6201 0.0000 -1.0794
# 5 -6.1358 -1.1424 -17.4809 0.0000 25.1605 0.0000
# 6 0.0000 0.0000 0.0000 -1.0794 0.0000 15.7745
#
#
#
# Elastic Compliance Matrix: (Units=1/GPa)
#
#
# Indices 1 2 3 4 5 6 
#
# 1 0.019848 0.000890 -0.011949 0.000000 -0.003421 0.000000
# 2 0.000890 0.039369 -0.008205 0.000000 -0.003696 0.000000
# 3 -0.011949 -0.008205 0.017914 0.000000 0.009160 0.000000
# 4 0.000000 0.000000 0.000000 0.042470 0.000000 0.002906
# 5 -0.003421 -0.003696 0.009160 0.000000 0.045107 0.000000
# 6 0.000000 0.000000 0.000000 0.002906 0.000000 0.063592
#
#
# Mechanical properties :
#
#
# Convention : Reuss Voigt Hill
#
# Bulk Modulus (GPa) = 25.90460 49.39936 37.65198
# Shear Modulus (GPa) = 17.87651 22.11384 19.99518
#
# Velocity S-wave (km/s) = 3.21519 3.57600 3.40039
# Velocity P-wave (km/s) = 5.36313 6.75400 6.09835
#
# Compressibility (1/GPa) = 0.03860319
#
# Stress axis : x y z
#
# Youngs Moduli (GPa) = 50.38227 25.40065 55.82114
#
# Poissons Ratio (x) = -0.02260 0.66701
# Poissons Ratio (y) = -0.04483 0.45802
# Poissons Ratio (z) = 0.60202 0.20841
#
# Static dielectric constant tensor:
#      x y z
#    x 3.412200 0.000000 -0.126320 
#    y 0.000000 3.041090 0.000000 
#    z -0.126320 0.000000 3.646940 
# 
# 
# High freq. dielectric constant tensor:
#      x y z
#    x 1.659420 0.000000 -0.008860 
#    y 0.000000 1.638010 0.000000 
#    z -0.008860 0.000000 1.666550 
# 
# From -- ./inp_files/54282.got.cif
#   From: 2010.06.25/outbox.cif.g09.slc.cpg/sg11_28_cif.got.tgz:54282.got - 2010.06.27 23:14:04.
