data_PCOD8070025
_publ_section_title
;
Structure prediction by ZEFSAII (Michael W. Deem and Ramdas Pophale) SiO2 
 PCOD8070025
Probable space group: P 21/M
;
_chemical_formula_sum "Si O2"
_cell_formula_units_Z 32
_cell_length_a 25.702450
_cell_length_b 9.123228
_cell_length_c 14.627605
_cell_angle_alpha 90.000000
_cell_angle_beta 148.385431
_cell_angle_gamma 90.000000
_cell_volume 1798.023375
_symmetry_space_group_name_H-M "P 21/M"
_symmetry_group_IT_number 11
_symmetry_cell_setting 'monoclinic'
loop_
_space_group_symop_operation_xyz
x,y,z
-x,1/2+y,-z
-x,-y,-z
x,1/2-y,z
loop_
_atom_site_type_symbol
_atom_site_label
_atom_site_fract_x
_atom_site_fract_y
_atom_site_fract_z
Si Si1 0.162650 0.922187 0.895951
Si Si2 0.387246 0.418285 0.745504
Si Si3 0.214876 0.080916 0.353069
Si Si4 0.931378 0.419442 0.739376
Si Si5 0.064855 0.419581 0.435974
Si Si6 0.161135 0.081959 0.074641
Si Si7 0.765562 0.577611 0.170583
Si Si8 0.615711 0.079400 0.075566
O O1 0.181315 0.750000 0.915791
O O2 0.047515 0.964784 0.708044
O O3 0.228191 0.004913 0.919280
O O4 0.197873 0.977156 0.048215
O O5 0.374102 0.250000 0.757036
O O6 0.319274 0.456907 0.556915
O O7 0.353274 0.519604 0.778602
O O8 0.499695 0.450067 0.884474
O O9 0.185552 0.250000 0.323096
O O10 0.225497 0.045726 0.261155
O O11 0.126465 0.985953 0.261955
O O12 0.905958 0.250000 0.694677
O O13 0.894337 0.492073 0.589754
O O14 0.047002 0.450451 0.928259
O O15 0.071559 0.250000 0.419543
O O16 0.133041 0.458868 0.624064
O O17 0.174612 0.250000 0.063350
O O18 0.748594 0.750000 0.134821
O O19 0.672245 0.508585 0.082101
O O20 0.643286 0.250000 0.111532
#
# Coordination Sequence:
#
# PCOD8070025 Si02
#       8
#     4   4   4   4   4   4   4   4
#     4  10  20  34  51  71  97 129 164 202 241 280
#     4   9  19  35  53  74 100 129 160 196 241 290
#     4  10  19  32  51  71  95 130 167 200 238 287
#     4  10  19  29  45  72 103 131 161 199 239 282
#     4   9  19  33  48  69  99 133 164 195 235 285
#     4   9  19  34  49  68  97 132 166 200 240 283
#     4  11  21  33  51  73  98 129 164 199 238 288
#     4  10  20  34  52  75 102 128 157 197 243 290
#
# _framework density 17.797322000000001
#
# number of rings (size 3 to 8) (size 9 to 14) (size 15 to 20)
#    0.000    2.250    0.000    3.000    0.000    6.500 
#    0.000    0.000    0.000    0.750    0.000    0.000 
#    0.000    0.000    0.000    0.000    0.000    0.000 
#
# Total GULP energy -396929.166989 kJ/mol
# GULP energy per Si atom -12404.036468 kJ/mol
# Density = 1.775681 g / cm^3
# Si number density = 17.797322 Si / 1000 Ang^3
#
#
#
# Elastic Constant Matrix: (Units=GPa)
#
#
# Indices 1 2 3 4 5 6 
#
# 1 125.6886 64.1710 51.9629 0.0000 -13.4591 0.0000
# 2 64.1710 87.0962 41.0595 0.0000 -9.0681 0.0000
# 3 51.9629 41.0595 84.7061 0.0000 -18.0924 0.0000
# 4 0.0000 0.0000 0.0000 20.2518 0.0000 -1.2146
# 5 -13.4591 -9.0681 -18.0924 0.0000 22.2221 0.0000
# 6 0.0000 0.0000 0.0000 -1.2146 0.0000 36.8822
#
#
#
# Elastic Compliance Matrix: (Units=1/GPa)
#
#
# Indices 1 2 3 4 5 6 
#
# 1 0.014097 -0.008171 -0.004328 0.000000 0.001680 0.000000
# 2 -0.008171 0.019620 -0.004654 0.000000 -0.000732 0.000000
# 3 -0.004328 -0.004654 0.019067 0.000000 0.011003 0.000000
# 4 0.000000 0.000000 0.000000 0.049476 0.000000 0.001629
# 5 0.001680 -0.000732 0.011003 0.000000 0.054677 0.000000
# 6 0.000000 0.000000 0.000000 0.001629 0.000000 0.027167
#
#
# Mechanical properties :
#
#
# Convention : Reuss Voigt Hill
#
# Bulk Modulus (GPa) = 54.12212 67.98640 61.05426
# Shear Modulus (GPa) = 22.26472 25.22437 23.74454
#
# Velocity S-wave (km/s) = 3.54081 3.76881 3.65658
# Velocity P-wave (km/s) = 6.86969 7.56451 7.22546
#
# Compressibility (1/GPa) = 0.01847674
#
# Stress axis : x y z
#
# Youngs Moduli (GPa) = 70.93483 50.96876 52.44735
#
# Poissons Ratio (x) = 0.41648 0.22701
# Poissons Ratio (y) = 0.57963 0.24409
# Poissons Ratio (z) = 0.30703 0.23720
#
# Static dielectric constant tensor:
#      x y z
#    x 3.192620 0.000000 -0.089850 
#    y 0.000000 3.351980 0.000000 
#    z -0.089850 0.000000 3.267350 
# 
# 
# High freq. dielectric constant tensor:
#      x y z
#    x 1.680250 0.000000 -0.010250 
#    y 0.000000 1.696510 0.000000 
#    z -0.010250 0.000000 1.672320 
# 
# From -- ./inp_files/51705.got.cif
#   From: 2010.06.25/outbox.cif.g09.slc.cpg/sg11_26_cif.got.tgz:51705.got - 2010.06.27 23:14:04.
