data_PCOD8070476
_publ_section_title
;
Structure prediction by ZEFSAII (Michael W. Deem and Ramdas Pophale) SiO2 
 PCOD8070476
Probable space group: P 21/M
;
_chemical_formula_sum "Si O2"
_cell_formula_units_Z 24
_cell_length_a 26.224728
_cell_length_b 7.697719
_cell_length_c 5.190325
_cell_angle_alpha 90.000000
_cell_angle_beta 99.873445
_cell_angle_gamma 90.000000
_cell_volume 1032.255275
_symmetry_space_group_name_H-M "P 21/M"
_symmetry_group_IT_number 11
_symmetry_cell_setting 'monoclinic'
loop_
_space_group_symop_operation_xyz
x,y,z
-x,1/2+y,-z
-x,-y,-z
x,1/2-y,z
loop_
_atom_site_type_symbol
_atom_site_label
_atom_site_fract_x
_atom_site_fract_y
_atom_site_fract_z
Si Si1 0.059684 0.045941 0.549760
Si Si2 0.512830 0.750000 0.004136
Si Si3 0.599276 0.558242 0.320140
Si Si4 0.234017 0.042641 0.223380
Si Si5 0.882999 0.542522 0.900643
Si Si6 0.553306 0.250000 0.554575
Si Si7 0.291391 0.455133 0.774915
O O1 0.067403 0.250000 0.556892
O O2 0.087745 0.966565 0.824414
O O3 0.086962 0.966813 0.320938
O O4 0.000000 0.000000 0.500000
O O5 0.548909 0.578387 0.088459
O O6 0.465933 0.750000 0.169563
O O7 0.494141 0.750000 0.693048
O O8 0.611628 0.750000 0.455201
O O9 0.587445 0.422245 0.536330
O O10 0.648289 0.491765 0.197804
O O11 0.234508 0.250000 0.221721
O O12 0.259432 0.969145 0.505902
O O13 0.175606 0.972574 0.151286
O O14 0.267690 0.966224 0.015777
O O15 0.883706 0.750000 0.900919
O O16 0.285080 0.250000 0.776842
#
# Coordination Sequence:
#
# PCOD8070476 Si02
#       7
#     4   2   4   4   4   2   4
#     4  10  19  31  48  72 102 133 170 209 252 301
#     4  10  24  38  60  80 118 142 190 226 275 330
#     4   9  22  38  58  85 112 145 186 232 273 336
#     4   9  16  27  49  72 103 129 165 213 263 306
#     4   9  17  29  46  74 101 130 169 213 252 303
#     4  12  22  42  56  84 110 156 180 228 279 330
#     4   9  17  30  45  76 101 130 165 211 261 310
#
# _framework density 23.250062
#
# number of rings (size 3 to 8) (size 9 to 14) (size 15 to 20)
#    0.500    2.000    0.000    2.500    0.000    6.667 
#    0.000    0.000    0.000    0.000   13.000    0.000 
#    0.000    0.000    0.000    0.000    0.000    0.000 
#
# Total GULP energy -297529.533907 kJ/mol
# GULP energy per Si atom -12397.063913 kJ/mol
# Density = 2.319714 g / cm^3
# Si number density = 23.250062 Si / 1000 Ang^3
#
#
#
# Elastic Constant Matrix: (Units=GPa)
#
#
# Indices 1 2 3 4 5 6 
#
# 1 170.6052 4.7240 52.4614 0.0000 -32.3519 0.0000
# 2 4.7240 39.0905 -1.5824 0.0000 -4.4147 0.0000
# 3 52.4614 -1.5824 142.0554 0.0000 -19.5826 0.0000
# 4 0.0000 0.0000 0.0000 4.2114 0.0000 -1.9746
# 5 -32.3519 -4.4147 -19.5826 0.0000 33.3225 0.0000
# 6 0.0000 0.0000 0.0000 -1.9746 0.0000 18.0473
#
#
#
# Elastic Compliance Matrix: (Units=1/GPa)
#
#
# Indices 1 2 3 4 5 6 
#
# 1 0.007659 -0.000301 -0.001972 0.000000 0.006237 0.000000
# 2 -0.000301 0.026073 0.000911 0.000000 0.003697 0.000000
# 3 -0.001972 0.000911 0.008194 0.000000 0.003022 0.000000
# 4 0.000000 0.000000 0.000000 0.250294 0.000000 0.027386
# 5 0.006237 0.003697 0.003022 0.000000 0.038331 0.000000
# 6 0.000000 0.000000 0.000000 0.027386 0.000000 0.058406
#
#
# Mechanical properties :
#
#
# Convention : Reuss Voigt Hill
#
# Bulk Modulus (GPa) = 25.50859 51.43968 38.47413
# Shear Modulus (GPa) = 12.35336 30.85943 21.60639
#
# Velocity S-wave (km/s) = 2.30755 3.64714 3.05176
# Velocity P-wave (km/s) = 4.25382 6.31729 5.38531
#
# Compressibility (1/GPa) = 0.03920249
#
# Stress axis : x y z
#
# Youngs Moduli (GPa) = 130.56593 38.35456 122.03315
#
# Poissons Ratio (x) = 0.01154 0.24065
# Poissons Ratio (y) = 0.03930 -0.11121
# Poissons Ratio (z) = 0.25748 -0.03495
#
# Static dielectric constant tensor:
#      x y z
#    x 4.254490 0.000000 -0.101830 
#    y 0.000000 5.382560 0.000000 
#    z -0.101830 0.000000 4.227170 
# 
# 
# High freq. dielectric constant tensor:
#      x y z
#    x 1.930660 0.000000 -0.007100 
#    y 0.000000 1.877050 0.000000 
#    z -0.007100 0.000000 1.914200 
# 
# From -- ./inp_files/9251.got.cif
#   From: 2010.06.25/outbox.cif.g09.slc.cpg/sg11_5_cif.got.tgz:9251.got - 2010.06.27 23:14:04.
