data_PCOD8070694
_publ_section_title
;
Structure prediction by ZEFSAII (Michael W. Deem and Ramdas Pophale) SiO2 
 PCOD8070694
Probable space group: P 21/M
;
_chemical_formula_sum "Si O2"
_cell_formula_units_Z 24
_cell_length_a 15.085845
_cell_length_b 13.769609
_cell_length_c 6.173747
_cell_angle_alpha 90.000000
_cell_angle_beta 80.281034
_cell_angle_gamma 90.000000
_cell_volume 1264.042758
_symmetry_space_group_name_H-M "P 21/M"
_symmetry_group_IT_number 11
_symmetry_cell_setting 'monoclinic'
loop_
_space_group_symop_operation_xyz
x,y,z
-x,1/2+y,-z
-x,-y,-z
x,1/2-y,z
loop_
_atom_site_type_symbol
_atom_site_label
_atom_site_fract_x
_atom_site_fract_y
_atom_site_fract_z
Si Si1 0.929645 0.991387 0.839510
Si Si2 0.490595 0.638952 0.659747
Si Si3 0.660366 0.142942 0.949255
Si Si4 0.209805 0.550599 0.794595
Si Si5 0.362936 0.989104 0.429618
Si Si6 0.942786 0.364753 0.453130
O O1 0.926979 0.089079 0.695791
O O2 0.834193 0.980264 0.003270
O O3 0.959240 0.900308 0.677291
O O4 0.000000 0.000000 0.000000
O O5 0.504631 0.750000 0.583892
O O6 0.588372 0.590041 0.646439
O O7 0.434910 0.586532 0.494381
O O8 0.439182 0.630433 0.909433
O O9 0.670715 0.250000 0.840687
O O10 0.678165 0.059797 0.767143
O O11 0.733643 0.134611 0.110028
O O12 0.279312 0.487446 0.622667
O O13 0.135717 0.602335 0.676486
O O14 0.944141 0.250000 0.479111
#
# Coordination Sequence:
#
# PCOD8070694 Si02
#       6
#     4   4   4   4   4   4
#     4   9  20  36  53  78 108 135 167 209 256 311
#     4   9  19  34  50  72 101 136 178 216 256 308
#     4  10  19  31  51  77 104 134 171 215 260 307
#     4  10  20  33  52  79 109 134 166 214 264 310
#     4  10  19  32  52  75 103 138 172 215 264 308
#     4  10  20  36  58  79 103 137 173 212 260 312
#
# _framework density 18.986699000000002
#
# number of rings (size 3 to 8) (size 9 to 14) (size 15 to 20)
#    0.000    2.333    0.000    2.500    0.000    6.667 
#    0.000    0.833    0.000   11.000    0.000    0.000 
#    0.000    0.000    0.000    0.000    0.000    0.000 
#
# Total GULP energy -297481.970504 kJ/mol
# GULP energy per Si atom -12395.082104 kJ/mol
# Density = 1.894348 g / cm^3
# Si number density = 18.986699 Si / 1000 Ang^3
#
#
#
# Elastic Constant Matrix: (Units=GPa)
#
#
# Indices 1 2 3 4 5 6 
#
# 1 93.9047 52.9912 52.8446 0.0000 -24.1363 0.0000
# 2 52.9912 82.4270 39.0820 0.0000 -10.0272 0.0000
# 3 52.8446 39.0820 110.4842 0.0000 -15.2492 0.0000
# 4 0.0000 0.0000 0.0000 21.7950 0.0000 1.3321
# 5 -24.1363 -10.0272 -15.2492 0.0000 38.9654 0.0000
# 6 0.0000 0.0000 0.0000 1.3321 0.0000 16.6084
#
#
#
# Elastic Compliance Matrix: (Units=1/GPa)
#
#
# Indices 1 2 3 4 5 6 
#
# 1 0.021878 -0.010351 -0.005603 0.000000 0.008696 0.000000
# 2 -0.010351 0.019599 -0.002295 0.000000 -0.002266 0.000000
# 3 -0.005603 -0.002295 0.012666 0.000000 0.000896 0.000000
# 4 0.000000 0.000000 0.000000 0.046108 0.000000 -0.003698
# 5 0.008696 -0.002266 0.000896 0.000000 0.030818 0.000000
# 6 0.000000 0.000000 0.000000 -0.003698 0.000000 0.060507
#
#
# Mechanical properties :
#
#
# Convention : Reuss Voigt Hill
#
# Bulk Modulus (GPa) = 56.66823 64.07239 60.37031
# Shear Modulus (GPa) = 21.37166 24.93361 23.15264
#
# Velocity S-wave (km/s) = 3.35865 3.62776 3.49580
# Velocity P-wave (km/s) = 6.70461 7.16706 6.93969
#
# Compressibility (1/GPa) = 0.01764657
#
# Stress axis : x y z
#
# Youngs Moduli (GPa) = 45.70785 51.02382 78.95032
#
# Poissons Ratio (x) = 0.52814 0.44233
# Poissons Ratio (y) = 0.47312 0.18117
# Poissons Ratio (z) = 0.25609 0.11708
#
# Static dielectric constant tensor:
#      x y z
#    x 3.707290 0.000000 -0.294110 
#    y 0.000000 3.265590 0.000000 
#    z -0.294110 0.000000 3.773650 
# 
# 
# High freq. dielectric constant tensor:
#      x y z
#    x 1.736340 0.000000 -0.006770 
#    y 0.000000 1.704190 0.000000 
#    z -0.006770 0.000000 1.754590 
# 
# From -- ./inp_files/6295.got.cif
#   From: 2010.06.25/outbox.cif.g09.slc.cpg/sg11_4_cif.got.tgz:6295.got - 2010.06.27 23:14:04.
