data_PCOD8070973
_publ_section_title
;
Structure prediction by ZEFSAII (Michael W. Deem and Ramdas Pophale) SiO2 
 PCOD8070973
Probable space group: P 21/M
;
_chemical_formula_sum "Si O2"
_cell_formula_units_Z 20
_cell_length_a 15.069197
_cell_length_b 8.828350
_cell_length_c 9.495955
_cell_angle_alpha 90.000000
_cell_angle_beta 108.862745
_cell_angle_gamma 90.000000
_cell_volume 1195.460423
_symmetry_space_group_name_H-M "P 21/M"
_symmetry_group_IT_number 11
_symmetry_cell_setting 'monoclinic'
loop_
_space_group_symop_operation_xyz
x,y,z
-x,1/2+y,-z
-x,-y,-z
x,1/2-y,z
loop_
_atom_site_type_symbol
_atom_site_label
_atom_site_fract_x
_atom_site_fract_y
_atom_site_fract_z
Si Si1 0.597565 0.577932 0.020370
Si Si2 0.762753 0.071971 0.974099
Si Si3 0.222537 0.421178 0.744243
Si Si4 0.920390 0.572629 0.553059
Si Si5 0.084653 0.430390 0.131081
O O1 0.579200 0.750000 0.963394
O O2 0.663039 0.570810 0.195671
O O3 0.500000 0.500000 0.000000
O O4 0.655363 0.491165 0.926011
O O5 0.763274 0.250000 0.949367
O O6 0.816127 0.989681 0.875009
O O7 0.815400 0.030082 0.149061
O O8 0.190236 0.250000 0.765133
O O9 0.179734 0.469015 0.571858
O O10 0.937555 0.750000 0.565515
O O11 0.921788 0.509289 0.711912
O O12 0.000000 0.500000 0.500000
O O13 0.080669 0.250000 0.119925
O O14 0.000000 0.500000 0.000000
#
# Coordination Sequence:
#
# PCOD8070973 Si02
#       5
#     4   4   4   4   4
#     4   9  17  31  54  80 106 133 169 215 259 304
#     4  10  19  32  51  76 104 134 171 210 253 305
#     4   8  17  33  51  72 101 132 167 210 256 301
#     4  10  21  35  51  72 100 136 173 211 256 305
#     4  11  22  35  51  73 103 138 175 214 257 306
#
# _framework density 16.729956000000001
#
# number of rings (size 3 to 8) (size 9 to 14) (size 15 to 20)
#    1.200    1.200    0.000    3.600    0.000    5.600 
#    0.000    0.000    0.000    1.200    0.000    0.000 
#    0.000    0.000    0.000    0.000    0.000    0.000 
#
# Total GULP energy -247765.629466 kJ/mol
# GULP energy per Si atom -12388.281473 kJ/mol
# Density = 1.669188 g / cm^3
# Si number density = 16.729956 Si / 1000 Ang^3
#
#
#
# Elastic Constant Matrix: (Units=GPa)
#
#
# Indices 1 2 3 4 5 6 
#
# 1 131.1496 45.9984 60.1972 0.0000 -8.7928 0.0000
# 2 45.9984 88.5276 39.4888 0.0000 -5.6875 0.0000
# 3 60.1972 39.4888 114.5825 0.0000 -9.9195 0.0000
# 4 0.0000 0.0000 0.0000 20.3494 0.0000 -0.8766
# 5 -8.7928 -5.6875 -9.9195 0.0000 24.7003 0.0000
# 6 0.0000 0.0000 0.0000 -0.8766 0.0000 34.2429
#
#
#
# Elastic Compliance Matrix: (Units=1/GPa)
#
#
# Indices 1 2 3 4 5 6 
#
# 1 0.011028 -0.003678 -0.004413 0.000000 0.001307 0.000000
# 2 -0.003678 0.014613 -0.003031 0.000000 0.000838 0.000000
# 3 -0.004413 -0.003031 0.012323 0.000000 0.002680 0.000000
# 4 0.000000 0.000000 0.000000 0.049196 0.000000 0.001259
# 5 0.001307 0.000838 0.002680 0.000000 0.042220 0.000000
# 6 0.000000 0.000000 0.000000 0.001259 0.000000 0.029235
#
#
# Mechanical properties :
#
#
# Convention : Reuss Voigt Hill
#
# Bulk Modulus (GPa) = 63.61718 69.51429 66.56574
# Shear Modulus (GPa) = 26.86757 28.43020 27.64889
#
# Velocity S-wave (km/s) = 4.01179 4.12680 4.06970
# Velocity P-wave (km/s) = 7.71801 8.02174 7.87134
#
# Compressibility (1/GPa) = 0.01571902
#
# Stress axis : x y z
#
# Youngs Moduli (GPa) = 90.67885 68.43312 81.15219
#
# Poissons Ratio (x) = 0.25167 0.35813
# Poissons Ratio (y) = 0.33348 0.24601
# Poissons Ratio (z) = 0.40018 0.20745
#
# Static dielectric constant tensor:
#      x y z
#    x 3.058850 0.000000 0.056830 
#    y 0.000000 3.160680 0.000000 
#    z 0.056830 0.000000 3.412300 
# 
# 
# High freq. dielectric constant tensor:
#      x y z
#    x 1.634210 0.000000 0.005060 
#    y 0.000000 1.654400 0.000000 
#    z 0.005060 0.000000 1.621760 
# 
# From -- ./inp_files/20176.got.cif
#   From: 2010.06.25/outbox.cif.g09.slc.cpg/sg11_11_cif.got.tgz:20176.got - 2010.06.27 23:14:04.
