data_PCOD8070087
_publ_section_title
;
Structure prediction by ZEFSAII (Michael W. Deem and Ramdas Pophale) SiO2 
 PCOD8070087
Probable space group: P 21/M
;
_chemical_formula_sum "Si O2"
_cell_formula_units_Z 28
_cell_length_a 14.383226
_cell_length_b 9.101611
_cell_length_c 17.308033
_cell_angle_alpha 90.000000
_cell_angle_beta 130.036298
_cell_angle_gamma 90.000000
_cell_volume 1734.783337
_symmetry_space_group_name_H-M "P 21/M"
_symmetry_group_IT_number 11
_symmetry_cell_setting 'monoclinic'
loop_
_space_group_symop_operation_xyz
x,y,z
-x,1/2+y,-z
-x,-y,-z
x,1/2-y,z
loop_
_atom_site_type_symbol
_atom_site_label
_atom_site_fract_x
_atom_site_fract_y
_atom_site_fract_z
Si Si1 0.179539 0.084184 0.065793
Si Si2 0.536721 0.586300 0.756695
Si Si3 0.511871 0.580235 0.124900
Si Si4 0.102246 0.577925 0.873872
Si Si5 0.843046 0.922548 0.777244
Si Si6 0.685726 0.579787 0.082125
Si Si7 0.578029 0.923822 0.606673
O O1 0.131570 0.250000 0.023289
O O2 0.323985 0.085837 0.145075
O O3 0.131560 0.019122 0.122040
O O4 0.137743 0.972294 0.978246
O O5 0.482521 0.750000 0.736388
O O6 0.463271 0.479294 0.775461
O O7 0.522975 0.532447 0.660866
O O8 0.474849 0.750000 0.108043
O O9 0.634412 0.556340 0.140826
O O10 0.401322 0.493503 0.027297
O O11 0.127446 0.750000 0.879128
O O12 0.180844 0.492806 0.851384
O O13 0.958728 0.541429 0.784685
O O14 0.823272 0.750000 0.777748
O O15 0.717292 0.984257 0.674427
O O16 0.696061 0.750000 0.065659
O O17 0.573197 0.750000 0.591996
O O18 0.500000 0.000000 0.500000
#
# Coordination Sequence:
#
# PCOD8070087 Si02
#       7
#     4   4   4   4   4   4   4
#     4   9  16  28  43  60  88 125 153 181 223 266
#     4   9  17  29  47  67  93 124 150 183 234 277
#     4  10  19  30  45  65  88 119 161 197 224 264
#     4  11  19  27  42  65  90 122 160 191 216 260
#     4   8  17  31  45  63  91 122 151 184 229 274
#     4  10  20  31  42  60  92 128 156 190 232 265
#     4   9  18  34  52  71  94 120 148 185 232 279
#
# _framework density 16.140343999999999
#
# number of rings (size 3 to 8) (size 9 to 14) (size 15 to 20)
#    0.000    2.571    1.429    3.429    0.000    2.286 
#    0.000    4.286    0.000    0.000    0.000    1.000 
#    0.000    0.000    0.000    0.000    0.000    0.000 
#
# Total GULP energy -347054.201593 kJ/mol
# GULP energy per Si atom -12394.792914 kJ/mol
# Density = 1.610361 g / cm^3
# Si number density = 16.140344 Si / 1000 Ang^3
#
#
#
# Elastic Constant Matrix: (Units=GPa)
#
#
# Indices 1 2 3 4 5 6 
#
# 1 125.5502 59.5228 47.9126 0.0000 -0.6297 0.0000
# 2 59.5228 80.9026 34.3037 0.0000 -4.4718 0.0000
# 3 47.9126 34.3037 70.6284 0.0000 -7.6096 0.0000
# 4 0.0000 0.0000 0.0000 20.3742 0.0000 -2.9699
# 5 -0.6297 -4.4718 -7.6096 0.0000 16.0465 0.0000
# 6 0.0000 0.0000 0.0000 -2.9699 0.0000 26.6132
#
#
#
# Elastic Compliance Matrix: (Units=1/GPa)
#
#
# Indices 1 2 3 4 5 6 
#
# 1 0.014091 -0.008007 -0.006166 0.000000 -0.004603 0.000000
# 2 -0.008007 0.020126 -0.003976 0.000000 0.003409 0.000000
# 3 -0.006166 -0.003976 0.021211 0.000000 0.008709 0.000000
# 4 0.000000 0.000000 0.000000 0.049893 0.000000 0.005568
# 5 -0.004603 0.003409 0.008709 0.000000 0.067218 0.000000
# 6 0.000000 0.000000 0.000000 0.005568 0.000000 0.038197
#
#
# Mechanical properties :
#
#
# Convention : Reuss Voigt Hill
#
# Bulk Modulus (GPa) = 52.27428 62.28439 57.27934
# Shear Modulus (GPa) = 19.73082 21.62957 20.68019
#
# Velocity S-wave (km/s) = 3.50015 3.66470 3.58337
# Velocity P-wave (km/s) = 6.98516 7.52195 7.25852
#
# Compressibility (1/GPa) = 0.01912987
#
# Stress axis : x y z
#
# Youngs Moduli (GPa) = 70.96672 49.68693 47.14613
#
# Poissons Ratio (x) = 0.39786 0.29070
# Poissons Ratio (y) = 0.56825 0.18744
# Poissons Ratio (z) = 0.43757 0.19754
#
# Static dielectric constant tensor:
#      x y z
#    x 3.363350 0.000000 0.020310 
#    y 0.000000 3.137830 0.000000 
#    z 0.020310 0.000000 2.772340 
# 
# 
# High freq. dielectric constant tensor:
#      x y z
#    x 1.628710 0.000000 0.000830 
#    y 0.000000 1.617600 0.000000 
#    z 0.000830 0.000000 1.569850 
# 
# From -- ./inp_files/60142.got.cif
#   From: 2010.06.25/outbox.cif.g09.slc.cpg/sg11_31_cif.got.tgz:60142.got - 2010.06.27 23:14:04.
