data_PCOD8070094
_publ_section_title
;
Structure prediction by ZEFSAII (Michael W. Deem and Ramdas Pophale) SiO2 
 PCOD8070094
Probable space group: P 21/M
;
_chemical_formula_sum "Si O2"
_cell_formula_units_Z 32
_cell_length_a 27.732727
_cell_length_b 9.292958
_cell_length_c 15.623854
_cell_angle_alpha 90.000000
_cell_angle_beta 152.049468
_cell_angle_gamma 90.000000
_cell_volume 1887.287570
_symmetry_space_group_name_H-M "P 21/M"
_symmetry_group_IT_number 11
_symmetry_cell_setting 'monoclinic'
loop_
_space_group_symop_operation_xyz
x,y,z
-x,1/2+y,-z
-x,-y,-z
x,1/2-y,z
loop_
_atom_site_type_symbol
_atom_site_label
_atom_site_fract_x
_atom_site_fract_y
_atom_site_fract_z
Si Si1 0.355648 0.082076 0.931502
Si Si2 0.082637 0.081245 0.942407
Si Si3 0.039170 0.080809 0.687345
Si Si4 0.418830 0.917671 0.680863
Si Si5 0.144252 0.081586 0.679122
Si Si6 0.323429 0.587568 0.710536
Si Si7 0.876311 0.083799 0.702958
Si Si8 0.763792 0.580182 0.674737
O O1 0.350986 0.250000 0.906060
O O2 0.260763 0.031968 0.841993
O O3 0.353708 0.011691 0.836049
O O4 0.461596 0.043448 0.146892
O O5 0.064528 0.250000 0.910167
O O6 0.086632 0.023049 0.851225
O O7 0.984613 0.019080 0.840404
O O8 0.188419 0.043713 0.157062
O O9 0.016600 0.250000 0.654094
O O10 0.120312 0.041419 0.740046
O O11 0.931046 0.002796 0.502279
O O12 0.394711 0.750000 0.626790
O O13 0.389761 0.959821 0.732230
O O14 0.349452 0.009945 0.506695
O O15 0.128423 0.250000 0.637399
O O16 0.350312 0.750000 0.778817
O O17 0.202936 0.571082 0.500164
O O18 0.883110 0.250000 0.744557
O O19 0.839949 0.986195 0.724209
O O20 0.755327 0.750000 0.645907
#
# Coordination Sequence:
#
# PCOD8070094 Si02
#       8
#     4   4   4   4   4   4   4   4
#     4  10  19  30  46  67  90 116 148 186 223 260
#     4   9  17  29  47  68  89 118 153 182 214 263
#     4   9  17  32  51  68  92 122 144 171 218 270
#     4   9  19  34  46  59  87 124 154 181 220 265
#     4   9  18  31  48  72  95 114 143 181 219 262
#     4   9  17  28  44  66  90 119 151 178 212 264
#     4   9  17  30  45  64  93 123 148 175 216 269
#     4  10  19  30  45  66  89 115 153 193 220 249
#
# _framework density 16.955551
#
# number of rings (size 3 to 8) (size 9 to 14) (size 15 to 20)
#    0.000    2.750    0.000    2.625    0.000    4.000 
#    0.000    2.500    0.000    0.750    0.000    0.000 
#    0.000    0.000    0.000    0.000    0.000    0.125 
#
# Total GULP energy -396734.543476 kJ/mol
# GULP energy per Si atom -12397.954484 kJ/mol
# Density = 1.691696 g / cm^3
# Si number density = 16.955551 Si / 1000 Ang^3
#
#
#
# Elastic Constant Matrix: (Units=GPa)
#
#
# Indices 1 2 3 4 5 6 
#
# 1 83.6841 33.9249 76.8787 0.0000 1.1430 0.0000
# 2 33.9249 46.6776 48.8185 0.0000 -1.9728 0.0000
# 3 76.8787 48.8185 138.1181 0.0000 2.4939 0.0000
# 4 0.0000 0.0000 0.0000 26.6122 0.0000 -0.1370
# 5 1.1430 -1.9728 2.4939 0.0000 29.9344 0.0000
# 6 0.0000 0.0000 0.0000 -0.1370 0.0000 15.8344
#
#
#
# Elastic Compliance Matrix: (Units=1/GPa)
#
#
# Indices 1 2 3 4 5 6 
#
# 1 0.025421 -0.005868 -0.012070 0.000000 -0.000352 0.000000
# 2 -0.005868 0.035660 -0.009399 0.000000 0.003357 0.000000
# 3 -0.012070 -0.009399 0.017309 0.000000 -0.001601 0.000000
# 4 0.000000 0.000000 0.000000 0.037578 0.000000 0.000325
# 5 -0.000352 0.003357 -0.001601 0.000000 0.033774 0.000000
# 6 0.000000 0.000000 0.000000 0.000325 0.000000 0.063156
#
#
# Mechanical properties :
#
#
# Convention : Reuss Voigt Hill
#
# Bulk Modulus (GPa) = 42.16140 65.30266 53.73203
# Shear Modulus (GPa) = 18.15031 21.73340 19.94185
#
# Velocity S-wave (km/s) = 3.27534 3.58409 3.43319
# Velocity P-wave (km/s) = 6.26288 7.46493 6.89017
#
# Compressibility (1/GPa) = 0.02371838
#
# Stress axis : x y z
#
# Youngs Moduli (GPa) = 39.33720 28.04279 57.77278
#
# Poissons Ratio (x) = 0.16455 0.69729
# Poissons Ratio (y) = 0.23082 0.54299
# Poissons Ratio (z) = 0.47478 0.26357
#
# Static dielectric constant tensor:
#      x y z
#    x 3.169080 0.000000 0.081550 
#    y 0.000000 3.058000 0.000000 
#    z 0.081550 0.000000 3.344220 
# 
# 
# High freq. dielectric constant tensor:
#      x y z
#    x 1.633340 0.000000 0.005040 
#    y 0.000000 1.641960 0.000000 
#    z 0.005040 0.000000 1.655480 
# 
# From -- ./inp_files/51668.got.cif
#   From: 2010.06.25/outbox.cif.g09.slc.cpg/sg11_26_cif.got.tgz:51668.got - 2010.06.27 23:14:04.
