data_PCOD8070347
_publ_section_title
;
Structure prediction by ZEFSAII (Michael W. Deem and Ramdas Pophale) SiO2 
 PCOD8070347
Probable space group: P 21/M
;
_chemical_formula_sum "Si O2"
_cell_formula_units_Z 28
_cell_length_a 11.252061
_cell_length_b 9.340632
_cell_length_c 14.806967
_cell_angle_alpha 90.000000
_cell_angle_beta 103.127995
_cell_angle_gamma 90.000000
_cell_volume 1515.560419
_symmetry_space_group_name_H-M "P 21/M"
_symmetry_group_IT_number 11
_symmetry_cell_setting 'monoclinic'
loop_
_space_group_symop_operation_xyz
x,y,z
-x,1/2+y,-z
-x,-y,-z
x,1/2-y,z
loop_
_atom_site_type_symbol
_atom_site_label
_atom_site_fract_x
_atom_site_fract_y
_atom_site_fract_z
Si Si1 0.550595 0.918965 0.670384
Si Si2 0.055816 0.079817 0.231463
Si Si3 0.373721 0.417879 0.976294
Si Si4 0.187825 0.416758 0.789502
Si Si5 0.232168 0.081802 0.414200
Si Si6 0.701177 0.918153 0.379673
Si Si7 0.729412 0.581437 0.855104
O O1 0.524758 0.750000 0.662346
O O2 0.638995 0.971750 0.604548
O O3 0.613869 0.966708 0.775081
O O4 0.425128 0.000599 0.640257
O O5 0.036701 0.250000 0.227096
O O6 0.116825 0.024900 0.336436
O O7 0.143126 0.024957 0.164812
O O8 0.926663 0.005606 0.195609
O O9 0.401792 0.250000 0.989939
O O10 0.302994 0.454404 0.872255
O O11 0.500000 0.500000 0.000000
O O12 0.290404 0.471581 0.045966
O O13 0.155275 0.250000 0.790238
O O14 0.219964 0.463802 0.693240
O O15 0.231834 0.250000 0.400507
O O16 0.222045 0.037699 0.517535
O O17 0.672548 0.750000 0.373261
O O18 0.737908 0.750000 0.851205
#
# Coordination Sequence:
#
# PCOD8070347 Si02
#       7
#     4   4   4   4   4   4   4
#     4   9  16  29  50  74  95 118 159 205 237 274
#     4   9  18  35  55  71  89 123 170 203 229 276
#     4  10  20  35  53  74 101 128 155 190 236 287
#     4  10  22  35  47  70 103 130 153 193 243 283
#     4   8  16  31  50  70  94 125 159 198 239 279
#     4  10  19  31  46  67 100 134 156 186 242 293
#     4   8  16  32  53  72  94 126 159 198 241 275
#
# _framework density 18.475013000000001
#
# number of rings (size 3 to 8) (size 9 to 14) (size 15 to 20)
#    0.000    2.857    0.000    3.000    0.000    2.286 
#    0.000    4.286    0.000    0.000    0.000    0.000 
#    0.000    0.000    0.000    0.000    0.000    0.000 
#
# Total GULP energy -347081.744493 kJ/mol
# GULP energy per Si atom -12395.776589 kJ/mol
# Density = 1.843296 g / cm^3
# Si number density = 18.475013 Si / 1000 Ang^3
#
#
#
# Elastic Constant Matrix: (Units=GPa)
#
#
# Indices 1 2 3 4 5 6 
#
# 1 120.2628 41.0485 58.0749 0.0000 2.4007 0.0000
# 2 41.0485 32.5030 31.4247 0.0000 2.9221 0.0000
# 3 58.0749 31.4247 115.5303 0.0000 -19.3131 0.0000
# 4 0.0000 0.0000 0.0000 14.6208 0.0000 4.3984
# 5 2.4007 2.9221 -19.3131 0.0000 27.2066 0.0000
# 6 0.0000 0.0000 0.0000 4.3984 0.0000 34.1493
#
#
#
# Elastic Compliance Matrix: (Units=1/GPa)
#
#
# Indices 1 2 3 4 5 6 
#
# 1 0.015655 -0.015622 -0.004052 0.000000 -0.002580 0.000000
# 2 -0.015622 0.062830 -0.011499 0.000000 -0.013533 0.000000
# 3 -0.004052 -0.011499 0.015983 0.000000 0.012939 0.000000
# 4 0.000000 0.000000 0.000000 0.071153 0.000000 -0.009164
# 5 -0.002580 -0.013533 0.012939 0.000000 0.047622 0.000000
# 6 0.000000 0.000000 0.000000 -0.009164 0.000000 0.030464
#
#
# Mechanical properties :
#
#
# Convention : Reuss Voigt Hill
#
# Bulk Modulus (GPa) = 31.13076 58.82134 44.97605
# Shear Modulus (GPa) = 15.78478 24.37853 20.08165
#
# Velocity S-wave (km/s) = 2.92616 3.63649 3.30049
# Velocity P-wave (km/s) = 5.32009 7.03843 6.23870
#
# Compressibility (1/GPa) = 0.03212257
#
# Stress axis : x y z
#
# Youngs Moduli (GPa) = 63.87585 15.91585 62.56583
#
# Poissons Ratio (x) = 0.24864 0.25349
# Poissons Ratio (y) = 0.99789 0.71947
# Poissons Ratio (z) = 0.25880 0.18302
#
# Static dielectric constant tensor:
#      x y z
#    x 3.371940 0.000000 -0.305250 
#    y 0.000000 4.104000 0.000000 
#    z -0.305250 0.000000 4.069370 
# 
# 
# High freq. dielectric constant tensor:
#      x y z
#    x 1.714570 0.000000 -0.005870 
#    y 0.000000 1.680120 0.000000 
#    z -0.005870 0.000000 1.730010 
# 
# From -- ./inp_files/21165.got.cif
#   From: 2010.06.25/outbox.cif.g09.slc.cpg/sg11_11_cif.got.tgz:21165.got - 2010.06.27 23:14:04.
