data_PCOD8070748
_publ_section_title
;
Structure prediction by ZEFSAII (Michael W. Deem and Ramdas Pophale) SiO2 
 PCOD8070748
Probable space group: P 21/M
;
_chemical_formula_sum "Si O2"
_cell_formula_units_Z 28
_cell_length_a 17.437975
_cell_length_b 8.977850
_cell_length_c 15.720042
_cell_angle_alpha 90.000000
_cell_angle_beta 36.566992
_cell_angle_gamma 90.000000
_cell_volume 1466.206351
_symmetry_space_group_name_H-M "P 21/M"
_symmetry_group_IT_number 11
_symmetry_cell_setting 'monoclinic'
loop_
_space_group_symop_operation_xyz
x,y,z
-x,1/2+y,-z
-x,-y,-z
x,1/2-y,z
loop_
_atom_site_type_symbol
_atom_site_label
_atom_site_fract_x
_atom_site_fract_y
_atom_site_fract_z
Si Si1 0.518082 0.418835 0.122864
Si Si2 0.662710 0.925562 0.134162
Si Si3 0.059842 0.073516 0.179760
Si Si4 0.044162 0.412690 0.379423
Si Si5 0.625141 0.073613 0.346975
Si Si6 0.658903 0.587961 0.858642
Si Si7 0.092068 0.574528 0.848615
O O1 0.542374 0.250000 0.132813
O O2 0.547106 0.532907 0.173134
O O3 0.374028 0.442204 0.212600
O O4 0.608625 0.454200 0.961464
O O5 0.661658 0.750000 0.154184
O O6 0.636881 0.016461 0.241601
O O7 0.798170 0.981527 0.974413
O O8 0.066830 0.250000 0.182592
O O9 0.019264 0.008824 0.309031
O O10 0.955211 0.023308 0.202878
O O11 0.977571 0.250000 0.439876
O O12 0.193391 0.395669 0.258216
O O13 0.000000 0.500000 0.500000
O O14 0.606211 0.250000 0.365466
O O15 0.758177 0.027543 0.276268
O O16 0.500000 0.000000 0.500000
O O17 0.596219 0.750000 0.938868
O O18 0.074991 0.750000 0.875951
O O19 0.000000 0.500000 0.000000
#
# Coordination Sequence:
#
# PCOD8070748 Si02
#       7
#     4   4   4   4   4   4   4
#     4  10  19  31  53  83 112 139 183 237 279 333
#     4  11  20  36  62  85 112 152 194 238 298 359
#     4   9  18  35  60  84 112 149 191 238 293 354
#     4  10  20  37  56  77 110 151 193 237 288 346
#     4  11  24  41  61  88 124 159 197 245 300 362
#     4   9  18  34  53  75 109 148 183 225 284 342
#     4  10  20  37  63  93 120 152 198 247 297 360
#
# _framework density 19.096903999999999
#
# number of rings (size 3 to 8) (size 9 to 14) (size 15 to 20)
#    0.000    2.000    2.857    1.286    0.000    1.714 
#    2.571    0.714    0.000    0.000    0.000    0.000 
#    0.000    0.000    0.000    0.000    0.000    0.000 
#
# Total GULP energy -346935.481180 kJ/mol
# GULP energy per Si atom -12390.552899 kJ/mol
# Density = 1.905344 g / cm^3
# Si number density = 19.096904 Si / 1000 Ang^3
#
#
#
# Elastic Constant Matrix: (Units=GPa)
#
#
# Indices 1 2 3 4 5 6 
#
# 1 165.1305 34.6323 59.2061 0.0000 19.5428 0.0000
# 2 34.6323 54.1727 32.1821 0.0000 2.3268 0.0000
# 3 59.2061 32.1821 100.4914 0.0000 25.7558 0.0000
# 4 0.0000 0.0000 0.0000 27.7628 0.0000 4.7054
# 5 19.5428 2.3268 25.7558 0.0000 29.4680 0.0000
# 6 0.0000 0.0000 0.0000 4.7054 0.0000 27.1786
#
#
#
# Elastic Compliance Matrix: (Units=1/GPa)
#
#
# Indices 1 2 3 4 5 6 
#
# 1 0.008147 -0.003234 -0.003151 0.000000 -0.002394 0.000000
# 2 -0.003234 0.024906 -0.007882 0.000000 0.007067 0.000000
# 3 -0.003151 -0.007882 0.017573 0.000000 -0.012648 0.000000
# 4 0.000000 0.000000 0.000000 0.037108 0.000000 -0.006425
# 5 -0.002394 0.007067 -0.012648 0.000000 0.046019 0.000000
# 6 0.000000 0.000000 0.000000 -0.006425 0.000000 0.037906
#
#
# Mechanical properties :
#
#
# Convention : Reuss Voigt Hill
#
# Bulk Modulus (GPa) = 45.26393 63.53728 54.40061
# Shear Modulus (GPa) = 24.08982 29.80016 26.94499
#
# Velocity S-wave (km/s) = 3.55555 3.95457 3.76035
# Velocity P-wave (km/s) = 6.37256 7.36170 6.88492
#
# Compressibility (1/GPa) = 0.02209265
#
# Stress axis : x y z
#
# Youngs Moduli (GPa) = 122.74443 40.15139 56.90469
#
# Poissons Ratio (x) = 0.12984 0.17930
# Poissons Ratio (y) = 0.39692 0.44853
# Poissons Ratio (z) = 0.38675 0.31648
#
# Static dielectric constant tensor:
#      x y z
#    x 4.007160 0.000000 0.056320 
#    y 0.000000 3.516820 0.000000 
#    z 0.056320 0.000000 3.280160 
# 
# 
# High freq. dielectric constant tensor:
#      x y z
#    x 1.767680 0.000000 0.006290 
#    y 0.000000 1.732270 0.000000 
#    z 0.006290 0.000000 1.711960 
# 
# From -- ./inp_files/53202.got.cif
#   From: 2010.06.25/outbox.cif.g09.slc.cpg/sg11_27_cif.got.tgz:53202.got - 2010.06.27 23:14:04.
