data_PCOD8070821
_publ_section_title
;
Structure prediction by ZEFSAII (Michael W. Deem and Ramdas Pophale) SiO2 
 PCOD8070821
Probable space group: P 21/M
;
_chemical_formula_sum "Si O2"
_cell_formula_units_Z 32
_cell_length_a 29.420327
_cell_length_b 9.196491
_cell_length_c 23.532197
_cell_angle_alpha 90.000000
_cell_angle_beta 163.476826
_cell_angle_gamma 90.000000
_cell_volume 1810.783340
_symmetry_space_group_name_H-M "P 21/M"
_symmetry_group_IT_number 11
_symmetry_cell_setting 'monoclinic'
loop_
_space_group_symop_operation_xyz
x,y,z
-x,1/2+y,-z
-x,-y,-z
x,1/2-y,z
loop_
_atom_site_type_symbol
_atom_site_label
_atom_site_fract_x
_atom_site_fract_y
_atom_site_fract_z
Si Si1 0.421525 0.419982 0.079235
Si Si2 0.326542 0.082648 0.093234
Si Si3 0.636418 0.079353 0.521205
Si Si4 0.255776 0.419207 0.553895
Si Si5 0.892283 0.422402 0.324745
Si Si6 0.975149 0.082242 0.297116
Si Si7 0.871854 0.918282 0.719384
Si Si8 0.116335 0.917831 0.098194
O O1 0.406898 0.250000 0.046436
O O2 0.408761 0.448120 0.131014
O O3 0.589304 0.480290 0.257808
O O4 0.283690 0.509080 0.881743
O O5 0.282612 0.250000 0.047837
O O6 0.452767 0.027966 0.292662
O O7 0.161831 0.997746 0.902951
O O8 0.641794 0.250000 0.514870
O O9 0.701423 0.041256 0.663487
O O10 0.746090 0.007553 0.605108
O O11 0.307242 0.250000 0.614604
O O12 0.145975 0.458883 0.367854
O O13 0.149487 0.457181 0.481678
O O14 0.883819 0.250000 0.325393
O O15 0.970267 0.460823 0.357323
O O16 0.000000 0.500000 0.500000
O O17 0.937496 0.250000 0.243165
O O18 0.831631 0.750000 0.681210
O O19 0.056462 0.952485 0.961894
O O20 0.091652 0.750000 0.081842
O O21 0.000000 0.000000 0.000000
#
# Coordination Sequence:
#
# PCOD8070821 Si02
#       8
#     4   4   4   4   4   4   4   4
#     4  10  19  32  52  78 103 129 164 200 238 283
#     4   9  17  29  46  69  95 125 163 205 245 286
#     4   9  15  25  41  63  92 122 158 204 248 287
#     4  10  19  32  49  72 102 131 162 201 243 287
#     4  10  20  37  59  80 102 129 161 196 236 281
#     4   9  20  35  51  72  99 130 161 196 239 287
#     4   9  16  25  41  65  92 124 160 197 242 290
#     4   8  14  23  36  58  88 121 156 197 243 288
#
# _framework density 17.671911000000001
#
# number of rings (size 3 to 8) (size 9 to 14) (size 15 to 20)
#    0.000    2.750    1.250    0.750    0.000    2.000 
#    0.000    0.625    0.000    0.750    0.000    0.000 
#    0.000    0.000    0.000    0.000    0.000    0.000 
#
# Total GULP energy -396478.768018 kJ/mol
# GULP energy per Si atom -12389.961501 kJ/mol
# Density = 1.763169 g / cm^3
# Si number density = 17.671911 Si / 1000 Ang^3
#
#
#
# Elastic Constant Matrix: (Units=GPa)
#
#
# Indices 1 2 3 4 5 6 
#
# 1 53.8952 26.9642 47.4127 0.0000 0.7117 0.0000
# 2 26.9642 58.0506 53.8612 0.0000 -1.7362 0.0000
# 3 47.4127 53.8612 147.7016 0.0000 -15.7979 0.0000
# 4 0.0000 0.0000 0.0000 31.0061 0.0000 2.0020
# 5 0.7117 -1.7362 -15.7979 0.0000 25.5877 0.0000
# 6 0.0000 0.0000 0.0000 2.0020 0.0000 16.9829
#
#
#
# Elastic Compliance Matrix: (Units=1/GPa)
#
#
# Indices 1 2 3 4 5 6 
#
# 1 0.028353 -0.006538 -0.007333 0.000000 -0.005760 0.000000
# 2 -0.006538 0.028011 -0.008451 0.000000 -0.003135 0.000000
# 3 -0.007333 -0.008451 0.013027 0.000000 0.007673 0.000000
# 4 0.000000 0.000000 0.000000 0.032499 0.000000 -0.003831
# 5 -0.005760 -0.003135 0.007673 0.000000 0.043766 0.000000
# 6 0.000000 0.000000 0.000000 -0.003831 0.000000 0.059334
#
#
# Mechanical properties :
#
#
# Convention : Reuss Voigt Hill
#
# Bulk Modulus (GPa) = 40.41095 57.34706 48.87901
# Shear Modulus (GPa) = 19.38864 23.47597 21.43231
#
# Velocity S-wave (km/s) = 3.31591 3.64872 3.48629
# Velocity P-wave (km/s) = 6.13004 7.09030 6.62758
#
# Compressibility (1/GPa) = 0.02474577
#
# Stress axis : x y z
#
# Youngs Moduli (GPa) = 35.26997 35.70084 76.76432
#
# Poissons Ratio (x) = 0.23341 0.56293
# Poissons Ratio (y) = 0.23059 0.64874
# Poissons Ratio (z) = 0.25864 0.30171
#
# Static dielectric constant tensor:
#      x y z
#    x 3.045470 0.000000 -0.293690 
#    y 0.000000 3.234680 0.000000 
#    z -0.293690 0.000000 3.635670 
# 
# 
# High freq. dielectric constant tensor:
#      x y z
#    x 1.640200 0.000000 -0.016860 
#    y 0.000000 1.685850 0.000000 
#    z -0.016860 0.000000 1.695930 
# 
# From -- ./inp_files/67242.got.cif
#   From: 2010.06.25/outbox.cif.g09.slc.cpg/sg11_34_cif.got.tgz:67242.got - 2010.06.27 23:14:04.
