data_PCOD8070623
_publ_section_title
;
Structure prediction by ZEFSAII (Michael W. Deem and Ramdas Pophale) SiO2 
 PCOD8070623
Probable space group: P 21/M
;
_chemical_formula_sum "Si O2"
_cell_formula_units_Z 24
_cell_length_a 9.669345
_cell_length_b 18.421266
_cell_length_c 10.763670
_cell_angle_alpha 90.000000
_cell_angle_beta 42.844135
_cell_angle_gamma 90.000000
_cell_volume 1303.736540
_symmetry_space_group_name_H-M "P 21/M"
_symmetry_group_IT_number 11
_symmetry_cell_setting 'monoclinic'
loop_
_space_group_symop_operation_xyz
x,y,z
-x,1/2+y,-z
-x,-y,-z
x,1/2-y,z
loop_
_atom_site_type_symbol
_atom_site_label
_atom_site_fract_x
_atom_site_fract_y
_atom_site_fract_z
Si Si1 0.176836 0.666722 0.873262
Si Si2 0.238215 0.558167 0.399764
Si Si3 0.639895 0.474700 0.154713
Si Si4 0.603612 0.331802 0.520706
Si Si5 0.920465 0.028407 0.750340
Si Si6 0.194774 0.407969 0.773566
O O1 0.211610 0.750000 0.896163
O O2 0.326655 0.611850 0.849263
O O3 0.221199 0.660869 0.697529
O O4 0.943369 0.642651 0.046803
O O5 0.401490 0.492528 0.304835
O O6 0.332779 0.631043 0.392629
O O7 0.037437 0.538833 0.610581
O O8 0.182334 0.574231 0.293621
O O9 0.752586 0.515961 0.193857
O O10 0.744662 0.500809 0.957429
O O11 0.555500 0.250000 0.587537
O O12 0.399925 0.367535 0.600502
O O13 0.077295 0.078142 0.722866
#
# Coordination Sequence:
#
# PCOD8070623 Si02
#       6
#     4   4   4   4   4   4
#     4  10  19  31  50  75 100 126 162 208 250 288
#     4  10  20  33  51  74 102 132 165 201 243 296
#     4  10  19  33  53  75  98 129 168 206 244 288
#     4  10  20  34  51  73 101 132 164 202 248 294
#     4  10  19  32  52  76  99 127 164 207 247 287
#     4  10  19  33  54  77  98 127 169 209 243 287
#
# _framework density 18.408628
#
# number of rings (size 3 to 8) (size 9 to 14) (size 15 to 20)
#    0.000    2.000    0.000    6.000    0.000    2.667 
#    0.000    4.167    0.000    4.000    0.000    4.667 
#    0.000    0.000    0.000    0.000    0.000    0.000 
#
# Total GULP energy -297586.393964 kJ/mol
# GULP energy per Si atom -12399.433082 kJ/mol
# Density = 1.836673 g / cm^3
# Si number density = 18.408628 Si / 1000 Ang^3
#
#
#
# Elastic Constant Matrix: (Units=GPa)
#
#
# Indices 1 2 3 4 5 6 
#
# 1 109.3855 35.0802 27.4990 0.0000 19.8811 0.0000
# 2 35.0802 101.3750 26.4321 0.0000 9.6450 0.0000
# 3 27.4990 26.4321 74.5329 0.0000 3.1576 0.0000
# 4 0.0000 0.0000 0.0000 24.1497 0.0000 0.4480
# 5 19.8811 9.6450 3.1576 0.0000 21.5109 0.0000
# 6 0.0000 0.0000 0.0000 0.4480 0.0000 11.2908
#
#
#
# Elastic Compliance Matrix: (Units=1/GPa)
#
#
# Indices 1 2 3 4 5 6 
#
# 1 0.012618 -0.002544 -0.003328 0.000000 -0.010033 0.000000
# 2 -0.002544 0.011799 -0.003141 0.000000 -0.002478 0.000000
# 3 -0.003328 -0.003141 0.015666 0.000000 0.002185 0.000000
# 4 0.000000 0.000000 0.000000 0.041439 0.000000 -0.001644
# 5 -0.010033 -0.002478 0.002185 0.000000 0.056551 0.000000
# 6 0.000000 0.000000 0.000000 -0.001644 0.000000 0.088633
#
#
# Mechanical properties :
#
#
# Convention : Reuss Voigt Hill
#
# Bulk Modulus (GPa) = 45.33635 51.47958 48.40796
# Shear Modulus (GPa) = 19.83454 24.47574 22.15514
#
# Velocity S-wave (km/s) = 3.28603 3.65030 3.47294
# Velocity P-wave (km/s) = 6.25128 6.76697 6.51423
#
# Compressibility (1/GPa) = 0.02205736
#
# Stress axis : x y z
#
# Youngs Moduli (GPa) = 79.25159 84.74962 63.83187
#
# Poissons Ratio (x) = 0.21561 0.21244
# Poissons Ratio (y) = 0.20162 0.20049
# Poissons Ratio (z) = 0.26376 0.26619
#
# Static dielectric constant tensor:
#      x y z
#    x 3.325840 0.000000 -0.079330 
#    y 0.000000 3.254710 0.000000 
#    z -0.079330 0.000000 3.656380 
# 
# 
# High freq. dielectric constant tensor:
#      x y z
#    x 1.702600 0.000000 -0.007850 
#    y 0.000000 1.692220 0.000000 
#    z -0.007850 0.000000 1.733990 
# 
# From -- ./inp_files/14200.got.cif
#   From: 2010.06.25/outbox.cif.g09.slc.cpg/sg11_8_cif.got.tgz:14200.got - 2010.06.27 23:14:04.
