data_PCOD8070240
_publ_section_title
;
Structure prediction by ZEFSAII (Michael W. Deem and Ramdas Pophale) SiO2 
 PCOD8070240
Probable space group: P 21/M
;
_chemical_formula_sum "Si O2"
_cell_formula_units_Z 32
_cell_length_a 22.570704
_cell_length_b 8.904797
_cell_length_c 15.159889
_cell_angle_alpha 90.000000
_cell_angle_beta 31.816098
_cell_angle_gamma 90.000000
_cell_volume 1606.334818
_symmetry_space_group_name_H-M "P 21/M"
_symmetry_group_IT_number 11
_symmetry_cell_setting 'monoclinic'
loop_
_space_group_symop_operation_xyz
x,y,z
-x,1/2+y,-z
-x,-y,-z
x,1/2-y,z
loop_
_atom_site_type_symbol
_atom_site_label
_atom_site_fract_x
_atom_site_fract_y
_atom_site_fract_z
Si Si1 0.787751 0.917994 0.714440
Si Si2 0.473433 0.919182 0.773109
Si Si3 0.152697 0.423464 0.553472
Si Si4 0.568401 0.408630 0.979742
Si Si5 0.706037 0.429589 0.480402
Si Si6 0.768905 0.923939 0.933186
Si Si7 0.902302 0.073322 0.918800
Si Si8 0.881649 0.929532 0.124648
O O1 0.739503 0.750000 0.764998
O O2 0.862686 0.955563 0.533159
O O3 0.690969 0.035375 0.839193
O O4 0.835720 0.935541 0.753686
O O5 0.468316 0.750000 0.736742
O O6 0.582574 0.013904 0.605454
O O7 0.357653 0.009157 0.903376
O O8 0.496574 0.900072 0.846805
O O9 0.183071 0.250000 0.530752
O O10 0.252083 0.519822 0.474217
O O11 0.034514 0.464114 0.747392
O O12 0.579825 0.250000 0.918955
O O13 0.500000 0.500000 0.000000
O O14 0.708787 0.250000 0.471798
O O15 0.789325 0.504720 0.306028
O O16 0.760999 0.750000 0.971956
O O17 0.843769 0.019999 0.903952
O O18 0.881320 0.250000 0.958166
O O19 0.849693 0.980511 0.066197
O O20 0.886093 0.750000 0.126753
O O21 0.000000 0.000000 0.000000
#
# Coordination Sequence:
#
# PCOD8070240 Si02
#       8
#     4   4   4   4   4   4   4   4
#     4   9  19  35  54  79 114 158 202 247 295 346
#     4  10  21  38  58  82 116 158 201 245 299 357
#     4  10  21  37  58  86 122 161 203 250 302 355
#     4  10  19  30  48  75 109 151 196 244 296 351
#     4  12  24  38  61  93 125 156 196 247 305 361
#     4  10  21  39  61  86 120 161 208 253 296 351
#     4  11  23  40  63  89 120 160 203 247 300 359
#     4  12  24  42  66  93 123 155 194 242 300 359
#
# _framework density 19.921126000000001
#
# number of rings (size 3 to 8) (size 9 to 14) (size 15 to 20)
#    0.000    1.500    1.250    4.500    0.000    6.500 
#    0.000    0.625    0.000    0.000    0.000    0.000 
#    0.000    0.000    0.000    0.000    0.000    0.000 
#
# Total GULP energy -396456.744479 kJ/mol
# GULP energy per Si atom -12389.273265 kJ/mol
# Density = 1.987578 g / cm^3
# Si number density = 19.921126 Si / 1000 Ang^3
#
#
#
# Elastic Constant Matrix: (Units=GPa)
#
#
# Indices 1 2 3 4 5 6 
#
# 1 62.8164 26.0802 14.1982 0.0000 15.1057 0.0000
# 2 26.0802 130.3652 38.6881 0.0000 8.5585 0.0000
# 3 14.1982 38.6881 78.0129 0.0000 13.1134 0.0000
# 4 0.0000 0.0000 0.0000 20.8747 0.0000 4.5634
# 5 15.1057 8.5585 13.1134 0.0000 23.6966 0.0000
# 6 0.0000 0.0000 0.0000 4.5634 0.0000 34.6357
#
#
#
# Elastic Compliance Matrix: (Units=1/GPa)
#
#
# Indices 1 2 3 4 5 6 
#
# 1 0.020063 -0.003222 -0.000110 0.000000 -0.011565 0.000000
# 2 -0.003222 0.009528 -0.004306 0.000000 0.000996 0.000000
# 3 -0.000110 -0.004306 0.016208 0.000000 -0.007344 0.000000
# 4 0.000000 0.000000 0.000000 0.049326 0.000000 -0.006499
# 5 -0.011565 0.000996 -0.007344 0.000000 0.053277 0.000000
# 6 0.000000 0.000000 0.000000 -0.006499 0.000000 0.029728
#
#
# Mechanical properties :
#
#
# Convention : Reuss Voigt Hill
#
# Bulk Modulus (GPa) = 32.76106 47.68085 40.22095
# Shear Modulus (GPa) = 24.56041 28.65661 26.60851
#
# Velocity S-wave (km/s) = 3.51505 3.79688 3.65868
# Velocity P-wave (km/s) = 5.74066 6.57331 6.17105
#
# Compressibility (1/GPa) = 0.03052405
#
# Stress axis : x y z
#
# Youngs Moduli (GPa) = 49.84308 104.95559 61.69680
#
# Poissons Ratio (x) = 0.33816 0.00676
# Poissons Ratio (y) = 0.16059 0.26567
# Poissons Ratio (z) = 0.00546 0.45194
#
# Static dielectric constant tensor:
#      x y z
#    x 3.749500 0.000000 0.199060 
#    y 0.000000 6.253420 0.000000 
#    z 0.199060 0.000000 3.921260 
# 
# 
# High freq. dielectric constant tensor:
#      x y z
#    x 1.768900 0.000000 0.008790 
#    y 0.000000 1.793820 0.000000 
#    z 0.008790 0.000000 1.772090 
# 
# From -- ./inp_files/55519.got.cif
#   From: 2010.06.25/outbox.cif.g09.slc.cpg/sg11_28_cif.got.tgz:55519.got - 2010.06.27 23:14:04.
