data_PCOD8070415
_publ_section_title
;
Structure prediction by ZEFSAII (Michael W. Deem and Ramdas Pophale) SiO2 
 PCOD8070415
Probable space group: P 21/M
;
_chemical_formula_sum "Si O2"
_cell_formula_units_Z 32
_cell_length_a 20.534333
_cell_length_b 8.771874
_cell_length_c 14.855767
_cell_angle_alpha 90.000000
_cell_angle_beta 42.459327
_cell_angle_gamma 90.000000
_cell_volume 1806.403328
_symmetry_space_group_name_H-M "P 21/M"
_symmetry_group_IT_number 11
_symmetry_cell_setting 'monoclinic'
loop_
_space_group_symop_operation_xyz
x,y,z
-x,1/2+y,-z
-x,-y,-z
x,1/2-y,z
loop_
_atom_site_type_symbol
_atom_site_label
_atom_site_fract_x
_atom_site_fract_y
_atom_site_fract_z
Si Si1 0.327505 0.929301 0.994099
Si Si2 0.801163 0.572191 0.725438
Si Si3 0.507814 0.428146 0.893254
Si Si4 0.724663 0.073866 0.630052
Si Si5 0.821409 0.920424 0.972264
Si Si6 0.025992 0.419351 0.342837
Si Si7 0.977018 0.070043 0.927944
Si Si8 0.879272 0.572898 0.374547
O O1 0.336183 0.750000 0.973973
O O2 0.433543 0.999239 0.898673
O O3 0.278248 0.997111 0.954317
O O4 0.267237 0.966999 0.144634
O O5 0.780764 0.750000 0.767433
O O6 0.777119 0.533923 0.648269
O O7 0.915280 0.533530 0.626151
O O8 0.487059 0.250000 0.925105
O O9 0.611543 0.460946 0.742818
O O10 0.500000 0.500000 0.000000
O O11 0.743810 0.250000 0.631842
O O12 0.778811 0.022726 0.482361
O O13 0.797669 0.750000 0.030086
O O14 0.889074 0.916948 0.816931
O O15 0.873447 0.010090 0.000056
O O16 0.979663 0.250000 0.398159
O O17 0.944326 0.538621 0.397233
O O18 0.971419 0.250000 0.940534
O O19 0.062080 0.018690 0.773128
O O20 0.000000 0.000000 0.000000
O O21 0.855084 0.750000 0.395732
#
# Coordination Sequence:
#
# PCOD8070415 Si02
#       8
#     4   4   4   4   4   4   4   4
#     4  11  20  31  49  73 102 136 174 219 264 307
#     4  10  19  31  48  68  94 131 174 217 258 299
#     4  11  22  35  51  72  97 133 180 228 269 306
#     4  11  23  35  49  69  96 132 175 218 262 306
#     4   9  17  31  51  76 105 136 169 210 255 302
#     4   8  16  30  47  67  93 129 169 207 249 295
#     4  10  20  35  57  85 111 137 168 204 251 311
#     4  10  21  35  51  72 100 133 167 206 252 304
#
# _framework density 17.714759000000001
#
# number of rings (size 3 to 8) (size 9 to 14) (size 15 to 20)
#    0.000    2.000    1.250    4.125    0.000    7.000 
#    0.000    0.000    0.000    0.000    0.000    0.875 
#    0.000    0.000    0.000    0.000    0.000    0.000 
#
# Total GULP energy -396748.075116 kJ/mol
# GULP energy per Si atom -12398.377347 kJ/mol
# Density = 1.767444 g / cm^3
# Si number density = 17.714759 Si / 1000 Ang^3
#
#
#
# Elastic Constant Matrix: (Units=GPa)
#
#
# Indices 1 2 3 4 5 6 
#
# 1 125.1045 53.0740 52.8649 0.0000 -14.0673 0.0000
# 2 53.0740 105.7068 39.9005 0.0000 -14.4793 0.0000
# 3 52.8649 39.9005 71.7622 0.0000 -20.5369 0.0000
# 4 0.0000 0.0000 0.0000 23.6232 0.0000 -2.9561
# 5 -14.0673 -14.4793 -20.5369 0.0000 21.2741 0.0000
# 6 0.0000 0.0000 0.0000 -2.9561 0.0000 32.5301
#
#
#
# Elastic Compliance Matrix: (Units=1/GPa)
#
#
# Indices 1 2 3 4 5 6 
#
# 1 0.012626 -0.003638 -0.007734 0.000000 -0.001594 0.000000
# 2 -0.003638 0.013109 -0.003791 0.000000 0.002857 0.000000
# 3 -0.007734 -0.003791 0.026997 0.000000 0.018367 0.000000
# 4 0.000000 0.000000 0.000000 0.042818 0.000000 0.003891
# 5 -0.001594 0.002857 0.018367 0.000000 0.065626 0.000000
# 6 0.000000 0.000000 0.000000 0.003891 0.000000 0.031094
#
#
# Mechanical properties :
#
#
# Convention : Reuss Voigt Hill
#
# Bulk Modulus (GPa) = 44.63423 66.02804 55.33114
# Shear Modulus (GPa) = 21.73294 25.93440 23.83367
#
# Velocity S-wave (km/s) = 3.50641 3.83038 3.67197
# Velocity P-wave (km/s) = 6.45321 7.54428 7.01998
#
# Compressibility (1/GPa) = 0.02240433
#
# Stress axis : x y z
#
# Youngs Moduli (GPa) = 79.20300 76.28272 37.04171
#
# Poissons Ratio (x) = 0.27753 0.28649
# Poissons Ratio (y) = 0.28815 0.14043
# Poissons Ratio (z) = 0.61258 0.28920
#
# Static dielectric constant tensor:
#      x y z
#    x 3.349430 0.000000 -0.227870 
#    y 0.000000 3.356940 0.000000 
#    z -0.227870 0.000000 3.156960 
# 
# 
# High freq. dielectric constant tensor:
#      x y z
#    x 1.671580 0.000000 -0.022390 
#    y 0.000000 1.700100 0.000000 
#    z -0.022390 0.000000 1.653870 
# 
# From -- ./inp_files/54250.got.cif
#   From: 2010.06.25/outbox.cif.g09.slc.cpg/sg11_28_cif.got.tgz:54250.got - 2010.06.27 23:14:04.
