data_PCOD8070546
_publ_section_title
;
Structure prediction by ZEFSAII (Michael W. Deem and Ramdas Pophale) SiO2 
 PCOD8070546
Probable space group: P 21/M
;
_chemical_formula_sum "Si O2"
_cell_formula_units_Z 32
_cell_length_a 15.699648
_cell_length_b 9.385931
_cell_length_c 23.111147
_cell_angle_alpha 90.000000
_cell_angle_beta 148.174357
_cell_angle_gamma 90.000000
_cell_volume 1795.875761
_symmetry_space_group_name_H-M "P 21/M"
_symmetry_group_IT_number 11
_symmetry_cell_setting 'monoclinic'
loop_
_space_group_symop_operation_xyz
x,y,z
-x,1/2+y,-z
-x,-y,-z
x,1/2-y,z
loop_
_atom_site_type_symbol
_atom_site_label
_atom_site_fract_x
_atom_site_fract_y
_atom_site_fract_z
Si Si1 0.843871 0.593037 0.916192
Si Si2 0.610746 0.918512 0.881857
Si Si3 0.834291 0.595340 0.781517
Si Si4 0.995001 0.416042 0.584460
Si Si5 0.967700 0.415807 0.701708
Si Si6 0.758313 0.416147 0.347483
Si Si7 0.339279 0.912521 0.404032
Si Si8 0.842471 0.085195 0.092273
O O1 0.896244 0.750000 0.967856
O O2 0.710010 0.532329 0.882426
O O3 0.770464 0.600292 0.809843
O O4 0.000000 0.500000 0.000000
O O5 0.623874 0.750000 0.901214
O O6 0.427373 0.964943 0.763205
O O7 0.681260 0.002934 0.978118
O O8 0.790294 0.750000 0.727279
O O9 0.749197 0.460318 0.704989
O O10 0.027313 0.572934 0.884862
O O11 0.035366 0.250000 0.603475
O O12 0.974083 0.463371 0.638740
O O13 0.146712 0.500502 0.647183
O O14 0.832880 0.451800 0.453959
O O15 0.014747 0.250000 0.737796
O O16 0.088748 0.511945 0.809681
O O17 0.781500 0.441444 0.612359
O O18 0.775517 0.250000 0.343851
O O19 0.388620 0.750000 0.427403
O O20 0.500000 0.000000 0.500000
O O21 0.800404 0.250000 0.081690
#
# Coordination Sequence:
#
# PCOD8070546 Si02
#       8
#     4   4   4   4   4   4   4   4
#     4  10  19  31  49  73 102 138 175 212 252 300
#     4  10  20  33  52  77 108 144 178 212 259 320
#     4   9  18  32  48  69  99 136 174 212 254 300
#     4   9  18  36  60  81 102 132 173 216 264 318
#     4   9  19  35  56  78 101 137 178 213 257 317
#     4   9  19  35  55  81 108 135 168 213 267 318
#     4  10  20  33  50  73 102 136 171 213 256 302
#     4  10  19  32  51  76 106 138 174 218 260 301
#
# _framework density 17.818605000000002
#
# number of rings (size 3 to 8) (size 9 to 14) (size 15 to 20)
#    0.000    2.500    1.250    0.750    0.000    3.500 
#    0.000    4.375    0.000    3.000    0.000    0.000 
#    0.000    0.000    0.000    0.000    0.000    0.000 
#
# Total GULP energy -396633.116258 kJ/mol
# GULP energy per Si atom -12394.784883 kJ/mol
# Density = 1.777805 g / cm^3
# Si number density = 17.818605 Si / 1000 Ang^3
#
#
#
# Elastic Constant Matrix: (Units=GPa)
#
#
# Indices 1 2 3 4 5 6 
#
# 1 111.8765 55.6391 71.2818 0.0000 -6.8181 0.0000
# 2 55.6391 82.1648 67.0829 0.0000 3.8130 0.0000
# 3 71.2818 67.0829 132.5782 0.0000 9.3188 0.0000
# 4 0.0000 0.0000 0.0000 32.7136 0.0000 1.3223
# 5 -6.8181 3.8130 9.3188 0.0000 25.0573 0.0000
# 6 0.0000 0.0000 0.0000 1.3223 0.0000 25.2067
#
#
#
# Elastic Compliance Matrix: (Units=1/GPa)
#
#
# Indices 1 2 3 4 5 6 
#
# 1 0.016606 -0.006594 -0.006141 0.000000 0.007805 0.000000
# 2 -0.006594 0.023370 -0.008116 0.000000 -0.002332 0.000000
# 3 -0.006141 -0.008116 0.015384 0.000000 -0.006157 0.000000
# 4 0.000000 0.000000 0.000000 0.030633 0.000000 -0.001607
# 5 0.007805 -0.002332 -0.006157 0.000000 0.044677 0.000000
# 6 0.000000 0.000000 0.000000 -0.001607 0.000000 0.039756
#
#
# Mechanical properties :
#
#
# Convention : Reuss Voigt Hill
#
# Bulk Modulus (GPa) = 73.21104 79.40302 76.30703
# Shear Modulus (GPa) = 23.07559 25.43658 24.25608
#
# Velocity S-wave (km/s) = 3.60255 3.78236 3.69355
# Velocity P-wave (km/s) = 7.64726 7.98334 7.81710
#
# Compressibility (1/GPa) = 0.01365914
#
# Stress axis : x y z
#
# Youngs Moduli (GPa) = 60.22009 42.78983 65.00444
#
# Poissons Ratio (x) = 0.28214 0.39916
# Poissons Ratio (y) = 0.39707 0.52757
# Poissons Ratio (z) = 0.36979 0.34728
#
# Static dielectric constant tensor:
#      x y z
#    x 3.385300 0.000000 -0.086650 
#    y 0.000000 3.381520 0.000000 
#    z -0.086650 0.000000 2.118360 
# 
# 
# High freq. dielectric constant tensor:
#      x y z
#    x 1.678410 0.000000 -0.005260 
#    y 0.000000 1.694350 0.000000 
#    z -0.005260 0.000000 1.681810 
# 
# From -- ./inp_files/69075.got.cif
#   From: 2010.06.25/outbox.cif.g09.slc.cpg/sg11_35_cif.got.tgz:69075.got - 2010.06.27 23:14:04.
