data_PCOD8070303
_publ_section_title
;
Structure prediction by ZEFSAII (Michael W. Deem and Ramdas Pophale) SiO2 
 PCOD8070303
Probable space group: P 21/M
;
_chemical_formula_sum "Si O2"
_cell_formula_units_Z 28
_cell_length_a 16.342604
_cell_length_b 22.624814
_cell_length_c 9.589356
_cell_angle_alpha 90.000000
_cell_angle_beta 155.105091
_cell_angle_gamma 90.000000
_cell_volume 1492.559361
_symmetry_space_group_name_H-M "P 21/M"
_symmetry_group_IT_number 11
_symmetry_cell_setting 'monoclinic'
loop_
_space_group_symop_operation_xyz
x,y,z
-x,1/2+y,-z
-x,-y,-z
x,1/2-y,z
loop_
_atom_site_type_symbol
_atom_site_label
_atom_site_fract_x
_atom_site_fract_y
_atom_site_fract_z
Si Si1 0.574786 0.899673 0.191377
Si Si2 0.844115 0.132124 0.792164
Si Si3 0.116384 0.317174 0.823015
Si Si4 0.767608 0.684619 0.688067
Si Si5 0.550639 0.818067 0.883402
Si Si6 0.852017 0.082282 0.496326
Si Si7 0.958233 0.971447 0.787305
O O1 0.613662 0.860434 0.387523
O O2 0.735227 0.950488 0.430599
O O3 0.576757 0.858180 0.058727
O O4 0.365675 0.929640 0.894968
O O5 0.639672 0.164551 0.502463
O O6 0.833047 0.100986 0.626448
O O7 0.021560 0.178370 0.059877
O O8 0.892189 0.084274 0.990410
O O9 0.030381 0.250000 0.685660
O O10 0.947200 0.366353 0.548594
O O11 0.225196 0.328029 0.136480
O O12 0.262928 0.327807 0.924112
O O13 0.691006 0.750000 0.539796
O O14 0.530930 0.750000 0.899882
O O15 0.979163 0.020900 0.696287
O O16 0.000000 0.000000 0.000000
#
# Coordination Sequence:
#
# PCOD8070303 Si02
#       7
#     4   4   4   4   4   4   4
#     4  10  19  30  51  78  98 126 169 210 250 296
#     4   8  16  29  50  73  95 130 169 201 243 300
#     4   9  19  34  51  71 102 138 168 199 250 307
#     4   9  16  29  48  72  97 126 166 208 245 298
#     4  10  19  33  51  75 105 133 162 207 256 296
#     4   9  17  31  51  72  98 130 164 206 249 294
#     4   9  17  32  52  75 100 129 168 211 249 293
#
# _framework density 18.759722
#
# number of rings (size 3 to 8) (size 9 to 14) (size 15 to 20)
#    0.000    2.857    0.000    2.143    0.000    4.000 
#    0.000    4.286    0.000    6.857    0.000    0.000 
#    0.000    0.000    0.000    0.000    0.000    0.000 
#
# Total GULP energy -346921.630588 kJ/mol
# GULP energy per Si atom -12390.058235 kJ/mol
# Density = 1.871702 g / cm^3
# Si number density = 18.759722 Si / 1000 Ang^3
#
#
#
# Elastic Constant Matrix: (Units=GPa)
#
#
# Indices 1 2 3 4 5 6 
#
# 1 38.6797 20.6250 15.6523 0.0000 4.6870 0.0000
# 2 20.6250 73.1886 32.1338 0.0000 -1.0277 0.0000
# 3 15.6523 32.1338 93.7225 0.0000 4.7143 0.0000
# 4 0.0000 0.0000 0.0000 33.2640 0.0000 1.1214
# 5 4.6870 -1.0277 4.7143 0.0000 14.5340 0.0000
# 6 0.0000 0.0000 0.0000 1.1214 0.0000 14.5731
#
#
#
# Elastic Compliance Matrix: (Units=1/GPa)
#
#
# Indices 1 2 3 4 5 6 
#
# 1 0.032402 -0.008394 -0.002011 0.000000 -0.010391 0.000000
# 2 -0.008394 0.018387 -0.005188 0.000000 0.005690 0.000000
# 3 -0.002011 -0.005188 0.012982 0.000000 -0.003929 0.000000
# 4 0.000000 0.000000 0.000000 0.030141 0.000000 -0.002319
# 5 -0.010391 0.005690 -0.003929 0.000000 0.073832 0.000000
# 6 0.000000 0.000000 0.000000 -0.002319 0.000000 0.068798
#
#
# Mechanical properties :
#
#
# Convention : Reuss Voigt Hill
#
# Bulk Modulus (GPa) = 30.68955 38.04588 34.36772
# Shear Modulus (GPa) = 17.94754 21.61954 19.78354
#
# Velocity S-wave (km/s) = 3.09642 3.39845 3.25095
# Velocity P-wave (km/s) = 5.40172 5.97695 5.69660
#
# Compressibility (1/GPa) = 0.03258438
#
# Stress axis : x y z
#
# Youngs Moduli (GPa) = 30.86221 54.38697 77.02882
#
# Poissons Ratio (x) = 0.45653 0.15488
# Poissons Ratio (y) = 0.25906 0.39966
# Poissons Ratio (z) = 0.06205 0.28218
#
# Static dielectric constant tensor:
#      x y z
#    x 2.962840 0.000000 -0.044070 
#    y 0.000000 3.860230 0.000000 
#    z -0.044070 0.000000 3.707830 
# 
# 
# High freq. dielectric constant tensor:
#      x y z
#    x 1.674080 0.000000 -0.006830 
#    y 0.000000 1.745160 0.000000 
#    z -0.006830 0.000000 1.733640 
# 
# From -- ./inp_files/43574.got.cif
#   From: 2010.06.25/outbox.cif.g09.slc.cpg/sg11_22_cif.got.tgz:43574.got - 2010.06.27 23:14:04.
