data_PCOD8070259
_publ_section_title
;
Structure prediction by ZEFSAII (Michael W. Deem and Ramdas Pophale) SiO2 
 PCOD8070259
Probable space group: P 21/M
;
_chemical_formula_sum "Si O2"
_cell_formula_units_Z 28
_cell_length_a 14.908848
_cell_length_b 9.643446
_cell_length_c 16.741313
_cell_angle_alpha 90.000000
_cell_angle_beta 134.053520
_cell_angle_gamma 90.000000
_cell_volume 1729.847524
_symmetry_space_group_name_H-M "P 21/M"
_symmetry_group_IT_number 11
_symmetry_cell_setting 'monoclinic'
loop_
_space_group_symop_operation_xyz
x,y,z
-x,1/2+y,-z
-x,-y,-z
x,1/2-y,z
loop_
_atom_site_type_symbol
_atom_site_label
_atom_site_fract_x
_atom_site_fract_y
_atom_site_fract_z
Si Si1 0.602478 0.410176 0.519306
Si Si2 0.142303 0.589704 0.242251
Si Si3 0.904717 0.410390 0.113250
Si Si4 0.505833 0.908207 0.713719
Si Si5 0.325580 0.908998 0.929091
Si Si6 0.468366 0.908848 0.865829
Si Si7 0.248323 0.910895 0.136846
O O1 0.500000 0.500000 0.500000
O O2 0.579783 0.250000 0.528466
O O3 0.738740 0.457338 0.632128
O O4 0.592233 0.435580 0.417987
O O5 0.110594 0.750000 0.237426
O O6 0.165488 0.559658 0.163470
O O7 0.027375 0.499950 0.201861
O O8 0.943135 0.250000 0.129126
O O9 0.818155 0.437312 0.137496
O O10 0.830742 0.459543 0.988501
O O11 0.554309 0.750000 0.741199
O O12 0.432846 0.938345 0.751674
O O13 0.624824 0.004848 0.777643
O O14 0.359056 0.750000 0.969070
O O15 0.351391 0.944712 0.851618
O O16 0.412299 0.999858 0.039442
O O17 0.508514 0.750000 0.903095
O O18 0.285271 0.750000 0.153172
#
# Coordination Sequence:
#
# PCOD8070259 Si02
#       7
#     4   4   4   4   4   4   4
#     4  10  20  34  51  71  95 126 163 202 240 279
#     4  10  21  34  48  67  95 130 165 198 236 281
#     4  10  20  32  48  70  97 129 162 195 236 285
#     4  10  19  30  49  75 100 125 157 196 240 287
#     4   9  17  30  48  70  98 127 156 193 238 286
#     4   9  17  29  47  73  99 124 155 193 239 288
#     4  10  19  32  48  70  99 129 157 193 240 286
#
# _framework density 16.186396999999999
#
# number of rings (size 3 to 8) (size 9 to 14) (size 15 to 20)
#    0.000    2.286    2.857    0.429    0.000    2.286 
#    0.000    0.000    0.000    0.857    0.000    0.000 
#    0.000    0.000    0.000    0.000    0.000    0.000 
#
# Total GULP energy -347167.149029 kJ/mol
# GULP energy per Si atom -12398.826751 kJ/mol
# Density = 1.614956 g / cm^3
# Si number density = 16.186397 Si / 1000 Ang^3
#
#
#
# Elastic Constant Matrix: (Units=GPa)
#
#
# Indices 1 2 3 4 5 6 
#
# 1 109.2474 44.1237 56.9680 0.0000 0.7431 0.0000
# 2 44.1237 52.0137 41.4587 0.0000 7.3261 0.0000
# 3 56.9680 41.4587 95.1188 0.0000 5.0691 0.0000
# 4 0.0000 0.0000 0.0000 23.7458 0.0000 6.9276
# 5 0.7431 7.3261 5.0691 0.0000 25.5447 0.0000
# 6 0.0000 0.0000 0.0000 6.9276 0.0000 23.7583
#
#
#
# Elastic Compliance Matrix: (Units=1/GPa)
#
#
# Indices 1 2 3 4 5 6 
#
# 1 0.015858 -0.009521 -0.005527 0.000000 0.003366 0.000000
# 2 -0.009521 0.036105 -0.009599 0.000000 -0.008173 0.000000
# 3 -0.005527 -0.009599 0.018043 0.000000 -0.000667 0.000000
# 4 0.000000 0.000000 0.000000 0.046028 0.000000 -0.013421
# 5 0.003366 -0.008173 -0.000667 0.000000 0.041525 0.000000
# 6 0.000000 0.000000 0.000000 -0.013421 0.000000 0.046004
#
#
# Mechanical properties :
#
#
# Convention : Reuss Voigt Hill
#
# Bulk Modulus (GPa) = 48.28255 60.16452 54.22353
# Shear Modulus (GPa) = 19.24839 22.19839 20.72339
#
# Velocity S-wave (km/s) = 3.45218 3.70729 3.58200
# Velocity P-wave (km/s) = 6.76638 7.45492 7.11898
#
# Compressibility (1/GPa) = 0.02071142
#
# Stress axis : x y z
#
# Youngs Moduli (GPa) = 63.05794 27.69711 55.42398
#
# Poissons Ratio (x) = 0.26372 0.30634
# Poissons Ratio (y) = 0.60040 0.53200
# Poissons Ratio (z) = 0.34853 0.26586
#
# Static dielectric constant tensor:
#      x y z
#    x 3.250660 0.000000 -0.244460 
#    y 0.000000 3.180510 0.000000 
#    z -0.244460 0.000000 3.019610 
# 
# 
# High freq. dielectric constant tensor:
#      x y z
#    x 1.625020 0.000000 -0.013750 
#    y 0.000000 1.626500 0.000000 
#    z -0.013750 0.000000 1.600650 
# 
# From -- ./inp_files/37451.got.cif
#   From: 2010.06.25/outbox.cif.g09.slc.cpg/sg11_19_cif.got.tgz:37451.got - 2010.06.27 23:14:04.
