data_PCOD8070411
_publ_section_title
;
Structure prediction by ZEFSAII (Michael W. Deem and Ramdas Pophale) SiO2 
 PCOD8070411
Probable space group: P 21/M
;
_chemical_formula_sum "Si O2"
_cell_formula_units_Z 32
_cell_length_a 15.146863
_cell_length_b 9.296393
_cell_length_c 21.002244
_cell_angle_alpha 90.000000
_cell_angle_beta 144.387875
_cell_angle_gamma 90.000000
_cell_volume 1722.050776
_symmetry_space_group_name_H-M "P 21/M"
_symmetry_group_IT_number 11
_symmetry_cell_setting 'monoclinic'
loop_
_space_group_symop_operation_xyz
x,y,z
-x,1/2+y,-z
-x,-y,-z
x,1/2-y,z
loop_
_atom_site_type_symbol
_atom_site_label
_atom_site_fract_x
_atom_site_fract_y
_atom_site_fract_z
Si Si1 0.405610 0.911274 0.586928
Si Si2 0.167911 0.915037 0.545158
Si Si3 0.819743 0.091624 0.655615
Si Si4 0.118133 0.581102 0.659224
Si Si5 0.033582 0.080613 0.083888
Si Si6 0.318169 0.585297 0.295615
Si Si7 0.903807 0.082541 0.138870
Si Si8 0.339865 0.580155 0.903767
O O1 0.476080 0.750000 0.621396
O O2 0.338104 0.937225 0.617719
O O3 0.258105 0.928080 0.457131
O O4 0.521431 0.036016 0.637468
O O5 0.115901 0.750000 0.508956
O O6 0.182919 0.961372 0.627680
O O7 0.045746 0.005547 0.432538
O O8 0.891625 0.250000 0.705546
O O9 0.688469 0.071356 0.632012
O O10 0.956911 0.982174 0.740645
O O11 0.091765 0.750000 0.651928
O O12 0.236474 0.528358 0.783150
O O13 0.034987 0.250000 0.072419
O O14 0.912638 0.038180 0.069042
O O15 0.198126 0.027025 0.198947
O O16 0.000000 0.000000 0.000000
O O17 0.288091 0.750000 0.255631
O O18 0.930146 0.250000 0.160595
O O19 0.746415 0.039098 0.080621
O O20 0.370789 0.750000 0.917224
O O21 0.500000 0.500000 0.000000
#
# Coordination Sequence:
#
# PCOD8070411 Si02
#       8
#     4   4   4   4   4   4   4   4
#     4  10  19  31  47  73 108 140 170 208 256 305
#     4   9  18  32  52  77 105 137 173 213 258 314
#     4   9  18  31  50  75 103 136 174 214 254 305
#     4   9  18  34  54  75 103 135 173 216 260 313
#     4  10  20  37  58  77 101 134 172 216 264 314
#     4  10  20  33  49  73 104 135 173 214 254 306
#     4   9  19  35  55  78 103 133 173 218 263 311
#     4  10  21  37  55  78 108 140 176 223 271 314
#
# _framework density 18.582494000000001
#
# number of rings (size 3 to 8) (size 9 to 14) (size 15 to 20)
#    0.000    2.500    0.000    1.875    0.000    3.000 
#    2.250    0.000    0.000    0.000    0.000    0.000 
#    0.000    0.000    0.000    0.000    0.000    0.000 
#
# Total GULP energy -396609.545010 kJ/mol
# GULP energy per Si atom -12394.048282 kJ/mol
# Density = 1.854020 g / cm^3
# Si number density = 18.582494 Si / 1000 Ang^3
#
#
#
# Elastic Constant Matrix: (Units=GPa)
#
#
# Indices 1 2 3 4 5 6 
#
# 1 114.7277 44.7207 43.9918 0.0000 9.4446 0.0000
# 2 44.7207 56.9222 32.3216 0.0000 3.7863 0.0000
# 3 43.9918 32.3216 67.3622 0.0000 -1.5994 0.0000
# 4 0.0000 0.0000 0.0000 35.0107 0.0000 5.6419
# 5 9.4446 3.7863 -1.5994 0.0000 27.0579 0.0000
# 6 0.0000 0.0000 0.0000 5.6419 0.0000 28.1923
#
#
#
# Elastic Compliance Matrix: (Units=1/GPa)
#
#
# Indices 1 2 3 4 5 6 
#
# 1 0.014248 -0.007657 -0.005731 0.000000 -0.004241 0.000000
# 2 -0.007657 0.028718 -0.008823 0.000000 -0.001867 0.000000
# 3 -0.005731 -0.008823 0.022930 0.000000 0.004591 0.000000
# 4 0.000000 0.000000 0.000000 0.029514 0.000000 -0.005907
# 5 -0.004241 -0.001867 0.004591 0.000000 0.038971 0.000000
# 6 0.000000 0.000000 0.000000 -0.005907 0.000000 0.036653
#
#
# Mechanical properties :
#
#
# Convention : Reuss Voigt Hill
#
# Bulk Modulus (GPa) = 46.57022 53.45335 50.01179
# Shear Modulus (GPa) = 22.46031 25.91737 24.18884
#
# Velocity S-wave (km/s) = 3.48038 3.73865 3.61182
# Velocity P-wave (km/s) = 6.42390 6.88945 6.66074
#
# Compressibility (1/GPa) = 0.02147295
#
# Stress axis : x y z
#
# Youngs Moduli (GPa) = 70.18600 34.82152 43.61017
#
# Poissons Ratio (x) = 0.26664 0.24994
# Poissons Ratio (y) = 0.53744 0.38477
# Poissons Ratio (z) = 0.40226 0.30723
#
# Static dielectric constant tensor:
#      x y z
#    x 3.614730 0.000000 0.030480 
#    y 0.000000 3.414990 0.000000 
#    z 0.030480 0.000000 2.881250 
# 
# 
# High freq. dielectric constant tensor:
#      x y z
#    x 1.736140 0.000000 -0.010160 
#    y 0.000000 1.721590 0.000000 
#    z -0.010160 0.000000 1.694840 
# 
# From -- ./inp_files/65232.got.cif
#   From: 2010.06.25/outbox.cif.g09.slc.cpg/sg11_33_cif.got.tgz:65232.got - 2010.06.27 23:14:04.
