data_PCOD8070153
_publ_section_title
;
Structure prediction by ZEFSAII (Michael W. Deem and Ramdas Pophale) SiO2 
 PCOD8070153
Probable space group: P 21/M
;
_chemical_formula_sum "Si O2"
_cell_formula_units_Z 32
_cell_length_a 5.098100
_cell_length_b 12.935734
_cell_length_c 27.797817
_cell_angle_alpha 90.000000
_cell_angle_beta 86.122611
_cell_angle_gamma 90.000000
_cell_volume 1829.005018
_symmetry_space_group_name_H-M "P 21/M"
_symmetry_group_IT_number 11
_symmetry_cell_setting 'monoclinic'
loop_
_space_group_symop_operation_xyz
x,y,z
-x,1/2+y,-z
-x,-y,-z
x,1/2-y,z
loop_
_atom_site_type_symbol
_atom_site_label
_atom_site_fract_x
_atom_site_fract_y
_atom_site_fract_z
Si Si1 0.031691 0.632569 0.869085
Si Si2 0.457101 0.046758 0.175551
Si Si3 0.251057 0.557023 0.557705
Si Si4 0.607954 0.630261 0.723387
Si Si5 0.129588 0.868712 0.660857
Si Si6 0.962888 0.964538 0.054557
Si Si7 0.547475 0.370229 0.898878
Si Si8 0.232660 0.133500 0.493990
O O1 0.080974 0.750000 0.881546
O O2 0.740696 0.618548 0.851981
O O3 0.071837 0.571738 0.917625
O O4 0.249792 0.593569 0.828565
O O5 0.369516 0.050621 0.232260
O O6 0.452328 0.932056 0.152132
O O7 0.184628 0.558472 0.614765
O O8 0.538840 0.604784 0.546452
O O9 0.245872 0.437966 0.541010
O O10 0.043527 0.622862 0.529679
O O11 0.625166 0.750000 0.740930
O O12 0.335615 0.608090 0.700249
O O13 0.841811 0.604990 0.683955
O O14 0.150013 0.750000 0.643453
O O15 0.204320 0.898434 0.071579
O O16 0.704667 0.895306 0.065295
O O17 0.000000 0.000000 0.000000
O O18 0.553499 0.250000 0.885144
O O19 0.265232 0.250000 0.511917
#
# Coordination Sequence:
#
# PCOD8070153 Si02
#       8
#     4   4   4   4   4   4   4   4
#     4  10  19  31  50  73  99 130 158 196 246 290
#     4  10  20  34  51  73 100 126 166 207 238 292
#     4  10  20  32  49  73 100 130 165 205 246 294
#     4  10  19  30  48  71  96 128 158 197 254 301
#     4  10  19  30  46  70  99 128 158 196 248 301
#     4  10  21  36  52  78 106 130 166 204 244 297
#     4  10  21  37  57  76 100 137 173 209 246 283
#     4  10  19  32  51  72  96 131 169 204 243 288
#
# _framework density 17.495853
#
# number of rings (size 3 to 8) (size 9 to 14) (size 15 to 20)
#    0.000    2.000    0.000    4.500    0.000    3.000 
#    0.000    0.000    0.000    1.500    0.000    0.000 
#    0.000    0.000    0.000    0.000    0.000    0.000 
#
# Total GULP energy -396867.092632 kJ/mol
# GULP energy per Si atom -12402.096645 kJ/mol
# Density = 1.745603 g / cm^3
# Si number density = 17.495853 Si / 1000 Ang^3
#
#
#
# Elastic Constant Matrix: (Units=GPa)
#
#
# Indices 1 2 3 4 5 6 
#
# 1 78.4663 27.5408 16.5426 0.0000 -9.2695 0.0000
# 2 27.5408 123.5752 49.1870 0.0000 -3.8423 0.0000
# 3 16.5426 49.1870 96.4057 0.0000 -15.4022 0.0000
# 4 0.0000 0.0000 0.0000 16.2707 0.0000 2.2162
# 5 -9.2695 -3.8423 -15.4022 0.0000 18.0948 0.0000
# 6 0.0000 0.0000 0.0000 2.2162 0.0000 12.3292
#
#
#
# Elastic Compliance Matrix: (Units=1/GPa)
#
#
# Indices 1 2 3 4 5 6 
#
# 1 0.014625 -0.003122 0.000202 0.000000 0.007001 0.000000
# 2 -0.003122 0.010928 -0.005700 0.000000 -0.004131 0.000000
# 3 0.000202 -0.005700 0.015127 0.000000 0.011769 0.000000
# 4 0.000000 0.000000 0.000000 0.063003 0.000000 -0.011325
# 5 0.007001 -0.004131 0.011769 0.000000 0.067991 0.000000
# 6 0.000000 0.000000 0.000000 -0.011325 0.000000 0.083144
#
#
# Mechanical properties :
#
#
# Convention : Reuss Voigt Hill
#
# Bulk Modulus (GPa) = 42.66334 53.88756 48.27545
# Shear Modulus (GPa) = 17.86540 23.01739 20.44140
#
# Velocity S-wave (km/s) = 3.19897 3.63104 3.42183
# Velocity P-wave (km/s) = 6.17108 6.96034 6.57756
#
# Compressibility (1/GPa) = 0.02343933
#
# Stress axis : x y z
#
# Youngs Moduli (GPa) = 68.37800 91.50497 66.10881
#
# Poissons Ratio (x) = 0.28568 -0.01334
# Poissons Ratio (y) = 0.21348 0.37682
# Poissons Ratio (z) = -0.01380 0.52157
#
# Static dielectric constant tensor:
#      x y z
#    x 3.706730 0.000000 -0.058830 
#    y 0.000000 3.176850 0.000000 
#    z -0.058830 0.000000 3.099910 
# 
# 
# High freq. dielectric constant tensor:
#      x y z
#    x 1.702920 0.000000 -0.002360 
#    y 0.000000 1.654980 0.000000 
#    z -0.002360 0.000000 1.665040 
# 
# From -- ./inp_files/67579.got.cif
#   From: 2010.06.25/outbox.cif.g09.slc.cpg/sg11_34_cif.got.tgz:67579.got - 2010.06.27 23:14:04.
