data_PCOD8070807
_publ_section_title
;
Structure prediction by ZEFSAII (Michael W. Deem and Ramdas Pophale) SiO2 
 PCOD8070807
Probable space group: P 21/M
;
_chemical_formula_sum "Si O2"
_cell_formula_units_Z 32
_cell_length_a 28.258448
_cell_length_b 9.128498
_cell_length_c 14.515387
_cell_angle_alpha 90.000000
_cell_angle_beta 28.840000
_cell_angle_gamma 90.000000
_cell_volume 1806.143860
_symmetry_space_group_name_H-M "P 21/M"
_symmetry_group_IT_number 11
_symmetry_cell_setting 'monoclinic'
loop_
_space_group_symop_operation_xyz
x,y,z
-x,1/2+y,-z
-x,-y,-z
x,1/2-y,z
loop_
_atom_site_type_symbol
_atom_site_label
_atom_site_fract_x
_atom_site_fract_y
_atom_site_fract_z
Si Si1 0.720975 0.419035 0.265356
Si Si2 0.920187 0.580990 0.248886
Si Si3 0.791625 0.588247 0.978797
Si Si4 0.173927 0.421116 0.406258
Si Si5 0.882574 0.922169 0.105985
Si Si6 0.318522 0.418376 0.013587
Si Si7 0.988907 0.414551 0.425400
Si Si8 0.504548 0.077922 0.590982
O O1 0.747815 0.250000 0.234097
O O2 0.784674 0.513590 0.227424
O O3 0.605139 0.449031 0.475620
O O4 0.742243 0.463996 0.124234
O O5 0.952634 0.750000 0.195191
O O6 0.832897 0.551332 0.472064
O O7 0.876704 0.537235 0.224046
O O8 0.017729 0.488765 0.106558
O O9 0.748570 0.750000 0.076895
O O10 0.906496 0.587960 0.803187
O O11 0.768963 0.554343 0.910536
O O12 0.162388 0.250000 0.401665
O O13 0.082488 0.504994 0.521402
O O14 0.275735 0.479403 0.184876
O O15 0.884218 0.750000 0.084965
O O16 0.343590 0.250000 0.985536
O O17 0.418989 0.489731 0.803336
O O18 0.951596 0.250000 0.508975
O O19 0.000000 0.500000 0.500000
O O20 0.488448 0.250000 0.599137
O O21 0.500000 0.000000 0.500000
#
# Coordination Sequence:
#
# PCOD8070807 Si02
#       8
#     4   4   4   4   4   4   4   4
#     4  11  22  33  50  77 103 132 170 215 258 298
#     4   9  19  35  57  82 105 130 168 213 253 299
#     4  10  19  32  49  69  97 135 171 202 247 303
#     4  10  19  34  53  73  98 131 168 208 251 300
#     4  10  20  35  55  79 106 137 167 204 258 310
#     4   9  17  32  51  70  96 131 167 203 249 302
#     4  11  21  31  44  67  99 134 168 199 238 292
#     4  10  20  34  52  73  99 132 173 214 257 300
#
# _framework density 17.717303999999999
#
# number of rings (size 3 to 8) (size 9 to 14) (size 15 to 20)
#    0.000    2.000    2.500    1.875    0.000    4.500 
#    0.000    0.625    0.000    0.750    0.000    0.000 
#    0.000    0.000    0.000    0.000    0.000    0.500 
#
# Total GULP energy -396609.114957 kJ/mol
# GULP energy per Si atom -12394.034842 kJ/mol
# Density = 1.767698 g / cm^3
# Si number density = 17.717304 Si / 1000 Ang^3
#
#
#
# Elastic Constant Matrix: (Units=GPa)
#
#
# Indices 1 2 3 4 5 6 
#
# 1 71.2723 30.3220 52.1787 0.0000 5.8845 0.0000
# 2 30.3220 61.8220 34.9015 0.0000 0.3909 0.0000
# 3 52.1787 34.9015 138.6560 0.0000 12.5967 0.0000
# 4 0.0000 0.0000 0.0000 20.0554 0.0000 0.7077
# 5 5.8845 0.3909 12.5967 0.0000 28.9654 0.0000
# 6 0.0000 0.0000 0.0000 0.7077 0.0000 24.5310
#
#
#
# Elastic Compliance Matrix: (Units=1/GPa)
#
#
# Indices 1 2 3 4 5 6 
#
# 1 0.021779 -0.007142 -0.006252 0.000000 -0.001609 0.000000
# 2 -0.007142 0.021296 -0.002893 0.000000 0.002422 0.000000
# 3 -0.006252 -0.002893 0.010592 0.000000 -0.003297 0.000000
# 4 0.000000 0.000000 0.000000 0.049913 0.000000 -0.001440
# 5 -0.001609 0.002422 -0.003297 0.000000 0.036252 0.000000
# 6 0.000000 0.000000 0.000000 -0.001440 0.000000 0.040806
#
#
# Mechanical properties :
#
#
# Convention : Reuss Voigt Hill
#
# Bulk Modulus (GPa) = 47.40681 56.28384 51.84533
# Shear Modulus (GPa) = 22.70198 25.00022 23.85110
#
# Velocity S-wave (km/s) = 3.58347 3.76049 3.67305
# Velocity P-wave (km/s) = 6.62851 7.11981 6.87855
#
# Compressibility (1/GPa) = 0.02109401
#
# Stress axis : x y z
#
# Youngs Moduli (GPa) = 45.91522 46.95616 94.40651
#
# Poissons Ratio (x) = 0.33538 0.59022
# Poissons Ratio (y) = 0.32795 0.27310
# Poissons Ratio (z) = 0.28706 0.13583
#
# Static dielectric constant tensor:
#      x y z
#    x 2.929120 0.000000 0.133070 
#    y 0.000000 3.285310 0.000000 
#    z 0.133070 0.000000 3.597300 
# 
# 
# High freq. dielectric constant tensor:
#      x y z
#    x 1.664890 0.000000 0.008420 
#    y 0.000000 1.678140 0.000000 
#    z 0.008420 0.000000 1.686470 
# 
# From -- ./inp_files/56148.got.cif
#   From: 2010.06.25/outbox.cif.g09.slc.cpg/sg11_29_cif.got.tgz:56148.got - 2010.06.27 23:14:04.
