data_PCOD8070168
_publ_section_title
;
Structure prediction by ZEFSAII (Michael W. Deem and Ramdas Pophale) SiO2 
 PCOD8070168
Probable space group: P 21/M
;
_chemical_formula_sum "Si O2"
_cell_formula_units_Z 32
_cell_length_a 12.028276
_cell_length_b 9.205744
_cell_length_c 20.322253
_cell_angle_alpha 90.000000
_cell_angle_beta 115.736203
_cell_angle_gamma 90.000000
_cell_volume 2027.047257
_symmetry_space_group_name_H-M "P 21/M"
_symmetry_group_IT_number 11
_symmetry_cell_setting 'monoclinic'
loop_
_space_group_symop_operation_xyz
x,y,z
-x,1/2+y,-z
-x,-y,-z
x,1/2-y,z
loop_
_atom_site_type_symbol
_atom_site_label
_atom_site_fract_x
_atom_site_fract_y
_atom_site_fract_z
Si Si1 0.176500 0.082117 0.500576
Si Si2 0.067052 0.084200 0.751084
Si Si3 0.786348 0.418428 0.701103
Si Si4 0.130170 0.922008 0.029840
Si Si5 0.816658 0.916239 0.834450
Si Si6 0.370249 0.921464 0.467086
Si Si7 0.106290 0.911612 0.881549
Si Si8 0.939366 0.916318 0.394931
O O1 0.195628 0.250000 0.485524
O O2 0.165971 0.064565 0.577012
O O3 0.291622 0.987008 0.506893
O O4 0.051105 0.025882 0.435586
O O5 0.081456 0.250000 0.773080
O O6 0.119942 0.048724 0.691846
O O7 0.923564 0.037793 0.713537
O O8 0.145199 0.005934 0.828457
O O9 0.778606 0.250000 0.718370
O O10 0.746050 0.511709 0.754511
O O11 0.695248 0.457469 0.618561
O O12 0.114836 0.750000 0.039268
O O13 0.218203 0.995292 0.107604
O O14 0.180844 0.949643 0.968205
O O15 0.000000 0.000000 0.000000
O O16 0.774171 0.750000 0.831337
O O17 0.961933 0.930876 0.859541
O O18 0.385852 0.750000 0.482011
O O19 0.500000 0.000000 0.500000
O O20 0.137244 0.750000 0.867701
O O21 0.991078 0.750000 0.408427
#
# Coordination Sequence:
#
# PCOD8070168 Si02
#       8
#     4   4   4   4   4   4   4   4
#     4  10  19  30  47  67  86 112 144 180 223 264
#     4   9  15  25  40  57  79 109 139 172 211 249
#     4   9  17  29  43  57  78 107 138 174 213 256
#     4   9  15  23  33  47  70 101 136 170 205 243
#     4   9  16  24  36  53  73  98 133 174 208 245
#     4  11  22  36  50  65  87 113 146 184 225 269
#     4   8  15  23  31  49  75 102 134 170 202 241
#     4   9  17  30  45  64  89 114 144 181 219 261
#
# _framework density 15.786509000000001
#
# number of rings (size 3 to 8) (size 9 to 14) (size 15 to 20)
#    0.000    2.750    1.250    2.250    0.000    5.500 
#    0.000    0.000    0.000    0.000    0.000    0.000 
#    0.000    0.000    0.000    1.125    0.000   13.625 
#
# Total GULP energy -396565.297938 kJ/mol
# GULP energy per Si atom -12392.665561 kJ/mol
# Density = 1.575058 g / cm^3
# Si number density = 15.786509 Si / 1000 Ang^3
#
#
#
# Elastic Constant Matrix: (Units=GPa)
#
#
# Indices 1 2 3 4 5 6 
#
# 1 51.8934 38.3958 40.9732 0.0000 -13.1565 0.0000
# 2 38.3958 100.4447 65.4365 0.0000 -20.4331 0.0000
# 3 40.9732 65.4365 115.5591 0.0000 -38.1685 0.0000
# 4 0.0000 0.0000 0.0000 29.8975 0.0000 -5.9487
# 5 -13.1565 -20.4331 -38.1685 0.0000 22.5785 0.0000
# 6 0.0000 0.0000 0.0000 -5.9487 0.0000 17.5420
#
#
#
# Elastic Compliance Matrix: (Units=1/GPa)
#
#
# Indices 1 2 3 4 5 6 
#
# 1 0.029653 -0.007103 -0.006585 0.000000 -0.000280 0.000000
# 2 -0.007103 0.017511 -0.007993 0.000000 -0.001804 0.000000
# 3 -0.006585 -0.007993 0.026850 0.000000 0.034318 0.000000
# 4 0.000000 0.000000 0.000000 0.035868 0.000000 0.012163
# 5 -0.000280 -0.001804 0.034318 0.000000 0.100508 0.000000
# 6 0.000000 0.000000 0.000000 0.012163 0.000000 0.061131
#
#
# Mechanical properties :
#
#
# Convention : Reuss Voigt Hill
#
# Bulk Modulus (GPa) = 32.62305 61.94535 47.28420
# Shear Modulus (GPa) = 15.37990 22.20972 18.79481
#
# Velocity S-wave (km/s) = 3.12467 3.75491 3.45419
# Velocity P-wave (km/s) = 5.80759 7.62389 6.77687
#
# Compressibility (1/GPa) = 0.03065318
#
# Stress axis : x y z
#
# Youngs Moduli (GPa) = 33.72284 57.10633 37.24440
#
# Poissons Ratio (x) = 0.40560 0.24524
# Poissons Ratio (y) = 0.23952 0.29771
# Poissons Ratio (z) = 0.22205 0.45648
#
# Static dielectric constant tensor:
#      x y z
#    x 2.615890 0.000000 -0.472950 
#    y 0.000000 3.139020 0.000000 
#    z -0.472950 0.000000 3.373220 
# 
# 
# High freq. dielectric constant tensor:
#      x y z
#    x 1.536000 0.000000 -0.042680 
#    y 0.000000 1.619690 0.000000 
#    z -0.042680 0.000000 1.609340 
# 
# From -- ./inp_files/64239.got.cif
#   From: 2010.06.25/outbox.cif.g09.slc.cpg/sg11_33_cif.got.tgz:64239.got - 2010.06.27 23:14:04.
