data_PCOD8070142
_publ_section_title
;
Structure prediction by ZEFSAII (Michael W. Deem and Ramdas Pophale) SiO2 
 PCOD8070142
Probable space group: P 21/M
;
_chemical_formula_sum "Si O2"
_cell_formula_units_Z 28
_cell_length_a 18.697849
_cell_length_b 9.165534
_cell_length_c 14.392561
_cell_angle_alpha 90.000000
_cell_angle_beta 141.453992
_cell_angle_gamma 90.000000
_cell_volume 1537.004451
_symmetry_space_group_name_H-M "P 21/M"
_symmetry_group_IT_number 11
_symmetry_cell_setting 'monoclinic'
loop_
_space_group_symop_operation_xyz
x,y,z
-x,1/2+y,-z
-x,-y,-z
x,1/2-y,z
loop_
_atom_site_type_symbol
_atom_site_label
_atom_site_fract_x
_atom_site_fract_y
_atom_site_fract_z
Si Si1 0.954955 0.077792 0.545209
Si Si2 0.275191 0.580556 0.302917
Si Si3 0.582849 0.082377 0.369177
Si Si4 0.765000 0.914930 0.453109
Si Si5 0.911993 0.586000 0.788654
Si Si6 0.662943 0.917544 0.815766
Si Si7 0.091018 0.083296 0.866078
O O1 0.942936 0.250000 0.516580
O O2 0.045492 0.039388 0.718341
O O3 0.830238 0.011735 0.442738
O O4 0.000000 0.000000 0.500000
O O5 0.249457 0.750000 0.263916
O O6 0.362818 0.549458 0.475315
O O7 0.153390 0.501188 0.196725
O O8 0.334157 0.519050 0.271000
O O9 0.603457 0.250000 0.362571
O O10 0.448462 0.042353 0.236551
O O11 0.640427 0.984037 0.347539
O O12 0.749957 0.750000 0.400731
O O13 0.836433 0.918411 0.619806
O O14 0.933416 0.750000 0.845286
O O15 0.033799 0.512234 0.889527
O O16 0.655907 0.750000 0.774530
O O17 0.772826 0.943669 0.993177
O O18 0.057937 0.250000 0.853525
#
# Coordination Sequence:
#
# PCOD8070142 Si02
#       7
#     4   4   4   4   4   4   4
#     4  10  19  33  55  80 102 122 149 189 237 289
#     4  10  19  30  46  69  95 126 167 209 243 275
#     4   9  18  32  49  69  96 130 166 202 238 276
#     4   9  17  30  50  75  99 124 157 196 237 280
#     4   9  17  30  48  68  93 126 162 201 242 284
#     4  10  20  33  48  67  95 131 166 200 239 281
#     4   9  19  34  50  70  97 127 157 192 239 291
#
# _framework density 18.217252999999999
#
# number of rings (size 3 to 8) (size 9 to 14) (size 15 to 20)
#    0.000    2.571    0.000    2.143    0.000    6.286 
#    0.000    0.000    0.000    0.857    0.000    0.000 
#    0.000    0.000    0.000    0.000    0.000    0.000 
#
# Total GULP energy -347244.251786 kJ/mol
# GULP energy per Si atom -12401.580421 kJ/mol
# Density = 1.817579 g / cm^3
# Si number density = 18.217253 Si / 1000 Ang^3
#
#
#
# Elastic Constant Matrix: (Units=GPa)
#
#
# Indices 1 2 3 4 5 6 
#
# 1 128.9115 72.1465 47.4080 0.0000 30.4557 0.0000
# 2 72.1465 119.1326 39.5743 0.0000 16.1559 0.0000
# 3 47.4080 39.5743 60.4547 0.0000 25.0846 0.0000
# 4 0.0000 0.0000 0.0000 17.5087 0.0000 2.8616
# 5 30.4557 16.1559 25.0846 0.0000 23.4553 0.0000
# 6 0.0000 0.0000 0.0000 2.8616 0.0000 39.4389
#
#
#
# Elastic Compliance Matrix: (Units=1/GPa)
#
#
# Indices 1 2 3 4 5 6 
#
# 1 0.015505 -0.006875 -0.002283 0.000000 -0.012956 0.000000
# 2 -0.006875 0.013775 -0.006100 0.000000 0.005962 0.000000
# 3 -0.002283 -0.006100 0.034789 0.000000 -0.030040 0.000000
# 4 0.000000 0.000000 0.000000 0.057800 0.000000 -0.004194
# 5 -0.012956 0.005962 -0.030040 0.000000 0.087477 0.000000
# 6 0.000000 0.000000 0.000000 -0.004194 0.000000 0.025660
#
#
# Mechanical properties :
#
#
# Convention : Reuss Voigt Hill
#
# Bulk Modulus (GPa) = 29.80251 69.63959 49.72105
# Shear Modulus (GPa) = 18.06966 26.03858 22.05412
#
# Velocity S-wave (km/s) = 3.15286 3.78476 3.48317
# Velocity P-wave (km/s) = 5.44509 7.57690 6.59767
#
# Compressibility (1/GPa) = 0.03355422
#
# Stress axis : x y z
#
# Youngs Moduli (GPa) = 64.49475 72.59480 28.74439
#
# Poissons Ratio (x) = 0.49905 0.06562
# Poissons Ratio (y) = 0.44337 0.17535
# Poissons Ratio (z) = 0.14724 0.44285
#
# Static dielectric constant tensor:
#      x y z
#    x 3.329290 0.000000 0.247430 
#    y 0.000000 3.503390 0.000000 
#    z 0.247430 0.000000 3.157220 
# 
# 
# High freq. dielectric constant tensor:
#      x y z
#    x 1.699850 0.000000 0.022270 
#    y 0.000000 1.715180 0.000000 
#    z 0.022270 0.000000 1.675180 
# 
# From -- ./inp_files/37151.got.cif
#   From: 2010.06.25/outbox.cif.g09.slc.cpg/sg11_19_cif.got.tgz:37151.got - 2010.06.27 23:14:04.
