data_PCOD8070038
_publ_section_title
;
Structure prediction by ZEFSAII (Michael W. Deem and Ramdas Pophale) SiO2 
 PCOD8070038
Probable space group: P 21/M
;
_chemical_formula_sum "Si O2"
_cell_formula_units_Z 32
_cell_length_a 6.597251
_cell_length_b 13.326503
_cell_length_c 19.454241
_cell_angle_alpha 90.000000
_cell_angle_beta 108.165495
_cell_angle_gamma 90.000000
_cell_volume 1625.137953
_symmetry_space_group_name_H-M "P 21/M"
_symmetry_group_IT_number 11
_symmetry_cell_setting 'monoclinic'
loop_
_space_group_symop_operation_xyz
x,y,z
-x,1/2+y,-z
-x,-y,-z
x,1/2-y,z
loop_
_atom_site_type_symbol
_atom_site_label
_atom_site_fract_x
_atom_site_fract_y
_atom_site_fract_z
Si Si1 0.776439 0.028813 0.729477
Si Si2 0.994836 0.012977 0.888069
Si Si3 0.417520 0.050114 0.597146
Si Si4 0.350518 0.638323 0.881613
Si Si5 0.357067 0.365523 0.446966
Si Si6 0.205893 0.364679 0.024474
Si Si7 0.068965 0.537019 0.643877
Si Si8 0.520259 0.361346 0.257179
O O1 0.583499 0.092307 0.673219
O O2 0.678838 0.918809 0.731313
O O3 0.854925 0.066611 0.812852
O O4 0.974344 0.024483 0.698203
O O5 0.175324 0.946254 0.871335
O O6 0.860088 0.939757 0.921928
O O7 0.095947 0.103643 0.941683
O O8 0.420419 0.125585 0.533818
O O9 0.492119 0.937639 0.582246
O O10 0.179030 0.042306 0.603100
O O11 0.246497 0.750000 0.874382
O O12 0.537724 0.628144 0.958546
O O13 0.474534 0.623031 0.823601
O O14 0.388446 0.250000 0.427546
O O15 0.112217 0.399705 0.413784
O O16 0.137436 0.250000 0.034618
O O17 0.250189 0.611086 0.688903
O O18 0.467377 0.250000 0.273268
#
# Coordination Sequence:
#
# PCOD8070038 Si02
#       8
#     4   4   4   4   4   4   4   4
#     4  10  20  33  51  77 104 140 173 213 264 313
#     4  11  20  35  57  77 102 143 178 210 266 319
#     4   9  21  37  53  80 112 137 172 220 260 302
#     4  10  19  32  51  78 106 133 167 211 260 314
#     4  10  20  36  57  78 106 144 179 212 255 309
#     4  10  22  37  53  77 107 136 177 224 259 307
#     4  10  19  33  52  77 108 137 174 214 264 314
#     4  10  19  29  46  76 110 135 165 212 261 314
#
# _framework density 19.690636999999999
#
# number of rings (size 3 to 8) (size 9 to 14) (size 15 to 20)
#    0.000    2.000    2.500    1.500    0.000    6.000 
#    0.000    0.625    0.000    0.750    0.000    0.000 
#    0.000    0.000    0.000    0.000    0.000    0.000 
#
# Total GULP energy -396611.189437 kJ/mol
# GULP energy per Si atom -12394.099670 kJ/mol
# Density = 1.964582 g / cm^3
# Si number density = 19.690637 Si / 1000 Ang^3
#
#
#
# Elastic Constant Matrix: (Units=GPa)
#
#
# Indices 1 2 3 4 5 6 
#
# 1 76.1865 2.7617 2.6003 0.0000 0.0423 0.0000
# 2 2.7617 28.3147 6.3320 0.0000 3.2284 0.0000
# 3 2.6003 6.3320 113.9375 0.0000 16.6553 0.0000
# 4 0.0000 0.0000 0.0000 22.1236 0.0000 -5.2258
# 5 0.0423 3.2284 16.6553 0.0000 29.0668 0.0000
# 6 0.0000 0.0000 0.0000 -5.2258 0.0000 17.7781
#
#
#
# Elastic Compliance Matrix: (Units=1/GPa)
#
#
# Indices 1 2 3 4 5 6 
#
# 1 0.013180 -0.001256 -0.000271 0.000000 0.000276 0.000000
# 2 -0.001256 0.036138 -0.001521 0.000000 -0.003141 0.000000
# 3 -0.000271 -0.001521 0.009651 0.000000 -0.005361 0.000000
# 4 0.000000 0.000000 0.000000 0.048573 0.000000 0.014278
# 5 0.000276 -0.003141 -0.005361 0.000000 0.037824 0.000000
# 6 0.000000 0.000000 0.000000 0.014278 0.000000 0.060446
#
#
# Mechanical properties :
#
#
# Convention : Reuss Voigt Hill
#
# Bulk Modulus (GPa) = 18.91325 26.86962 22.89143
# Shear Modulus (GPa) = 21.78338 27.57670 24.68004
#
# Velocity S-wave (km/s) = 3.32969 3.74638 3.54417
# Velocity P-wave (km/s) = 4.94049 5.69116 5.32906
#
# Compressibility (1/GPa) = 0.05287299
#
# Stress axis : x y z
#
# Youngs Moduli (GPa) = 75.87059 27.67174 103.61542
#
# Poissons Ratio (x) = 0.03476 0.02811
# Poissons Ratio (y) = 0.09532 0.15755
# Poissons Ratio (z) = 0.02058 0.04208
#
# Static dielectric constant tensor:
#      x y z
#    x 3.558380 0.000000 0.142370 
#    y 0.000000 3.139940 0.000000 
#    z 0.142370 0.000000 4.100460 
# 
# 
# High freq. dielectric constant tensor:
#      x y z
#    x 1.770530 0.000000 0.005920 
#    y 0.000000 1.717720 0.000000 
#    z 0.005920 0.000000 1.789210 
# 
# From -- ./inp_files/62859.got.cif
#   From: 2010.06.25/outbox.cif.g09.slc.cpg/sg11_32_cif.got.tgz:62859.got - 2010.06.27 23:14:04.
