data_PCOD8070730
_publ_section_title
;
Structure prediction by ZEFSAII (Michael W. Deem and Ramdas Pophale) SiO2 
 PCOD8070730
Probable space group: P 21/M
;
_chemical_formula_sum "Si O2"
_cell_formula_units_Z 20
_cell_length_a 12.175934
_cell_length_b 8.742409
_cell_length_c 12.421539
_cell_angle_alpha 90.000000
_cell_angle_beta 58.304918
_cell_angle_gamma 90.000000
_cell_volume 1125.032286
_symmetry_space_group_name_H-M "P 21/M"
_symmetry_group_IT_number 11
_symmetry_cell_setting 'monoclinic'
loop_
_space_group_symop_operation_xyz
x,y,z
-x,1/2+y,-z
-x,-y,-z
x,1/2-y,z
loop_
_atom_site_type_symbol
_atom_site_label
_atom_site_fract_x
_atom_site_fract_y
_atom_site_fract_z
Si Si1 0.639864 0.430479 0.941482
Si Si2 0.883690 0.073440 0.427069
Si Si3 0.819886 0.926689 0.673889
Si Si4 0.826159 0.572301 0.006699
Si Si5 0.907883 0.573139 0.198667
O O1 0.630401 0.250000 0.957337
O O2 0.725620 0.472930 0.794595
O O3 0.500000 0.500000 0.000000
O O4 0.699237 0.498799 0.020653
O O5 0.847903 0.250000 0.458176
O O6 0.035792 0.043452 0.359628
O O7 0.806157 0.980048 0.557534
O O8 0.839443 0.013609 0.332823
O O9 0.780600 0.750000 0.703521
O O10 0.834752 0.750000 0.971028
O O11 0.819746 0.548238 0.138571
O O12 0.950299 0.491679 0.893351
O O13 0.922099 0.750000 0.221022
#
# Coordination Sequence:
#
# PCOD8070730 Si02
#       5
#     4   4   4   4   4
#     4  12  24  38  57  78 107 144 183 223 266 316
#     4  10  19  31  52  79 111 143 174 219 269 320
#     4  10  20  34  52  77 109 141 179 221 266 318
#     4  10  20  34  51  77 109 141 180 220 265 318
#     4  10  19  31  52  79 110 143 174 218 270 319
#
# _framework density 17.777266999999998
#
# number of rings (size 3 to 8) (size 9 to 14) (size 15 to 20)
#    0.000    1.600    2.000    4.200    0.000    4.000 
#    0.000    0.000    0.000    1.200    0.000    0.000 
#    0.000    0.000    0.000    0.000    0.000    0.000 
#
# Total GULP energy -248074.467133 kJ/mol
# GULP energy per Si atom -12403.723357 kJ/mol
# Density = 1.773681 g / cm^3
# Si number density = 17.777267 Si / 1000 Ang^3
#
#
#
# Elastic Constant Matrix: (Units=GPa)
#
#
# Indices 1 2 3 4 5 6 
#
# 1 91.7454 7.2652 28.1333 0.0000 10.2666 0.0000
# 2 7.2652 -61.9660 -13.0593 0.0000 1.0626 0.0000
# 3 28.1333 -13.0593 61.1585 0.0000 22.9918 0.0000
# 4 0.0000 0.0000 0.0000 34.7341 0.0000 4.6525
# 5 10.2666 1.0626 22.9918 0.0000 28.9885 0.0000
# 6 0.0000 0.0000 0.0000 4.6525 0.0000 28.1345
#
#
#
# Elastic Compliance Matrix: (Units=1/GPa)
#
#
# Indices 1 2 3 4 5 6 
#
# 1 0.012272 0.002466 -0.004917 0.000000 -0.000537 0.000000
# 2 0.002466 -0.014540 -0.005858 0.000000 0.004306 0.000000
# 3 -0.004917 -0.005858 0.023690 0.000000 -0.016834 0.000000
# 4 0.000000 0.000000 0.000000 0.029442 0.000000 -0.004869
# 5 -0.000537 0.004306 -0.016834 0.000000 0.047880 0.000000
# 6 0.000000 0.000000 0.000000 -0.004869 0.000000 0.036349
#
#
# Mechanical properties :
#
#
# Convention : Reuss Voigt Hill
#
# Bulk Modulus (GPa) = 208.14076 15.06846 111.60461
# Shear Modulus (GPa) = 32.61311 22.94465 27.77888
#
# Velocity S-wave (km/s) = 4.28780 3.59649 3.95727
# Velocity P-wave (km/s) = 11.91009 5.07356 9.15400
#
# Compressibility (1/GPa) = 0.00480444
#
# Stress axis : x y z
#
# Youngs Moduli (GPa) = 81.48431 -68.77396 42.21137
#
# Poissons Ratio (x) = 0.16959 0.20755
# Poissons Ratio (y) = -0.20093 0.24727
# Poissons Ratio (z) = 0.40065 -0.40287
#
# Static dielectric constant tensor:
#      x y z
#    x 3.232760 0.000000 0.332700 
#    y 0.000000 3.506700 0.000000 
#    z 0.332700 0.000000 3.282650 
# 
# 
# High freq. dielectric constant tensor:
#      x y z
#    x 1.661650 0.000000 0.032760 
#    y 0.000000 1.709900 0.000000 
#    z 0.032760 0.000000 1.680940 
# 
# From -- ./inp_files/33406.got.cif
#   From: 2010.06.25/outbox.cif.g09.slc.cpg/sg11_17_cif.got.tgz:33406.got - 2010.06.27 23:14:04.
