data_PCOD8070341
_publ_section_title
;
Structure prediction by ZEFSAII (Michael W. Deem and Ramdas Pophale) SiO2 
 PCOD8070341
Probable space group: P 21/M
;
_chemical_formula_sum "Si O2"
_cell_formula_units_Z 28
_cell_length_a 18.410000
_cell_length_b 9.019686
_cell_length_c 12.663417
_cell_angle_alpha 90.000000
_cell_angle_beta 53.792185
_cell_angle_gamma 90.000000
_cell_volume 1696.699495
_symmetry_space_group_name_H-M "P 21/M"
_symmetry_group_IT_number 11
_symmetry_cell_setting 'monoclinic'
loop_
_space_group_symop_operation_xyz
x,y,z
-x,1/2+y,-z
-x,-y,-z
x,1/2-y,z
loop_
_atom_site_type_symbol
_atom_site_label
_atom_site_fract_x
_atom_site_fract_y
_atom_site_fract_z
Si Si1 0.750234 0.924723 0.894075
Si Si2 0.422419 0.075307 0.323594
Si Si3 0.387743 0.077274 0.808313
Si Si4 0.889877 0.585422 0.498533
Si Si5 0.408202 0.080521 0.563414
Si Si6 0.054474 0.413709 0.306990
Si Si7 0.715023 0.426047 0.706120
O O1 0.745459 0.750000 0.870958
O O2 0.854230 0.969862 0.828910
O O3 0.712474 0.014556 0.827330
O O4 0.692648 0.969204 0.045337
O O5 0.419660 0.250000 0.299675
O O6 0.369567 0.037668 0.480456
O O7 0.525756 0.022599 0.240631
O O8 0.374837 0.984226 0.272347
O O9 0.413587 0.250000 0.801416
O O10 0.350138 0.048941 0.719895
O O11 0.865987 0.750000 0.477874
O O12 0.924639 0.591565 0.587290
O O13 0.801488 0.484134 0.567025
O O14 0.969860 0.520320 0.356261
O O15 0.434879 0.250000 0.534127
O O16 0.500000 0.000000 0.500000
O O17 0.028078 0.250000 0.289419
O O18 0.716696 0.250000 0.705947
#
# Coordination Sequence:
#
# PCOD8070341 Si02
#       7
#     4   4   4   4   4   4   4
#     4   9  18  31  46  65  92 121 147 178 215 260
#     4  10  19  31  46  65  90 118 148 183 222 260
#     4   9  17  31  49  68  89 115 148 182 218 259
#     4   9  16  27  43  62  85 113 144 180 219 257
#     4   8  15  28  47  67  85 108 142 184 223 258
#     4   8  14  25  41  62  86 113 143 174 212 257
#     4  11  21  31  44  63  89 120 152 183 216 260
#
# _framework density 16.502628000000001
#
# number of rings (size 3 to 8) (size 9 to 14) (size 15 to 20)
#    0.000    2.857    0.000    3.000    0.000    5.143 
#    0.000    0.000    0.000    0.000    0.000    1.000 
#    0.000    0.000    0.000    0.000    0.000    0.000 
#
# Total GULP energy -346876.835690 kJ/mol
# GULP energy per Si atom -12388.458418 kJ/mol
# Density = 1.646507 g / cm^3
# Si number density = 16.502628 Si / 1000 Ang^3
#
#
#
# Elastic Constant Matrix: (Units=GPa)
#
#
# Indices 1 2 3 4 5 6 
#
# 1 18.0244 16.4920 38.9846 0.0000 -8.1150 0.0000
# 2 16.4920 77.2102 42.7844 0.0000 -2.5205 0.0000
# 3 38.9846 42.7844 122.6125 0.0000 -12.0963 0.0000
# 4 0.0000 0.0000 0.0000 19.9635 0.0000 -5.7009
# 5 -8.1150 -2.5205 -12.0963 0.0000 16.5390 0.0000
# 6 0.0000 0.0000 0.0000 -5.7009 0.0000 19.1268
#
#
#
# Elastic Compliance Matrix: (Units=1/GPa)
#
#
# Indices 1 2 3 4 5 6 
#
# 1 0.234757 -0.012710 -0.063624 0.000000 0.066715 0.000000
# 2 -0.012710 0.016793 -0.002351 0.000000 -0.005396 0.000000
# 3 -0.063624 -0.002351 0.028119 0.000000 -0.011010 0.000000
# 4 0.000000 0.000000 0.000000 0.054752 0.000000 0.016319
# 5 0.066715 -0.005396 -0.011010 0.000000 0.084322 0.000000
# 6 0.000000 0.000000 0.000000 0.016319 0.000000 0.057147
#
#
# Mechanical properties :
#
#
# Convention : Reuss Voigt Hill
#
# Bulk Modulus (GPa) = 8.17667 46.04099 27.10883
# Shear Modulus (GPa) = 7.41812 19.09829 13.25820
#
# Velocity S-wave (km/s) = 2.12247 3.40558 2.83750
# Velocity P-wave (km/s) = 3.31240 6.58967 5.21516
#
# Compressibility (1/GPa) = 0.12229916
#
# Stress axis : x y z
#
# Youngs Moduli (GPa) = 4.25973 59.54829 35.56296
#
# Poissons Ratio (x) = 0.75685 2.26266
# Poissons Ratio (y) = 0.05414 0.08361
# Poissons Ratio (z) = 0.27102 0.14000
#
# Static dielectric constant tensor:
#      x y z
#    x 2.933170 0.000000 0.017280 
#    y 0.000000 3.213640 0.000000 
#    z 0.017280 0.000000 3.472890 
# 
# 
# High freq. dielectric constant tensor:
#      x y z
#    x 1.598790 0.000000 -0.010600 
#    y 0.000000 1.642950 0.000000 
#    z -0.010600 0.000000 1.624840 
# 
# From -- ./inp_files/42300.got.cif
#   From: 2010.06.25/outbox.cif.g09.slc.cpg/sg11_22_cif.got.tgz:42300.got - 2010.06.27 23:14:04.
