data_PCOD8070102
_publ_section_title
;
Structure prediction by ZEFSAII (Michael W. Deem and Ramdas Pophale) SiO2 
 PCOD8070102
Probable space group: P 21/M
;
_chemical_formula_sum "Si O2"
_cell_formula_units_Z 28
_cell_length_a 14.126267
_cell_length_b 9.071402
_cell_length_c 28.304906
_cell_angle_alpha 90.000000
_cell_angle_beta 28.068913
_cell_angle_gamma 90.000000
_cell_volume 1706.686718
_symmetry_space_group_name_H-M "P 21/M"
_symmetry_group_IT_number 11
_symmetry_cell_setting 'monoclinic'
loop_
_space_group_symop_operation_xyz
x,y,z
-x,1/2+y,-z
-x,-y,-z
x,1/2-y,z
loop_
_atom_site_type_symbol
_atom_site_label
_atom_site_fract_x
_atom_site_fract_y
_atom_site_fract_z
Si Si1 0.277602 0.077558 0.410100
Si Si2 0.203578 0.414898 0.257708
Si Si3 0.690757 0.924751 0.893085
Si Si4 0.764351 0.415813 0.414964
Si Si5 0.091615 0.420052 0.736565
Si Si6 0.529267 0.919662 0.374564
Si Si7 0.171751 0.922028 0.364129
O O1 0.304204 0.250000 0.391061
O O2 0.065028 0.038972 0.528338
O O3 0.461393 0.018922 0.360701
O O4 0.292375 0.001590 0.352696
O O5 0.276732 0.250000 0.237991
O O6 0.305900 0.468147 0.163763
O O7 0.263078 0.522621 0.274236
O O8 0.965084 0.418411 0.357475
O O9 0.683479 0.750000 0.903024
O O10 0.890845 0.983599 0.830988
O O11 0.500000 0.000000 0.000000
O O12 0.727625 0.250000 0.411607
O O13 0.778977 0.529240 0.365546
O O14 0.585328 0.469814 0.527444
O O15 0.030881 0.250000 0.756348
O O16 0.232057 0.440262 0.721069
O O17 0.475984 0.750000 0.386709
O O18 0.211127 0.750000 0.351332
#
# Coordination Sequence:
#
# PCOD8070102 Si02
#       7
#     4   4   4   4   4   4   4
#     4  10  20  30  44  66  94 131 170 206 240 277
#     4   9  17  30  49  70  96 127 159 198 243 285
#     4  10  21  37  55  75  98 125 157 201 249 292
#     4   9  17  29  44  64  95 132 165 199 235 276
#     4  10  20  31  47  70  96 127 162 199 240 290
#     4  10  19  31  45  65  96 133 167 200 238 279
#     4  10  19  30  45  67  94 128 167 204 241 282
#
# _framework density 16.406058000000002
#
# number of rings (size 3 to 8) (size 9 to 14) (size 15 to 20)
#    0.000    2.286    1.429    3.000    0.000    5.714 
#    0.000    0.000    0.000    0.000    0.000    1.000 
#    0.000    0.000    0.000    0.000    0.000    0.000 
#
# Total GULP energy -347199.417014 kJ/mol
# GULP energy per Si atom -12399.979179 kJ/mol
# Density = 1.636872 g / cm^3
# Si number density = 16.406058 Si / 1000 Ang^3
#
#
#
# Elastic Constant Matrix: (Units=GPa)
#
#
# Indices 1 2 3 4 5 6 
#
# 1 105.2971 62.0044 46.5198 0.0000 -0.0117 0.0000
# 2 62.0044 93.3112 41.1516 0.0000 3.2758 0.0000
# 3 46.5198 41.1516 81.2377 0.0000 2.9601 0.0000
# 4 0.0000 0.0000 0.0000 23.2565 0.0000 1.9024
# 5 -0.0117 3.2758 2.9601 0.0000 13.0906 0.0000
# 6 0.0000 0.0000 0.0000 1.9024 0.0000 32.8389
#
#
#
# Elastic Compliance Matrix: (Units=1/GPa)
#
#
# Indices 1 2 3 4 5 6 
#
# 1 0.017323 -0.009276 -0.005350 0.000000 0.003547 0.000000
# 2 -0.009276 0.018813 -0.004080 0.000000 -0.003794 0.000000
# 3 -0.005350 -0.004080 0.017548 0.000000 -0.002952 0.000000
# 4 0.000000 0.000000 0.000000 0.043203 0.000000 -0.002503
# 5 0.003547 -0.003794 -0.002952 0.000000 0.078011 0.000000
# 6 0.000000 0.000000 0.000000 -0.002503 0.000000 0.030597
#
#
# Mechanical properties :
#
#
# Convention : Reuss Voigt Hill
#
# Bulk Modulus (GPa) = 61.45731 64.35529 62.90630
# Shear Modulus (GPa) = 20.13439 22.51522 21.32481
#
# Velocity S-wave (km/s) = 3.50702 3.70857 3.60920
# Velocity P-wave (km/s) = 7.34441 7.59274 7.46961
#
# Compressibility (1/GPa) = 0.01627146
#
# Stress axis : x y z
#
# Youngs Moduli (GPa) = 57.72544 53.15418 56.98780
#
# Poissons Ratio (x) = 0.49307 0.30491
# Poissons Ratio (y) = 0.53547 0.23250
# Poissons Ratio (z) = 0.30885 0.21686
#
# Static dielectric constant tensor:
#      x y z
#    x 3.027900 0.000000 0.001510 
#    y 0.000000 3.137940 0.000000 
#    z 0.001510 0.000000 2.797200 
# 
# 
# High freq. dielectric constant tensor:
#      x y z
#    x 1.625630 0.000000 0.000880 
#    y 0.000000 1.643190 0.000000 
#    z 0.000880 0.000000 1.587940 
# 
# From -- ./inp_files/73267.got.cif
#   From: 2010.06.25/outbox.cif.g09.slc.cpg/sg11_37_cif.got.tgz:73267.got - 2010.06.27 23:14:04.
