data_PCOD8070473
_publ_section_title
;
Structure prediction by ZEFSAII (Michael W. Deem and Ramdas Pophale) SiO2 
 PCOD8070473
Probable space group: P 21/M
;
_chemical_formula_sum "Si O2"
_cell_formula_units_Z 32
_cell_length_a 14.473890
_cell_length_b 8.946672
_cell_length_c 15.591472
_cell_angle_alpha 90.000000
_cell_angle_beta 63.416974
_cell_angle_gamma 90.000000
_cell_volume 1805.555098
_symmetry_space_group_name_H-M "P 21/M"
_symmetry_group_IT_number 11
_symmetry_cell_setting 'monoclinic'
loop_
_space_group_symop_operation_xyz
x,y,z
-x,1/2+y,-z
-x,-y,-z
x,1/2-y,z
loop_
_atom_site_type_symbol
_atom_site_label
_atom_site_fract_x
_atom_site_fract_y
_atom_site_fract_z
Si Si1 0.944217 0.074625 0.400432
Si Si2 0.916566 0.423473 0.976215
Si Si3 0.072152 0.078545 0.771093
Si Si4 0.415942 0.927571 0.843944
Si Si5 0.352395 0.424619 0.225009
Si Si6 0.606738 0.574542 0.977887
Si Si7 0.235917 0.425777 0.849022
Si Si8 0.846478 0.572825 0.596364
O O1 0.929654 0.250000 0.414578
O O2 0.059255 0.024660 0.380747
O O3 0.921451 0.026777 0.313283
O O4 0.860472 0.997114 0.496789
O O5 0.905112 0.250000 0.004999
O O6 0.958670 0.442339 0.861476
O O7 0.810860 0.509037 0.041965
O O8 0.000000 0.500000 0.000000
O O9 0.087319 0.250000 0.736683
O O10 0.164353 0.031641 0.797767
O O11 0.411559 0.750000 0.843668
O O12 0.534567 0.988366 0.793903
O O13 0.349818 0.997705 0.792243
O O14 0.354630 0.988672 0.953768
O O15 0.357782 0.250000 0.240206
O O16 0.324233 0.453362 0.136239
O O17 0.259856 0.493951 0.319978
O O18 0.594661 0.750000 0.002136
O O19 0.500000 0.500000 0.000000
O O20 0.247717 0.250000 0.853688
O O21 0.841482 0.750000 0.589429
#
# Coordination Sequence:
#
# PCOD8070473 Si02
#       8
#     4   4   4   4   4   4   4   4
#     4  10  20  32  51  78 100 122 156 199 247 296
#     4   9  17  30  47  69  97 129 166 203 240 281
#     4   9  19  34  51  71  98 132 165 199 242 293
#     4  10  19  31  48  72 101 133 170 208 246 289
#     4   8  16  31  51  72  95 129 168 201 241 295
#     4   9  16  28  45  67  96 128 165 203 240 286
#     4  10  20  33  49  71 100 136 173 204 243 291
#     4   9  18  35  54  71  96 127 157 195 246 300
#
# _framework density 17.723082000000002
#
# number of rings (size 3 to 8) (size 9 to 14) (size 15 to 20)
#    0.000    2.750    0.000    3.375    0.000    4.500 
#    0.000    5.000    0.000    0.750    0.000    0.000 
#    0.000    0.000    0.000    0.000    0.000    0.000 
#
# Total GULP energy -396462.637701 kJ/mol
# GULP energy per Si atom -12389.457428 kJ/mol
# Density = 1.768274 g / cm^3
# Si number density = 17.723082 Si / 1000 Ang^3
#
#
#
# Elastic Constant Matrix: (Units=GPa)
#
#
# Indices 1 2 3 4 5 6 
#
# 1 89.6934 30.5598 50.4518 0.0000 -6.7860 0.0000
# 2 30.5598 65.8583 36.5807 0.0000 -0.3525 0.0000
# 3 50.4518 36.5807 108.9184 0.0000 -8.3307 0.0000
# 4 0.0000 0.0000 0.0000 27.1060 0.0000 3.3448
# 5 -6.7860 -0.3525 -8.3307 0.0000 22.5586 0.0000
# 6 0.0000 0.0000 0.0000 3.3448 0.0000 27.9229
#
#
#
# Elastic Compliance Matrix: (Units=1/GPa)
#
#
# Indices 1 2 3 4 5 6 
#
# 1 0.016055 -0.004200 -0.005827 0.000000 0.002612 0.000000
# 2 -0.004200 0.019860 -0.004937 0.000000 -0.002776 0.000000
# 3 -0.005827 -0.004937 0.013788 0.000000 0.003262 0.000000
# 4 0.000000 0.000000 0.000000 0.037446 0.000000 -0.004486
# 5 0.002612 -0.002776 0.003262 0.000000 0.046276 0.000000
# 6 0.000000 0.000000 0.000000 -0.004486 0.000000 0.036350
#
#
# Mechanical properties :
#
#
# Convention : Reuss Voigt Hill
#
# Bulk Modulus (GPa) = 50.56546 55.51717 53.04132
# Shear Modulus (GPa) = 24.23729 25.30936 24.77332
#
# Velocity S-wave (km/s) = 3.70206 3.78305 3.74277
# Velocity P-wave (km/s) = 6.84591 7.10456 6.97643
#
# Compressibility (1/GPa) = 0.01977634
#
# Stress axis : x y z
#
# Youngs Moduli (GPa) = 62.28600 50.35165 72.52816
#
# Poissons Ratio (x) = 0.21146 0.42259
# Poissons Ratio (y) = 0.26158 0.35809
# Poissons Ratio (z) = 0.36291 0.24860
#
# Static dielectric constant tensor:
#      x y z
#    x 3.489740 0.000000 -0.116260 
#    y 0.000000 3.492490 0.000000 
#    z -0.116260 0.000000 3.475160 
# 
# 
# High freq. dielectric constant tensor:
#      x y z
#    x 1.681100 0.000000 -0.003370 
#    y 0.000000 1.683720 0.000000 
#    z -0.003370 0.000000 1.663510 
# 
# From -- ./inp_files/51696.got.cif
#   From: 2010.06.25/outbox.cif.g09.slc.cpg/sg11_26_cif.got.tgz:51696.got - 2010.06.27 23:14:04.
