data_PCOD8070076
_publ_section_title
;
Structure prediction by ZEFSAII (Michael W. Deem and Ramdas Pophale) SiO2 
 PCOD8070076
Probable space group: P 21/M
;
_chemical_formula_sum "Si O2"
_cell_formula_units_Z 32
_cell_length_a 27.927105
_cell_length_b 9.329754
_cell_length_c 16.787615
_cell_angle_alpha 90.000000
_cell_angle_beta 24.145622
_cell_angle_gamma 90.000000
_cell_volume 1789.242190
_symmetry_space_group_name_H-M "P 21/M"
_symmetry_group_IT_number 11
_symmetry_cell_setting 'monoclinic'
loop_
_space_group_symop_operation_xyz
x,y,z
-x,1/2+y,-z
-x,-y,-z
x,1/2-y,z
loop_
_atom_site_type_symbol
_atom_site_label
_atom_site_fract_x
_atom_site_fract_y
_atom_site_fract_z
Si Si1 0.735902 0.591008 0.973716
Si Si2 0.526042 0.084943 0.248983
Si Si3 0.671227 0.583806 0.724234
Si Si4 0.594329 0.584111 0.409433
Si Si5 0.154148 0.414686 0.030776
Si Si6 0.500632 0.917631 0.123892
Si Si7 0.082499 0.410200 0.429499
Si Si8 0.070912 0.082141 0.624943
O O1 0.681713 0.750000 0.072087
O O2 0.834678 0.560676 0.890760
O O3 0.789145 0.588003 0.804418
O O4 0.639234 0.468375 0.125858
O O5 0.541297 0.250000 0.200449
O O6 0.421545 0.064748 0.471211
O O7 0.509355 0.989786 0.196523
O O8 0.649953 0.750000 0.734245
O O9 0.611396 0.483679 0.750029
O O10 0.808888 0.545329 0.511793
O O11 0.616950 0.553891 0.894467
O O12 0.500000 0.500000 0.500000
O O13 0.581586 0.750000 0.404290
O O14 0.725674 0.529254 0.191608
O O15 0.131460 0.250000 0.043459
O O16 0.042221 0.501896 0.167062
O O17 0.479217 0.750000 0.169322
O O18 0.031581 0.250000 0.510180
O O19 0.091436 0.473719 0.504030
O O20 0.000000 0.500000 0.500000
O O21 0.045641 0.250000 0.667041
#
# Coordination Sequence:
#
# PCOD8070076 Si02
#       8
#     4   4   4   4   4   4   4   4
#     4  10  19  32  49  70 102 141 176 214 260 308
#     4  11  22  34  53  79 106 137 176 222 270 319
#     4   9  19  37  58  81 111 142 174 215 263 316
#     4  10  21  36  53  75 104 140 181 225 271 314
#     4  10  20  34  51  72 102 139 178 219 261 308
#     4  10  20  36  59  84 110 139 173 216 266 319
#     4  10  19  30  44  67 101 138 172 205 246 299
#     4  10  20  33  51  74 105 142 176 213 259 312
#
# _framework density 17.884665999999999
#
# number of rings (size 3 to 8) (size 9 to 14) (size 15 to 20)
#    0.000    2.000    2.500    1.500    0.000    5.000 
#    0.000    1.250    0.000    0.750    0.000    0.000 
#    0.000    0.000    0.000    0.000    0.000    0.000 
#
# Total GULP energy -396708.195303 kJ/mol
# GULP energy per Si atom -12397.131103 kJ/mol
# Density = 1.784396 g / cm^3
# Si number density = 17.884666 Si / 1000 Ang^3
#
#
#
# Elastic Constant Matrix: (Units=GPa)
#
#
# Indices 1 2 3 4 5 6 
#
# 1 64.4240 44.1707 37.7741 0.0000 -7.5795 0.0000
# 2 44.1707 84.4188 49.7650 0.0000 -12.3955 0.0000
# 3 37.7741 49.7650 114.2106 0.0000 -17.2244 0.0000
# 4 0.0000 0.0000 0.0000 29.2214 0.0000 -5.1172
# 5 -7.5795 -12.3955 -17.2244 0.0000 27.1568 0.0000
# 6 0.0000 0.0000 0.0000 -5.1172 0.0000 30.4863
#
#
#
# Elastic Compliance Matrix: (Units=1/GPa)
#
#
# Indices 1 2 3 4 5 6 
#
# 1 0.025197 -0.011153 -0.003518 0.000000 -0.000289 0.000000
# 2 -0.011153 0.021128 -0.005012 0.000000 0.003352 0.000000
# 3 -0.003518 -0.005012 0.012838 0.000000 0.004873 0.000000
# 4 0.000000 0.000000 0.000000 0.035258 0.000000 0.005918
# 5 -0.000289 0.003352 0.004873 0.000000 0.041363 0.000000
# 6 0.000000 0.000000 0.000000 0.005918 0.000000 0.033795
#
#
# Mechanical properties :
#
#
# Convention : Reuss Voigt Hill
#
# Bulk Modulus (GPa) = 50.50919 58.49700 54.50310
# Shear Modulus (GPa) = 23.19713 26.12914 24.66314
#
# Velocity S-wave (km/s) = 3.60535 3.82642 3.71753
# Velocity P-wave (km/s) = 6.75532 7.23194 6.99769
#
# Compressibility (1/GPa) = 0.01979838
#
# Stress axis : x y z
#
# Youngs Moduli (GPa) = 39.68665 47.33080 77.89391
#
# Poissons Ratio (x) = 0.52787 0.27402
# Poissons Ratio (y) = 0.44262 0.39039
# Poissons Ratio (z) = 0.13961 0.23721
#
# Static dielectric constant tensor:
#      x y z
#    x 3.154510 0.000000 0.068660 
#    y 0.000000 3.322610 0.000000 
#    z 0.068660 0.000000 3.475250 
# 
# 
# High freq. dielectric constant tensor:
#      x y z
#    x 1.670280 0.000000 -0.000120 
#    y 0.000000 1.693320 0.000000 
#    z -0.000120 0.000000 1.688920 
# 
# From -- ./inp_files/54346.got.cif
#   From: 2010.06.25/outbox.cif.g09.slc.cpg/sg11_28_cif.got.tgz:54346.got - 2010.06.27 23:14:04.
