data_PCOD8070830
_publ_section_title
;
Structure prediction by ZEFSAII (Michael W. Deem and Ramdas Pophale) SiO2 
 PCOD8070830
Probable space group: P 21/M
;
_chemical_formula_sum "Si O2"
_cell_formula_units_Z 32
_cell_length_a 15.619674
_cell_length_b 8.760288
_cell_length_c 27.783455
_cell_angle_alpha 90.000000
_cell_angle_beta 27.437688
_cell_angle_gamma 90.000000
_cell_volume 1751.756277
_symmetry_space_group_name_H-M "P 21/M"
_symmetry_group_IT_number 11
_symmetry_cell_setting 'monoclinic'
loop_
_space_group_symop_operation_xyz
x,y,z
-x,1/2+y,-z
-x,-y,-z
x,1/2-y,z
loop_
_atom_site_type_symbol
_atom_site_label
_atom_site_fract_x
_atom_site_fract_y
_atom_site_fract_z
Si Si1 0.305944 0.927066 0.538963
Si Si2 0.300767 0.927613 0.919182
Si Si3 0.293897 0.426527 0.823567
Si Si4 0.936003 0.929003 0.152365
Si Si5 0.716481 0.569959 0.717038
Si Si6 0.278172 0.927646 0.386085
Si Si7 0.937347 0.929300 0.418669
Si Si8 0.692005 0.073091 0.350639
O O1 0.284789 0.750000 0.535973
O O2 0.266354 0.960162 0.614493
O O3 0.155788 0.025442 0.585130
O O4 0.513915 0.978402 0.421336
O O5 0.315820 0.750000 0.901611
O O6 0.505292 0.988854 0.831610
O O7 0.226509 0.997758 0.906594
O O8 0.154202 0.964065 0.034667
O O9 0.249713 0.250000 0.851203
O O10 0.179543 0.492413 0.835580
O O11 0.509242 0.460343 0.706244
O O12 0.900046 0.750000 0.178288
O O13 0.872795 0.019874 0.231127
O O14 0.737317 0.750000 0.714394
O O15 0.779510 0.525964 0.631592
O O16 0.846887 0.481027 0.689930
O O17 0.243374 0.750000 0.392130
O O18 0.157275 0.978393 0.491219
O O19 0.918603 0.750000 0.436465
O O20 0.650223 0.250000 0.362629
#
# Coordination Sequence:
#
# PCOD8070830 Si02
#       8
#     4   4   4   4   4   4   4   4
#     4  10  21  38  57  78 106 135 163 202 252 303
#     4   9  19  33  50  72 100 137 177 214 252 296
#     4   9  18  30  47  72 103 137 169 205 250 299
#     4  10  19  32  51  76 105 137 172 209 253 301
#     4  10  20  35  51  70 101 139 177 218 259 298
#     4  10  19  32  49  73 105 139 173 209 254 306
#     4  12  23  34  52  77 101 131 173 214 256 308
#     4  10  21  36  56  82 107 133 165 201 247 303
#
# _framework density 18.267381
#
# number of rings (size 3 to 8) (size 9 to 14) (size 15 to 20)
#    0.000    2.000    0.000    4.125    0.000    4.500 
#    0.000    0.000    0.000    0.750    0.000    0.000 
#    0.000    0.000    0.000    0.000    0.000    0.000 
#
# Total GULP energy -396903.338879 kJ/mol
# GULP energy per Si atom -12403.229340 kJ/mol
# Density = 1.822580 g / cm^3
# Si number density = 18.267381 Si / 1000 Ang^3
#
#
#
# Elastic Constant Matrix: (Units=GPa)
#
#
# Indices 1 2 3 4 5 6 
#
# 1 87.4647 24.7686 40.4703 0.0000 -10.0529 0.0000
# 2 24.7686 49.3483 26.2094 0.0000 -1.2012 0.0000
# 3 40.4703 26.2094 100.2067 0.0000 3.6566 0.0000
# 4 0.0000 0.0000 0.0000 26.9148 0.0000 2.0167
# 5 -10.0529 -1.2012 3.6566 0.0000 18.2842 0.0000
# 6 0.0000 0.0000 0.0000 2.0167 0.0000 29.9437
#
#
#
# Elastic Compliance Matrix: (Units=1/GPa)
#
#
# Indices 1 2 3 4 5 6 
#
# 1 0.016692 -0.005064 -0.005782 0.000000 0.010001 0.000000
# 2 -0.005064 0.025212 -0.004541 0.000000 -0.000219 0.000000
# 3 -0.005782 -0.004541 0.013729 0.000000 -0.006223 0.000000
# 4 0.000000 0.000000 0.000000 0.037343 0.000000 -0.002515
# 5 0.010001 -0.000219 -0.006223 0.000000 0.061421 0.000000
# 6 0.000000 0.000000 0.000000 -0.002515 0.000000 0.033565
#
#
# Mechanical properties :
#
#
# Convention : Reuss Voigt Hill
#
# Bulk Modulus (GPa) = 40.22544 46.65736 43.44140
# Shear Modulus (GPa) = 22.02424 24.73330 23.37877
#
# Velocity S-wave (km/s) = 3.47603 3.68361 3.58132
# Velocity P-wave (km/s) = 6.17888 6.60975 6.39794
#
# Compressibility (1/GPa) = 0.02485989
#
# Stress axis : x y z
#
# Youngs Moduli (GPa) = 59.90932 39.66334 72.83677
#
# Poissons Ratio (x) = 0.20084 0.42113
# Poissons Ratio (y) = 0.30336 0.33077
# Poissons Ratio (z) = 0.34639 0.18012
#
# Static dielectric constant tensor:
#      x y z
#    x 3.443950 0.000000 -0.219920 
#    y 0.000000 3.356660 0.000000 
#    z -0.219920 0.000000 3.408260 
# 
# 
# High freq. dielectric constant tensor:
#      x y z
#    x 1.695210 0.000000 -0.013630 
#    y 0.000000 1.712950 0.000000 
#    z -0.013630 0.000000 1.701370 
# 
# From -- ./inp_files/51701.got.cif
#   From: 2010.06.25/outbox.cif.g09.slc.cpg/sg11_26_cif.got.tgz:51701.got - 2010.06.27 23:14:04.
