data_PCOD8070211
_publ_section_title
;
Structure prediction by ZEFSAII (Michael W. Deem and Ramdas Pophale) SiO2 
 PCOD8070211
Probable space group: P 21/M
;
_chemical_formula_sum "Si O2"
_cell_formula_units_Z 32
_cell_length_a 15.197279
_cell_length_b 14.218184
_cell_length_c 8.741613
_cell_angle_alpha 90.000000
_cell_angle_beta 105.878705
_cell_angle_gamma 90.000000
_cell_volume 1816.794309
_symmetry_space_group_name_H-M "P 21/M"
_symmetry_group_IT_number 11
_symmetry_cell_setting 'monoclinic'
loop_
_space_group_symop_operation_xyz
x,y,z
-x,1/2+y,-z
-x,-y,-z
x,1/2-y,z
loop_
_atom_site_type_symbol
_atom_site_label
_atom_site_fract_x
_atom_site_fract_y
_atom_site_fract_z
Si Si1 0.166208 0.353792 0.306688
Si Si2 0.099702 0.995327 0.478887
Si Si3 0.569150 0.638334 0.663074
Si Si4 0.653521 0.647545 0.401909
Si Si5 0.216517 0.860510 0.338536
Si Si6 0.631637 0.143936 0.338234
Si Si7 0.262848 0.024047 0.134320
Si Si8 0.267613 0.496652 0.780013
O O1 0.126276 0.250000 0.260508
O O2 0.094398 0.413599 0.368251
O O3 0.259439 0.353808 0.445918
O O4 0.185616 0.402607 0.153498
O O5 0.129124 0.904286 0.389765
O O6 0.169826 0.005837 0.651801
O O7 0.000000 0.000000 0.500000
O O8 0.590809 0.750000 0.705921
O O9 0.571348 0.620813 0.479482
O O10 0.469604 0.607426 0.673237
O O11 0.637985 0.567324 0.780991
O O12 0.638056 0.750000 0.321910
O O13 0.664100 0.579322 0.263727
O O14 0.196998 0.750000 0.290007
O O15 0.306470 0.871812 0.483546
O O16 0.240998 0.921786 0.199520
O O17 0.627219 0.250000 0.283354
O O18 0.678106 0.093554 0.216022
O O19 0.251132 0.018810 0.948739
#
# Coordination Sequence:
#
# PCOD8070211 Si02
#       8
#     4   4   4   4   4   4   4   4
#     4   8  15  30  49  69  94 124 156 190 235 286
#     4   9  18  34  55  74  92 122 165 205 238 282
#     4   9  17  31  51  72  95 128 168 202 233 278
#     4   8  15  28  46  67  91 121 159 199 234 275
#     4   9  19  35  52  70  96 130 164 197 237 286
#     4   9  18  33  51  69  92 128 171 205 232 274
#     4  10  19  30  48  72 101 131 154 192 246 293
#     4  10  20  31  47  73 100 125 156 200 250 291
#
# _framework density 17.613441999999999
#
# number of rings (size 3 to 8) (size 9 to 14) (size 15 to 20)
#    0.000    3.000    0.000    3.375    0.000    4.500 
#    0.000    2.500    0.000    4.500    0.000    0.000 
#    0.000    0.000    0.000    0.000    0.000    0.000 
#
# Total GULP energy -396449.939231 kJ/mol
# GULP energy per Si atom -12389.060601 kJ/mol
# Density = 1.757335 g / cm^3
# Si number density = 17.613442 Si / 1000 Ang^3
#
#
#
# Elastic Constant Matrix: (Units=GPa)
#
#
# Indices 1 2 3 4 5 6 
#
# 1 125.3640 54.0647 44.6671 0.0000 -22.2136 0.0000
# 2 54.0647 126.1353 56.3952 0.0000 -17.0547 0.0000
# 3 44.6671 56.3952 105.2040 0.0000 -32.1920 0.0000
# 4 0.0000 0.0000 0.0000 12.0448 0.0000 -4.9906
# 5 -22.2136 -17.0547 -32.1920 0.0000 21.1400 0.0000
# 6 0.0000 0.0000 0.0000 -4.9906 0.0000 19.5418
#
#
#
# Elastic Compliance Matrix: (Units=1/GPa)
#
#
# Indices 1 2 3 4 5 6 
#
# 1 0.011065 -0.003493 -0.000243 0.000000 0.008438 0.000000
# 2 -0.003493 0.011530 -0.005570 0.000000 -0.002850 0.000000
# 3 -0.000243 -0.005570 0.020863 0.000000 0.027020 0.000000
# 4 0.000000 0.000000 0.000000 0.092847 0.000000 0.023711
# 5 0.008438 -0.002850 0.027020 0.000000 0.095018 0.000000
# 6 0.000000 0.000000 0.000000 0.023711 0.000000 0.057228
#
#
# Mechanical properties :
#
#
# Convention : Reuss Voigt Hill
#
# Bulk Modulus (GPa) = 40.24938 74.10636 57.17787
# Shear Modulus (GPa) = 15.85063 23.98375 19.91719
#
# Velocity S-wave (km/s) = 3.00312 3.69409 3.36638
# Velocity P-wave (km/s) = 5.90983 7.76918 6.90240
#
# Compressibility (1/GPa) = 0.02484511
#
# Stress axis : x y z
#
# Youngs Moduli (GPa) = 90.37397 86.72947 47.93272
#
# Poissons Ratio (x) = 0.30295 0.01167
# Poissons Ratio (y) = 0.31568 0.26698
# Poissons Ratio (z) = 0.02200 0.48308
#
# Static dielectric constant tensor:
#      x y z
#    x 3.187000 0.000000 -0.244880 
#    y 0.000000 3.763690 0.000000 
#    z -0.244880 0.000000 2.930760 
# 
# 
# High freq. dielectric constant tensor:
#      x y z
#    x 1.670290 0.000000 -0.025950 
#    y 0.000000 1.694470 0.000000 
#    z -0.025950 0.000000 1.647890 
# 
# From -- ./inp_files/21893.got.cif
#   From: 2010.06.25/outbox.cif.g09.slc.cpg/sg11_11_cif.got.tgz:21893.got - 2010.06.27 23:14:04.
