data_PCOD8070105
_publ_section_title
;
Structure prediction by ZEFSAII (Michael W. Deem and Ramdas Pophale) SiO2 
 PCOD8070105
Probable space group: P 21/M
;
_chemical_formula_sum "Si O2"
_cell_formula_units_Z 24
_cell_length_a 19.945829
_cell_length_b 9.034783
_cell_length_c 11.334394
_cell_angle_alpha 90.000000
_cell_angle_beta 136.067238
_cell_angle_gamma 90.000000
_cell_volume 1417.134308
_symmetry_space_group_name_H-M "P 21/M"
_symmetry_group_IT_number 11
_symmetry_cell_setting 'monoclinic'
loop_
_space_group_symop_operation_xyz
x,y,z
-x,1/2+y,-z
-x,-y,-z
x,1/2-y,z
loop_
_atom_site_type_symbol
_atom_site_label
_atom_site_fract_x
_atom_site_fract_y
_atom_site_fract_z
Si Si1 0.814108 0.577779 0.607352
Si Si2 0.020020 0.580576 0.906117
Si Si3 0.459160 0.423267 0.121190
Si Si4 0.772822 0.424225 0.800464
Si Si5 0.634000 0.577442 0.235244
Si Si6 0.588890 0.574988 0.677821
O O1 0.801267 0.750000 0.627440
O O2 0.925698 0.548091 0.704143
O O3 0.786293 0.476386 0.683009
O O4 0.744020 0.537218 0.409476
O O5 0.023819 0.750000 0.945855
O O6 0.000000 0.500000 0.000000
O O7 0.128219 0.538890 0.998414
O O8 0.477923 0.250000 0.139483
O O9 0.562868 0.499305 0.237515
O O10 0.413607 0.469608 0.187823
O O11 0.386421 0.475773 0.924670
O O12 0.747710 0.250000 0.769782
O O13 0.688563 0.515542 0.753662
O O14 0.613701 0.750000 0.221281
O O15 0.500000 0.500000 0.500000
O O16 0.582666 0.750000 0.650917
#
# Coordination Sequence:
#
# PCOD8070105 Si02
#       6
#     4   4   4   4   4   4
#     4   9  16  28  48  71  92 116 150 187 224 266
#     4   8  15  27  43  65  91 118 147 182 222 262
#     4   9  19  33  46  64  90 118 147 181 223 266
#     4  10  19  30  45  67  96 124 149 181 223 267
#     4   9  17  30  49  69  88 113 146 184 223 264
#     4  11  22  34  48  66  91 121 152 184 220 266
#
# _framework density 16.935586000000001
#
# number of rings (size 3 to 8) (size 9 to 14) (size 15 to 20)
#    0.000    2.667    0.000    2.000    0.000    5.333 
#    0.000    0.000    0.000    1.000    0.000    0.000 
#    0.000    0.000    0.000    0.000    0.000    1.000 
#
# Total GULP energy -297326.802720 kJ/mol
# GULP energy per Si atom -12388.616780 kJ/mol
# Density = 1.689704 g / cm^3
# Si number density = 16.935586 Si / 1000 Ang^3
#
#
#
# Elastic Constant Matrix: (Units=GPa)
#
#
# Indices 1 2 3 4 5 6 
#
# 1 96.5353 36.7584 66.8889 0.0000 17.1264 0.0000
# 2 36.7584 44.9352 36.6423 0.0000 5.6352 0.0000
# 3 66.8889 36.6423 143.2021 0.0000 28.5675 0.0000
# 4 0.0000 0.0000 0.0000 21.3379 0.0000 3.0964
# 5 17.1264 5.6352 28.5675 0.0000 28.9698 0.0000
# 6 0.0000 0.0000 0.0000 3.0964 0.0000 23.3687
#
#
#
# Elastic Compliance Matrix: (Units=1/GPa)
#
#
# Indices 1 2 3 4 5 6 
#
# 1 0.018697 -0.010507 -0.005288 0.000000 -0.003795 0.000000
# 2 -0.010507 0.034122 -0.004654 0.000000 0.004163 0.000000
# 3 -0.005288 -0.004654 0.012249 0.000000 -0.008048 0.000000
# 4 0.000000 0.000000 0.000000 0.047784 0.000000 -0.006331
# 5 -0.003795 0.004163 -0.008048 0.000000 0.043889 0.000000
# 6 0.000000 0.000000 0.000000 -0.006331 0.000000 0.043631
#
#
# Mechanical properties :
#
#
# Convention : Reuss Voigt Hill
#
# Bulk Modulus (GPa) = 41.37120 62.80575 52.08847
# Shear Modulus (GPa) = 20.05411 24.36082 22.20747
#
# Velocity S-wave (km/s) = 3.44487 3.79679 3.62510
# Velocity P-wave (km/s) = 6.34858 7.50909 6.95309
#
# Compressibility (1/GPa) = 0.02417140
#
# Stress axis : x y z
#
# Youngs Moduli (GPa) = 53.48541 29.30653 81.63745
#
# Poissons Ratio (x) = 0.30792 0.43166
# Poissons Ratio (y) = 0.56196 0.37994
# Poissons Ratio (z) = 0.28281 0.13639
#
# Static dielectric constant tensor:
#      x y z
#    x 3.131320 0.000000 0.347770 
#    y 0.000000 3.199650 0.000000 
#    z 0.347770 0.000000 3.828030 
# 
# 
# High freq. dielectric constant tensor:
#      x y z
#    x 1.622240 0.000000 0.025720 
#    y 0.000000 1.659090 0.000000 
#    z 0.025720 0.000000 1.663300 
# 
# From -- ./inp_files/33765.got.cif
#   From: 2010.06.25/outbox.cif.g09.slc.cpg/sg11_17_cif.got.tgz:33765.got - 2010.06.27 23:14:04.
