data_PCOD8070597
_publ_section_title
;
Structure prediction by ZEFSAII (Michael W. Deem and Ramdas Pophale) SiO2 
 PCOD8070597
Probable space group: P 21/M
;
_chemical_formula_sum "Si O2"
_cell_formula_units_Z 32
_cell_length_a 14.091200
_cell_length_b 14.296786
_cell_length_c 9.718105
_cell_angle_alpha 90.000000
_cell_angle_beta 61.305529
_cell_angle_gamma 90.000000
_cell_volume 1717.366128
_symmetry_space_group_name_H-M "P 21/M"
_symmetry_group_IT_number 11
_symmetry_cell_setting 'monoclinic'
loop_
_space_group_symop_operation_xyz
x,y,z
-x,1/2+y,-z
-x,-y,-z
x,1/2-y,z
loop_
_atom_site_type_symbol
_atom_site_label
_atom_site_fract_x
_atom_site_fract_y
_atom_site_fract_z
Si Si1 0.120215 0.357970 0.071244
Si Si2 0.624992 0.019839 0.411030
Si Si3 0.264292 0.854397 0.880003
Si Si4 0.662731 0.855220 0.222800
Si Si5 0.979424 0.139713 0.906213
Si Si6 0.062250 0.980981 0.315108
Si Si7 0.734180 0.354806 0.811605
Si Si8 0.581351 0.143180 0.678454
O O1 0.092755 0.250000 0.124921
O O2 0.085086 0.419844 0.225225
O O3 0.247958 0.372916 0.956731
O O4 0.060180 0.388820 0.972085
O O5 0.654428 0.083496 0.261843
O O6 0.653187 0.074673 0.530973
O O7 0.500000 0.000000 0.500000
O O8 0.684165 0.920245 0.342914
O O9 0.268875 0.750000 0.816979
O O10 0.140602 0.890874 0.961479
O O11 0.307865 0.860027 0.004160
O O12 0.669866 0.750000 0.273911
O O13 0.546645 0.878654 0.235193
O O14 0.984431 0.250000 0.869165
O O15 0.005326 0.083727 0.746256
O O16 0.172282 0.929447 0.282834
O O17 0.000000 0.000000 0.500000
O O18 0.779498 0.250000 0.748800
O O19 0.627352 0.376002 0.797318
O O20 0.601222 0.250000 0.617002
#
# Coordination Sequence:
#
# PCOD8070597 Si02
#       8
#     4   4   4   4   4   4   4   4
#     4  10  21  37  56  76 101 140 184 216 250 310
#     4  10  19  31  49  76 105 133 165 210 258 301
#     4   9  17  32  54  77 101 130 169 216 258 298
#     4   9  18  33  52  73 102 139 176 213 251 300
#     4   9  19  36  57  78 101 136 182 224 259 301
#     4  11  22  34  52  80 112 140 166 214 271 318
#     4   9  19  36  56  77 102 134 172 213 259 309
#     4   9  18  33  54  79 104 132 169 214 262 305
#
# _framework density 18.633185000000001
#
# number of rings (size 3 to 8) (size 9 to 14) (size 15 to 20)
#    0.000    2.500    0.000    3.375    0.000    3.500 
#    0.000    8.125    0.000    0.750    0.000    7.000 
#    0.000    0.000    0.000    0.000    0.000    0.000 
#
# Total GULP energy -396583.847639 kJ/mol
# GULP energy per Si atom -12393.245239 kJ/mol
# Density = 1.859077 g / cm^3
# Si number density = 18.633185 Si / 1000 Ang^3
#
#
#
# Elastic Constant Matrix: (Units=GPa)
#
#
# Indices 1 2 3 4 5 6 
#
# 1 95.2585 46.7363 53.3219 0.0000 13.1623 0.0000
# 2 46.7363 99.9480 68.1826 0.0000 1.6004 0.0000
# 3 53.3219 68.1826 125.4587 0.0000 -0.3202 0.0000
# 4 0.0000 0.0000 0.0000 32.6189 0.0000 0.8285
# 5 13.1623 1.6004 -0.3202 0.0000 18.8238 0.0000
# 6 0.0000 0.0000 0.0000 0.8285 0.0000 25.0967
#
#
#
# Elastic Compliance Matrix: (Units=1/GPa)
#
#
# Indices 1 2 3 4 5 6 
#
# 1 0.016990 -0.004470 -0.004821 0.000000 -0.011582 0.000000
# 2 -0.004470 0.017119 -0.007400 0.000000 0.001545 0.000000
# 3 -0.004821 -0.007400 0.014052 0.000000 0.004239 0.000000
# 4 0.000000 0.000000 0.000000 0.030683 0.000000 -0.001013
# 5 -0.011582 0.001545 0.004239 0.000000 0.061164 0.000000
# 6 0.000000 0.000000 0.000000 -0.001013 0.000000 0.039879
#
#
# Mechanical properties :
#
#
# Convention : Reuss Voigt Hill
#
# Bulk Modulus (GPa) = 67.66463 73.01630 70.34047
# Shear Modulus (GPa) = 22.91535 25.46951 24.19243
#
# Velocity S-wave (km/s) = 3.51068 3.70116 3.60717
# Velocity P-wave (km/s) = 7.26815 7.58525 7.42839
#
# Compressibility (1/GPa) = 0.01477877
#
# Stress axis : x y z
#
# Youngs Moduli (GPa) = 58.85817 58.41589 71.16419
#
# Poissons Ratio (x) = 0.26114 0.34309
# Poissons Ratio (y) = 0.26311 0.52658
# Poissons Ratio (z) = 0.28376 0.43225
#
# Static dielectric constant tensor:
#      x y z
#    x 3.357090 0.000000 0.028450 
#    y 0.000000 3.878790 0.000000 
#    z 0.028450 0.000000 3.362150 
# 
# 
# High freq. dielectric constant tensor:
#      x y z
#    x 1.709620 0.000000 -0.002880 
#    y 0.000000 1.742620 0.000000 
#    z -0.002880 0.000000 1.705620 
# 
# From -- ./inp_files/22158.got.cif
#   From: 2010.06.25/outbox.cif.g09.slc.cpg/sg11_12_cif.got.tgz:22158.got - 2010.06.27 23:14:04.
