data_PCOD8070176
_publ_section_title
;
Structure prediction by ZEFSAII (Michael W. Deem and Ramdas Pophale) SiO2 
 PCOD8070176
Probable space group: P 21/M
;
_chemical_formula_sum "Si O2"
_cell_formula_units_Z 24
_cell_length_a 23.155126
_cell_length_b 9.213049
_cell_length_c 13.376938
_cell_angle_alpha 90.000000
_cell_angle_beta 149.013033
_cell_angle_gamma 90.000000
_cell_volume 1469.204081
_symmetry_space_group_name_H-M "P 21/M"
_symmetry_group_IT_number 11
_symmetry_cell_setting 'monoclinic'
loop_
_space_group_symop_operation_xyz
x,y,z
-x,1/2+y,-z
-x,-y,-z
x,1/2-y,z
loop_
_atom_site_type_symbol
_atom_site_label
_atom_site_fract_x
_atom_site_fract_y
_atom_site_fract_z
Si Si1 0.894745 0.418565 0.958925
Si Si2 0.466366 0.581663 0.296029
Si Si3 0.335229 0.581407 0.723896
Si Si4 0.887001 0.419978 0.718747
Si Si5 0.342399 0.583167 0.313978
Si Si6 0.561190 0.918946 0.944741
O O1 0.923533 0.250000 0.008124
O O2 0.868278 0.465518 0.805935
O O3 0.787639 0.459338 0.867391
O O4 0.002088 0.503909 0.160658
O O5 0.483372 0.750000 0.295503
O O6 0.375422 0.557901 0.248271
O O7 0.585543 0.516982 0.505790
O O8 0.418730 0.498414 0.129953
O O9 0.331372 0.750000 0.748935
O O10 0.220555 0.527923 0.503100
O O11 0.434175 0.553438 0.791554
O O12 0.352167 0.485800 0.847504
O O13 0.904052 0.250000 0.733016
O O14 0.362865 0.750000 0.377136
O O15 0.588009 0.750000 0.971842
#
# Coordination Sequence:
#
# PCOD8070176 Si02
#       6
#     4   4   4   4   4   4
#     4   9  17  30  47  67  93 122 150 182 223 270
#     4  10  19  30  47  70  94 121 153 188 226 270
#     4   9  18  32  48  67  93 123 153 186 226 271
#     4   9  17  29  46  68  93 120 149 184 225 267
#     4   9  18  32  48  67  93 124 154 186 226 269
#     4  10  19  31  48  69  94 122 151 186 228 273
#
# _framework density 16.335374000000002
#
# number of rings (size 3 to 8) (size 9 to 14) (size 15 to 20)
#    0.000    2.667    0.000    2.000    0.000    5.333 
#    0.000    3.333    0.000    1.000    0.000    0.000 
#    0.000    0.000    0.000    0.000    0.000    0.000 
#
# Total GULP energy -297659.710274 kJ/mol
# GULP energy per Si atom -12402.487928 kJ/mol
# Density = 1.629819 g / cm^3
# Si number density = 16.335374 Si / 1000 Ang^3
#
#
#
# Elastic Constant Matrix: (Units=GPa)
#
#
# Indices 1 2 3 4 5 6 
#
# 1 79.3980 43.6178 58.5968 0.0000 4.9976 0.0000
# 2 43.6178 75.8804 60.5964 0.0000 -4.5873 0.0000
# 3 58.5968 60.5964 137.6668 0.0000 7.2707 0.0000
# 4 0.0000 0.0000 0.0000 32.1404 0.0000 -0.7232
# 5 4.9976 -4.5873 7.2707 0.0000 27.8180 0.0000
# 6 0.0000 0.0000 0.0000 -0.7232 0.0000 25.8794
#
#
#
# Elastic Compliance Matrix: (Units=1/GPa)
#
#
# Indices 1 2 3 4 5 6 
#
# 1 0.021210 -0.008288 -0.005178 0.000000 -0.003824 0.000000
# 2 -0.008288 0.024517 -0.007662 0.000000 0.007534 0.000000
# 3 -0.005178 -0.007662 0.013038 0.000000 -0.003741 0.000000
# 4 0.000000 0.000000 0.000000 0.031133 0.000000 0.000870
# 5 -0.003824 0.007534 -0.003741 0.000000 0.038855 0.000000
# 6 0.000000 0.000000 0.000000 0.000870 0.000000 0.038665
#
#
# Mechanical properties :
#
#
# Convention : Reuss Voigt Hill
#
# Bulk Modulus (GPa) = 60.57188 68.72968 64.65078
# Shear Modulus (GPa) = 23.23682 25.84316 24.53999
#
# Velocity S-wave (km/s) = 3.77568 3.98180 3.88011
# Velocity P-wave (km/s) = 7.49455 7.95645 7.72895
#
# Compressibility (1/GPa) = 0.01650931
#
# Stress axis : x y z
#
# Youngs Moduli (GPa) = 47.14782 40.78838 76.70107
#
# Poissons Ratio (x) = 0.33807 0.39713
# Poissons Ratio (y) = 0.39078 0.58765
# Poissons Ratio (z) = 0.24411 0.31250
#
# Static dielectric constant tensor:
#      x y z
#    x 3.029460 0.000000 0.038070 
#    y 0.000000 3.123200 0.000000 
#    z 0.038070 0.000000 3.032010 
# 
# 
# High freq. dielectric constant tensor:
#      x y z
#    x 1.615610 0.000000 0.001330 
#    y 0.000000 1.634250 0.000000 
#    z 0.001330 0.000000 1.619230 
# 
# From -- ./inp_files/42656.got.cif
#   From: 2010.06.25/outbox.cif.g09.slc.cpg/sg11_22_cif.got.tgz:42656.got - 2010.06.27 23:14:04.
