data_PCOD8070837
_publ_section_title
;
Structure prediction by ZEFSAII (Michael W. Deem and Ramdas Pophale) SiO2 
 PCOD8070837
Probable space group: P 21/M
;
_chemical_formula_sum "Si O2"
_cell_formula_units_Z 28
_cell_length_a 15.008406
_cell_length_b 8.836143
_cell_length_c 12.638881
_cell_angle_alpha 90.000000
_cell_angle_beta 74.072806
_cell_angle_gamma 90.000000
_cell_volume 1611.778770
_symmetry_space_group_name_H-M "P 21/M"
_symmetry_group_IT_number 11
_symmetry_cell_setting 'monoclinic'
loop_
_space_group_symop_operation_xyz
x,y,z
-x,1/2+y,-z
-x,-y,-z
x,1/2-y,z
loop_
_atom_site_type_symbol
_atom_site_label
_atom_site_fract_x
_atom_site_fract_y
_atom_site_fract_z
Si Si1 0.726867 0.928612 0.294929
Si Si2 0.094457 0.573866 0.840573
Si Si3 0.592076 0.428909 0.744671
Si Si4 0.708248 0.428315 0.902358
Si Si5 0.094025 0.926227 0.085828
Si Si6 0.609654 0.570894 0.131188
Si Si7 0.403830 0.570209 0.494429
O O1 0.720154 0.750000 0.313456
O O2 0.674754 0.982542 0.206014
O O3 0.833240 0.980285 0.253415
O O4 0.681165 0.010178 0.409478
O O5 0.106964 0.750000 0.812538
O O6 0.991424 0.522560 0.841106
O O7 0.112070 0.534655 0.957460
O O8 0.584174 0.250000 0.747996
O O9 0.672176 0.482934 0.799344
O O10 0.492865 0.494548 0.813661
O O11 0.616197 0.484295 0.618983
O O12 0.698704 0.250000 0.920916
O O13 0.815341 0.476988 0.878555
O O14 0.644815 0.503702 0.010811
O O15 0.070790 0.750000 0.107485
O O16 0.610219 0.750000 0.121393
O O17 0.500000 0.500000 0.500000
O O18 0.411385 0.750000 0.500732
#
# Coordination Sequence:
#
# PCOD8070837 Si02
#       7
#     4   4   4   4   4   4   4
#     4  11  21  34  53  77 107 139 171 215 261 302
#     4  10  19  32  51  77 104 135 171 211 259 310
#     4   9  19  35  52  73 104 140 174 212 256 303
#     4  10  19  33  53  76 105 138 173 209 253 310
#     4   9  18  31  49  76 105 134 168 208 257 312
#     4  10  19  32  49  74 108 140 170 205 256 307
#     4  11  21  36  55  76 103 138 179 218 258 301
#
# _framework density 17.372111
#
# number of rings (size 3 to 8) (size 9 to 14) (size 15 to 20)
#    0.000    2.000    2.857    1.714    0.000    1.714 
#    0.000    1.429    0.000    0.857    0.000    0.000 
#    0.000    0.000    0.000    0.000    0.000    0.000 
#
# Total GULP energy -347250.300919 kJ/mol
# GULP energy per Si atom -12401.796461 kJ/mol
# Density = 1.733257 g / cm^3
# Si number density = 17.372111 Si / 1000 Ang^3
#
#
#
# Elastic Constant Matrix: (Units=GPa)
#
#
# Indices 1 2 3 4 5 6 
#
# 1 132.7140 33.9562 75.6429 0.0000 -4.5831 0.0000
# 2 33.9562 46.1092 36.8201 0.0000 -1.4613 0.0000
# 3 75.6429 36.8201 127.9150 0.0000 2.9227 0.0000
# 4 0.0000 0.0000 0.0000 26.6701 0.0000 -7.9064
# 5 -4.5831 -1.4613 2.9227 0.0000 28.0781 0.0000
# 6 0.0000 0.0000 0.0000 -7.9064 0.0000 23.4970
#
#
#
# Elastic Compliance Matrix: (Units=1/GPa)
#
#
# Indices 1 2 3 4 5 6 
#
# 1 0.012091 -0.003993 -0.006055 0.000000 0.002396 0.000000
# 2 -0.003993 0.029630 -0.006203 0.000000 0.001536 0.000000
# 3 -0.006055 -0.006203 0.013246 0.000000 -0.002690 0.000000
# 4 0.000000 0.000000 0.000000 0.041650 0.000000 0.014015
# 5 0.002396 0.001536 -0.002690 0.000000 0.036366 0.000000
# 6 0.000000 0.000000 0.000000 0.014015 0.000000 0.047274
#
#
# Mechanical properties :
#
#
# Convention : Reuss Voigt Hill
#
# Bulk Modulus (GPa) = 44.51506 66.61961 55.56733
# Shear Modulus (GPa) = 22.70187 26.33696 24.51942
#
# Velocity S-wave (km/s) = 3.61889 3.89787 3.76097
# Velocity P-wave (km/s) = 6.56825 7.66092 7.13553
#
# Compressibility (1/GPa) = 0.02246431
#
# Stress axis : x y z
#
# Youngs Moduli (GPa) = 82.70869 33.74967 75.49733
#
# Poissons Ratio (x) = 0.13475 0.45716
# Poissons Ratio (y) = 0.33022 0.46831
# Poissons Ratio (z) = 0.50083 0.20935
#
# Static dielectric constant tensor:
#      x y z
#    x 3.418720 0.000000 0.047610 
#    y 0.000000 3.112620 0.000000 
#    z 0.047610 0.000000 3.257310 
# 
# 
# High freq. dielectric constant tensor:
#      x y z
#    x 1.673180 0.000000 -0.008520 
#    y 0.000000 1.663360 0.000000 
#    z -0.008520 0.000000 1.656740 
# 
# From -- ./inp_files/37410.got.cif
#   From: 2010.06.25/outbox.cif.g09.slc.cpg/sg11_19_cif.got.tgz:37410.got - 2010.06.27 23:14:04.
