data_PCOD8070660
_publ_section_title
;
Structure prediction by ZEFSAII (Michael W. Deem and Ramdas Pophale) SiO2 
 PCOD8070660
Probable space group: P 21/M
;
_chemical_formula_sum "Si O2"
_cell_formula_units_Z 28
_cell_length_a 11.376135
_cell_length_b 8.814099
_cell_length_c 16.518821
_cell_angle_alpha 90.000000
_cell_angle_beta 60.680116
_cell_angle_gamma 90.000000
_cell_volume 1444.169203
_symmetry_space_group_name_H-M "P 21/M"
_symmetry_group_IT_number 11
_symmetry_cell_setting 'monoclinic'
loop_
_space_group_symop_operation_xyz
x,y,z
-x,1/2+y,-z
-x,-y,-z
x,1/2-y,z
loop_
_atom_site_type_symbol
_atom_site_label
_atom_site_fract_x
_atom_site_fract_y
_atom_site_fract_z
Si Si1 0.877290 0.074811 0.855954
Si Si2 0.411546 0.429354 0.796046
Si Si3 0.187469 0.571521 0.587241
Si Si4 0.678658 0.070939 0.619194
Si Si5 0.174790 0.429393 0.759596
Si Si6 0.607659 0.430608 0.024105
Si Si7 0.094966 0.573283 0.337154
O O1 0.884871 0.250000 0.875256
O O2 0.755678 0.003836 0.949436
O O3 0.844884 0.048381 0.772678
O O4 0.024497 0.004097 0.828211
O O5 0.418844 0.250000 0.810124
O O6 0.532547 0.486226 0.697368
O O7 0.271997 0.476149 0.800012
O O8 0.424731 0.518186 0.874777
O O9 0.185275 0.750000 0.600658
O O10 0.295827 0.521967 0.482213
O O11 0.231179 0.495029 0.656429
O O12 0.041681 0.519487 0.605261
O O13 0.685038 0.250000 0.625957
O O14 0.795863 0.004923 0.637581
O O15 0.169355 0.250000 0.749298
O O16 0.601913 0.250000 0.018756
O O17 0.500000 0.500000 0.000000
O O18 0.063009 0.750000 0.363011
#
# Coordination Sequence:
#
# PCOD8070660 Si02
#       7
#     4   4   4   4   4   4   4
#     4   8  16  32  54  76 101 136 170 206 255 306
#     4  10  21  38  57  76 102 137 177 215 252 305
#     4  10  19  31  50  77 107 136 171 216 261 304
#     4   9  18  32  51  75 105 141 172 209 266 313
#     4   9  19  37  57  75  99 137 179 211 251 310
#     4  11  22  37  57  81 109 137 168 208 257 309
#     4   9  16  31  53  74 101 137 174 207 251 313
#
# _framework density 19.388310000000001
#
# number of rings (size 3 to 8) (size 9 to 14) (size 15 to 20)
#    0.000    2.571    0.000    3.000    0.000    4.000 
#    0.000   11.429    0.000    0.000    0.000    0.000 
#    0.000    0.000    0.000    0.000    0.000    0.000 
#
# Total GULP energy -347131.272109 kJ/mol
# GULP energy per Si atom -12397.545432 kJ/mol
# Density = 1.934418 g / cm^3
# Si number density = 19.388310 Si / 1000 Ang^3
#
#
#
# Elastic Constant Matrix: (Units=GPa)
#
#
# Indices 1 2 3 4 5 6 
#
# 1 125.8553 34.3028 70.0928 0.0000 6.6146 0.0000
# 2 34.3028 38.2133 32.8262 0.0000 1.0665 0.0000
# 3 70.0928 32.8262 142.3964 0.0000 -13.9545 0.0000
# 4 0.0000 0.0000 0.0000 28.3786 0.0000 3.4731
# 5 6.6146 1.0665 -13.9545 0.0000 29.4748 0.0000
# 6 0.0000 0.0000 0.0000 3.4731 0.0000 22.5420
#
#
#
# Elastic Compliance Matrix: (Units=1/GPa)
#
#
# Indices 1 2 3 4 5 6 
#
# 1 0.013114 -0.007035 -0.005345 0.000000 -0.005219 0.000000
# 2 -0.007035 0.037115 -0.005317 0.000000 -0.002281 0.000000
# 3 -0.005345 -0.005317 0.011552 0.000000 0.006861 0.000000
# 4 0.000000 0.000000 0.000000 0.035915 0.000000 -0.005533
# 5 -0.005219 -0.002281 0.006861 0.000000 0.038429 0.000000
# 6 0.000000 0.000000 0.000000 -0.005533 0.000000 0.045214
#
#
# Mechanical properties :
#
#
# Convention : Reuss Voigt Hill
#
# Bulk Modulus (GPa) = 37.89696 64.54540 51.22118
# Shear Modulus (GPa) = 22.17022 27.36197 24.76609
#
# Velocity S-wave (km/s) = 3.38521 3.76075 3.57791
# Velocity P-wave (km/s) = 5.90494 7.22640 6.59883
#
# Compressibility (1/GPa) = 0.02638734
#
# Stress axis : x y z
#
# Youngs Moduli (GPa) = 76.25354 26.94348 86.56812
#
# Poissons Ratio (x) = 0.18955 0.46270
# Poissons Ratio (y) = 0.53644 0.46025
# Poissons Ratio (z) = 0.40757 0.14325
#
# Static dielectric constant tensor:
#      x y z
#    x 3.789700 0.000000 -0.195490 
#    y 0.000000 3.212640 0.000000 
#    z -0.195490 0.000000 3.753560 
# 
# 
# High freq. dielectric constant tensor:
#      x y z
#    x 1.758630 0.000000 -0.003970 
#    y 0.000000 1.720870 0.000000 
#    z -0.003970 0.000000 1.762590 
# 
# From -- ./inp_files/37638.got.cif
#   From: 2010.06.25/outbox.cif.g09.slc.cpg/sg11_19_cif.got.tgz:37638.got - 2010.06.27 23:14:04.
