data_PCOD8070062
_publ_section_title
;
Structure prediction by ZEFSAII (Michael W. Deem and Ramdas Pophale) SiO2 
 PCOD8070062
Probable space group: P 21/M
;
_chemical_formula_sum "Si O2"
_cell_formula_units_Z 32
_cell_length_a 24.845109
_cell_length_b 8.870450
_cell_length_c 17.113394
_cell_angle_alpha 90.000000
_cell_angle_beta 27.038471
_cell_angle_gamma 90.000000
_cell_volume 1714.515065
_symmetry_space_group_name_H-M "P 21/M"
_symmetry_group_IT_number 11
_symmetry_cell_setting 'monoclinic'
loop_
_space_group_symop_operation_xyz
x,y,z
-x,1/2+y,-z
-x,-y,-z
x,1/2-y,z
loop_
_atom_site_type_symbol
_atom_site_label
_atom_site_fract_x
_atom_site_fract_y
_atom_site_fract_z
Si Si1 0.575985 0.927789 0.333928
Si Si2 0.488941 0.574655 0.275375
Si Si3 0.832550 0.427095 0.629791
Si Si4 0.936525 0.575367 0.351987
Si Si5 0.798583 0.075641 0.989031
Si Si6 0.255622 0.071151 0.102783
Si Si7 0.618282 0.916355 0.833309
Si Si8 0.283039 0.414074 0.458902
O O1 0.585038 0.750000 0.333999
O O2 0.516431 0.971702 0.328739
O O3 0.500000 0.000000 0.500000
O O4 0.708022 0.997640 0.166317
O O5 0.471571 0.750000 0.289230
O O6 0.360514 0.507484 0.420241
O O7 0.603469 0.525705 0.074081
O O8 0.852039 0.250000 0.615382
O O9 0.932248 0.492717 0.442131
O O10 0.827145 0.504446 0.721824
O O11 0.710555 0.465125 0.746536
O O12 0.900702 0.750000 0.413593
O O13 0.841888 0.511209 0.409805
O O14 0.068779 0.559103 0.147251
O O15 0.764385 0.250000 0.022194
O O16 0.796770 0.993028 0.908887
O O17 0.241973 0.250000 0.119160
O O18 0.624810 0.750000 0.866167
O O19 0.631586 0.894064 0.724718
O O20 0.500000 0.000000 0.000000
O O21 0.256077 0.250000 0.531307
#
# Coordination Sequence:
#
# PCOD8070062 Si02
#       8
#     4   4   4   4   4   4   4   4
#     4  10  21  38  60  87 114 136 163 203 255 312
#     4   9  19  33  51  77 106 134 165 209 262 308
#     4  11  21  31  46  69  97 136 185 228 268 313
#     4   9  20  37  52  71 103 142 181 220 262 307
#     4  10  20  36  58  80 104 136 173 214 263 317
#     4  10  20  34  50  71 104 140 177 226 275 316
#     4  10  19  30  43  63  94 132 176 225 271 312
#     4   9  18  31  48  70  98 134 173 211 252 304
#
# _framework density 18.664169999999999
#
# number of rings (size 3 to 8) (size 9 to 14) (size 15 to 20)
#    0.000    2.250    0.000    4.875    0.000    9.000 
#    0.000    0.000    0.000    0.750    0.000    0.000 
#    0.000    0.000    0.000    0.000    0.000    0.000 
#
# Total GULP energy -396513.689225 kJ/mol
# GULP energy per Si atom -12391.052788 kJ/mol
# Density = 1.862169 g / cm^3
# Si number density = 18.664170 Si / 1000 Ang^3
#
#
#
# Elastic Constant Matrix: (Units=GPa)
#
#
# Indices 1 2 3 4 5 6 
#
# 1 62.7820 33.6594 42.9248 0.0000 -17.2327 0.0000
# 2 33.6594 94.9644 45.2992 0.0000 -5.4076 0.0000
# 3 42.9248 45.2992 114.9410 0.0000 -12.2146 0.0000
# 4 0.0000 0.0000 0.0000 27.3623 0.0000 1.2746
# 5 -17.2327 -5.4076 -12.2146 0.0000 23.1174 0.0000
# 6 0.0000 0.0000 0.0000 1.2746 0.0000 28.0638
#
#
#
# Elastic Compliance Matrix: (Units=1/GPa)
#
#
# Indices 1 2 3 4 5 6 
#
# 1 0.027851 -0.005924 -0.006365 0.000000 0.016013 0.000000
# 2 -0.005924 0.014231 -0.003721 0.000000 -0.003053 0.000000
# 3 -0.006365 -0.003721 0.012657 0.000000 0.001073 0.000000
# 4 0.000000 0.000000 0.000000 0.036624 0.000000 -0.001663
# 5 0.016013 -0.003053 0.001073 0.000000 0.055047 0.000000
# 6 0.000000 0.000000 0.000000 -0.001663 0.000000 0.035709
#
#
# Mechanical properties :
#
#
# Convention : Reuss Voigt Hill
#
# Bulk Modulus (GPa) = 44.01226 57.38378 50.69802
# Shear Modulus (GPa) = 22.55193 25.76230 24.15712
#
# Velocity S-wave (km/s) = 3.47983 3.71928 3.60155
# Velocity P-wave (km/s) = 6.30698 7.01828 6.67211
#
# Compressibility (1/GPa) = 0.02272094
#
# Stress axis : x y z
#
# Youngs Moduli (GPa) = 35.90552 70.26998 79.00511
#
# Poissons Ratio (x) = 0.41625 0.50285
# Poissons Ratio (y) = 0.21269 0.29396
# Poissons Ratio (z) = 0.22853 0.26145
#
# Static dielectric constant tensor:
#      x y z
#    x 3.295480 0.000000 -0.094890 
#    y 0.000000 3.502410 0.000000 
#    z -0.094890 0.000000 3.253160 
# 
# 
# High freq. dielectric constant tensor:
#      x y z
#    x 1.708370 0.000000 -0.020150 
#    y 0.000000 1.730020 0.000000 
#    z -0.020150 0.000000 1.708430 
# 
# From -- ./inp_files/55572.got.cif
#   From: 2010.06.25/outbox.cif.g09.slc.cpg/sg11_28_cif.got.tgz:55572.got - 2010.06.27 23:14:04.
