data_PCOD8070457
_publ_section_title
;
Structure prediction by ZEFSAII (Michael W. Deem and Ramdas Pophale) SiO2 
 PCOD8070457
Probable space group: P 21/M
;
_chemical_formula_sum "Si O2"
_cell_formula_units_Z 28
_cell_length_a 19.542977
_cell_length_b 9.135014
_cell_length_c 24.600660
_cell_angle_alpha 90.000000
_cell_angle_beta 158.840700
_cell_angle_gamma 90.000000
_cell_volume 1585.288927
_symmetry_space_group_name_H-M "P 21/M"
_symmetry_group_IT_number 11
_symmetry_cell_setting 'monoclinic'
loop_
_space_group_symop_operation_xyz
x,y,z
-x,1/2+y,-z
-x,-y,-z
x,1/2-y,z
loop_
_atom_site_type_symbol
_atom_site_label
_atom_site_fract_x
_atom_site_fract_y
_atom_site_fract_z
Si Si1 0.723856 0.080382 0.318449
Si Si2 0.809052 0.576890 0.876377
Si Si3 0.308829 0.420999 0.016846
Si Si4 0.095785 0.576956 0.950091
Si Si5 0.336583 0.080297 0.344876
Si Si6 0.649406 0.583743 0.074076
Si Si7 0.106397 0.084025 0.649372
O O1 0.743968 0.250000 0.321027
O O2 0.521783 0.050087 0.197248
O O3 0.893662 0.021914 0.482621
O O4 0.737439 0.004120 0.269659
O O5 0.840533 0.750000 0.906667
O O6 0.652305 0.547864 0.712480
O O7 0.766460 0.503705 0.903427
O O8 0.000000 0.500000 0.000000
O O9 0.250907 0.250000 0.978259
O O10 0.160620 0.520148 0.939422
O O11 0.310498 0.478959 0.955992
O O12 0.124458 0.750000 0.977235
O O13 0.874259 0.533864 0.791822
O O14 0.369217 0.250000 0.380401
O O15 0.500000 0.000000 0.500000
O O16 0.577183 0.750000 0.014716
O O17 0.849309 0.573067 0.254028
O O18 0.500000 0.500000 0.000000
O O19 0.119133 0.250000 0.638072
#
# Coordination Sequence:
#
# PCOD8070457 Si02
#       7
#     4   4   4   4   4   4   4
#     4   9  17  30  47  68  94 123 158 204 254 305
#     4   9  17  32  54  80 107 136 172 209 247 298
#     4  10  20  33  49  70 100 137 173 214 266 316
#     4  10  21  36  53  77 107 140 178 218 260 310
#     4   9  19  34  55  83 110 137 171 209 252 303
#     4  10  19  31  48  71  97 129 171 215 260 310
#     4   9  17  29  47  69  92 120 160 209 256 303
#
# _framework density 17.662396999999999
#
# number of rings (size 3 to 8) (size 9 to 14) (size 15 to 20)
#    0.000    2.571    1.429    1.714    0.000    4.571 
#    0.000    1.429    0.000    3.429    0.000    0.000 
#    0.000    0.000    0.000    0.000    0.000    0.000 
#
# Total GULP energy -346916.548391 kJ/mol
# GULP energy per Si atom -12389.876728 kJ/mol
# Density = 1.762220 g / cm^3
# Si number density = 17.662397 Si / 1000 Ang^3
#
#
#
# Elastic Constant Matrix: (Units=GPa)
#
#
# Indices 1 2 3 4 5 6 
#
# 1 120.0572 47.1638 53.5193 0.0000 -10.1460 0.0000
# 2 47.1638 70.5178 40.8142 0.0000 -5.3148 0.0000
# 3 53.5193 40.8142 92.2540 0.0000 -13.7293 0.0000
# 4 0.0000 0.0000 0.0000 25.5839 0.0000 -0.3464
# 5 -10.1460 -5.3148 -13.7293 0.0000 24.7264 0.0000
# 6 0.0000 0.0000 0.0000 -0.3464 0.0000 31.5018
#
#
#
# Elastic Compliance Matrix: (Units=1/GPa)
#
#
# Indices 1 2 3 4 5 6 
#
# 1 0.012785 -0.005744 -0.004664 0.000000 0.001422 0.000000
# 2 -0.005744 0.021652 -0.006437 0.000000 -0.001277 0.000000
# 3 -0.004664 -0.006437 0.017335 0.000000 0.006328 0.000000
# 4 0.000000 0.000000 0.000000 0.039093 0.000000 0.000430
# 5 0.001422 -0.001277 0.006328 0.000000 0.044265 0.000000
# 6 0.000000 0.000000 0.000000 0.000430 0.000000 0.031749
#
#
# Mechanical properties :
#
#
# Convention : Reuss Voigt Hill
#
# Bulk Modulus (GPa) = 55.30465 62.86927 59.08696
# Shear Modulus (GPa) = 24.20176 25.78454 24.99315
#
# Velocity S-wave (km/s) = 3.70569 3.82495 3.76579
# Velocity P-wave (km/s) = 7.04909 7.42827 7.24116
#
# Compressibility (1/GPa) = 0.01808166
#
# Stress axis : x y z
#
# Youngs Moduli (GPa) = 78.21418 46.18523 57.68748
#
# Poissons Ratio (x) = 0.26531 0.26907
# Poissons Ratio (y) = 0.44930 0.37131
# Poissons Ratio (z) = 0.36481 0.29727
#
# Static dielectric constant tensor:
#      x y z
#    x 3.101280 0.000000 -0.303900 
#    y 0.000000 3.305820 0.000000 
#    z -0.303900 0.000000 3.545420 
# 
# 
# High freq. dielectric constant tensor:
#      x y z
#    x 1.667560 0.000000 -0.021850 
#    y 0.000000 1.681600 0.000000 
#    z -0.021850 0.000000 1.678300 
# 
# From -- ./inp_files/71950.got.cif
#   From: 2010.06.25/outbox.cif.g09.slc.cpg/sg11_36_cif.got.tgz:71950.got - 2010.06.27 23:14:04.
