data_PCOD8070936
_publ_section_title
;
Structure prediction by ZEFSAII (Michael W. Deem and Ramdas Pophale) SiO2 
 PCOD8070936
Probable space group: P 21/M
;
_chemical_formula_sum "Si O2"
_cell_formula_units_Z 32
_cell_length_a 15.454918
_cell_length_b 8.974225
_cell_length_c 15.411491
_cell_angle_alpha 90.000000
_cell_angle_beta 56.437808
_cell_angle_gamma 90.000000
_cell_volume 1781.158305
_symmetry_space_group_name_H-M "P 21/M"
_symmetry_group_IT_number 11
_symmetry_cell_setting 'monoclinic'
loop_
_space_group_symop_operation_xyz
x,y,z
-x,1/2+y,-z
-x,-y,-z
x,1/2-y,z
loop_
_atom_site_type_symbol
_atom_site_label
_atom_site_fract_x
_atom_site_fract_y
_atom_site_fract_z
Si Si1 0.590028 0.925559 0.138907
Si Si2 0.650508 0.578540 0.443089
Si Si3 0.131010 0.424306 0.592895
Si Si4 0.447439 0.922292 0.659881
Si Si5 0.812619 0.575742 0.627768
Si Si6 0.628523 0.423911 0.812952
Si Si7 0.736457 0.073979 0.929162
Si Si8 0.924396 0.925295 0.741230
O O1 0.608953 0.750000 0.126461
O O2 0.489604 0.972255 0.138126
O O3 0.575817 0.977165 0.244695
O O4 0.689404 0.007082 0.043080
O O5 0.644648 0.750000 0.415649
O O6 0.762312 0.537067 0.418509
O O7 0.630382 0.471648 0.373071
O O8 0.565897 0.549460 0.565075
O O9 0.105018 0.250000 0.612058
O O10 0.137601 0.479767 0.489670
O O11 0.040462 0.515110 0.690965
O O12 0.427290 0.750000 0.693302
O O13 0.791881 0.750000 0.635456
O O14 0.700344 0.502248 0.701817
O O15 0.888744 0.530285 0.663848
O O16 0.644410 0.250000 0.791057
O O17 0.661606 0.473783 0.891086
O O18 0.747090 0.250000 0.932237
O O19 0.850130 0.004468 0.852137
O O20 0.920060 0.750000 0.759536
#
# Coordination Sequence:
#
# PCOD8070936 Si02
#       8
#     4   4   4   4   4   4   4   4
#     4  11  21  33  51  76 104 133 168 209 252 298
#     4   9  19  35  54  77 105 134 165 205 251 298
#     4  10  19  32  51  74 101 135 172 208 250 298
#     4  10  20  35  55  78 104 134 166 202 249 303
#     4   9  18  31  48  72 104 138 170 207 249 295
#     4   9  19  32  48  73 104 136 169 207 249 295
#     4  10  20  35  52  71  99 136 175 211 249 294
#     4  10  20  33  49  72 102 136 173 212 252 292
#
# _framework density 17.965837000000001
#
# number of rings (size 3 to 8) (size 9 to 14) (size 15 to 20)
#    0.000    2.250    0.000    3.000    0.000    4.500 
#    0.000    0.000    0.000    0.750    0.000    0.000 
#    0.000    0.000    0.000    0.000    0.000    0.000 
#
# Total GULP energy -396922.595411 kJ/mol
# GULP energy per Si atom -12403.831107 kJ/mol
# Density = 1.792495 g / cm^3
# Si number density = 17.965837 Si / 1000 Ang^3
#
#
#
# Elastic Constant Matrix: (Units=GPa)
#
#
# Indices 1 2 3 4 5 6 
#
# 1 85.4161 39.6366 51.7789 0.0000 -19.0895 0.0000
# 2 39.6366 64.7531 46.4777 0.0000 -12.0221 0.0000
# 3 51.7789 46.4777 110.4215 0.0000 -18.2826 0.0000
# 4 0.0000 0.0000 0.0000 34.4336 0.0000 -3.5312
# 5 -19.0895 -12.0221 -18.2826 0.0000 23.7478 0.0000
# 6 0.0000 0.0000 0.0000 -3.5312 0.0000 27.2437
#
#
#
# Elastic Compliance Matrix: (Units=1/GPa)
#
#
# Indices 1 2 3 4 5 6 
#
# 1 0.019892 -0.007028 -0.004941 0.000000 0.008628 0.000000
# 2 -0.007028 0.025063 -0.006978 0.000000 0.001667 0.000000
# 3 -0.004941 -0.006978 0.014977 0.000000 0.004026 0.000000
# 4 0.000000 0.000000 0.000000 0.029433 0.000000 0.003815
# 5 0.008628 0.001667 0.004026 0.000000 0.052988 0.000000
# 6 0.000000 0.000000 0.000000 0.003815 0.000000 0.037200
#
#
# Mechanical properties :
#
#
# Convention : Reuss Voigt Hill
#
# Bulk Modulus (GPa) = 45.37538 59.59746 52.48642
# Shear Modulus (GPa) = 22.24265 25.26484 23.75375
#
# Velocity S-wave (km/s) = 3.52241 3.75410 3.64010
# Velocity P-wave (km/s) = 6.46951 7.21357 6.85165
#
# Compressibility (1/GPa) = 0.02203838
#
# Stress axis : x y z
#
# Youngs Moduli (GPa) = 50.27073 39.89926 66.76969
#
# Poissons Ratio (x) = 0.28041 0.32992
# Poissons Ratio (y) = 0.35330 0.46591
# Poissons Ratio (z) = 0.24840 0.27841
#
# Static dielectric constant tensor:
#      x y z
#    x 3.205680 0.000000 -0.074140 
#    y 0.000000 3.277310 0.000000 
#    z -0.074140 0.000000 3.267220 
# 
# 
# High freq. dielectric constant tensor:
#      x y z
#    x 1.678060 0.000000 -0.010750 
#    y 0.000000 1.700820 0.000000 
#    z -0.010750 0.000000 1.690460 
# 
# From -- ./inp_files/51620.got.cif
#   From: 2010.06.25/outbox.cif.g09.slc.cpg/sg11_26_cif.got.tgz:51620.got - 2010.06.27 23:14:04.
