data_PCOD8070744
_publ_section_title
;
Structure prediction by ZEFSAII (Michael W. Deem and Ramdas Pophale) SiO2 
 PCOD8070744
Probable space group: P 21/M
;
_chemical_formula_sum "Si O2"
_cell_formula_units_Z 28
_cell_length_a 16.138707
_cell_length_b 13.122962
_cell_length_c 7.652418
_cell_angle_alpha 90.000000
_cell_angle_beta 89.650809
_cell_angle_gamma 90.000000
_cell_volume 1620.657440
_symmetry_space_group_name_H-M "P 21/M"
_symmetry_group_IT_number 11
_symmetry_cell_setting 'monoclinic'
loop_
_space_group_symop_operation_xyz
x,y,z
-x,1/2+y,-z
-x,-y,-z
x,1/2-y,z
loop_
_atom_site_type_symbol
_atom_site_label
_atom_site_fract_x
_atom_site_fract_y
_atom_site_fract_z
Si Si1 0.124087 0.367894 0.481325
Si Si2 0.426922 0.866526 0.959770
Si Si3 0.314600 0.131711 0.493964
Si Si4 0.024475 0.132358 0.144572
Si Si5 0.408213 0.445901 0.170887
Si Si6 0.305944 0.475885 0.854662
Si Si7 0.112893 0.471347 0.841510
O O1 0.107684 0.250000 0.523321
O O2 0.220210 0.386657 0.438185
O O3 0.071983 0.406199 0.316551
O O4 0.094920 0.432256 0.647543
O O5 0.406614 0.750000 0.008155
O O6 0.512402 0.872977 0.851183
O O7 0.352404 0.914236 0.842989
O O8 0.434866 0.935223 0.137399
O O9 0.338805 0.250000 0.483365
O O10 0.372514 0.066963 0.364494
O O11 0.329568 0.092688 0.689018
O O12 0.002230 0.250000 0.158247
O O13 0.083703 0.114440 0.978088
O O14 0.937901 0.074271 0.124480
O O15 0.338639 0.415522 0.026523
O O16 0.208697 0.495840 0.870698
#
# Coordination Sequence:
#
# PCOD8070744 Si02
#       7
#     4   4   4   4   4   4   4
#     4   9  18  32  50  74 103 131 165 211 255 298
#     4   9  19  37  55  74 106 140 170 212 259 305
#     4  10  19  31  53  81 105 134 174 216 258 303
#     4  10  20  32  50  75  99 135 173 204 256 304
#     4   9  19  36  54  75 105 135 174 210 254 308
#     4   9  20  35  52  78 104 134 174 213 261 311
#     4  10  19  33  52  73 102 133 166 215 251 297
#
# _framework density 17.276938999999999
#
# number of rings (size 3 to 8) (size 9 to 14) (size 15 to 20)
#    0.857    1.714    0.000    2.143    0.000    2.857 
#    0.000    0.714    0.000    0.857    0.000    0.000 
#    0.000    0.000    0.000    0.000    0.000    0.000 
#
# Total GULP energy -347105.072219 kJ/mol
# GULP energy per Si atom -12396.609722 kJ/mol
# Density = 1.723762 g / cm^3
# Si number density = 17.276939 Si / 1000 Ang^3
#
#
#
# Elastic Constant Matrix: (Units=GPa)
#
#
# Indices 1 2 3 4 5 6 
#
# 1 90.8017 28.9150 41.0574 0.0000 -9.2722 0.0000
# 2 28.9150 76.7994 26.6128 0.0000 -11.0897 0.0000
# 3 41.0574 26.6128 90.2694 0.0000 -16.3097 0.0000
# 4 0.0000 0.0000 0.0000 23.8168 0.0000 3.1381
# 5 -9.2722 -11.0897 -16.3097 0.0000 20.9743 0.0000
# 6 0.0000 0.0000 0.0000 3.1381 0.0000 18.4971
#
#
#
# Elastic Compliance Matrix: (Units=1/GPa)
#
#
# Indices 1 2 3 4 5 6 
#
# 1 0.014701 -0.003559 -0.005588 0.000000 0.000272 0.000000
# 2 -0.003559 0.015840 -0.002120 0.000000 0.005153 0.000000
# 3 -0.005588 -0.002120 0.015818 0.000000 0.008709 0.000000
# 4 0.000000 0.000000 0.000000 0.042947 0.000000 -0.007286
# 5 0.000272 0.005153 0.008709 0.000000 0.057294 0.000000
# 6 0.000000 0.000000 0.000000 -0.007286 0.000000 0.055299
#
#
# Mechanical properties :
#
#
# Convention : Reuss Voigt Hill
#
# Bulk Modulus (GPa) = 41.97393 50.11567 46.04480
# Shear Modulus (GPa) = 21.51699 23.40999 22.46349
#
# Velocity S-wave (km/s) = 3.53287 3.68500 3.60974
# Velocity P-wave (km/s) = 6.40227 6.86847 6.63947
#
# Compressibility (1/GPa) = 0.02382431
#
# Stress axis : x y z
#
# Youngs Moduli (GPa) = 68.02317 63.13257 63.21887
#
# Poissons Ratio (x) = 0.22471 0.35327
# Poissons Ratio (y) = 0.24211 0.13402
# Poissons Ratio (z) = 0.38011 0.13383
#
# Static dielectric constant tensor:
#      x y z
#    x 3.203600 0.000000 0.025010 
#    y 0.000000 2.975710 0.000000 
#    z 0.025010 0.000000 3.131530 
# 
# 
# High freq. dielectric constant tensor:
#      x y z
#    x 1.672110 0.000000 -0.003490 
#    y 0.000000 1.651530 0.000000 
#    z -0.003490 0.000000 1.664400 
# 
# From -- ./inp_files/21723.got.cif
#   From: 2010.06.25/outbox.cif.g09.slc.cpg/sg11_11_cif.got.tgz:21723.got - 2010.06.27 23:14:04.
