data_PCOD8070734
_publ_section_title
;
Structure prediction by ZEFSAII (Michael W. Deem and Ramdas Pophale) SiO2 
 PCOD8070734
Probable space group: P 21/M
;
_chemical_formula_sum "Si O2"
_cell_formula_units_Z 24
_cell_length_a 13.832190
_cell_length_b 14.073965
_cell_length_c 6.621992
_cell_angle_alpha 90.000000
_cell_angle_beta 95.417399
_cell_angle_gamma 90.000000
_cell_volume 1283.369972
_symmetry_space_group_name_H-M "P 21/M"
_symmetry_group_IT_number 11
_symmetry_cell_setting 'monoclinic'
loop_
_space_group_symop_operation_xyz
x,y,z
-x,1/2+y,-z
-x,-y,-z
x,1/2-y,z
loop_
_atom_site_type_symbol
_atom_site_label
_atom_site_fract_x
_atom_site_fract_y
_atom_site_fract_z
Si Si1 0.637558 0.511145 0.462833
Si Si2 0.526208 0.062039 0.812918
Si Si3 0.854051 0.493371 0.589682
Si Si4 0.649164 0.146385 0.147559
Si Si5 0.840857 0.357222 0.960167
Si Si6 0.019776 0.640051 0.666166
O O1 0.570923 0.591675 0.335323
O O2 0.600223 0.495293 0.681928
O O3 0.751925 0.532827 0.482716
O O4 0.612896 0.418957 0.322462
O O5 0.583828 0.148540 0.928672
O O6 0.500000 0.000000 0.000000
O O7 0.916046 0.588604 0.634949
O O8 0.904220 0.417622 0.454171
O O9 0.835945 0.437737 0.792083
O O10 0.646900 0.250000 0.243596
O O11 0.758387 0.118689 0.107250
O O12 0.826486 0.250000 0.868712
O O13 0.944040 0.362804 0.095532
O O14 0.010856 0.750000 0.589794
#
# Coordination Sequence:
#
# PCOD8070734 Si02
#       6
#     4   4   4   4   4   4
#     4  10  19  33  54  80 104 145 182 222 268 333
#     4   9  19  35  52  76 110 138 176 218 269 329
#     4  11  20  34  58  80 107 151 184 224 286 328
#     4  10  19  31  52  81 110 139 176 228 276 319
#     4  10  19  32  52  81 111 140 181 229 274 326
#     4  10  22  37  52  79 113 142 186 234 273 331
#
# _framework density 18.700765000000001
#
# number of rings (size 3 to 8) (size 9 to 14) (size 15 to 20)
#    0.000    2.000    3.333    1.000    0.000    1.333 
#    0.000    0.833    0.000    4.000    0.000    0.000 
#    0.000    0.000    0.000    0.000    0.000    0.000 
#
# Total GULP energy -297324.919664 kJ/mol
# GULP energy per Si atom -12388.538319 kJ/mol
# Density = 1.865820 g / cm^3
# Si number density = 18.700765 Si / 1000 Ang^3
#
#
#
# Elastic Constant Matrix: (Units=GPa)
#
#
# Indices 1 2 3 4 5 6 
#
# 1 119.9607 35.1346 32.3979 0.0000 23.1284 0.0000
# 2 35.1346 58.6450 18.5550 0.0000 8.5670 0.0000
# 3 32.3979 18.5550 75.3384 0.0000 8.5105 0.0000
# 4 0.0000 0.0000 0.0000 22.0100 0.0000 1.4430
# 5 23.1284 8.5670 8.5105 0.0000 32.5111 0.0000
# 6 0.0000 0.0000 0.0000 1.4430 0.0000 15.9044
#
#
#
# Elastic Compliance Matrix: (Units=1/GPa)
#
#
# Indices 1 2 3 4 5 6 
#
# 1 0.011927 -0.005237 -0.003129 0.000000 -0.006286 0.000000
# 2 -0.005237 0.021258 -0.002856 0.000000 -0.001128 0.000000
# 3 -0.003129 -0.002856 0.015443 0.000000 -0.001064 0.000000
# 4 0.000000 0.000000 0.000000 0.045706 0.000000 -0.004147
# 5 -0.006286 -0.001128 -0.001064 0.000000 0.035806 0.000000
# 6 0.000000 0.000000 0.000000 -0.004147 0.000000 0.063252
#
#
# Mechanical properties :
#
#
# Convention : Reuss Voigt Hill
#
# Bulk Modulus (GPa) = 38.19286 47.34658 42.76972
# Shear Modulus (GPa) = 22.26546 25.27555 23.77050
#
# Velocity S-wave (km/s) = 3.45428 3.68037 3.56911
# Velocity P-wave (km/s) = 6.03132 6.59038 6.31704
#
# Compressibility (1/GPa) = 0.02618290
#
# Stress axis : x y z
#
# Youngs Moduli (GPa) = 83.84404 47.04144 64.75593
#
# Poissons Ratio (x) = 0.24637 0.20262
# Poissons Ratio (y) = 0.43911 0.18494
# Poissons Ratio (z) = 0.26235 0.13435
#
# Static dielectric constant tensor:
#      x y z
#    x 3.693350 0.000000 0.300110 
#    y 0.000000 3.261470 0.000000 
#    z 0.300110 0.000000 3.626220 
# 
# 
# High freq. dielectric constant tensor:
#      x y z
#    x 1.735130 0.000000 0.008710 
#    y 0.000000 1.689780 0.000000 
#    z 0.008710 0.000000 1.737010 
# 
# From -- ./inp_files/6296.got.cif
#   From: 2010.06.25/outbox.cif.g09.slc.cpg/sg11_4_cif.got.tgz:6296.got - 2010.06.27 23:14:04.
