data_PCOD8070101
_publ_section_title
;
Structure prediction by ZEFSAII (Michael W. Deem and Ramdas Pophale) SiO2 
 PCOD8070101
Probable space group: P 21/M
;
_chemical_formula_sum "Si O2"
_cell_formula_units_Z 28
_cell_length_a 16.119908
_cell_length_b 8.951797
_cell_length_c 15.767370
_cell_angle_alpha 90.000000
_cell_angle_beta 130.321980
_cell_angle_gamma 90.000000
_cell_volume 1734.708109
_symmetry_space_group_name_H-M "P 21/M"
_symmetry_group_IT_number 11
_symmetry_cell_setting 'monoclinic'
loop_
_space_group_symop_operation_xyz
x,y,z
-x,1/2+y,-z
-x,-y,-z
x,1/2-y,z
loop_
_atom_site_type_symbol
_atom_site_label
_atom_site_fract_x
_atom_site_fract_y
_atom_site_fract_z
Si Si1 0.382554 0.575838 0.830141
Si Si2 0.978522 0.079574 0.783457
Si Si3 0.890445 0.076955 0.899289
Si Si4 0.168705 0.423033 0.638217
Si Si5 0.013563 0.077704 0.381436
Si Si6 0.394132 0.575757 0.034287
Si Si7 0.208860 0.075162 0.020528
O O1 0.398244 0.750000 0.822181
O O2 0.279936 0.514835 0.710574
O O3 0.487755 0.489308 0.865795
O O4 0.363940 0.543483 0.916974
O O5 0.979433 0.250000 0.751856
O O6 0.884807 0.057982 0.793344
O O7 0.948004 0.971378 0.686117
O O8 0.096919 0.036729 0.898324
O O9 0.894040 0.250000 0.926928
O O10 0.792418 0.997525 0.885619
O O11 0.000000 0.000000 0.000000
O O12 0.193314 0.250000 0.671771
O O13 0.090853 0.481118 0.661443
O O14 0.113264 0.450793 0.510824
O O15 0.978293 0.250000 0.358207
O O16 0.393307 0.750000 0.054823
O O17 0.307520 0.493011 0.034401
O O18 0.226634 0.250000 0.042663
#
# Coordination Sequence:
#
# PCOD8070101 Si02
#       7
#     4   4   4   4   4   4   4
#     4  10  20  33  49  68  90 119 154 189 225 266
#     4   9  18  30  45  66  93 123 152 186 226 267
#     4   9  17  29  44  64  90 120 152 185 226 271
#     4  10  20  33  47  65  92 122 152 189 228 265
#     4  10  20  31  46  68  91 120 156 188 223 268
#     4  10  20  32  47  68  93 121 152 186 225 268
#     4  10  19  30  45  67  94 123 154 187 224 267
#
# _framework density 16.141044000000001
#
# number of rings (size 3 to 8) (size 9 to 14) (size 15 to 20)
#    0.000    2.286    0.000    4.286    0.000    9.143 
#    0.000    0.000    0.000    0.000    0.000    1.000 
#    0.000    0.000    0.000    0.000    0.000    0.000 
#
# Total GULP energy -347210.070914 kJ/mol
# GULP energy per Si atom -12400.359676 kJ/mol
# Density = 1.610431 g / cm^3
# Si number density = 16.141044 Si / 1000 Ang^3
#
#
#
# Elastic Constant Matrix: (Units=GPa)
#
#
# Indices 1 2 3 4 5 6 
#
# 1 111.7971 56.0522 38.0286 0.0000 -9.9336 0.0000
# 2 56.0522 95.2238 39.5252 0.0000 -6.5453 0.0000
# 3 38.0286 39.5252 58.9644 0.0000 -1.6576 0.0000
# 4 0.0000 0.0000 0.0000 26.2518 0.0000 -0.2589
# 5 -9.9336 -6.5453 -1.6576 0.0000 22.5517 0.0000
# 6 0.0000 0.0000 0.0000 -0.2589 0.0000 34.2755
#
#
#
# Elastic Compliance Matrix: (Units=1/GPa)
#
#
# Indices 1 2 3 4 5 6 
#
# 1 0.013928 -0.005871 -0.004933 0.000000 0.004068 0.000000
# 2 -0.005871 0.017308 -0.007763 0.000000 0.001867 0.000000
# 3 -0.004933 -0.007763 0.025272 0.000000 -0.002568 0.000000
# 4 0.000000 0.000000 0.000000 0.038095 0.000000 0.000288
# 5 0.004068 0.001867 -0.002568 0.000000 0.046488 0.000000
# 6 0.000000 0.000000 0.000000 0.000288 0.000000 0.029178
#
#
# Mechanical properties :
#
#
# Convention : Reuss Voigt Hill
#
# Bulk Modulus (GPa) = 51.61449 59.24414 55.42931
# Shear Modulus (GPa) = 23.37970 25.44108 24.41039
#
# Velocity S-wave (km/s) = 3.81000 3.97441 3.89307
# Velocity P-wave (km/s) = 7.16947 7.60559 7.39075
#
# Compressibility (1/GPa) = 0.01937441
#
# Stress axis : x y z
#
# Youngs Moduli (GPa) = 71.79837 57.77594 39.56939
#
# Poissons Ratio (x) = 0.33923 0.19518
# Poissons Ratio (y) = 0.42156 0.30717
# Poissons Ratio (z) = 0.35415 0.44851
#
# Static dielectric constant tensor:
#      x y z
#    x 3.184600 0.000000 -0.154930 
#    y 0.000000 3.323260 0.000000 
#    z -0.154930 0.000000 2.866550 
# 
# 
# High freq. dielectric constant tensor:
#      x y z
#    x 1.616360 0.000000 -0.010640 
#    y 0.000000 1.641380 0.000000 
#    z -0.010640 0.000000 1.587130 
# 
# From -- ./inp_files/37379.got.cif
#   From: 2010.06.25/outbox.cif.g09.slc.cpg/sg11_19_cif.got.tgz:37379.got - 2010.06.27 23:14:04.
