data_PCOD8070614
_publ_section_title
;
Structure prediction by ZEFSAII (Michael W. Deem and Ramdas Pophale) SiO2 
 PCOD8070614
Probable space group: P 21/M
;
_chemical_formula_sum "Si O2"
_cell_formula_units_Z 32
_cell_length_a 15.325984
_cell_length_b 9.813242
_cell_length_c 27.609145
_cell_angle_alpha 90.000000
_cell_angle_beta 153.903847
_cell_angle_gamma 90.000000
_cell_volume 1826.530539
_symmetry_space_group_name_H-M "P 21/M"
_symmetry_group_IT_number 11
_symmetry_cell_setting 'monoclinic'
loop_
_space_group_symop_operation_xyz
x,y,z
-x,1/2+y,-z
-x,-y,-z
x,1/2-y,z
loop_
_atom_site_type_symbol
_atom_site_label
_atom_site_fract_x
_atom_site_fract_y
_atom_site_fract_z
Si Si1 0.973926 0.600219 0.372585
Si Si2 0.388461 0.402784 0.169429
Si Si3 0.687930 0.604307 0.428217
Si Si4 0.732873 0.092002 0.806644
Si Si5 0.131667 0.092722 0.950034
Si Si6 0.268808 0.909271 0.932447
Si Si7 0.785732 0.959629 0.374986
Si Si8 0.268952 0.092968 0.841947
O O1 0.061656 0.750000 0.407071
O O2 0.817587 0.611528 0.339089
O O3 0.857780 0.548123 0.267773
O O4 0.160855 0.504855 0.475761
O O5 0.337117 0.250000 0.160432
O O6 0.272768 0.503376 0.147501
O O7 0.627809 0.418308 0.288859
O O8 0.311217 0.430010 0.076866
O O9 0.733343 0.750000 0.475915
O O10 0.459783 0.559694 0.323372
O O11 0.700870 0.631022 0.376373
O O12 0.737547 0.250000 0.824422
O O13 0.925307 0.053432 0.872179
O O14 0.130665 0.250000 0.930943
O O15 0.155199 0.986341 0.918469
O O16 0.205219 0.750000 0.898000
O O17 0.207231 0.987125 0.852693
O O18 0.502121 0.923664 0.057771
O O19 0.000000 0.000000 0.500000
O O20 0.226173 0.250000 0.836154
#
# Coordination Sequence:
#
# PCOD8070614 Si02
#       8
#     4   4   4   4   4   4   4   4
#     4  10  19  31  50  73  97 129 166 201 241 291
#     4  10  20  32  49  73  99 130 170 208 239 280
#     4   9  18  31  47  69  99 133 165 199 239 284
#     4   9  19  34  50  70 100 135 165 198 246 292
#     4  10  20  34  52  74 100 130 163 202 248 292
#     4  10  20  34  53  76  99 127 162 198 240 293
#     4   9  18  29  43  67 101 132 161 196 236 278
#     4   9  19  35  52  73 102 130 156 195 248 296
#
# _framework density 17.519552999999998
#
# number of rings (size 3 to 8) (size 9 to 14) (size 15 to 20)
#    0.000    2.500    0.000    1.875    0.000    9.000 
#    0.000    0.000    0.000    0.750    0.000    0.000 
#    0.000    0.000    0.000    0.000    0.000    0.000 
#
# Total GULP energy -396528.241923 kJ/mol
# GULP energy per Si atom -12391.507560 kJ/mol
# Density = 1.747968 g / cm^3
# Si number density = 17.519553 Si / 1000 Ang^3
#
#
#
# Elastic Constant Matrix: (Units=GPa)
#
#
# Indices 1 2 3 4 5 6 
#
# 1 89.0968 54.2737 52.9442 0.0000 -4.1349 0.0000
# 2 54.2737 102.9923 46.7141 0.0000 -9.8207 0.0000
# 3 52.9442 46.7141 108.7444 0.0000 -5.2840 0.0000
# 4 0.0000 0.0000 0.0000 26.8640 0.0000 -1.3308
# 5 -4.1349 -9.8207 -5.2840 0.0000 27.1774 0.0000
# 6 0.0000 0.0000 0.0000 -1.3308 0.0000 29.2176
#
#
#
# Elastic Compliance Matrix: (Units=1/GPa)
#
#
# Indices 1 2 3 4 5 6 
#
# 1 0.019506 -0.007505 -0.006320 0.000000 -0.000973 0.000000
# 2 -0.007505 0.015263 -0.002716 0.000000 0.003845 0.000000
# 3 -0.006320 -0.002716 0.013472 0.000000 0.000677 0.000000
# 4 0.000000 0.000000 0.000000 0.037309 0.000000 0.001699
# 5 -0.000973 0.003845 0.000677 0.000000 0.038168 0.000000
# 6 0.000000 0.000000 0.000000 0.001699 0.000000 0.034303
#
#
# Mechanical properties :
#
#
# Convention : Reuss Voigt Hill
#
# Bulk Modulus (GPa) = 65.96598 67.63306 66.79952
# Shear Modulus (GPa) = 25.48978 26.44521 25.96750
#
# Velocity S-wave (km/s) = 3.81850 3.88940 3.85411
# Velocity P-wave (km/s) = 7.56146 7.67190 7.61688
#
# Compressibility (1/GPa) = 0.01515933
#
# Stress axis : x y z
#
# Youngs Moduli (GPa) = 51.26612 65.51825 74.22595
#
# Poissons Ratio (x) = 0.49173 0.46911
# Poissons Ratio (y) = 0.38477 0.20157
# Poissons Ratio (z) = 0.32401 0.17793
#
# Static dielectric constant tensor:
#      x y z
#    x 3.352050 0.000000 0.168970 
#    y 0.000000 3.186550 0.000000 
#    z 0.168970 0.000000 3.368580 
# 
# 
# High freq. dielectric constant tensor:
#      x y z
#    x 1.654750 0.000000 0.004140 
#    y 0.000000 1.681620 0.000000 
#    z 0.004140 0.000000 1.677220 
# 
# From -- ./inp_files/71642.got.cif
#   From: 2010.06.25/outbox.cif.g09.slc.cpg/sg11_36_cif.got.tgz:71642.got - 2010.06.27 23:14:04.
