data_PCOD8070448
_publ_section_title
;
Structure prediction by ZEFSAII (Michael W. Deem and Ramdas Pophale) SiO2 
 PCOD8070448
Probable space group: P 21/M
;
_chemical_formula_sum "Si O2"
_cell_formula_units_Z 32
_cell_length_a 16.298552
_cell_length_b 9.071996
_cell_length_c 24.991718
_cell_angle_alpha 90.000000
_cell_angle_beta 151.317542
_cell_angle_gamma 90.000000
_cell_volume 1773.570412
_symmetry_space_group_name_H-M "P 21/M"
_symmetry_group_IT_number 11
_symmetry_cell_setting 'monoclinic'
loop_
_space_group_symop_operation_xyz
x,y,z
-x,1/2+y,-z
-x,-y,-z
x,1/2-y,z
loop_
_atom_site_type_symbol
_atom_site_label
_atom_site_fract_x
_atom_site_fract_y
_atom_site_fract_z
Si Si1 0.077370 0.082949 0.994933
Si Si2 0.744686 0.578509 0.340134
Si Si3 0.129167 0.905777 0.220688
Si Si4 0.636918 0.424807 0.911126
Si Si5 0.978452 0.577072 0.569805
Si Si6 0.208647 0.084745 0.905331
Si Si7 0.325304 0.417945 0.406357
Si Si8 0.978314 0.925201 0.692119
O O1 0.139991 0.250000 0.043647
O O2 0.905838 0.086533 0.861596
O O3 0.229665 0.992642 0.054415
O O4 0.000000 0.000000 0.000000
O O5 0.775503 0.750000 0.347961
O O6 0.547375 0.536506 0.219564
O O7 0.812238 0.534413 0.438551
O O8 0.851919 0.494613 0.356700
O O9 0.225661 0.750000 0.289670
O O10 0.946873 0.901559 0.143944
O O11 0.232036 0.050356 0.296814
O O12 0.667194 0.250000 0.933025
O O13 0.650568 0.493576 0.979318
O O14 0.007634 0.750000 0.586277
O O15 0.957423 0.522526 0.618916
O O16 0.277192 0.250000 0.929905
O O17 0.144886 0.001354 0.814788
O O18 0.500000 0.500000 0.500000
O O19 0.366397 0.250000 0.438539
O O20 0.198806 0.476867 0.380673
O O21 0.001334 0.750000 0.711506
#
# Coordination Sequence:
#
# PCOD8070448 Si02
#       8
#     4   4   4   4   4   4   4   4
#     4  10  20  34  52  75 104 137 175 216 261 309
#     4   9  19  35  55  79 106 138 175 215 265 318
#     4   8  16  31  48  66  91 128 167 204 249 299
#     4  10  19  33  53  77 106 139 176 215 261 318
#     4   9  18  35  57  78 103 136 176 217 264 318
#     4   9  17  30  51  76 101 131 168 211 257 306
#     4  10  19  31  48  71 100 133 169 210 255 307
#     4   9  18  33  53  76 101 135 174 213 262 318
#
# _framework density 18.042701999999998
#
# number of rings (size 3 to 8) (size 9 to 14) (size 15 to 20)
#    0.000    2.750    0.000    2.250    0.000    5.500 
#    2.250    0.625    0.000    0.000    0.000    0.000 
#    0.000    0.000    0.000    0.000    0.000    0.000 
#
# Total GULP energy -396423.521645 kJ/mol
# GULP energy per Si atom -12388.235051 kJ/mol
# Density = 1.800164 g / cm^3
# Si number density = 18.042702 Si / 1000 Ang^3
#
#
#
# Elastic Constant Matrix: (Units=GPa)
#
#
# Indices 1 2 3 4 5 6 
#
# 1 97.9748 44.2488 62.6958 0.0000 -19.2682 0.0000
# 2 44.2488 77.0841 49.2995 0.0000 -5.1954 0.0000
# 3 62.6958 49.2995 117.8793 0.0000 -10.7120 0.0000
# 4 0.0000 0.0000 0.0000 28.8725 0.0000 0.0111
# 5 -19.2682 -5.1954 -10.7120 0.0000 26.4628 0.0000
# 6 0.0000 0.0000 0.0000 0.0111 0.0000 26.3542
#
#
#
# Elastic Compliance Matrix: (Units=1/GPa)
#
#
# Indices 1 2 3 4 5 6 
#
# 1 0.019273 -0.006025 -0.006813 0.000000 0.010092 0.000000
# 2 -0.006025 0.019600 -0.005234 0.000000 -0.002658 0.000000
# 3 -0.006813 -0.005234 0.014277 0.000000 -0.000209 0.000000
# 4 0.000000 0.000000 0.000000 0.034635 0.000000 -0.000015
# 5 0.010092 -0.002658 -0.000209 0.000000 0.044530 0.000000
# 6 0.000000 0.000000 0.000000 -0.000015 0.000000 0.037945
#
#
# Mechanical properties :
#
#
# Convention : Reuss Voigt Hill
#
# Bulk Modulus (GPa) = 58.80944 67.26961 63.03952
# Shear Modulus (GPa) = 23.57674 25.45083 24.51379
#
# Velocity S-wave (km/s) = 3.61878 3.75985 3.68999
# Velocity P-wave (km/s) = 7.07998 7.49754 7.29175
#
# Compressibility (1/GPa) = 0.01700407
#
# Stress axis : x y z
#
# Youngs Moduli (GPa) = 51.88663 51.02080 70.04278
#
# Poissons Ratio (x) = 0.30742 0.47724
# Poissons Ratio (y) = 0.31264 0.36659
# Poissons Ratio (z) = 0.35353 0.26704
#
# Static dielectric constant tensor:
#      x y z
#    x 3.307840 0.000000 -0.443620 
#    y 0.000000 3.572920 0.000000 
#    z -0.443620 0.000000 4.055840 
# 
# 
# High freq. dielectric constant tensor:
#      x y z
#    x 1.678230 0.000000 -0.016050 
#    y 0.000000 1.706850 0.000000 
#    z -0.016050 0.000000 1.697490 
# 
# From -- ./inp_files/69088.got.cif
#   From: 2010.06.25/outbox.cif.g09.slc.cpg/sg11_35_cif.got.tgz:69088.got - 2010.06.27 23:14:04.
