data_PCOD8070655
_publ_section_title
;
Structure prediction by ZEFSAII (Michael W. Deem and Ramdas Pophale) SiO2 
 PCOD8070655
Probable space group: P 21/M
;
_chemical_formula_sum "Si O2"
_cell_formula_units_Z 28
_cell_length_a 13.489568
_cell_length_b 9.179291
_cell_length_c 13.369429
_cell_angle_alpha 90.000000
_cell_angle_beta 63.174930
_cell_angle_gamma 90.000000
_cell_volume 1477.317966
_symmetry_space_group_name_H-M "P 21/M"
_symmetry_group_IT_number 11
_symmetry_cell_setting 'monoclinic'
loop_
_space_group_symop_operation_xyz
x,y,z
-x,1/2+y,-z
-x,-y,-z
x,1/2-y,z
loop_
_atom_site_type_symbol
_atom_site_label
_atom_site_fract_x
_atom_site_fract_y
_atom_site_fract_z
Si Si1 0.057532 0.585849 0.240864
Si Si2 0.598959 0.921965 0.398036
Si Si3 0.888080 0.414766 0.565738
Si Si4 0.755157 0.923173 0.927514
Si Si5 0.402343 0.081991 0.824020
Si Si6 0.584159 0.420385 0.889948
Si Si7 0.815794 0.579985 0.423480
O O1 0.053189 0.750000 0.200126
O O2 0.135029 0.582220 0.305449
O O3 0.117509 0.481539 0.131629
O O4 0.931886 0.530615 0.318713
O O5 0.575052 0.750000 0.408873
O O6 0.606303 0.987804 0.282161
O O7 0.715474 0.959897 0.396409
O O8 0.500000 0.000000 0.500000
O O9 0.899549 0.250000 0.521995
O O10 0.796575 0.494459 0.537371
O O11 0.000000 0.500000 0.500000
O O12 0.751730 0.750000 0.920035
O O13 0.699520 0.995030 0.853373
O O14 0.689986 0.981287 0.056195
O O15 0.372054 0.250000 0.828009
O O16 0.529700 0.061406 0.804472
O O17 0.597496 0.250000 0.910784
O O18 0.500000 0.500000 0.000000
O O19 0.821458 0.750000 0.446573
#
# Coordination Sequence:
#
# PCOD8070655 Si02
#       7
#     4   4   4   4   4   4   4
#     4   9  18  32  49  74 105 137 167 201 253 310
#     4  10  21  39  58  75  98 131 172 217 260 309
#     4   9  17  30  50  74 103 136 169 205 251 302
#     4  10  19  31  50  77 104 136 173 208 252 307
#     4   8  17  34  53  72 100 136 170 205 253 306
#     4   9  16  29  49  73 101 134 168 204 249 300
#     4   9  19  35  54  75 103 138 174 212 259 308
#
# _framework density 18.953265999999999
#
# number of rings (size 3 to 8) (size 9 to 14) (size 15 to 20)
#    0.000    2.857    0.000    3.000    0.000    4.571 
#    0.000    9.286    0.000    0.000    0.000    0.000 
#    0.000    0.000    0.000    0.000    0.000    0.000 
#
# Total GULP energy -346866.992650 kJ/mol
# GULP energy per Si atom -12388.106880 kJ/mol
# Density = 1.891013 g / cm^3
# Si number density = 18.953266 Si / 1000 Ang^3
#
#
#
# Elastic Constant Matrix: (Units=GPa)
#
#
# Indices 1 2 3 4 5 6 
#
# 1 111.5502 41.6492 61.9846 0.0000 5.4328 0.0000
# 2 41.6492 75.5674 37.2088 0.0000 -1.5992 0.0000
# 3 61.9846 37.2088 98.1186 0.0000 -4.0203 0.0000
# 4 0.0000 0.0000 0.0000 27.0751 0.0000 -4.1432
# 5 5.4328 -1.5992 -4.0203 0.0000 29.9059 0.0000
# 6 0.0000 0.0000 0.0000 -4.1432 0.0000 26.7449
#
#
#
# Elastic Compliance Matrix: (Units=1/GPa)
#
#
# Indices 1 2 3 4 5 6 
#
# 1 0.015411 -0.004555 -0.008178 0.000000 -0.004143 0.000000
# 2 -0.004555 0.017618 -0.003752 0.000000 0.001265 0.000000
# 3 -0.008178 -0.003752 0.016927 0.000000 0.003561 0.000000
# 4 0.000000 0.000000 0.000000 0.037831 0.000000 0.005861
# 5 -0.004143 0.001265 0.003561 0.000000 0.034737 0.000000
# 6 0.000000 0.000000 0.000000 0.005861 0.000000 0.038298
#
#
# Mechanical properties :
#
#
# Convention : Reuss Voigt Hill
#
# Bulk Modulus (GPa) = 58.87125 62.99128 60.93126
# Shear Modulus (GPa) = 25.06842 26.37142 25.71992
#
# Velocity S-wave (km/s) = 3.64076 3.73418 3.68777
# Velocity P-wave (km/s) = 6.98586 7.20412 7.09583
#
# Compressibility (1/GPa) = 0.01698622
#
# Stress axis : x y z
#
# Youngs Moduli (GPa) = 64.88738 56.76104 59.07757
#
# Poissons Ratio (x) = 0.25853 0.48315
# Poissons Ratio (y) = 0.29555 0.22165
# Poissons Ratio (z) = 0.53067 0.21296
#
# Static dielectric constant tensor:
#      x y z
#    x 3.713770 0.000000 0.152010 
#    y 0.000000 3.505020 0.000000 
#    z 0.152010 0.000000 3.484990 
# 
# 
# High freq. dielectric constant tensor:
#      x y z
#    x 1.727190 0.000000 -0.007050 
#    y 0.000000 1.725620 0.000000 
#    z -0.007050 0.000000 1.724260 
# 
# From -- ./inp_files/51104.got.cif
#   From: 2010.06.25/outbox.cif.g09.slc.cpg/sg11_26_cif.got.tgz:51104.got - 2010.06.27 23:14:04.
