data_PCOD8070866
_publ_section_title
;
Structure prediction by ZEFSAII (Michael W. Deem and Ramdas Pophale) SiO2 
 PCOD8070866
Probable space group: P 21/M
;
_chemical_formula_sum "Si O2"
_cell_formula_units_Z 32
_cell_length_a 21.219873
_cell_length_b 9.257487
_cell_length_c 11.893676
_cell_angle_alpha 90.000000
_cell_angle_beta 52.491226
_cell_angle_gamma 90.000000
_cell_volume 1853.393389
_symmetry_space_group_name_H-M "P 21/M"
_symmetry_group_IT_number 11
_symmetry_cell_setting 'monoclinic'
loop_
_space_group_symop_operation_xyz
x,y,z
-x,1/2+y,-z
-x,-y,-z
x,1/2-y,z
loop_
_atom_site_type_symbol
_atom_site_label
_atom_site_fract_x
_atom_site_fract_y
_atom_site_fract_z
Si Si1 0.227908 0.414878 0.146944
Si Si2 0.427566 0.581675 0.214451
Si Si3 0.720742 0.415649 0.497259
Si Si4 0.885743 0.582951 0.930928
Si Si5 0.400416 0.083469 0.018906
Si Si6 0.161842 0.418132 0.771125
Si Si7 0.042717 0.420385 0.702999
Si Si8 0.837848 0.081625 0.573245
O O1 0.215889 0.250000 0.201895
O O2 0.190503 0.437593 0.065284
O O3 0.321763 0.450871 0.032094
O O4 0.186810 0.521523 0.279223
O O5 0.415522 0.750000 0.203619
O O6 0.371228 0.538092 0.380965
O O7 0.396417 0.503916 0.137709
O O8 0.519975 0.542361 0.138825
O O9 0.728361 0.250000 0.453015
O O10 0.756479 0.507198 0.356332
O O11 0.767178 0.446519 0.562519
O O12 0.913758 0.750000 0.904776
O O13 0.955224 0.483729 0.808191
O O14 0.861981 0.526176 0.079988
O O15 0.404493 0.250000 0.049273
O O16 0.179872 0.250000 0.752760
O O17 0.090427 0.458445 0.764785
O O18 0.038644 0.250000 0.685638
O O19 0.084009 0.496430 0.551991
O O20 0.858818 0.250000 0.561796
#
# Coordination Sequence:
#
# PCOD8070866 Si02
#       8
#     4   4   4   4   4   4   4   4
#     4  10  20  33  49  70  99 132 163 194 232 287
#     4   9  16  28  46  72 101 126 156 193 237 282
#     4   9  17  29  48  73  99 125 155 196 241 284
#     4  10  21  36  51  69  95 128 163 198 241 288
#     4   9  17  28  46  71  99 129 158 192 232 279
#     4   9  19  34  52  72  94 122 159 204 244 282
#     4  10  20  34  53  75  95 118 158 207 247 286
#     4  10  19  32  50  72  99 130 159 193 242 288
#
# _framework density 17.265629000000001
#
# number of rings (size 3 to 8) (size 9 to 14) (size 15 to 20)
#    0.000    2.500    1.250    1.125    0.000    3.000 
#    0.000    0.000    0.000    0.750    0.000    0.000 
#    0.000    0.000    0.000    0.000    0.000    0.000 
#
# Total GULP energy -396767.263567 kJ/mol
# GULP energy per Si atom -12398.976986 kJ/mol
# Density = 1.722633 g / cm^3
# Si number density = 17.265629 Si / 1000 Ang^3
#
#
#
# Elastic Constant Matrix: (Units=GPa)
#
#
# Indices 1 2 3 4 5 6 
#
# 1 79.4015 31.7080 46.5563 0.0000 -18.5160 0.0000
# 2 31.7080 56.7689 34.6549 0.0000 -12.0842 0.0000
# 3 46.5563 34.6549 85.9486 0.0000 -28.6753 0.0000
# 4 0.0000 0.0000 0.0000 30.8319 0.0000 -2.3619
# 5 -18.5160 -12.0842 -28.6753 0.0000 27.1526 0.0000
# 6 0.0000 0.0000 0.0000 -2.3619 0.0000 17.1614
#
#
#
# Elastic Compliance Matrix: (Units=1/GPa)
#
#
# Indices 1 2 3 4 5 6 
#
# 1 0.020073 -0.006028 -0.007366 0.000000 0.003226 0.000000
# 2 -0.006028 0.025186 -0.006981 0.000000 -0.000275 0.000000
# 3 -0.007366 -0.006981 0.024283 0.000000 0.017515 0.000000
# 4 0.000000 0.000000 0.000000 0.032780 0.000000 0.004511
# 5 0.003226 -0.000275 0.017515 0.000000 0.057404 0.000000
# 6 0.000000 0.000000 0.000000 0.004511 0.000000 0.058891
#
#
# Mechanical properties :
#
#
# Convention : Reuss Voigt Hill
#
# Bulk Modulus (GPa) = 34.73335 49.77303 42.25319
# Shear Modulus (GPa) = 18.58982 22.30917 20.44949
#
# Velocity S-wave (km/s) = 3.28486 3.59850 3.44525
# Velocity P-wave (km/s) = 5.87774 6.79382 6.35231
#
# Compressibility (1/GPa) = 0.02879078
#
# Stress axis : x y z
#
# Youngs Moduli (GPa) = 49.81862 39.70526 41.18054
#
# Poissons Ratio (x) = 0.23935 0.30333
# Poissons Ratio (y) = 0.30032 0.28749
# Poissons Ratio (z) = 0.36696 0.27719
#
# Static dielectric constant tensor:
#      x y z
#    x 3.153260 0.000000 -0.243330 
#    y 0.000000 3.243320 0.000000 
#    z -0.243330 0.000000 3.363150 
# 
# 
# High freq. dielectric constant tensor:
#      x y z
#    x 1.642610 0.000000 -0.020820 
#    y 0.000000 1.669090 0.000000 
#    z -0.020820 0.000000 1.667000 
# 
# From -- ./inp_files/40616.got.cif
#   From: 2010.06.25/outbox.cif.g09.slc.cpg/sg11_21_cif.got.tgz:40616.got - 2010.06.27 23:14:04.
