data_PCOD8070022
_publ_section_title
;
Structure prediction by ZEFSAII (Michael W. Deem and Ramdas Pophale) SiO2 
 PCOD8070022
Probable space group: P 21/M
;
_chemical_formula_sum "Si O2"
_cell_formula_units_Z 24
_cell_length_a 12.214519
_cell_length_b 8.867808
_cell_length_c 14.425681
_cell_angle_alpha 90.000000
_cell_angle_beta 110.146818
_cell_angle_gamma 90.000000
_cell_volume 1466.925734
_symmetry_space_group_name_H-M "P 21/M"
_symmetry_group_IT_number 11
_symmetry_cell_setting 'monoclinic'
loop_
_space_group_symop_operation_xyz
x,y,z
-x,1/2+y,-z
-x,-y,-z
x,1/2-y,z
loop_
_atom_site_type_symbol
_atom_site_label
_atom_site_fract_x
_atom_site_fract_y
_atom_site_fract_z
Si Si1 0.916915 0.928155 0.550970
Si Si2 0.569950 0.925428 0.643861
Si Si3 0.757383 0.926473 0.834060
Si Si4 0.096166 0.428121 0.962122
Si Si5 0.325156 0.574965 0.503507
Si Si6 0.969424 0.928335 0.772952
O O1 0.920948 0.750000 0.543271
O O2 0.961409 0.982699 0.664651
O O3 0.785186 0.981332 0.493965
O O4 0.000000 0.000000 0.500000
O O5 0.593919 0.750000 0.626933
O O6 0.628178 0.972130 0.759967
O O7 0.431568 0.956632 0.606593
O O8 0.633529 0.024908 0.585527
O O9 0.773408 0.750000 0.829514
O O10 0.855634 0.993551 0.793105
O O11 0.781104 0.970371 0.949217
O O12 0.078743 0.250000 0.949339
O O13 0.084777 0.500587 0.856312
O O14 0.000000 0.500000 0.000000
O O15 0.291551 0.750000 0.491098
O O16 0.980599 0.750000 0.781726
#
# Coordination Sequence:
#
# PCOD8070022 Si02
#       6
#     4   4   4   4   4   4
#     4  11  22  36  51  66  91 124 160 198 237 280
#     4   9  16  29  47  66  95 129 155 185 228 278
#     4   8  13  25  43  64  90 123 151 175 224 275
#     4   9  16  25  40  63  91 120 152 185 222 273
#     4  10  19  29  45  70  94 121 159 193 229 276
#     4   9  17  30  45  61  88 123 152 186 232 276
#
# _framework density 16.360745999999999
#
# number of rings (size 3 to 8) (size 9 to 14) (size 15 to 20)
#    0.000    2.667    1.667    2.500    0.000    2.000 
#    0.000    0.833    0.000    0.000    0.000    1.167 
#    0.000    0.000    0.000    0.000    0.000    0.000 
#
# Total GULP energy -297322.530256 kJ/mol
# GULP energy per Si atom -12388.438761 kJ/mol
# Density = 1.632351 g / cm^3
# Si number density = 16.360746 Si / 1000 Ang^3
#
#
#
# Elastic Constant Matrix: (Units=GPa)
#
#
# Indices 1 2 3 4 5 6 
#
# 1 73.6701 26.6912 61.3916 0.0000 11.1610 0.0000
# 2 26.6912 46.8653 38.2342 0.0000 4.9214 0.0000
# 3 61.3916 38.2342 154.1645 0.0000 32.1095 0.0000
# 4 0.0000 0.0000 0.0000 25.7024 0.0000 1.4300
# 5 11.1610 4.9214 32.1095 0.0000 25.8761 0.0000
# 6 0.0000 0.0000 0.0000 1.4300 0.0000 20.8041
#
#
#
# Elastic Compliance Matrix: (Units=1/GPa)
#
#
# Indices 1 2 3 4 5 6 
#
# 1 0.021891 -0.006649 -0.007235 0.000000 0.000801 0.000000
# 2 -0.006649 0.029119 -0.005418 0.000000 0.004053 0.000000
# 3 -0.007235 -0.005418 0.013279 0.000000 -0.012327 0.000000
# 4 0.000000 0.000000 0.000000 0.039056 0.000000 -0.002685
# 5 0.000801 0.004053 -0.012327 0.000000 0.052826 0.000000
# 6 0.000000 0.000000 0.000000 -0.002685 0.000000 0.048252
#
#
# Mechanical properties :
#
#
# Convention : Reuss Voigt Hill
#
# Bulk Modulus (GPa) = 38.93416 58.59265 48.76341
# Shear Modulus (GPa) = 19.87364 24.36871 22.12118
#
# Velocity S-wave (km/s) = 3.48906 3.86354 3.68106
# Velocity P-wave (km/s) = 6.33090 7.46949 6.92364
#
# Compressibility (1/GPa) = 0.02568438
#
# Stress axis : x y z
#
# Youngs Moduli (GPa) = 45.68076 34.34144 75.30703
#
# Poissons Ratio (x) = 0.22834 0.54486
# Poissons Ratio (y) = 0.30373 0.40804
# Poissons Ratio (z) = 0.33051 0.18607
#
# Static dielectric constant tensor:
#      x y z
#    x 2.848640 0.000000 0.497150 
#    y 0.000000 3.094180 0.000000 
#    z 0.497150 0.000000 3.726460 
# 
# 
# High freq. dielectric constant tensor:
#      x y z
#    x 1.575100 0.000000 0.035750 
#    y 0.000000 1.626270 0.000000 
#    z 0.035750 0.000000 1.640810 
# 
# From -- ./inp_files/36992.got.cif
#   From: 2010.06.25/outbox.cif.g09.slc.cpg/sg11_19_cif.got.tgz:36992.got - 2010.06.27 23:14:04.
