data_PCOD8070700
_publ_section_title
;
Structure prediction by ZEFSAII (Michael W. Deem and Ramdas Pophale) SiO2 
 PCOD8070700
Probable space group: P 21/M
;
_chemical_formula_sum "Si O2"
_cell_formula_units_Z 24
_cell_length_a 24.157202
_cell_length_b 9.216840
_cell_length_c 18.120949
_cell_angle_alpha 90.000000
_cell_angle_beta 18.202363
_cell_angle_gamma 90.000000
_cell_volume 1260.331037
_symmetry_space_group_name_H-M "P 21/M"
_symmetry_group_IT_number 11
_symmetry_cell_setting 'monoclinic'
loop_
_space_group_symop_operation_xyz
x,y,z
-x,1/2+y,-z
-x,-y,-z
x,1/2-y,z
loop_
_atom_site_type_symbol
_atom_site_label
_atom_site_fract_x
_atom_site_fract_y
_atom_site_fract_z
Si Si1 0.532419 0.584427 0.284125
Si Si2 0.338110 0.584816 0.173704
Si Si3 0.481834 0.920017 0.843665
Si Si4 0.179877 0.581136 0.519733
Si Si5 0.807503 0.579490 0.059551
Si Si6 0.165819 0.581872 0.824069
O O1 0.577095 0.750000 0.207456
O O2 0.584624 0.487084 0.148421
O O3 0.649987 0.534630 0.204401
O O4 0.326146 0.564752 0.563764
O O5 0.394859 0.750000 0.108366
O O6 0.173624 0.553489 0.437786
O O7 0.500000 0.500000 0.000000
O O8 0.323741 0.547484 0.104379
O O9 0.513726 0.750000 0.792080
O O10 0.666981 0.990075 0.634654
O O11 0.215891 0.750000 0.491521
O O12 0.992364 0.531710 0.788929
O O13 0.804511 0.750000 0.082149
O O14 0.776421 0.488895 0.172475
O O15 0.117984 0.750000 0.896989
O O16 0.000000 0.500000 0.000000
#
# Coordination Sequence:
#
# PCOD8070700 Si02
#       6
#     4   4   4   4   4   4
#     4  10  22  38  53  73 104 139 170 203 252 308
#     4   8  15  28  47  73 102 131 166 208 252 294
#     4  10  19  31  51  78 105 134 171 213 251 293
#     4   9  17  32  54  76 101 134 170 210 255 301
#     4  10  21  37  56  77 102 134 171 209 251 301
#     4  11  23  38  57  79 103 132 167 209 254 301
#
# _framework density 19.042617
#
# number of rings (size 3 to 8) (size 9 to 14) (size 15 to 20)
#    0.000    2.333    0.000    2.500    0.000    7.333 
#    0.000    0.833    0.000    0.000    0.000    0.000 
#    0.000    0.000    0.000    0.000    0.000    0.000 
#
# Total GULP energy -297440.297703 kJ/mol
# GULP energy per Si atom -12393.345738 kJ/mol
# Density = 1.899928 g / cm^3
# Si number density = 19.042617 Si / 1000 Ang^3
#
#
#
# Elastic Constant Matrix: (Units=GPa)
#
#
# Indices 1 2 3 4 5 6 
#
# 1 123.9718 55.2416 22.2293 0.0000 11.0210 0.0000
# 2 55.2416 72.9613 16.5385 0.0000 8.7638 0.0000
# 3 22.2293 16.5385 25.2028 0.0000 7.9237 0.0000
# 4 0.0000 0.0000 0.0000 21.1690 0.0000 3.2246
# 5 11.0210 8.7638 7.9237 0.0000 33.8644 0.0000
# 6 0.0000 0.0000 0.0000 3.2246 0.0000 36.3587
#
#
#
# Elastic Compliance Matrix: (Units=1/GPa)
#
#
# Indices 1 2 3 4 5 6 
#
# 1 0.012876 -0.008388 -0.005632 0.000000 -0.000702 0.000000
# 2 -0.008388 0.021671 -0.006387 0.000000 -0.001384 0.000000
# 3 -0.005632 -0.006387 0.051532 0.000000 -0.008572 0.000000
# 4 0.000000 0.000000 0.000000 0.047886 0.000000 -0.004247
# 5 -0.000702 -0.001384 -0.008572 0.000000 0.032122 0.000000
# 6 0.000000 0.000000 0.000000 -0.004247 0.000000 0.027880
#
#
# Mechanical properties :
#
#
# Convention : Reuss Voigt Hill
#
# Bulk Modulus (GPa) = 22.09243 45.57277 33.83260
# Shear Modulus (GPa) = 20.01037 26.82017 23.41527
#
# Velocity S-wave (km/s) = 3.24515 3.75698 3.51040
# Velocity P-wave (km/s) = 5.06637 6.54246 5.85115
#
# Compressibility (1/GPa) = 0.04526438
#
# Stress axis : x y z
#
# Youngs Moduli (GPa) = 77.66135 46.14463 19.40545
#
# Poissons Ratio (x) = 0.38707 0.10929
# Poissons Ratio (y) = 0.65144 0.12395
# Poissons Ratio (z) = 0.43739 0.29474
#
# Static dielectric constant tensor:
#      x y z
#    x 3.675920 0.000000 0.500050 
#    y 0.000000 3.461910 0.000000 
#    z 0.500050 0.000000 3.684620 
# 
# 
# High freq. dielectric constant tensor:
#      x y z
#    x 1.742680 0.000000 0.027530 
#    y 0.000000 1.742130 0.000000 
#    z 0.027530 0.000000 1.732700 
# 
# From -- ./inp_files/20472.got.cif
#   From: 2010.06.25/outbox.cif.g09.slc.cpg/sg11_11_cif.got.tgz:20472.got - 2010.06.27 23:14:04.
