data_PCOD8070965
_publ_section_title
;
Structure prediction by ZEFSAII (Michael W. Deem and Ramdas Pophale) SiO2 
 PCOD8070965
Probable space group: P 21/M
;
_chemical_formula_sum "Si O2"
_cell_formula_units_Z 32
_cell_length_a 26.240343
_cell_length_b 9.620011
_cell_length_c 20.516932
_cell_angle_alpha 90.000000
_cell_angle_beta 21.113525
_cell_angle_gamma 90.000000
_cell_volume 1865.613746
_symmetry_space_group_name_H-M "P 21/M"
_symmetry_group_IT_number 11
_symmetry_cell_setting 'monoclinic'
loop_
_space_group_symop_operation_xyz
x,y,z
-x,1/2+y,-z
-x,-y,-z
x,1/2-y,z
loop_
_atom_site_type_symbol
_atom_site_label
_atom_site_fract_x
_atom_site_fract_y
_atom_site_fract_z
Si Si1 0.437562 0.406062 0.129011
Si Si2 0.703202 0.410316 0.880651
Si Si3 0.836531 0.588966 0.606369
Si Si4 0.208903 0.590847 0.743940
Si Si5 0.190221 0.411201 0.997288
Si Si6 0.870879 0.087516 0.803567
Si Si7 0.514206 0.588856 0.418125
Si Si8 0.956963 0.909724 0.957692
O O1 0.465958 0.250000 0.071917
O O2 0.268705 0.432806 0.331168
O O3 0.500000 0.500000 0.000000
O O4 0.531503 0.434611 0.081814
O O5 0.744420 0.250000 0.817688
O O6 0.788134 0.501395 0.726714
O O7 0.743868 0.449542 0.905721
O O8 0.841478 0.750000 0.621944
O O9 0.987520 0.537276 0.401768
O O10 0.182905 0.750000 0.795180
O O11 0.376891 0.562597 0.535373
O O12 0.120467 0.557094 0.782979
O O13 0.151787 0.498745 0.870753
O O14 0.189828 0.250000 0.017851
O O15 0.345772 0.457130 0.787535
O O16 0.149280 0.502420 0.107283
O O17 0.071034 0.442497 0.084649
O O18 0.877460 0.250000 0.813582
O O19 0.500000 0.500000 0.500000
O O20 0.525657 0.750000 0.424921
O O21 0.919193 0.750000 0.017127
#
# Coordination Sequence:
#
# PCOD8070965 Si02
#       8
#     4   4   4   4   4   4   4   4
#     4   8  14  26  45  68  93 118 147 188 236 279
#     4   9  17  30  49  72  96 123 157 198 239 282
#     4   9  17  30  49  72  95 122 158 199 239 282
#     4   9  17  29  50  76  97 120 152 193 240 284
#     4  10  21  35  49  67  97 132 162 196 240 288
#     4  10  21  34  47  67  96 129 163 198 238 284
#     4  10  19  32  51  75  98 123 157 196 239 287
#     4   9  17  31  49  71  98 123 152 193 237 285
#
# _framework density 17.152532999999998
#
# number of rings (size 3 to 8) (size 9 to 14) (size 15 to 20)
#    0.000    2.750    1.250    0.375    0.000    2.000 
#    0.000    1.250    0.000    0.000    0.000    0.000 
#    0.000    0.000    0.000    0.000    0.000    0.000 
#
# Total GULP energy -396460.189176 kJ/mol
# GULP energy per Si atom -12389.380912 kJ/mol
# Density = 1.711349 g / cm^3
# Si number density = 17.152533 Si / 1000 Ang^3
#
#
#
# Elastic Constant Matrix: (Units=GPa)
#
#
# Indices 1 2 3 4 5 6 
#
# 1 125.6791 43.6904 43.5224 0.0000 -13.7121 0.0000
# 2 43.6904 48.8708 22.1472 0.0000 2.9880 0.0000
# 3 43.5224 22.1472 36.6862 0.0000 -10.2160 0.0000
# 4 0.0000 0.0000 0.0000 22.6810 0.0000 4.4575
# 5 -13.7121 2.9880 -10.2160 0.0000 29.6970 0.0000
# 6 0.0000 0.0000 0.0000 4.4575 0.0000 28.1295
#
#
#
# Elastic Compliance Matrix: (Units=1/GPa)
#
#
# Indices 1 2 3 4 5 6 
#
# 1 0.015627 -0.008668 -0.012226 0.000000 0.003882 0.000000
# 2 -0.008668 0.035691 -0.014796 0.000000 -0.012683 0.000000
# 3 -0.012226 -0.014796 0.054785 0.000000 0.014690 0.000000
# 4 0.000000 0.000000 0.000000 0.045507 0.000000 -0.007211
# 5 0.003882 -0.012683 0.014690 0.000000 0.041795 0.000000
# 6 0.000000 0.000000 0.000000 -0.007211 0.000000 0.036692
#
#
# Mechanical properties :
#
#
# Convention : Reuss Voigt Hill
#
# Bulk Modulus (GPa) = 28.79729 47.77289 38.28509
# Shear Modulus (GPa) = 15.97183 22.89326 19.43255
#
# Velocity S-wave (km/s) = 3.05481 3.65730 3.36955
# Velocity P-wave (km/s) = 5.40998 6.76363 6.12432
#
# Compressibility (1/GPa) = 0.03472549
#
# Stress axis : x y z
#
# Youngs Moduli (GPa) = 63.99109 28.01794 18.25328
#
# Poissons Ratio (x) = 0.24285 0.22316
# Poissons Ratio (y) = 0.55465 0.27007
# Poissons Ratio (z) = 0.78233 0.41454
#
# Static dielectric constant tensor:
#      x y z
#    x 3.431980 0.000000 -0.894000 
#    y 0.000000 3.239210 0.000000 
#    z -0.894000 0.000000 3.336930 
# 
# 
# High freq. dielectric constant tensor:
#      x y z
#    x 1.660040 0.000000 -0.042080 
#    y 0.000000 1.665080 0.000000 
#    z -0.042080 0.000000 1.643990 
# 
# From -- ./inp_files/67099.got.cif
#   From: 2010.06.25/outbox.cif.g09.slc.cpg/sg11_34_cif.got.tgz:67099.got - 2010.06.27 23:14:04.
