data_PCOD8070927
_publ_section_title
;
Structure prediction by ZEFSAII (Michael W. Deem and Ramdas Pophale) SiO2 
 PCOD8070927
Probable space group: P 21/M
;
_chemical_formula_sum "Si O2"
_cell_formula_units_Z 24
_cell_length_a 18.022490
_cell_length_b 9.079771
_cell_length_c 23.708713
_cell_angle_alpha 90.000000
_cell_angle_beta 160.165436
_cell_angle_gamma 90.000000
_cell_volume 1316.401910
_symmetry_space_group_name_H-M "P 21/M"
_symmetry_group_IT_number 11
_symmetry_cell_setting 'monoclinic'
loop_
_space_group_symop_operation_xyz
x,y,z
-x,1/2+y,-z
-x,-y,-z
x,1/2-y,z
loop_
_atom_site_type_symbol
_atom_site_label
_atom_site_fract_x
_atom_site_fract_y
_atom_site_fract_z
Si Si1 0.495540 0.084007 0.331735
Si Si2 0.081618 0.421747 0.502683
Si Si3 0.418612 0.579297 0.167789
Si Si4 0.418378 0.078253 0.497314
Si Si5 0.004465 0.084007 0.668269
Si Si6 0.081392 0.579297 0.832215
O O1 0.409747 0.250000 0.279232
O O2 0.750002 0.081701 0.500001
O O3 0.366992 0.010703 0.187767
O O4 0.451898 0.990979 0.357035
O O5 0.026046 0.250000 0.465665
O O6 0.339068 0.451097 0.681517
O O7 0.000000 0.500000 0.500000
O O8 0.951892 0.490979 0.357031
O O9 0.383909 0.750000 0.157364
O O10 0.250003 0.524076 0.000002
O O11 0.473947 0.250000 0.534329
O O12 0.160927 0.048901 0.318479
O O13 0.500000 0.000000 0.500000
O O14 0.090260 0.250000 0.720773
O O15 0.133011 0.010703 0.812236
O O16 0.116093 0.750000 0.842638
#
# Coordination Sequence:
#
# PCOD8070927 Si02
#       6
#     4   4   4   4   4   4
#     4   9  17  30  49  72  97 126 161 197 235 284
#     4  10  19  32  51  73  98 127 160 198 239 284
#     4   9  18  33  52  73  97 126 160 198 240 284
#     4  10  19  32  51  73  98 127 160 198 239 284
#     4   9  17  30  49  72  97 126 161 197 235 284
#     4   9  18  33  52  73  97 126 160 198 240 284
#
# _framework density 18.231513
#
# number of rings (size 3 to 8) (size 9 to 14) (size 15 to 20)
#    0.000    2.667    0.000    2.000    0.000    6.000 
#    0.000    1.667    0.000    0.000    0.000    0.000 
#    0.000    0.000    0.000    0.000    0.000    0.000 
#
# Total GULP energy -297630.641066 kJ/mol
# GULP energy per Si atom -12401.276711 kJ/mol
# Density = 1.819002 g / cm^3
# Si number density = 18.231513 Si / 1000 Ang^3
#
#
#
# Elastic Constant Matrix: (Units=GPa)
#
#
# Indices 1 2 3 4 5 6 
#
# 1 157.3781 96.2872 51.4245 0.0000 -42.0423 0.0000
# 2 96.2872 143.6751 49.4608 0.0000 -27.1827 0.0000
# 3 51.4245 49.4608 76.7326 0.0000 -39.3149 0.0000
# 4 0.0000 0.0000 0.0000 20.7575 0.0000 -8.6391
# 5 -42.0423 -27.1827 -39.3149 0.0000 34.4012 0.0000
# 6 0.0000 0.0000 0.0000 -8.6391 0.0000 42.6092
#
#
#
# Elastic Compliance Matrix: (Units=1/GPa)
#
#
# Indices 1 2 3 4 5 6 
#
# 1 0.013858 -0.007592 0.002920 0.000000 0.014274 0.000000
# 2 -0.007592 0.013123 -0.006785 0.000000 -0.006662 0.000000
# 3 0.002920 -0.006785 0.035059 0.000000 0.038274 0.000000
# 4 0.000000 0.000000 0.000000 0.052615 0.000000 0.010668
# 5 0.014274 -0.006662 0.038274 0.000000 0.084990 0.000000
# 6 0.000000 0.000000 0.000000 0.010668 0.000000 0.025632
#
#
# Mechanical properties :
#
#
# Convention : Reuss Voigt Hill
#
# Bulk Modulus (GPa) = 25.55807 85.79228 55.67517
# Shear Modulus (GPa) = 19.14000 31.59447 25.36723
#
# Velocity S-wave (km/s) = 3.24362 4.16740 3.73419
# Velocity P-wave (km/s) = 5.29879 8.38544 7.01401
#
# Compressibility (1/GPa) = 0.03912659
#
# Stress axis : x y z
#
# Youngs Moduli (GPa) = 72.15942 76.20096 28.52351
#
# Poissons Ratio (x) = 0.57851 -0.08328
# Poissons Ratio (y) = 0.54783 0.19352
# Poissons Ratio (z) = -0.21069 0.51700
#
# Static dielectric constant tensor:
#      x y z
#    x 3.388220 0.000000 -0.320860 
#    y 0.000000 3.533960 0.000000 
#    z -0.320860 0.000000 3.261110 
# 
# 
# High freq. dielectric constant tensor:
#      x y z
#    x 1.708320 0.000000 -0.027780 
#    y 0.000000 1.718030 0.000000 
#    z -0.027780 0.000000 1.676480 
# 
# From -- ./inp_files/20503.got.cif
#   From: 2010.06.25/outbox.cif.g09.slc.cpg/sg11_11_cif.got.tgz:20503.got - 2010.06.27 23:14:04.
