data_PCOD8070403
_publ_section_title
;
Structure prediction by ZEFSAII (Michael W. Deem and Ramdas Pophale) SiO2 
 PCOD8070403
Probable space group: P 21/M
;
_chemical_formula_sum "Si O2"
_cell_formula_units_Z 32
_cell_length_a 24.268478
_cell_length_b 9.492325
_cell_length_c 25.471278
_cell_angle_alpha 90.000000
_cell_angle_beta 162.322103
_cell_angle_gamma 90.000000
_cell_volume 1781.809918
_symmetry_space_group_name_H-M "P 21/M"
_symmetry_group_IT_number 11
_symmetry_cell_setting 'monoclinic'
loop_
_space_group_symop_operation_xyz
x,y,z
-x,1/2+y,-z
-x,-y,-z
x,1/2-y,z
loop_
_atom_site_type_symbol
_atom_site_label
_atom_site_fract_x
_atom_site_fract_y
_atom_site_fract_z
Si Si1 0.002007 0.914642 0.948356
Si Si2 0.503985 0.407613 0.952125
Si Si3 0.493267 0.418661 0.750002
Si Si4 0.271646 0.916651 0.940786
Si Si5 0.605294 0.914643 0.551643
Si Si6 0.616365 0.416320 0.749998
Si Si7 0.109934 0.416651 0.440793
Si Si8 0.099737 0.407613 0.547877
O O1 0.016475 0.750000 0.975608
O O2 0.820872 0.945901 0.750000
O O3 0.178149 0.965814 0.075773
O O4 0.000000 0.000000 0.000000
O O5 0.565491 0.250000 0.023995
O O6 0.311673 0.403950 0.750001
O O7 0.500000 0.500000 0.000000
O O8 0.641630 0.475425 0.034531
O O9 0.494650 0.250000 0.749995
O O10 0.555047 0.481648 0.750002
O O11 0.292649 0.478211 0.580846
O O12 0.630970 0.478205 0.919165
O O13 0.300513 0.750000 0.966345
O O14 0.059382 0.958177 0.749996
O O15 0.565253 0.750000 0.524385
O O16 0.526604 0.965821 0.424227
O O17 0.500000 0.000000 0.500000
O O18 0.611557 0.250000 0.749990
O O19 0.132192 0.250000 0.466357
O O20 0.072566 0.475422 0.465468
O O21 0.017502 0.250000 0.476007
O O22 0.000000 0.500000 0.500000
#
# Coordination Sequence:
#
# PCOD8070403 Si02
#       8
#     4   4   4   4   4   4   4   4
#     4  10  19  31  49  73 101 133 165 199 243 291
#     4  10  19  31  47  70  99 126 159 202 243 291
#     4   9  16  28  44  65  95 129 160 195 242 290
#     4   9  16  27  44  65  92 126 160 196 240 289
#     4  10  19  31  49  73 101 133 165 199 243 291
#     4   9  18  30  45  69 101 129 162 207 242 280
#     4   9  16  27  44  65  92 126 160 196 240 289
#     4  10  19  31  47  70  99 126 159 202 243 291
#
# _framework density 17.959266
#
# number of rings (size 3 to 8) (size 9 to 14) (size 15 to 20)
#    0.000    2.500    2.500    0.750    0.000    2.500 
#    0.000    5.000    0.000    0.000    0.000    3.500 
#    0.000    0.000    0.000    0.000    0.000    0.000 
#
# Total GULP energy -396680.326761 kJ/mol
# GULP energy per Si atom -12396.260211 kJ/mol
# Density = 1.791839 g / cm^3
# Si number density = 17.959266 Si / 1000 Ang^3
#
#
#
# Elastic Constant Matrix: (Units=GPa)
#
#
# Indices 1 2 3 4 5 6 
#
# 1 175.0876 28.8530 88.5506 0.0000 -1.9361 0.0000
# 2 28.8530 25.2871 20.1100 0.0000 -0.8044 0.0000
# 3 88.5506 20.1100 160.5794 0.0000 0.5981 0.0000
# 4 0.0000 0.0000 0.0000 14.8378 0.0000 -0.4309
# 5 -1.9361 -0.8044 0.5981 0.0000 32.9923 0.0000
# 6 0.0000 0.0000 0.0000 -0.4309 0.0000 19.5192
#
#
#
# Elastic Compliance Matrix: (Units=1/GPa)
#
#
# Indices 1 2 3 4 5 6 
#
# 1 0.008903 -0.006929 -0.004043 0.000000 0.000427 0.000000
# 2 -0.006929 0.049359 -0.002363 0.000000 0.000840 0.000000
# 3 -0.004043 -0.002363 0.008755 0.000000 -0.000454 0.000000
# 4 0.000000 0.000000 0.000000 0.067439 0.000000 0.001489
# 5 0.000427 0.000840 -0.000454 0.000000 0.030364 0.000000
# 6 0.000000 0.000000 0.000000 0.001489 0.000000 0.051264
#
#
# Mechanical properties :
#
#
# Convention : Reuss Voigt Hill
#
# Bulk Modulus (GPa) = 24.78665 70.66459 47.72562
# Shear Modulus (GPa) = 19.51577 28.36590 23.94084
#
# Velocity S-wave (km/s) = 3.30004 3.97855 3.65507
# Velocity P-wave (km/s) = 5.32465 7.78060 6.66669
#
# Compressibility (1/GPa) = 0.04034430
#
# Stress axis : x y z
#
# Youngs Moduli (GPa) = 112.32246 20.25992 114.22365
#
# Poissons Ratio (x) = 0.14039 0.46184
# Poissons Ratio (y) = 0.77832 0.26995
# Poissons Ratio (z) = 0.45415 0.04788
#
# Static dielectric constant tensor:
#      x y z
#    x 3.021580 0.000000 0.067330 
#    y 0.000000 2.773100 0.000000 
#    z 0.067330 0.000000 3.753290 
# 
# 
# High freq. dielectric constant tensor:
#      x y z
#    x 1.697530 0.000000 0.001810 
#    y 0.000000 1.627220 0.000000 
#    z 0.001810 0.000000 1.717210 
# 
# From -- ./inp_files/66527.got.cif
#   From: 2010.06.25/outbox.cif.g09.slc.cpg/sg11_34_cif.got.tgz:66527.got - 2010.06.27 23:14:04.
