data_PCOD8070394
_publ_section_title
;
Structure prediction by ZEFSAII (Michael W. Deem and Ramdas Pophale) SiO2 
 PCOD8070394
Probable space group: P 21/M
;
_chemical_formula_sum "Si O2"
_cell_formula_units_Z 32
_cell_length_a 24.091183
_cell_length_b 8.873401
_cell_length_c 17.688356
_cell_angle_alpha 90.000000
_cell_angle_beta 149.846623
_cell_angle_gamma 90.000000
_cell_volume 1899.385629
_symmetry_space_group_name_H-M "P 21/M"
_symmetry_group_IT_number 11
_symmetry_cell_setting 'monoclinic'
loop_
_space_group_symop_operation_xyz
x,y,z
-x,1/2+y,-z
-x,-y,-z
x,1/2-y,z
loop_
_atom_site_type_symbol
_atom_site_label
_atom_site_fract_x
_atom_site_fract_y
_atom_site_fract_z
Si Si1 0.367049 0.072639 0.964305
Si Si2 0.325387 0.422543 0.157689
Si Si3 0.387650 0.424772 0.392313
Si Si4 0.738676 0.928177 0.316183
Si Si5 0.975150 0.924775 0.549958
Si Si6 0.420135 0.926263 0.577415
Si Si7 0.592870 0.571107 0.281192
Si Si8 0.205359 0.575917 0.888032
O O1 0.391040 0.250000 0.999813
O O2 0.335731 0.022985 0.842769
O O3 0.266299 0.030380 0.900070
O O4 0.472953 0.980049 0.113660
O O5 0.302210 0.250000 0.107826
O O6 0.304744 0.446363 0.223476
O O7 0.450523 0.464763 0.281174
O O8 0.240666 0.530428 0.014277
O O9 0.500000 0.500000 0.500000
O O10 0.408378 0.250000 0.433153
O O11 0.348053 0.504951 0.422970
O O12 0.743752 0.750000 0.326427
O O13 0.682497 0.990377 0.326321
O O14 0.862906 0.993707 0.453917
O O15 0.957243 0.750000 0.511509
O O16 0.074445 0.951913 0.725779
O O17 0.000000 0.000000 0.500000
O O18 0.398470 0.750000 0.554627
O O19 0.375496 0.000350 0.601279
O O20 0.594112 0.750000 0.289350
O O21 0.235739 0.750000 0.908773
#
# Coordination Sequence:
#
# PCOD8070394 Si02
#       8
#     4   4   4   4   4   4   4   4
#     4  11  20  33  51  69  98 134 164 203 252 295
#     4   9  18  31  47  68 100 133 161 194 244 294
#     4   9  17  29  46  69  97 131 165 198 238 292
#     4   9  20  36  52  69  95 132 168 208 255 294
#     4  10  20  36  53  72  96 126 167 211 252 294
#     4  10  19  31  47  70 100 134 162 195 245 296
#     4  11  21  33  50  72  98 131 170 206 243 296
#     4  11  21  30  49  76  99 128 168 206 242 291
#
# _framework density 16.847553000000001
#
# number of rings (size 3 to 8) (size 9 to 14) (size 15 to 20)
#    0.000    2.000    2.500    3.000    0.000    3.000 
#    0.000    3.125    0.000    0.000    0.000    0.875 
#    0.000    0.000    0.000    0.000    0.000    0.000 
#
# Total GULP energy -396741.276131 kJ/mol
# GULP energy per Si atom -12398.164879 kJ/mol
# Density = 1.680921 g / cm^3
# Si number density = 16.847553 Si / 1000 Ang^3
#
#
#
# Elastic Constant Matrix: (Units=GPa)
#
#
# Indices 1 2 3 4 5 6 
#
# 1 123.2296 37.0861 49.9994 0.0000 -22.4462 0.0000
# 2 37.0861 68.5014 29.8691 0.0000 -14.4679 0.0000
# 3 49.9994 29.8691 51.9034 0.0000 -19.3407 0.0000
# 4 0.0000 0.0000 0.0000 19.4191 0.0000 -8.5992
# 5 -22.4462 -14.4679 -19.3407 0.0000 29.6969 0.0000
# 6 0.0000 0.0000 0.0000 -8.5992 0.0000 23.9454
#
#
#
# Elastic Compliance Matrix: (Units=1/GPa)
#
#
# Indices 1 2 3 4 5 6 
#
# 1 0.013654 -0.002081 -0.011208 0.000000 0.002007 0.000000
# 2 -0.002081 0.019996 -0.008528 0.000000 0.002615 0.000000
# 3 -0.011208 -0.008528 0.039964 0.000000 0.013402 0.000000
# 4 0.000000 0.000000 0.000000 0.061233 0.000000 0.021990
# 5 0.002007 0.002615 0.013402 0.000000 0.045193 0.000000
# 6 0.000000 0.000000 0.000000 0.021990 0.000000 0.049659
#
#
# Mechanical properties :
#
#
# Convention : Reuss Voigt Hill
#
# Bulk Modulus (GPa) = 33.35449 53.06040 43.20744
# Shear Modulus (GPa) = 17.64748 23.05761 20.35254
#
# Velocity S-wave (km/s) = 3.23999 3.70348 3.47946
# Velocity P-wave (km/s) = 5.81700 7.06048 6.46869
#
# Compressibility (1/GPa) = 0.02998097
#
# Stress axis : x y z
#
# Youngs Moduli (GPa) = 73.23638 50.01072 25.02224
#
# Poissons Ratio (x) = 0.10410 0.28044
# Poissons Ratio (y) = 0.15244 0.21338
# Poissons Ratio (z) = 0.82081 0.42647
#
# Static dielectric constant tensor:
#      x y z
#    x 3.460550 0.000000 -0.238400 
#    y 0.000000 3.174440 0.000000 
#    z -0.238400 0.000000 3.287970 
# 
# 
# High freq. dielectric constant tensor:
#      x y z
#    x 1.637620 0.000000 -0.026570 
#    y 0.000000 1.652590 0.000000 
#    z -0.026570 0.000000 1.630740 
# 
# From -- ./inp_files/61785.got.cif
#   From: 2010.06.25/outbox.cif.g09.slc.cpg/sg11_31_cif.got.tgz:61785.got - 2010.06.27 23:14:04.
