data_PCOD8070979
_publ_section_title
;
Structure prediction by ZEFSAII (Michael W. Deem and Ramdas Pophale) SiO2 
 PCOD8070979
Probable space group: P 21/M
;
_chemical_formula_sum "Si O2"
_cell_formula_units_Z 28
_cell_length_a 14.921411
_cell_length_b 13.638763
_cell_length_c 16.417992
_cell_angle_alpha 90.000000
_cell_angle_beta 153.597619
_cell_angle_gamma 90.000000
_cell_volume 1485.747783
_symmetry_space_group_name_H-M "P 21/M"
_symmetry_group_IT_number 11
_symmetry_cell_setting 'monoclinic'
loop_
_space_group_symop_operation_xyz
x,y,z
-x,1/2+y,-z
-x,-y,-z
x,1/2-y,z
loop_
_atom_site_type_symbol
_atom_site_label
_atom_site_fract_x
_atom_site_fract_y
_atom_site_fract_z
Si Si1 0.257626 0.049527 0.137790
Si Si2 0.838295 0.985838 0.297502
Si Si3 0.518136 0.137807 0.017157
Si Si4 0.856212 0.361252 0.871620
Si Si5 0.882669 0.361747 0.579202
Si Si6 0.629937 0.137847 0.524504
Si Si7 0.461456 0.360212 0.157498
O O1 0.442335 0.069873 0.349237
O O2 0.320251 0.067180 0.094948
O O3 0.191913 0.935834 0.093931
O O4 0.077135 0.121173 0.015533
O O5 0.943204 0.936191 0.305037
O O6 0.739558 0.089074 0.189113
O O7 0.651048 0.916770 0.175844
O O8 0.000000 0.000000 0.500000
O O9 0.539871 0.250000 0.008110
O O10 0.432057 0.123966 0.038288
O O11 0.842037 0.250000 0.892951
O O12 0.692394 0.380312 0.667820
O O13 0.963806 0.250000 0.637580
O O14 0.820042 0.386361 0.620805
O O15 0.695069 0.378629 0.366515
O O16 0.565219 0.250000 0.455760
O O17 0.401648 0.250000 0.134823
#
# Coordination Sequence:
#
# PCOD8070979 Si02
#       7
#     4   4   4   4   4   4   4
#     4  10  19  32  51  76 108 138 168 217 263 306
#     4  11  21  34  54  82 110 138 171 216 271 324
#     4  10  22  36  54  81 109 140 177 219 266 316
#     4  10  20  32  50  77 103 138 178 212 258 311
#     4   9  17  31  53  80 107 136 172 220 267 305
#     4   9  18  32  52  80 106 131 172 221 263 304
#     4   9  17  32  54  79 106 134 172 220 266 309
#
# _framework density 18.845728000000001
#
# number of rings (size 3 to 8) (size 9 to 14) (size 15 to 20)
#    0.000    2.286    1.429    3.000    2.000    0.571 
#    0.000    0.000    0.000    7.714    0.000    0.000 
#    0.000    0.000    0.000    0.000    0.000    0.000 
#
# Total GULP energy -347127.509511 kJ/mol
# GULP energy per Si atom -12397.411054 kJ/mol
# Density = 1.880283 g / cm^3
# Si number density = 18.845728 Si / 1000 Ang^3
#
#
#
# Elastic Constant Matrix: (Units=GPa)
#
#
# Indices 1 2 3 4 5 6 
#
# 1 37.6468 23.6537 13.6354 0.0000 10.8566 0.0000
# 2 23.6537 116.3310 41.6956 0.0000 13.1170 0.0000
# 3 13.6354 41.6956 88.8875 0.0000 8.7083 0.0000
# 4 0.0000 0.0000 0.0000 26.1772 0.0000 7.0578
# 5 10.8566 13.1170 8.7083 0.0000 23.5503 0.0000
# 6 0.0000 0.0000 0.0000 7.0578 0.0000 29.9508
#
#
#
# Elastic Compliance Matrix: (Units=1/GPa)
#
#
# Indices 1 2 3 4 5 6 
#
# 1 0.033767 -0.004881 -0.001693 0.000000 -0.012222 0.000000
# 2 -0.004881 0.011438 -0.004371 0.000000 -0.002504 0.000000
# 3 -0.001693 -0.004371 0.013743 0.000000 -0.001867 0.000000
# 4 0.000000 0.000000 0.000000 0.040793 0.000000 -0.009613
# 5 -0.012222 -0.002504 -0.001867 0.000000 0.050182 0.000000
# 6 0.000000 0.000000 0.000000 -0.009613 0.000000 0.035653
#
#
# Mechanical properties :
#
#
# Convention : Reuss Voigt Hill
#
# Bulk Modulus (GPa) = 26.98487 44.53721 35.76104
# Shear Modulus (GPa) = 22.74604 26.86105 24.80354
#
# Velocity S-wave (km/s) = 3.47790 3.77943 3.63179
# Velocity P-wave (km/s) = 5.52066 6.53676 6.05008
#
# Compressibility (1/GPa) = 0.03705780
#
# Stress axis : x y z
#
# Youngs Moduli (GPa) = 29.61458 87.43028 72.76329
#
# Poissons Ratio (x) = 0.42675 0.12318
# Poissons Ratio (y) = 0.14455 0.31806
# Poissons Ratio (z) = 0.05014 0.38217
#
# Static dielectric constant tensor:
#      x y z
#    x 3.214660 0.000000 -0.010330 
#    y 0.000000 3.448650 0.000000 
#    z -0.010330 0.000000 3.539720 
# 
# 
# High freq. dielectric constant tensor:
#      x y z
#    x 1.700160 0.000000 0.003000 
#    y 0.000000 1.722520 0.000000 
#    z 0.003000 0.000000 1.749000 
# 
# From -- ./inp_files/66207.got.cif
#   From: 2010.06.25/outbox.cif.g09.slc.cpg/sg11_34_cif.got.tgz:66207.got - 2010.06.27 23:14:04.
