data_PCOD8070217
_publ_section_title
;
Structure prediction by ZEFSAII (Michael W. Deem and Ramdas Pophale) SiO2 
 PCOD8070217
Probable space group: P 21/M
;
_chemical_formula_sum "Si O2"
_cell_formula_units_Z 28
_cell_length_a 21.839916
_cell_length_b 8.710493
_cell_length_c 23.029914
_cell_angle_alpha 90.000000
_cell_angle_beta 160.863777
_cell_angle_gamma 90.000000
_cell_volume 1436.200773
_symmetry_space_group_name_H-M "P 21/M"
_symmetry_group_IT_number 11
_symmetry_cell_setting 'monoclinic'
loop_
_space_group_symop_operation_xyz
x,y,z
-x,1/2+y,-z
-x,-y,-z
x,1/2-y,z
loop_
_atom_site_type_symbol
_atom_site_label
_atom_site_fract_x
_atom_site_fract_y
_atom_site_fract_z
Si Si1 0.405700 0.931553 0.993923
Si Si2 0.732531 0.067046 0.006598
Si Si3 0.124077 0.072156 0.319411
Si Si4 0.877794 0.568648 0.809261
Si Si5 0.743805 0.930802 0.808780
Si Si6 0.196616 0.431494 0.700210
Si Si7 0.480179 0.927718 0.295858
O O1 0.379559 0.750000 0.964441
O O2 0.252544 0.007717 0.814056
O O3 0.357226 0.995133 0.014498
O O4 0.622625 0.977569 0.177150
O O5 0.722542 0.250000 0.998877
O O6 0.620798 0.002548 0.850838
O O7 0.942683 0.000629 0.188119
O O8 0.078362 0.250000 0.268487
O O9 0.172762 0.000606 0.299449
O O10 0.299955 0.048036 0.518916
O O11 0.878202 0.750000 0.808089
O O12 0.735539 0.515553 0.733354
O O13 0.084260 0.512790 0.006955
O O14 0.769176 0.750000 0.836093
O O15 0.564347 0.984764 0.683980
O O16 0.169549 0.250000 0.677984
O O17 0.000000 0.500000 0.500000
O O18 0.429021 0.750000 0.259135
#
# Coordination Sequence:
#
# PCOD8070217 Si02
#       7
#     4   4   4   4   4   4   4
#     4   9  19  35  57  84 110 142 184 225 264 308
#     4   9  17  32  54  78 103 132 173 220 256 297
#     4   9  17  30  52  77  97 126 171 219 261 306
#     4   9  17  32  51  71  96 127 169 217 263 313
#     4  10  19  30  48  72  98 130 167 212 265 316
#     4  10  20  35  57  86 118 147 177 218 265 313
#     4  10  19  32  52  74  98 131 169 210 261 312
#
# _framework density 19.495882000000002
#
# number of rings (size 3 to 8) (size 9 to 14) (size 15 to 20)
#    0.000    2.571    1.429    0.857    0.000    2.857 
#    0.000    5.714    0.000    1.714    0.000    0.000 
#    0.000    0.000    0.000    0.000    0.000    0.000 
#
# Total GULP energy -346905.248464 kJ/mol
# GULP energy per Si atom -12389.473159 kJ/mol
# Density = 1.945151 g / cm^3
# Si number density = 19.495882 Si / 1000 Ang^3
#
#
#
# Elastic Constant Matrix: (Units=GPa)
#
#
# Indices 1 2 3 4 5 6 
#
# 1 152.7353 22.9545 68.9981 0.0000 17.3363 0.0000
# 2 22.9545 -163.3902 -60.8478 0.0000 -14.2870 0.0000
# 3 68.9981 -60.8478 101.4252 0.0000 0.0031 0.0000
# 4 0.0000 0.0000 0.0000 19.4112 0.0000 0.4217
# 5 17.3363 -14.2870 0.0031 0.0000 14.0432 0.0000
# 6 0.0000 0.0000 0.0000 0.4217 0.0000 21.8524
#
#
#
# Elastic Compliance Matrix: (Units=1/GPa)
#
#
# Indices 1 2 3 4 5 6 
#
# 1 0.008640 0.003303 -0.003896 0.000000 -0.007304 0.000000
# 2 0.003303 -0.003401 -0.004287 0.000000 -0.007537 0.000000
# 3 -0.003896 -0.004287 0.009938 0.000000 0.000445 0.000000
# 4 0.000000 0.000000 0.000000 0.051538 0.000000 -0.000995
# 5 -0.007304 -0.007537 0.000445 0.000000 0.072558 0.000000
# 6 0.000000 0.000000 0.000000 -0.000995 0.000000 0.045781
#
#
# Mechanical properties :
#
#
# Convention : Reuss Voigt Hill
#
# Bulk Modulus (GPa) = 184.57680 16.99777 100.78729
# Shear Modulus (GPa) = 25.42994 15.03907 20.23450
#
# Velocity S-wave (km/s) = 3.61553 2.78042 3.22512
# Velocity P-wave (km/s) = 10.59763 4.36408 8.10416
#
# Compressibility (1/GPa) = 0.00541780
#
# Stress axis : x y z
#
# Youngs Moduli (GPa) = 115.74429 -294.05714 100.62752
#
# Poissons Ratio (x) = 0.97134 0.39200
# Poissons Ratio (y) = -0.38233 0.43140
# Poissons Ratio (z) = 0.45089 -1.26065
#
# Static dielectric constant tensor:
#      x y z
#    x 3.901550 0.000000 0.082930 
#    y 0.000000 3.208520 0.000000 
#    z 0.082930 0.000000 3.527210 
# 
# 
# High freq. dielectric constant tensor:
#      x y z
#    x 1.764410 0.000000 0.003680 
#    y 0.000000 1.719370 0.000000 
#    z 0.003680 0.000000 1.759880 
# 
# From -- ./inp_files/69836.got.cif
#   From: 2010.06.25/outbox.cif.g09.slc.cpg/sg11_35_cif.got.tgz:69836.got - 2010.06.27 23:14:04.
