data_PCOD8070270
_publ_section_title
;
Structure prediction by ZEFSAII (Michael W. Deem and Ramdas Pophale) SiO2 
 PCOD8070270
Probable space group: P 21/M
;
_chemical_formula_sum "Si O2"
_cell_formula_units_Z 32
_cell_length_a 20.024475
_cell_length_b 9.020106
_cell_length_c 12.043263
_cell_angle_alpha 90.000000
_cell_angle_beta 122.956830
_cell_angle_gamma 90.000000
_cell_volume 1825.242945
_symmetry_space_group_name_H-M "P 21/M"
_symmetry_group_IT_number 11
_symmetry_cell_setting 'monoclinic'
loop_
_space_group_symop_operation_xyz
x,y,z
-x,1/2+y,-z
-x,-y,-z
x,1/2-y,z
loop_
_atom_site_type_symbol
_atom_site_label
_atom_site_fract_x
_atom_site_fract_y
_atom_site_fract_z
Si Si1 0.543383 0.926007 0.813124
Si Si2 0.782014 0.581881 0.061379
Si Si3 0.363238 0.577228 0.677795
Si Si4 0.928392 0.920470 0.062420
Si Si5 0.332207 0.079997 0.244183
Si Si6 0.739564 0.573577 0.596197
Si Si7 0.657519 0.077542 0.084354
Si Si8 0.894192 0.421499 0.806566
O O1 0.553042 0.750000 0.833350
O O2 0.452058 0.974548 0.725700
O O3 0.587686 0.985622 0.741210
O O4 0.585501 0.993959 0.958999
O O5 0.769187 0.750000 0.091021
O O6 0.875346 0.546294 0.124553
O O7 0.744028 0.474760 0.118929
O O8 0.740726 0.556825 0.905183
O O9 0.350859 0.750000 0.640507
O O10 0.301601 0.481248 0.552585
O O11 0.347448 0.540509 0.791060
O O12 0.914969 0.750000 0.011842
O O13 0.020560 0.948437 0.175955
O O14 0.899753 0.026608 0.938393
O O15 0.348547 0.250000 0.284117
O O16 0.309309 0.006753 0.341687
O O17 0.742873 0.750000 0.601079
O O18 0.829381 0.513484 0.679469
O O19 0.647622 0.250000 0.051338
O O20 0.869831 0.250000 0.783293
#
# Coordination Sequence:
#
# PCOD8070270 Si02
#       8
#     4   4   4   4   4   4   4   4
#     4   9  18  35  56  73  96 132 168 207 257 306
#     4   9  16  31  53  74 102 134 165 203 249 301
#     4  10  22  37  51  71 100 134 172 214 256 296
#     4   9  17  31  51  76 105 135 167 203 245 295
#     4   8  15  29  49  72  98 129 162 200 245 291
#     4  11  21  34  51  71 103 140 173 206 244 302
#     4  10  20  33  51  77 104 126 163 219 261 293
#     4  10  19  30  49  77 107 136 165 202 248 297
#
# _framework density 17.531911999999998
#
# number of rings (size 3 to 8) (size 9 to 14) (size 15 to 20)
#    0.000    2.500    1.250    2.250    0.000    3.000 
#    0.000    0.625    0.000    0.750    0.000    0.000 
#    0.000    0.000    0.000    0.000    0.000    0.000 
#
# Total GULP energy -396707.781793 kJ/mol
# GULP energy per Si atom -12397.118181 kJ/mol
# Density = 1.749201 g / cm^3
# Si number density = 17.531912 Si / 1000 Ang^3
#
#
#
# Elastic Constant Matrix: (Units=GPa)
#
#
# Indices 1 2 3 4 5 6 
#
# 1 98.2864 32.3086 47.6515 0.0000 27.4455 0.0000
# 2 32.3086 58.0800 42.3547 0.0000 9.2304 0.0000
# 3 47.6515 42.3547 85.9766 0.0000 15.5618 0.0000
# 4 0.0000 0.0000 0.0000 25.7371 0.0000 -0.2099
# 5 27.4455 9.2304 15.5618 0.0000 17.5470 0.0000
# 6 0.0000 0.0000 0.0000 -0.2099 0.0000 25.3552
#
#
#
# Elastic Compliance Matrix: (Units=1/GPa)
#
#
# Indices 1 2 3 4 5 6 
#
# 1 0.021474 -0.003962 -0.005060 0.000000 -0.027016 0.000000
# 2 -0.003962 0.027723 -0.011845 0.000000 0.002118 0.000000
# 3 -0.005060 -0.011845 0.021097 0.000000 -0.004565 0.000000
# 4 0.000000 0.000000 0.000000 0.038857 0.000000 0.000322
# 5 -0.027016 0.002118 -0.004565 0.000000 0.102179 0.000000
# 6 0.000000 0.000000 0.000000 0.000322 0.000000 0.039442
#
#
# Mechanical properties :
#
#
# Convention : Reuss Voigt Hill
#
# Bulk Modulus (GPa) = 35.01379 54.10808 44.56093
# Shear Modulus (GPa) = 16.55494 21.72973 19.14234
#
# Velocity S-wave (km/s) = 3.07624 3.52439 3.30791
# Velocity P-wave (km/s) = 5.71248 6.89140 6.32945
#
# Compressibility (1/GPa) = 0.02856018
#
# Stress axis : x y z
#
# Youngs Moduli (GPa) = 46.56852 36.07173 47.40068
#
# Poissons Ratio (x) = 0.14291 0.23985
# Poissons Ratio (y) = 0.18450 0.56144
# Poissons Ratio (z) = 0.23563 0.42725
#
# Static dielectric constant tensor:
#      x y z
#    x 3.677550 0.000000 0.110270 
#    y 0.000000 3.165080 0.000000 
#    z 0.110270 0.000000 2.969390 
# 
# 
# High freq. dielectric constant tensor:
#      x y z
#    x 1.693070 0.000000 0.008650 
#    y 0.000000 1.669150 0.000000 
#    z 0.008650 0.000000 1.643010 
# 
# From -- ./inp_files/42871.got.cif
#   From: 2010.06.25/outbox.cif.g09.slc.cpg/sg11_22_cif.got.tgz:42871.got - 2010.06.27 23:14:04.
