data_PCOD8070278
_publ_section_title
;
Structure prediction by ZEFSAII (Michael W. Deem and Ramdas Pophale) SiO2 
 PCOD8070278
Probable space group: P 21/M
;
_chemical_formula_sum "Si O2"
_cell_formula_units_Z 32
_cell_length_a 29.049726
_cell_length_b 8.678528
_cell_length_c 14.943565
_cell_angle_alpha 90.000000
_cell_angle_beta 25.780130
_cell_angle_gamma 90.000000
_cell_volume 1638.515495
_symmetry_space_group_name_H-M "P 21/M"
_symmetry_group_IT_number 11
_symmetry_cell_setting 'monoclinic'
loop_
_space_group_symop_operation_xyz
x,y,z
-x,1/2+y,-z
-x,-y,-z
x,1/2-y,z
loop_
_atom_site_type_symbol
_atom_site_label
_atom_site_fract_x
_atom_site_fract_y
_atom_site_fract_z
Si Si1 0.826508 0.931649 0.944342
Si Si2 0.437762 0.578623 0.356805
Si Si3 0.317273 0.079622 0.094636
Si Si4 0.231152 0.929572 0.414617
Si Si5 0.406913 0.432469 0.601080
Si Si6 0.404272 0.068964 0.226906
Si Si7 0.035908 0.568841 0.653855
Si Si8 0.155719 0.568118 0.269282
O O1 0.822483 0.750000 0.939059
O O2 0.708780 0.996518 0.166564
O O3 0.910414 0.974158 0.878277
O O4 0.881816 0.004184 0.760232
O O5 0.386233 0.750000 0.453786
O O6 0.413889 0.479014 0.485861
O O7 0.397376 0.492331 0.339519
O O8 0.560973 0.598656 0.134039
O O9 0.270071 0.250000 0.199624
O O10 0.295717 0.956740 0.210408
O O11 0.270464 0.009116 0.085246
O O12 0.236634 0.750000 0.431213
O O13 0.108917 0.988115 0.610045
O O14 0.288447 0.028773 0.390406
O O15 0.500000 0.500000 0.500000
O O16 0.412783 0.250000 0.599317
O O17 0.421807 0.250000 0.196150
O O18 0.500000 0.000000 0.000000
O O19 0.052154 0.750000 0.623421
O O20 0.081742 0.506236 0.479271
O O21 0.164468 0.750000 0.249547
#
# Coordination Sequence:
#
# PCOD8070278 Si02
#       8
#     4   4   4   4   4   4   4   4
#     4  10  20  36  55  75 104 143 188 233 281 337
#     4  11  23  38  57  81 112 150 192 237 285 335
#     4  10  19  31  49  74 107 145 182 221 272 334
#     4  10  19  33  54  81 113 145 177 220 276 334
#     4  11  24  40  59  82 111 151 195 240 286 334
#     4  12  23  36  57  86 120 153 186 227 278 338
#     4   8  17  33  53  78 108 143 182 227 281 338
#     4  10  19  30  49  78 109 141 180 227 282 336
#
# _framework density 19.529875000000001
#
# number of rings (size 3 to 8) (size 9 to 14) (size 15 to 20)
#    0.000    1.750    1.250    4.875    0.000    5.500 
#    0.000    3.125    0.000    0.750    0.000    0.000 
#    0.000    0.000    0.000    0.000    0.000    0.000 
#
# Total GULP energy -396482.549341 kJ/mol
# GULP energy per Si atom -12390.079667 kJ/mol
# Density = 1.948542 g / cm^3
# Si number density = 19.529875 Si / 1000 Ang^3
#
#
#
# Elastic Constant Matrix: (Units=GPa)
#
#
# Indices 1 2 3 4 5 6 
#
# 1 136.7602 31.5046 56.3576 0.0000 -18.2381 0.0000
# 2 31.5046 65.3330 19.7743 0.0000 -11.7028 0.0000
# 3 56.3576 19.7743 74.2445 0.0000 -26.9510 0.0000
# 4 0.0000 0.0000 0.0000 17.3718 0.0000 -1.4983
# 5 -18.2381 -11.7028 -26.9510 0.0000 33.0975 0.0000
# 6 0.0000 0.0000 0.0000 -1.4983 0.0000 29.8770
#
#
#
# Elastic Compliance Matrix: (Units=1/GPa)
#
#
# Indices 1 2 3 4 5 6 
#
# 1 0.011245 -0.003216 -0.008295 0.000000 -0.001695 0.000000
# 2 -0.003216 0.017815 -0.000938 0.000000 0.003764 0.000000
# 3 -0.008295 -0.000938 0.025888 0.000000 0.016178 0.000000
# 4 0.000000 0.000000 0.000000 0.057815 0.000000 0.002899
# 5 -0.001695 0.003764 0.016178 0.000000 0.043784 0.000000
# 6 0.000000 0.000000 0.000000 0.002899 0.000000 0.033616
#
#
# Mechanical properties :
#
#
# Convention : Reuss Voigt Hill
#
# Bulk Modulus (GPa) = 33.27617 54.62339 43.94978
# Shear Modulus (GPa) = 22.21485 27.31602 24.76544
#
# Velocity S-wave (km/s) = 3.37631 3.74395 3.56487
# Velocity P-wave (km/s) = 5.68110 6.83516 6.28468
#
# Compressibility (1/GPa) = 0.03005153
#
# Stress axis : x y z
#
# Youngs Moduli (GPa) = 88.92909 56.13324 38.62856
#
# Poissons Ratio (x) = 0.18050 0.32041
# Poissons Ratio (y) = 0.28595 0.03622
# Poissons Ratio (z) = 0.73763 0.05264
#
# Static dielectric constant tensor:
#      x y z
#    x 4.156640 0.000000 0.641980 
#    y 0.000000 3.652050 0.000000 
#    z 0.641980 0.000000 7.806410 
# 
# 
# High freq. dielectric constant tensor:
#      x y z
#    x 1.767030 0.000000 -0.031050 
#    y 0.000000 1.760760 0.000000 
#    z -0.031050 0.000000 1.730210 
# 
# From -- ./inp_files/56167.got.cif
#   From: 2010.06.25/outbox.cif.g09.slc.cpg/sg11_29_cif.got.tgz:56167.got - 2010.06.27 23:14:04.
