data_PCOD8070208
_publ_section_title
;
Structure prediction by ZEFSAII (Michael W. Deem and Ramdas Pophale) SiO2 
 PCOD8070208
Probable space group: P 21/M
;
_chemical_formula_sum "Si O2"
_cell_formula_units_Z 28
_cell_length_a 13.898121
_cell_length_b 9.820209
_cell_length_c 14.118955
_cell_angle_alpha 90.000000
_cell_angle_beta 52.093133
_cell_angle_gamma 90.000000
_cell_volume 1520.414952
_symmetry_space_group_name_H-M "P 21/M"
_symmetry_group_IT_number 11
_symmetry_cell_setting 'monoclinic'
loop_
_space_group_symop_operation_xyz
x,y,z
-x,1/2+y,-z
-x,-y,-z
x,1/2-y,z
loop_
_atom_site_type_symbol
_atom_site_label
_atom_site_fract_x
_atom_site_fract_y
_atom_site_fract_z
Si Si1 0.666757 0.399258 0.078847
Si Si2 0.940580 0.091443 0.956287
Si Si3 0.252546 0.095892 0.446972
Si Si4 0.854386 0.600228 0.689045
Si Si5 0.635064 0.460957 0.893282
Si Si6 0.025894 0.092850 0.699132
Si Si7 0.554009 0.401391 0.745212
O O1 0.622850 0.250000 0.141813
O O2 0.571682 0.516571 0.163856
O O3 0.796250 0.437483 0.045595
O O4 0.687498 0.382328 0.952626
O O5 0.968670 0.250000 0.958465
O O6 0.999452 0.043891 0.821436
O O7 0.000000 0.000000 0.000000
O O8 0.306402 0.250000 0.415013
O O9 0.162425 0.077389 0.412435
O O10 0.169405 0.069322 0.589951
O O11 0.363035 0.987617 0.378043
O O12 0.907231 0.750000 0.678341
O O13 0.722046 0.589980 0.820282
O O14 0.945590 0.488464 0.672699
O O15 0.626651 0.377475 0.800103
O O16 0.500000 0.500000 0.000000
O O17 0.989575 0.250000 0.708181
O O18 0.526851 0.250000 0.720185
#
# Coordination Sequence:
#
# PCOD8070208 Si02
#       7
#     4   4   4   4   4   4   4
#     4  10  19  34  54  74 104 142 179 217 266 322
#     4  10  22  39  58  81 104 136 178 227 277 320
#     4   9  19  34  51  74 109 148 180 211 253 316
#     4  10  19  30  47  76 108 141 181 218 257 307
#     4   9  18  30  45  71 108 146 179 210 252 310
#     4  10  20  36  55  75 104 142 180 217 267 321
#     4  10  20  31  50  80 111 142 177 217 259 308
#
# _framework density 18.416025999999999
#
# number of rings (size 3 to 8) (size 9 to 14) (size 15 to 20)
#    0.000    2.286    1.429    1.286    0.000    9.714 
#    0.000    0.000    0.000    0.857    0.000    0.000 
#    0.000    0.000    0.000    0.000    0.000    0.000 
#
# Total GULP energy -346987.000636 kJ/mol
# GULP energy per Si atom -12392.392880 kJ/mol
# Density = 1.837411 g / cm^3
# Si number density = 18.416026 Si / 1000 Ang^3
#
#
#
# Elastic Constant Matrix: (Units=GPa)
#
#
# Indices 1 2 3 4 5 6 
#
# 1 72.9958 44.2275 24.5505 0.0000 -7.3165 0.0000
# 2 44.2275 121.8512 52.0955 0.0000 -9.7236 0.0000
# 3 24.5505 52.0955 90.7886 0.0000 -14.4541 0.0000
# 4 0.0000 0.0000 0.0000 22.2163 0.0000 -5.0212
# 5 -7.3165 -9.7236 -14.4541 0.0000 16.3499 0.0000
# 6 0.0000 0.0000 0.0000 -5.0212 0.0000 28.1355
#
#
#
# Elastic Compliance Matrix: (Units=1/GPa)
#
#
# Indices 1 2 3 4 5 6 
#
# 1 0.017901 -0.005809 -0.000910 0.000000 0.003751 0.000000
# 2 -0.005809 0.012777 -0.005778 0.000000 -0.000109 0.000000
# 3 -0.000910 -0.005778 0.016252 0.000000 0.010524 0.000000
# 4 0.000000 0.000000 0.000000 0.046904 0.000000 0.008371
# 5 0.003751 -0.000109 0.010524 0.000000 0.072080 0.000000
# 6 0.000000 0.000000 0.000000 0.008371 0.000000 0.037036
#
#
# Mechanical properties :
#
#
# Convention : Reuss Voigt Hill
#
# Bulk Modulus (GPa) = 45.58882 58.59806 52.09344
# Shear Modulus (GPa) = 21.25351 24.32449 22.78900
#
# Velocity S-wave (km/s) = 3.40086 3.63827 3.52156
# Velocity P-wave (km/s) = 6.34270 7.03829 6.69953
#
# Compressibility (1/GPa) = 0.02193520
#
# Stress axis : x y z
#
# Youngs Moduli (GPa) = 55.86235 78.26713 61.53223
#
# Poissons Ratio (x) = 0.45465 0.05601
# Poissons Ratio (y) = 0.32450 0.35553
# Poissons Ratio (z) = 0.05085 0.45222
#
# Static dielectric constant tensor:
#      x y z
#    x 3.127240 0.000000 -0.066960 
#    y 0.000000 3.302320 0.000000 
#    z -0.066960 0.000000 3.497460 
# 
# 
# High freq. dielectric constant tensor:
#      x y z
#    x 1.675450 0.000000 -0.021290 
#    y 0.000000 1.714040 0.000000 
#    z -0.021290 0.000000 1.713630 
# 
# From -- ./inp_files/48912.got.cif
#   From: 2010.06.25/outbox.cif.g09.slc.cpg/sg11_25_cif.got.tgz:48912.got - 2010.06.27 23:14:04.
