data_PCOD8070976
_publ_section_title
;
Structure prediction by ZEFSAII (Michael W. Deem and Ramdas Pophale) SiO2 
 PCOD8070976
Probable space group: P 21/M
;
_chemical_formula_sum "Si O2"
_cell_formula_units_Z 32
_cell_length_a 8.789800
_cell_length_b 12.723300
_cell_length_c 14.802967
_cell_angle_alpha 90.000000
_cell_angle_beta 86.144344
_cell_angle_gamma 90.000000
_cell_volume 1651.746687
_symmetry_space_group_name_H-M "P 21/M"
_symmetry_group_IT_number 11
_symmetry_cell_setting 'monoclinic'
loop_
_space_group_symop_operation_xyz
x,y,z
-x,1/2+y,-z
-x,-y,-z
x,1/2-y,z
loop_
_atom_site_type_symbol
_atom_site_label
_atom_site_fract_x
_atom_site_fract_y
_atom_site_fract_z
Si Si1 0.531121 0.129543 0.188383
Si Si2 0.116925 0.996586 0.624320
Si Si3 0.222834 0.030089 0.879883
Si Si4 0.858376 0.125326 0.550814
Si Si5 0.654820 0.459442 0.707986
Si Si6 0.275410 0.365460 0.060152
Si Si7 0.653897 0.863739 0.284530
Si Si8 0.073348 0.476704 0.196752
O O1 0.557105 0.250000 0.218065
O O2 0.441637 0.122725 0.097275
O O3 0.693802 0.074751 0.162190
O O4 0.434093 0.070533 0.271496
O O5 0.273945 0.046162 0.655027
O O6 0.024816 0.091094 0.579726
O O7 0.019888 0.944451 0.709660
O O8 0.156543 0.902512 0.554338
O O9 0.283682 0.128300 0.819952
O O10 0.040902 0.027755 0.871309
O O11 0.255929 0.046678 0.984026
O O12 0.834369 0.250000 0.566947
O O13 0.732649 0.053258 0.606823
O O14 0.528612 0.369221 0.717281
O O15 0.787892 0.444696 0.778785
O O16 0.253800 0.250000 0.018888
O O17 0.149391 0.377382 0.144434
O O18 0.697590 0.750000 0.322190
#
# Coordination Sequence:
#
# PCOD8070976 Si02
#       8
#     4   4   4   4   4   4   4   4
#     4   9  19  35  54  76 107 142 175 217 267 318
#     4   9  20  35  53  80 108 141 182 222 266 319
#     4  10  19  33  54  78 105 137 179 221 261 314
#     4  10  19  35  57  80 109 140 177 223 269 318
#     4   9  19  35  54  78 105 136 175 217 264 320
#     4  10  19  32  51  76 106 140 176 218 267 313
#     4  10  19  34  54  76 106 141 175 215 268 321
#     4   9  19  35  52  72 105 140 173 220 264 306
#
# _framework density 19.373429999999999
#
# number of rings (size 3 to 8) (size 9 to 14) (size 15 to 20)
#    0.000    2.500    0.000    1.875    0.000    1.500 
#    0.000   13.750    0.000    7.500    0.000    0.000 
#    0.000    0.000    0.000    0.000    0.000    0.000 
#
# Total GULP energy -396481.103686 kJ/mol
# GULP energy per Si atom -12390.034490 kJ/mol
# Density = 1.932933 g / cm^3
# Si number density = 19.373430 Si / 1000 Ang^3
#
#
#
# Elastic Constant Matrix: (Units=GPa)
#
#
# Indices 1 2 3 4 5 6 
#
# 1 115.7188 33.9642 28.6428 0.0000 4.1716 0.0000
# 2 33.9642 103.1449 41.0709 0.0000 -5.6804 0.0000
# 3 28.6428 41.0709 86.9432 0.0000 2.5056 0.0000
# 4 0.0000 0.0000 0.0000 22.6944 0.0000 3.8076
# 5 4.1716 -5.6804 2.5056 0.0000 20.7116 0.0000
# 6 0.0000 0.0000 0.0000 3.8076 0.0000 13.4498
#
#
#
# Elastic Compliance Matrix: (Units=1/GPa)
#
#
# Indices 1 2 3 4 5 6 
#
# 1 0.009996 -0.002644 -0.001972 0.000000 -0.002500 0.000000
# 2 -0.002644 0.012975 -0.005395 0.000000 0.004744 0.000000
# 3 -0.001972 -0.005395 0.014783 0.000000 -0.002871 0.000000
# 4 0.000000 0.000000 0.000000 0.046261 0.000000 -0.013097
# 5 -0.002500 0.004744 -0.002871 0.000000 0.050434 0.000000
# 6 0.000000 0.000000 0.000000 -0.013097 0.000000 0.078058
#
#
# Mechanical properties :
#
#
# Convention : Reuss Voigt Hill
#
# Bulk Modulus (GPa) = 56.39592 57.01807 56.70699
# Shear Modulus (GPa) = 20.96966 24.84643 22.90805
#
# Velocity S-wave (km/s) = 3.29354 3.58509 3.44240
# Velocity P-wave (km/s) = 6.60578 6.82877 6.71820
#
# Compressibility (1/GPa) = 0.01773178
#
# Stress axis : x y z
#
# Youngs Moduli (GPa) = 100.04110 77.07030 67.64665
#
# Poissons Ratio (x) = 0.20377 0.13340
# Poissons Ratio (y) = 0.26450 0.36495
# Poissons Ratio (z) = 0.19729 0.41579
#
# Static dielectric constant tensor:
#      x y z
#    x 3.714940 0.000000 0.033660 
#    y 0.000000 3.257900 0.000000 
#    z 0.033660 0.000000 3.493590 
# 
# 
# High freq. dielectric constant tensor:
#      x y z
#    x 1.765580 0.000000 0.003260 
#    y 0.000000 1.725780 0.000000 
#    z 0.003260 0.000000 1.748320 
# 
# From -- ./inp_files/29261.got.cif
#   From: 2010.06.25/outbox.cif.g09.slc.cpg/sg11_15_cif.got.tgz:29261.got - 2010.06.27 23:14:04.
