data_PCOD8070439
_publ_section_title
;
Structure prediction by ZEFSAII (Michael W. Deem and Ramdas Pophale) SiO2 
 PCOD8070439
Probable space group: P 21/M
;
_chemical_formula_sum "Si O2"
_cell_formula_units_Z 32
_cell_length_a 26.866195
_cell_length_b 9.078280
_cell_length_c 21.750841
_cell_angle_alpha 90.000000
_cell_angle_beta 19.628307
_cell_angle_gamma 90.000000
_cell_volume 1782.041081
_symmetry_space_group_name_H-M "P 21/M"
_symmetry_group_IT_number 11
_symmetry_cell_setting 'monoclinic'
loop_
_space_group_symop_operation_xyz
x,y,z
-x,1/2+y,-z
-x,-y,-z
x,1/2-y,z
loop_
_atom_site_type_symbol
_atom_site_label
_atom_site_fract_x
_atom_site_fract_y
_atom_site_fract_z
Si Si1 0.725584 0.083657 0.221987
Si Si2 0.869147 0.584195 0.951461
Si Si3 0.392610 0.078790 0.039359
Si Si4 0.318117 0.079514 0.264411
Si Si5 0.008042 0.078849 0.683405
Si Si6 0.580845 0.916559 0.494629
Si Si7 0.286165 0.922999 0.046856
Si Si8 0.563797 0.916650 0.233404
O O1 0.775753 0.250000 0.177881
O O2 0.572858 0.082932 0.362756
O O3 0.706397 0.997133 0.308315
O O4 0.853383 0.005029 0.033386
O O5 0.918729 0.750000 0.909115
O O6 0.993210 0.509535 0.764321
O O7 0.714122 0.582235 0.096817
O O8 0.394856 0.250000 0.019647
O O9 0.317770 0.048823 0.192158
O O10 0.293181 0.991512 0.106319
O O11 0.559983 0.018785 0.843417
O O12 0.353331 0.250000 0.237111
O O13 0.159440 0.031317 0.474768
O O14 0.004590 0.250000 0.704403
O O15 0.875889 0.039507 0.790573
O O16 0.632218 0.750000 0.448225
O O17 0.563577 0.002259 0.579163
O O18 0.316520 0.750000 0.014092
O O19 0.413086 0.996350 0.857023
O O20 0.513047 0.750000 0.278275
#
# Coordination Sequence:
#
# PCOD8070439 Si02
#       8
#     4   4   4   4   4   4   4   4
#     4   9  15  22  33  50  76 113 153 189 227 274
#     4   9  16  25  38  58  85 116 150 190 234 277
#     4  10  20  34  52  73  96 123 156 194 236 282
#     4   9  19  36  54  71  94 124 157 194 236 282
#     4   9  18  32  49  69  94 125 159 194 235 284
#     4   9  15  22  33  51  77 111 151 191 230 274
#     4  10  19  31  48  70  96 126 158 193 236 284
#     4   9  16  26  39  57  84 117 152 190 232 277
#
# _framework density 17.956935999999999
#
# number of rings (size 3 to 8) (size 9 to 14) (size 15 to 20)
#    0.000    2.750    0.000    2.250    0.000    8.000 
#    0.000    0.000    0.000    0.000    0.000    0.000 
#    0.000    1.000    0.000    3.750    0.000    8.500 
#
# Total GULP energy -396825.131016 kJ/mol
# GULP energy per Si atom -12400.785344 kJ/mol
# Density = 1.791607 g / cm^3
# Si number density = 17.956936 Si / 1000 Ang^3
#
#
#
# Elastic Constant Matrix: (Units=GPa)
#
#
# Indices 1 2 3 4 5 6 
#
# 1 23.1386 28.4120 47.1350 0.0000 13.3532 0.0000
# 2 28.4120 130.4126 67.1410 0.0000 17.1173 0.0000
# 3 47.1350 67.1410 121.3126 0.0000 31.2700 0.0000
# 4 0.0000 0.0000 0.0000 27.4559 0.0000 10.9085
# 5 13.3532 17.1173 31.2700 0.0000 20.0686 0.0000
# 6 0.0000 0.0000 0.0000 10.9085 0.0000 29.3268
#
#
#
# Elastic Compliance Matrix: (Units=1/GPa)
#
#
# Indices 1 2 3 4 5 6 
#
# 1 0.215280 -0.005411 -0.075067 0.000000 -0.021661 0.000000
# 2 -0.005411 0.010860 -0.004092 0.000000 0.000713 0.000000
# 3 -0.075067 -0.004092 0.043285 0.000000 -0.014007 0.000000
# 4 0.000000 0.000000 0.000000 0.042738 0.000000 -0.015897
# 5 -0.021661 0.000713 -0.014007 0.000000 0.085458 0.000000
# 6 0.000000 0.000000 0.000000 -0.015897 0.000000 0.040012
#
#
# Mechanical properties :
#
#
# Convention : Reuss Voigt Hill
#
# Bulk Modulus (GPa) = 9.97161 62.24885 36.11023
# Shear Modulus (GPa) = 7.81005 24.18197 15.99601
#
# Velocity S-wave (km/s) = 2.08777 3.67367 2.98786
# Velocity P-wave (km/s) = 3.37295 7.26191 5.66181
#
# Compressibility (1/GPa) = 0.10028474
#
# Stress axis : x y z
#
# Youngs Moduli (GPa) = 4.64511 92.08223 23.10273
#
# Poissons Ratio (x) = 0.49827 1.73425
# Poissons Ratio (y) = 0.02514 0.09453
# Poissons Ratio (z) = 0.34869 0.37679
#
# Static dielectric constant tensor:
#      x y z
#    x 3.007460 0.000000 0.364020 
#    y 0.000000 3.493250 0.000000 
#    z 0.364020 0.000000 3.200320 
# 
# 
# High freq. dielectric constant tensor:
#      x y z
#    x 1.658350 0.000000 0.040130 
#    y 0.000000 1.710760 0.000000 
#    z 0.040130 0.000000 1.676530 
# 
# From -- ./inp_files/58695.got.cif
#   From: 2010.06.25/outbox.cif.g09.slc.cpg/sg11_30_cif.got.tgz:58695.got - 2010.06.27 23:14:04.
