data_PCOD8070987
_publ_section_title
;
Structure prediction by ZEFSAII (Michael W. Deem and Ramdas Pophale) SiO2 
 PCOD8070987
Probable space group: P 21/M
;
_chemical_formula_sum "Si O2"
_cell_formula_units_Z 32
_cell_length_a 22.150524
_cell_length_b 9.179862
_cell_length_c 28.056368
_cell_angle_alpha 90.000000
_cell_angle_beta 161.434508
_cell_angle_gamma 90.000000
_cell_volume 1816.389093
_symmetry_space_group_name_H-M "P 21/M"
_symmetry_group_IT_number 11
_symmetry_cell_setting 'monoclinic'
loop_
_space_group_symop_operation_xyz
x,y,z
-x,1/2+y,-z
-x,-y,-z
x,1/2-y,z
loop_
_atom_site_type_symbol
_atom_site_label
_atom_site_fract_x
_atom_site_fract_y
_atom_site_fract_z
Si Si1 0.549520 0.081074 0.611023
Si Si2 0.764916 0.417423 0.219544
Si Si3 0.812378 0.922119 0.877913
Si Si4 0.562252 0.419965 0.975648
Si Si5 0.191669 0.419125 0.014283
Si Si6 0.468805 0.920890 0.152731
Si Si7 0.231741 0.917837 0.322392
Si Si8 0.896095 0.581359 0.464614
O O1 0.530320 0.250000 0.610987
O O2 0.692057 0.059359 0.673876
O O3 0.629256 0.989130 0.714876
O O4 0.342689 0.019319 0.442686
O O5 0.706894 0.250000 0.182362
O O6 0.635355 0.505465 0.159153
O O7 0.984339 0.443136 0.397104
O O8 0.727128 0.466547 0.136399
O O9 0.827939 0.750000 0.879450
O O10 0.789331 0.956436 0.916130
O O11 0.000000 0.000000 0.000000
O O12 0.519681 0.250000 0.945781
O O13 0.621802 0.463313 0.966527
O O14 0.221768 0.250000 0.027533
O O15 0.354173 0.503615 0.108535
O O16 0.986454 0.467463 0.840902
O O17 0.460704 0.750000 0.156277
O O18 0.685346 0.978623 0.316092
O O19 0.256869 0.750000 0.356543
O O20 0.886891 0.750000 0.443238
O O21 0.000000 0.500000 0.500000
#
# Coordination Sequence:
#
# PCOD8070987 Si02
#       8
#     4   4   4   4   4   4   4   4
#     4  10  19  33  55  85 112 138 178 225 275 326
#     4   9  17  29  50  76 100 130 169 213 263 311
#     4  11  21  36  57  83 112 145 184 232 280 328
#     4   9  17  31  49  73 104 132 165 215 263 311
#     4  10  22  39  56  77 110 148 185 224 273 332
#     4  10  21  35  51  74 107 144 180 221 271 324
#     4   9  18  35  54  78 110 142 178 224 271 324
#     4  10  19  32  51  77 106 137 175 221 267 315
#
# _framework density 17.617370999999999
#
# number of rings (size 3 to 8) (size 9 to 14) (size 15 to 20)
#    0.000    2.250    2.500    0.750    0.000    3.000 
#    0.000    1.250    0.000    1.500    0.000    0.000 
#    0.000    0.000    0.000    0.000    0.000    0.000 
#
# Total GULP energy -396771.027987 kJ/mol
# GULP energy per Si atom -12399.094625 kJ/mol
# Density = 1.757727 g / cm^3
# Si number density = 17.617371 Si / 1000 Ang^3
#
#
#
# Elastic Constant Matrix: (Units=GPa)
#
#
# Indices 1 2 3 4 5 6 
#
# 1 107.5862 56.9698 74.5639 0.0000 -1.4947 0.0000
# 2 56.9698 71.0879 55.4461 0.0000 -3.9557 0.0000
# 3 74.5639 55.4461 137.8060 0.0000 -4.3871 0.0000
# 4 0.0000 0.0000 0.0000 29.7625 0.0000 0.7952
# 5 -1.4947 -3.9557 -4.3871 0.0000 27.4355 0.0000
# 6 0.0000 0.0000 0.0000 0.7952 0.0000 29.0722
#
#
#
# Elastic Compliance Matrix: (Units=1/GPa)
#
#
# Indices 1 2 3 4 5 6 
#
# 1 0.019168 -0.010664 -0.006128 0.000000 -0.001473 0.000000
# 2 -0.010664 0.026507 -0.004817 0.000000 0.002471 0.000000
# 3 -0.006128 -0.004817 0.012541 0.000000 0.000977 0.000000
# 4 0.000000 0.000000 0.000000 0.033624 0.000000 -0.000920
# 5 -0.001473 0.002471 0.000977 0.000000 0.036881 0.000000
# 6 0.000000 0.000000 0.000000 -0.000920 0.000000 0.034422
#
#
# Mechanical properties :
#
#
# Convention : Reuss Voigt Hill
#
# Bulk Modulus (GPa) = 66.66520 76.71552 71.69036
# Shear Modulus (GPa) = 23.65625 25.88739 24.77182
#
# Velocity S-wave (km/s) = 3.66837 3.83747 3.75387
# Velocity P-wave (km/s) = 7.47431 7.95454 7.71816
#
# Compressibility (1/GPa) = 0.01500033
#
# Stress axis : x y z
#
# Youngs Moduli (GPa) = 52.16996 37.72541 79.73697
#
# Poissons Ratio (x) = 0.40230 0.48861
# Poissons Ratio (y) = 0.55633 0.38406
# Poissons Ratio (z) = 0.31969 0.18171
#
# Static dielectric constant tensor:
#      x y z
#    x 3.232150 0.000000 -0.333250 
#    y 0.000000 3.271980 0.000000 
#    z -0.333250 0.000000 3.574410 
# 
# 
# High freq. dielectric constant tensor:
#      x y z
#    x 1.660030 0.000000 -0.021270 
#    y 0.000000 1.681490 0.000000 
#    z -0.021270 0.000000 1.689580 
# 
# From -- ./inp_files/72162.got.cif
#   From: 2010.06.25/outbox.cif.g09.slc.cpg/sg11_37_cif.got.tgz:72162.got - 2010.06.27 23:14:04.
