data_PCOD8070954
_publ_section_title
;
Structure prediction by ZEFSAII (Michael W. Deem and Ramdas Pophale) SiO2 
 PCOD8070954
Probable space group: P 21/M
;
_chemical_formula_sum "Si O2"
_cell_formula_units_Z 28
_cell_length_a 9.528700
_cell_length_b 8.997578
_cell_length_c 18.297122
_cell_angle_alpha 90.000000
_cell_angle_beta 94.566523
_cell_angle_gamma 90.000000
_cell_volume 1563.728050
_symmetry_space_group_name_H-M "P 21/M"
_symmetry_group_IT_number 11
_symmetry_cell_setting 'monoclinic'
loop_
_space_group_symop_operation_xyz
x,y,z
-x,1/2+y,-z
-x,-y,-z
x,1/2-y,z
loop_
_atom_site_type_symbol
_atom_site_label
_atom_site_fract_x
_atom_site_fract_y
_atom_site_fract_z
Si Si1 0.913807 0.575346 0.432503
Si Si2 0.972349 0.575567 0.076542
Si Si3 0.700780 0.421239 0.056068
Si Si4 0.396547 0.417540 0.086623
Si Si5 0.348287 0.423284 0.490365
Si Si6 0.865384 0.575504 0.644257
Si Si7 0.177574 0.080746 0.192716
O O1 0.941700 0.750000 0.433745
O O2 0.746750 0.543669 0.440408
O O3 0.000000 0.500000 0.500000
O O4 0.982106 0.504281 0.362234
O O5 0.977950 0.750000 0.065632
O O6 0.819730 0.522194 0.097954
O O7 0.079344 0.528365 0.143425
O O8 0.000000 0.500000 0.000000
O O9 0.747173 0.250000 0.058652
O O10 0.561897 0.451319 0.098037
O O11 0.679019 0.468021 0.970831
O O12 0.372005 0.250000 0.055132
O O13 0.334070 0.433890 0.165303
O O14 0.500000 0.500000 0.500000
O O15 0.379034 0.250000 0.484150
O O16 0.257301 0.478619 0.416423
O O17 0.890352 0.750000 0.635452
O O18 0.814755 0.531443 0.723016
O O19 0.121790 0.250000 0.183363
#
# Coordination Sequence:
#
# PCOD8070954 Si02
#       7
#     4   4   4   4   4   4   4
#     4   9  17  31  52  77 106 138 175 213 252 302
#     4  12  23  35  52  76 103 135 176 222 268 316
#     4  10  19  32  51  75 101 132 174 220 266 318
#     4   9  18  32  52  75 100 133 172 216 267 317
#     4   9  18  32  52  80 109 138 174 213 253 304
#     4   9  19  35  54  78 107 139 176 216 264 316
#     4  10  20  36  56  77 104 137 174 222 272 318
#
# _framework density 17.905926000000001
#
# number of rings (size 3 to 8) (size 9 to 14) (size 15 to 20)
#    0.000    2.286    1.429    3.000    0.000    4.000 
#    0.000    1.429    0.000    3.429    0.000    0.000 
#    0.000    0.000    0.000    0.000    0.000    0.000 
#
# Total GULP energy -347031.153265 kJ/mol
# GULP energy per Si atom -12393.969759 kJ/mol
# Density = 1.786517 g / cm^3
# Si number density = 17.905926 Si / 1000 Ang^3
#
#
#
# Elastic Constant Matrix: (Units=GPa)
#
#
# Indices 1 2 3 4 5 6 
#
# 1 135.7899 53.7386 59.9765 0.0000 -16.7768 0.0000
# 2 53.7386 90.0886 39.0095 0.0000 -5.0395 0.0000
# 3 59.9765 39.0095 102.4607 0.0000 -20.0104 0.0000
# 4 0.0000 0.0000 0.0000 23.5160 0.0000 -0.5232
# 5 -16.7768 -5.0395 -20.0104 0.0000 27.2428 0.0000
# 6 0.0000 0.0000 0.0000 -0.5232 0.0000 33.7373
#
#
#
# Elastic Compliance Matrix: (Units=1/GPa)
#
#
# Indices 1 2 3 4 5 6 
#
# 1 0.011577 -0.004860 -0.004331 0.000000 0.003049 0.000000
# 2 -0.004860 0.015382 -0.003549 0.000000 -0.002755 0.000000
# 3 -0.004331 -0.003549 0.015174 0.000000 0.007822 0.000000
# 4 0.000000 0.000000 0.000000 0.042539 0.000000 0.000660
# 5 0.003049 -0.002755 0.007822 0.000000 0.043821 0.000000
# 6 0.000000 0.000000 0.000000 0.000660 0.000000 0.029651
#
#
# Mechanical properties :
#
#
# Convention : Reuss Voigt Hill
#
# Bulk Modulus (GPa) = 60.05144 70.42094 65.23619
# Shear Modulus (GPa) = 26.43040 28.60686 27.51863
#
# Velocity S-wave (km/s) = 3.84613 4.00136 3.92451
# Velocity P-wave (km/s) = 7.30299 7.79497 7.55298
#
# Compressibility (1/GPa) = 0.01665239
#
# Stress axis : x y z
#
# Youngs Moduli (GPa) = 86.37535 65.01065 65.90181
#
# Poissons Ratio (x) = 0.31595 0.28543
# Poissons Ratio (y) = 0.41978 0.23392
# Poissons Ratio (z) = 0.37410 0.23076
#
# Static dielectric constant tensor:
#      x y z
#    x 3.664950 0.000000 -0.303070 
#    y 0.000000 3.454020 0.000000 
#    z -0.303070 0.000000 3.212620 
# 
# 
# High freq. dielectric constant tensor:
#      x y z
#    x 1.700510 0.000000 -0.024720 
#    y 0.000000 1.696430 0.000000 
#    z -0.024720 0.000000 1.661450 
# 
# From -- ./inp_files/63073.got.cif
#   From: 2010.06.25/outbox.cif.g09.slc.cpg/sg11_32_cif.got.tgz:63073.got - 2010.06.27 23:14:04.
