data_PCOD8070985
_publ_section_title
;
Structure prediction by ZEFSAII (Michael W. Deem and Ramdas Pophale) SiO2 
 PCOD8070985
Probable space group: P 21/M
;
_chemical_formula_sum "Si O2"
_cell_formula_units_Z 32
_cell_length_a 24.048199
_cell_length_b 9.055029
_cell_length_c 24.135517
_cell_angle_alpha 90.000000
_cell_angle_beta 161.492382
_cell_angle_gamma 90.000000
_cell_volume 1668.314763
_symmetry_space_group_name_H-M "P 21/M"
_symmetry_group_IT_number 11
_symmetry_cell_setting 'monoclinic'
loop_
_space_group_symop_operation_xyz
x,y,z
-x,1/2+y,-z
-x,-y,-z
x,1/2-y,z
loop_
_atom_site_type_symbol
_atom_site_label
_atom_site_fract_x
_atom_site_fract_y
_atom_site_fract_z
Si Si1 0.124890 0.422646 0.695484
Si Si2 0.966068 0.575664 0.140425
Si Si3 0.652038 0.424318 0.477950
Si Si4 0.589911 0.075182 0.960182
Si Si5 0.384605 0.073692 0.132858
Si Si6 0.481413 0.085331 0.425911
Si Si7 0.783125 0.921065 0.342849
Si Si8 0.922088 0.914720 0.977691
O O1 0.121554 0.250000 0.706575
O O2 0.204205 0.455684 0.710190
O O3 0.926653 0.483895 0.511960
O O4 0.244567 0.504881 0.852865
O O5 0.942215 0.750000 0.111371
O O6 0.145290 0.533356 0.341668
O O7 0.973988 0.509789 0.085438
O O8 0.802539 0.516126 0.021145
O O9 0.623254 0.250000 0.454466
O O10 0.533873 0.483609 0.316188
O O11 0.593678 0.490291 0.482506
O O12 0.615777 0.250000 0.982222
O O13 0.410719 0.031605 0.822006
O O14 0.576337 0.008586 0.886707
O O15 0.388574 0.250000 0.127777
O O16 0.550679 0.250000 0.502927
O O17 0.500000 0.000000 0.500000
O O18 0.285006 0.087011 0.219489
O O19 0.821041 0.750000 0.391162
O O20 0.999716 0.750000 0.047649
O O21 0.000000 0.000000 0.000000
#
# Coordination Sequence:
#
# PCOD8070985 Si02
#       8
#     4   4   4   4   4   4   4   4
#     4  10  20  36  61  90 118 153 198 244 284 334
#     4   9  17  32  54  76 101 134 173 223 279 326
#     4   9  17  32  54  75  99 133 173 222 277 323
#     4  11  23  38  57  83 119 159 193 233 292 350
#     4  10  20  36  55  77 103 139 191 239 272 329
#     4  10  19  32  51  77 106 135 170 216 268 327
#     4   9  20  38  59  86 122 159 193 235 292 346
#     4  10  19  32  51  77 107 136 171 217 269 329
#
# _framework density 19.181031000000001
#
# number of rings (size 3 to 8) (size 9 to 14) (size 15 to 20)
#    0.000    2.250    1.250    1.875    0.000    4.000 
#    0.000    2.500    0.000    1.500    0.000    0.000 
#    0.000    0.000    0.000    0.000    0.000    0.000 
#
# Total GULP energy -396767.915399 kJ/mol
# GULP energy per Si atom -12398.997356 kJ/mol
# Density = 1.913737 g / cm^3
# Si number density = 19.181031 Si / 1000 Ang^3
#
#
#
# Elastic Constant Matrix: (Units=GPa)
#
#
# Indices 1 2 3 4 5 6 
#
# 1 79.7832 27.3778 39.4229 0.0000 -16.0303 0.0000
# 2 27.3778 55.8702 32.2817 0.0000 -9.4555 0.0000
# 3 39.4229 32.2817 127.4818 0.0000 -15.1731 0.0000
# 4 0.0000 0.0000 0.0000 22.6824 0.0000 -3.6464
# 5 -16.0303 -9.4555 -15.1731 0.0000 30.7637 0.0000
# 6 0.0000 0.0000 0.0000 -3.6464 0.0000 29.3210
#
#
#
# Elastic Compliance Matrix: (Units=1/GPa)
#
#
# Indices 1 2 3 4 5 6 
#
# 1 0.017183 -0.005603 -0.003223 0.000000 0.005642 0.000000
# 2 -0.005603 0.023283 -0.003887 0.000000 0.002319 0.000000
# 3 -0.003223 -0.003887 0.010075 0.000000 0.002095 0.000000
# 4 0.000000 0.000000 0.000000 0.044987 0.000000 0.005595
# 5 0.005642 0.002319 0.002095 0.000000 0.037192 0.000000
# 6 0.000000 0.000000 0.000000 0.005595 0.000000 0.034801
#
#
# Mechanical properties :
#
#
# Convention : Reuss Voigt Hill
#
# Bulk Modulus (GPa) = 39.81897 51.25557 45.53727
# Shear Modulus (GPa) = 24.83642 27.49025 26.16334
#
# Velocity S-wave (km/s) = 3.60230 3.78987 3.69727
# Velocity P-wave (km/s) = 6.17306 6.77723 6.48219
#
# Compressibility (1/GPa) = 0.02511366
#
# Stress axis : x y z
#
# Youngs Moduli (GPa) = 58.19734 42.95050 99.25855
#
# Poissons Ratio (x) = 0.24064 0.31996
# Poissons Ratio (y) = 0.32607 0.38583
# Poissons Ratio (z) = 0.18760 0.16695
#
# Static dielectric constant tensor:
#      x y z
#    x 3.483130 0.000000 0.057730 
#    y 0.000000 3.296910 0.000000 
#    z 0.057730 0.000000 3.673380 
# 
# 
# High freq. dielectric constant tensor:
#      x y z
#    x 1.748720 0.000000 0.001170 
#    y 0.000000 1.710370 0.000000 
#    z 0.001170 0.000000 1.763420 
# 
# From -- ./inp_files/70008.got.cif
#   From: 2010.06.25/outbox.cif.g09.slc.cpg/sg11_36_cif.got.tgz:70008.got - 2010.06.27 23:14:04.
