data_PCOD8070691
_publ_section_title
;
Structure prediction by ZEFSAII (Michael W. Deem and Ramdas Pophale) SiO2 
 PCOD8070691
Probable space group: P 21/M
;
_chemical_formula_sum "Si O2"
_cell_formula_units_Z 24
_cell_length_a 14.242785
_cell_length_b 19.084621
_cell_length_c 6.881553
_cell_angle_alpha 90.000000
_cell_angle_beta 46.255798
_cell_angle_gamma 90.000000
_cell_volume 1351.335094
_symmetry_space_group_name_H-M "P 21/M"
_symmetry_group_IT_number 11
_symmetry_cell_setting 'monoclinic'
loop_
_space_group_symop_operation_xyz
x,y,z
-x,1/2+y,-z
-x,-y,-z
x,1/2-y,z
loop_
_atom_site_type_symbol
_atom_site_label
_atom_site_fract_x
_atom_site_fract_y
_atom_site_fract_z
Si Si1 0.843873 0.327176 0.922613
Si Si2 0.608931 0.328686 0.994686
Si Si3 0.542922 0.923177 0.508885
Si Si4 0.642945 0.374276 0.521081
Si Si5 0.999787 0.960975 0.296101
Si Si6 0.212360 0.484103 0.699426
O O1 0.905672 0.250000 0.837359
O O2 0.755190 0.339016 0.860835
O O3 0.757017 0.336147 0.239567
O O4 0.963708 0.379911 0.733877
O O5 0.558538 0.250000 0.124033
O O6 0.523220 0.392574 0.200927
O O7 0.612482 0.332810 0.758512
O O8 0.492833 0.872908 0.406604
O O9 0.697238 0.923010 0.334590
O O10 0.500000 0.000000 0.500000
O O11 0.691840 0.452784 0.494699
O O12 0.858078 0.961590 0.399073
O O13 0.000000 0.000000 0.500000
O O14 0.106302 0.998678 0.011975
#
# Coordination Sequence:
#
# PCOD8070691 Si02
#       6
#     4   4   4   4   4   4
#     4   9  18  32  49  72  99 125 160 205 249 294
#     4  10  19  31  51  77 101 128 162 201 249 302
#     4   9  19  33  50  74 102 129 161 200 245 299
#     4   9  17  31  52  75  99 126 159 204 254 295
#     4  10  19  32  51  71  96 129 167 208 244 281
#     4   9  19  32  48  73  97 126 167 204 242 289
#
# _framework density 17.760214000000001
#
# number of rings (size 3 to 8) (size 9 to 14) (size 15 to 20)
#    0.000    2.667    0.000    2.500    0.000    4.667 
#    0.000    0.833    0.000    1.000    0.000    0.000 
#    0.000    0.000    0.000    0.000    0.000    0.000 
#
# Total GULP energy -297401.431485 kJ/mol
# GULP energy per Si atom -12391.726312 kJ/mol
# Density = 1.771979 g / cm^3
# Si number density = 17.760214 Si / 1000 Ang^3
#
#
#
# Elastic Constant Matrix: (Units=GPa)
#
#
# Indices 1 2 3 4 5 6 
#
# 1 147.1676 50.8574 45.0521 0.0000 2.9272 0.0000
# 2 50.8574 91.9109 37.6424 0.0000 -0.8847 0.0000
# 3 45.0521 37.6424 61.4864 0.0000 18.0140 0.0000
# 4 0.0000 0.0000 0.0000 22.4937 0.0000 0.2384
# 5 2.9272 -0.8847 18.0140 0.0000 29.3034 0.0000
# 6 0.0000 0.0000 0.0000 0.2384 0.0000 17.5922
#
#
#
# Elastic Compliance Matrix: (Units=1/GPa)
#
#
# Indices 1 2 3 4 5 6 
#
# 1 0.009568 -0.002763 -0.006116 0.000000 0.002721 0.000000
# 2 -0.002763 0.016681 -0.010265 0.000000 0.007090 0.000000
# 3 -0.006116 -0.010265 0.032859 0.000000 -0.019899 0.000000
# 4 0.000000 0.000000 0.000000 0.044463 0.000000 -0.000602
# 5 0.002721 0.007090 -0.019899 0.000000 0.046301 0.000000
# 6 0.000000 0.000000 0.000000 -0.000602 0.000000 0.056851
#
#
# Mechanical properties :
#
#
# Convention : Reuss Voigt Hill
#
# Bulk Modulus (GPa) = 48.03037 63.07429 55.55233
# Shear Modulus (GPa) = 19.84501 25.01207 22.42854
#
# Velocity S-wave (km/s) = 3.34636 3.75683 3.55752
# Velocity P-wave (km/s) = 6.48331 7.37630 6.94418
#
# Compressibility (1/GPa) = 0.02082016
#
# Stress axis : x y z
#
# Youngs Moduli (GPa) = 104.51426 59.94686 30.43288
#
# Poissons Ratio (x) = 0.16565 0.18613
# Poissons Ratio (y) = 0.28881 0.31239
# Poissons Ratio (z) = 0.63921 0.61535
#
# Static dielectric constant tensor:
#      x y z
#    x 3.616270 0.000000 0.102960 
#    y 0.000000 3.863170 0.000000 
#    z 0.102960 0.000000 2.994540 
# 
# 
# High freq. dielectric constant tensor:
#      x y z
#    x 1.695730 0.000000 0.019710 
#    y 0.000000 1.678880 0.000000 
#    z 0.019710 0.000000 1.662170 
# 
# From -- ./inp_files/4602.got.cif
#   From: 2010.06.25/outbox.cif.g09.slc.cpg/sg11_3_cif.got.tgz:4602.got - 2010.06.27 23:14:04.
