data_PCOD8070695
_publ_section_title
;
Structure prediction by ZEFSAII (Michael W. Deem and Ramdas Pophale) SiO2 
 PCOD8070695
Probable space group: P 21/M
;
_chemical_formula_sum "Si O2"
_cell_formula_units_Z 32
_cell_length_a 24.865248
_cell_length_b 8.673894
_cell_length_c 20.037523
_cell_angle_alpha 90.000000
_cell_angle_beta 23.278698
_cell_angle_gamma 90.000000
_cell_volume 1707.938694
_symmetry_space_group_name_H-M "P 21/M"
_symmetry_group_IT_number 11
_symmetry_cell_setting 'monoclinic'
loop_
_space_group_symop_operation_xyz
x,y,z
-x,1/2+y,-z
-x,-y,-z
x,1/2-y,z
loop_
_atom_site_type_symbol
_atom_site_label
_atom_site_fract_x
_atom_site_fract_y
_atom_site_fract_z
Si Si1 0.901394 0.070158 0.746814
Si Si2 0.584940 0.429082 0.756452
Si Si3 0.253569 0.430038 0.962316
Si Si4 0.312868 0.920322 0.761701
Si Si5 0.188200 0.570437 0.395014
Si Si6 0.461341 0.068532 0.326656
Si Si7 0.630698 0.579453 0.430270
Si Si8 0.289171 0.069932 0.145645
O O1 0.872731 0.250000 0.767469
O O2 0.810988 0.968048 0.800538
O O3 0.058382 0.035605 0.554983
O O4 0.864184 0.022377 0.864703
O O5 0.586994 0.250000 0.735291
O O6 0.702218 0.473651 0.674109
O O7 0.612347 0.526571 0.658176
O O8 0.441556 0.476325 0.951893
O O9 0.230157 0.250000 0.998983
O O10 0.242261 0.470037 0.896745
O O11 0.398110 0.475942 0.829022
O O12 0.251261 0.750000 0.839913
O O13 0.472927 0.919609 0.591018
O O14 0.283927 0.975657 0.718818
O O15 0.148179 0.750000 0.443723
O O16 0.250929 0.534157 0.251890
O O17 0.494463 0.250000 0.293844
O O18 0.361314 0.019985 0.502114
O O19 0.692504 0.750000 0.354024
O O20 0.277088 0.250000 0.177480
#
# Coordination Sequence:
#
# PCOD8070695 Si02
#       8
#     4   4   4   4   4   4   4   4
#     4  12  24  39  58  82 109 144 184 228 274 326
#     4  10  22  38  58  82 111 145 184 224 273 326
#     4  11  20  32  51  75 106 142 179 223 271 323
#     4   9  16  26  42  68 101 138 177 218 265 317
#     4  11  24  41  58  81 111 145 182 227 274 326
#     4  10  19  31  51  77 107 142 182 223 267 319
#     4   8  15  26  40  66 102 139 175 215 263 314
#     4  11  22  39  61  85 109 141 180 226 276 328
#
# _framework density 18.736035999999999
#
# number of rings (size 3 to 8) (size 9 to 14) (size 15 to 20)
#    0.000    1.750    1.250    5.250    0.000    5.000 
#    0.000    0.000    0.000    0.000    0.000    0.875 
#    0.000    0.000    0.000    0.000    0.000    0.000 
#
# Total GULP energy -396840.771686 kJ/mol
# GULP energy per Si atom -12401.274115 kJ/mol
# Density = 1.869339 g / cm^3
# Si number density = 18.736036 Si / 1000 Ang^3
#
#
#
# Elastic Constant Matrix: (Units=GPa)
#
#
# Indices 1 2 3 4 5 6 
#
# 1 59.5761 37.1032 -9.0936 0.0000 21.8725 0.0000
# 2 37.1032 65.5789 54.1287 0.0000 7.8099 0.0000
# 3 -9.0936 54.1287 -216.0101 0.0000 3.5120 0.0000
# 4 0.0000 0.0000 0.0000 25.6353 0.0000 13.9522
# 5 21.8725 7.8099 3.5120 0.0000 33.3130 0.0000
# 6 0.0000 0.0000 0.0000 13.9522 0.0000 19.2440
#
#
#
# Elastic Compliance Matrix: (Units=1/GPa)
#
#
# Indices 1 2 3 4 5 6 
#
# 1 0.028777 -0.010918 -0.004206 0.000000 -0.015891 0.000000
# 2 -0.010918 0.017149 0.004800 0.000000 0.002642 0.000000
# 3 -0.004206 0.004800 -0.003217 0.000000 0.001975 0.000000
# 4 0.000000 0.000000 0.000000 0.064434 0.000000 -0.046715
# 5 -0.015891 0.002642 0.001975 0.000000 0.039625 0.000000
# 6 0.000000 0.000000 0.000000 -0.046715 0.000000 0.085834
#
#
# Mechanical properties :
#
#
# Convention : Reuss Voigt Hill
#
# Bulk Modulus (GPa) = 45.32638 8.15797 26.74218
# Shear Modulus (GPa) = 19.18638 4.10557 11.64598
#
# Velocity S-wave (km/s) = 3.20353 1.48190 2.49586
# Velocity P-wave (km/s) = 6.15858 2.70031 4.75498
#
# Compressibility (1/GPa) = 0.02206221
#
# Stress axis : x y z
#
# Youngs Moduli (GPa) = 34.75008 58.31140 -310.80297
#
# Poissons Ratio (x) = 0.63662 -1.30711
# Poissons Ratio (y) = 0.37939 1.49182
# Poissons Ratio (z) = 0.14614 -0.27989
#
# Static dielectric constant tensor:
#      x y z
#    x 3.597340 0.000000 0.683660 
#    y 0.000000 3.487670 0.000000 
#    z 0.683660 0.000000 4.332580 
# 
# 
# High freq. dielectric constant tensor:
#      x y z
#    x 1.719840 0.000000 0.037330 
#    y 0.000000 1.737120 0.000000 
#    z 0.037330 0.000000 1.702100 
# 
# From -- ./inp_files/66986.got.cif
#   From: 2010.06.25/outbox.cif.g09.slc.cpg/sg11_34_cif.got.tgz:66986.got - 2010.06.27 23:14:04.
