data_PCOD8070838
_publ_section_title
;
Structure prediction by ZEFSAII (Michael W. Deem and Ramdas Pophale) SiO2 
 PCOD8070838
Probable space group: P 21/M
;
_chemical_formula_sum "Si O2"
_cell_formula_units_Z 32
_cell_length_a 20.567612
_cell_length_b 9.378352
_cell_length_c 11.901098
_cell_angle_alpha 90.000000
_cell_angle_beta 46.715119
_cell_angle_gamma 90.000000
_cell_volume 1671.095199
_symmetry_space_group_name_H-M "P 21/M"
_symmetry_group_IT_number 11
_symmetry_cell_setting 'monoclinic'
loop_
_space_group_symop_operation_xyz
x,y,z
-x,1/2+y,-z
-x,-y,-z
x,1/2-y,z
loop_
_atom_site_type_symbol
_atom_site_label
_atom_site_fract_x
_atom_site_fract_y
_atom_site_fract_z
Si Si1 0.728970 0.416002 0.880125
Si Si2 0.953424 0.413641 0.891058
Si Si3 0.431033 0.087577 0.008394
Si Si4 0.508082 0.089995 0.669397
Si Si5 0.868512 0.586468 0.188734
Si Si6 0.067760 0.917007 0.340769
Si Si7 0.647872 0.090068 0.209917
Si Si8 0.703111 0.087630 0.390021
O O1 0.708756 0.250000 0.880297
O O2 0.832271 0.452079 0.734954
O O3 0.665952 0.510976 0.873989
O O4 0.709335 0.457256 0.032879
O O5 0.920316 0.250000 0.942121
O O6 0.944220 0.466975 0.774013
O O7 0.056095 0.428710 0.806113
O O8 0.893877 0.510792 0.042118
O O9 0.421014 0.250000 0.064414
O O10 0.470232 0.085228 0.838315
O O11 0.500000 0.000000 0.000000
O O12 0.512188 0.250000 0.615723
O O13 0.608587 0.028313 0.548058
O O14 0.441724 0.002181 0.668657
O O15 0.847658 0.750000 0.185411
O O16 0.781322 0.511802 0.345625
O O17 0.047059 0.750000 0.374726
O O18 0.000000 0.000000 0.500000
O O19 0.613951 0.250000 0.231181
O O20 0.707208 0.075821 0.250288
O O21 0.719170 0.250000 0.411328
#
# Coordination Sequence:
#
# PCOD8070838 Si02
#       8
#     4   4   4   4   4   4   4   4
#     4   9  18  34  55  79 104 136 178 218 264 322
#     4   9  19  38  58  76 107 144 178 223 276 324
#     4  10  20  36  56  77 103 138 179 224 266 313
#     4   9  19  33  49  73 105 137 171 214 262 311
#     4  10  20  33  54  82 107 139 183 224 263 320
#     4  10  21  38  59  82 112 146 182 231 283 331
#     4   9  17  30  52  76 101 137 175 210 257 314
#     4  10  19  32  49  74 109 144 171 205 263 321
#
# _framework density 19.149118000000001
#
# number of rings (size 3 to 8) (size 9 to 14) (size 15 to 20)
#    0.000    2.500    0.000    1.875    0.000    5.000 
#    2.250    2.500    0.000    0.000    0.000    0.000 
#    0.000    0.000    0.000    0.000    0.000    0.000 
#
# Total GULP energy -396794.049958 kJ/mol
# GULP energy per Si atom -12399.814061 kJ/mol
# Density = 1.910553 g / cm^3
# Si number density = 19.149118 Si / 1000 Ang^3
#
#
#
# Elastic Constant Matrix: (Units=GPa)
#
#
# Indices 1 2 3 4 5 6 
#
# 1 95.8508 52.8953 34.4337 0.0000 -18.5342 0.0000
# 2 52.8953 91.8759 36.9197 0.0000 -19.3068 0.0000
# 3 34.4337 36.9197 68.1054 0.0000 -26.4597 0.0000
# 4 0.0000 0.0000 0.0000 29.9722 0.0000 -8.0320
# 5 -18.5342 -19.3068 -26.4597 0.0000 33.9766 0.0000
# 6 0.0000 0.0000 0.0000 -8.0320 0.0000 32.8358
#
#
#
# Elastic Compliance Matrix: (Units=1/GPa)
#
#
# Indices 1 2 3 4 5 6 
#
# 1 0.016180 -0.007573 -0.003324 0.000000 0.001935 0.000000
# 2 -0.007573 0.017665 -0.004950 0.000000 0.002052 0.000000
# 3 -0.003324 -0.004950 0.024733 0.000000 0.014635 0.000000
# 4 0.000000 0.000000 0.000000 0.035705 0.000000 0.008734
# 5 0.001935 0.002052 0.014635 0.000000 0.043051 0.000000
# 6 0.000000 0.000000 0.000000 0.008734 0.000000 0.032591
#
#
# Mechanical properties :
#
#
# Convention : Reuss Voigt Hill
#
# Bulk Modulus (GPa) = 37.19645 56.03661 46.61653
# Shear Modulus (GPa) = 23.74411 28.12916 25.93663
#
# Velocity S-wave (km/s) = 3.52512 3.83685 3.68429
# Velocity P-wave (km/s) = 6.00295 6.99681 6.51885
#
# Compressibility (1/GPa) = 0.02688429
#
# Stress axis : x y z
#
# Youngs Moduli (GPa) = 61.80360 56.61044 40.43231
#
# Poissons Ratio (x) = 0.42873 0.13438
# Poissons Ratio (y) = 0.46806 0.20013
# Poissons Ratio (z) = 0.20541 0.28021
#
# Static dielectric constant tensor:
#      x y z
#    x 3.605110 0.000000 -0.050300 
#    y 0.000000 3.612170 0.000000 
#    z -0.050300 0.000000 3.433430 
# 
# 
# High freq. dielectric constant tensor:
#      x y z
#    x 1.744530 0.000000 -0.015800 
#    y 0.000000 1.740660 0.000000 
#    z -0.015800 0.000000 1.734330 
# 
# From -- ./inp_files/42759.got.cif
#   From: 2010.06.25/outbox.cif.g09.slc.cpg/sg11_22_cif.got.tgz:42759.got - 2010.06.27 23:14:04.
