data_PCOD8070346
_publ_section_title
;
Structure prediction by ZEFSAII (Michael W. Deem and Ramdas Pophale) SiO2 
 PCOD8070346
Probable space group: P 21/M
;
_chemical_formula_sum "Si O2"
_cell_formula_units_Z 32
_cell_length_a 12.663366
_cell_length_b 9.508442
_cell_length_c 15.157811
_cell_angle_alpha 90.000000
_cell_angle_beta 73.078262
_cell_angle_gamma 90.000000
_cell_volume 1746.112597
_symmetry_space_group_name_H-M "P 21/M"
_symmetry_group_IT_number 11
_symmetry_cell_setting 'monoclinic'
loop_
_space_group_symop_operation_xyz
x,y,z
-x,1/2+y,-z
-x,-y,-z
x,1/2-y,z
loop_
_atom_site_type_symbol
_atom_site_label
_atom_site_fract_x
_atom_site_fract_y
_atom_site_fract_z
Si Si1 0.873240 0.411770 0.111658
Si Si2 0.498793 0.906310 0.915336
Si Si3 0.691712 0.404645 0.664496
Si Si4 0.692004 0.408649 0.295773
Si Si5 0.391883 0.587771 0.500337
Si Si6 0.250733 0.405594 0.200595
Si Si7 0.447147 0.404786 0.781711
Si Si8 0.127475 0.414664 0.057265
O O1 0.860932 0.250000 0.086542
O O2 0.805067 0.446394 0.217410
O O3 0.999123 0.448831 0.103765
O O4 0.829548 0.504897 0.040434
O O5 0.451278 0.750000 0.946182
O O6 0.619778 0.892963 0.846390
O O7 0.417313 0.987846 0.868094
O O8 0.500000 0.000000 0.000000
O O9 0.746886 0.250000 0.641534
O O10 0.667800 0.471383 0.573487
O O11 0.771198 0.501593 0.705880
O O12 0.577320 0.387642 0.743624
O O13 0.653885 0.250000 0.279247
O O14 0.700691 0.420059 0.399706
O O15 0.599289 0.523156 0.294714
O O16 0.500000 0.500000 0.500000
O O17 0.428441 0.750000 0.474183
O O18 0.201335 0.250000 0.230282
O O19 0.192029 0.471124 0.128126
O O20 0.394139 0.250000 0.810419
O O21 0.150980 0.250000 0.037333
#
# Coordination Sequence:
#
# PCOD8070346 Si02
#       8
#     4   4   4   4   4   4   4   4
#     4   9  19  34  52  76 101 127 163 204 250 301
#     4  10  20  32  44  65  96 129 165 201 243 292
#     4   9  18  32  48  70  97 128 165 201 238 287
#     4  10  20  32  49  74 101 131 163 204 251 298
#     4  10  19  32  50  72 101 134 168 203 246 292
#     4   9  19  33  50  70  92 126 165 202 244 290
#     4  10  19  31  46  66  96 131 167 202 238 285
#     4   9  18  35  55  74  98 128 164 206 251 297
#
# _framework density 18.326423999999999
#
# number of rings (size 3 to 8) (size 9 to 14) (size 15 to 20)
#    0.000    2.500    1.250    0.750    1.750    2.500 
#    0.000    0.000    0.000    0.750    0.000    0.000 
#    0.000    0.000    0.000    0.000    0.000    0.000 
#
# Total GULP energy -396598.204702 kJ/mol
# GULP energy per Si atom -12393.693897 kJ/mol
# Density = 1.828471 g / cm^3
# Si number density = 18.326424 Si / 1000 Ang^3
#
#
#
# Elastic Constant Matrix: (Units=GPa)
#
#
# Indices 1 2 3 4 5 6 
#
# 1 37.2689 22.7864 28.7426 0.0000 10.6345 0.0000
# 2 22.7864 102.1257 57.3508 0.0000 15.7117 0.0000
# 3 28.7426 57.3508 131.6041 0.0000 20.8106 0.0000
# 4 0.0000 0.0000 0.0000 29.4037 0.0000 8.2554
# 5 10.6345 15.7117 20.8106 0.0000 29.1795 0.0000
# 6 0.0000 0.0000 0.0000 8.2554 0.0000 19.3036
#
#
#
# Elastic Compliance Matrix: (Units=1/GPa)
#
#
# Indices 1 2 3 4 5 6 
#
# 1 0.035019 -0.004038 -0.004750 0.000000 -0.007201 0.000000
# 2 -0.004038 0.013723 -0.004692 0.000000 -0.002571 0.000000
# 3 -0.004750 -0.004692 0.011279 0.000000 -0.003787 0.000000
# 4 0.000000 0.000000 0.000000 0.038650 0.000000 -0.016529
# 5 -0.007201 -0.002571 -0.003787 0.000000 0.040980 0.000000
# 6 0.000000 0.000000 0.000000 -0.016529 0.000000 0.058873
#
#
# Mechanical properties :
#
#
# Convention : Reuss Voigt Hill
#
# Bulk Modulus (GPa) = 30.24637 54.30646 42.27641
# Shear Modulus (GPa) = 21.14121 26.38529 23.76325
#
# Velocity S-wave (km/s) = 3.40014 3.79851 3.60483
# Velocity P-wave (km/s) = 5.65285 6.99539 6.35964
#
# Compressibility (1/GPa) = 0.03306182
#
# Stress axis : x y z
#
# Youngs Moduli (GPa) = 28.55605 72.86913 88.65776
#
# Poissons Ratio (x) = 0.29427 0.42110
# Poissons Ratio (y) = 0.11532 0.41596
# Poissons Ratio (z) = 0.13563 0.34188
#
# Static dielectric constant tensor:
#      x y z
#    x 2.800890 0.000000 0.221400 
#    y 0.000000 3.709140 0.000000 
#    z 0.221400 0.000000 3.505670 
# 
# 
# High freq. dielectric constant tensor:
#      x y z
#    x 1.667080 0.000000 0.016660 
#    y 0.000000 1.716860 0.000000 
#    z 0.016660 0.000000 1.711120 
# 
# From -- ./inp_files/51235.got.cif
#   From: 2010.06.25/outbox.cif.g09.slc.cpg/sg11_26_cif.got.tgz:51235.got - 2010.06.27 23:14:04.
