data_PCOD8070145
_publ_section_title
;
Structure prediction by ZEFSAII (Michael W. Deem and Ramdas Pophale) SiO2 
 PCOD8070145
Probable space group: P 21/M
;
_chemical_formula_sum "Si O2"
_cell_formula_units_Z 28
_cell_length_a 16.325919
_cell_length_b 8.834593
_cell_length_c 21.176135
_cell_angle_alpha 90.000000
_cell_angle_beta 148.183879
_cell_angle_gamma 90.000000
_cell_volume 1610.208390
_symmetry_space_group_name_H-M "P 21/M"
_symmetry_group_IT_number 11
_symmetry_cell_setting 'monoclinic'
loop_
_space_group_symop_operation_xyz
x,y,z
-x,1/2+y,-z
-x,-y,-z
x,1/2-y,z
loop_
_atom_site_type_symbol
_atom_site_label
_atom_site_fract_x
_atom_site_fract_y
_atom_site_fract_z
Si Si1 0.195638 0.573859 0.075045
Si Si2 0.114806 0.926306 0.163408
Si Si3 0.336723 0.426814 0.408870
Si Si4 0.740328 0.079235 0.514595
Si Si5 0.025497 0.923238 0.431511
Si Si6 0.751369 0.578057 0.329122
Si Si7 0.510097 0.076509 0.247425
O O1 0.164202 0.750000 0.042710
O O2 0.194488 0.535684 0.148677
O O3 0.359631 0.527408 0.153756
O O4 0.063139 0.479452 0.952761
O O5 0.121803 0.750000 0.183794
O O6 0.204837 0.015612 0.275910
O O7 0.500000 0.500000 0.500000
O O8 0.355363 0.250000 0.412530
O O9 0.288056 0.461798 0.448462
O O10 0.719239 0.250000 0.526673
O O11 0.618453 0.047237 0.378788
O O12 0.915840 0.055476 0.602302
O O13 0.069082 0.750000 0.480987
O O14 0.838357 0.948048 0.317982
O O15 0.114992 0.045613 0.532170
O O16 0.693750 0.750000 0.298358
O O17 0.603339 0.470407 0.244681
O O18 0.458737 0.250000 0.208365
#
# Coordination Sequence:
#
# PCOD8070145 Si02
#       7
#     4   4   4   4   4   4   4
#     4  10  20  34  53  75  97 123 158 199 239 282
#     4  10  21  37  55  73  95 125 159 196 241 286
#     4  12  24  36  51  72  98 128 163 200 238 281
#     4   9  18  32  48  68  97 131 165 199 238 285
#     4   8  15  27  42  62  91 126 159 193 237 287
#     4   9  15  24  41  65  93 124 158 196 237 282
#     4  10  19  30  46  70 100 132 163 197 239 284
#
# _framework density 17.389054000000002
#
# number of rings (size 3 to 8) (size 9 to 14) (size 15 to 20)
#    0.000    2.286    0.000    4.714    0.000    7.429 
#    0.000    0.000    0.000    0.000    0.000    1.000 
#    0.000    0.000    0.000    0.000    0.000    0.000 
#
# Total GULP energy -347086.309530 kJ/mol
# GULP energy per Si atom -12395.939626 kJ/mol
# Density = 1.734948 g / cm^3
# Si number density = 17.389054 Si / 1000 Ang^3
#
#
#
# Elastic Constant Matrix: (Units=GPa)
#
#
# Indices 1 2 3 4 5 6 
#
# 1 122.1660 39.0192 41.7115 0.0000 20.7524 0.0000
# 2 39.0192 86.8427 31.4994 0.0000 0.5832 0.0000
# 3 41.7115 31.4994 54.7434 0.0000 7.6851 0.0000
# 4 0.0000 0.0000 0.0000 26.3877 0.0000 4.2790
# 5 20.7524 0.5832 7.6851 0.0000 21.3311 0.0000
# 6 0.0000 0.0000 0.0000 4.2790 0.0000 29.2883
#
#
#
# Elastic Compliance Matrix: (Units=1/GPa)
#
#
# Indices 1 2 3 4 5 6 
#
# 1 0.013379 -0.003511 -0.006699 0.000000 -0.010507 0.000000
# 2 -0.003511 0.015629 -0.007096 0.000000 0.005545 0.000000
# 3 -0.006699 -0.007096 0.027925 0.000000 -0.003349 0.000000
# 4 0.000000 0.000000 0.000000 0.038816 0.000000 -0.005671
# 5 -0.010507 0.005545 -0.003349 0.000000 0.058157 0.000000
# 6 0.000000 0.000000 0.000000 -0.005671 0.000000 0.034972
#
#
# Mechanical properties :
#
#
# Convention : Reuss Voigt Hill
#
# Bulk Modulus (GPa) = 44.80186 54.24583 49.52384
# Shear Modulus (GPa) = 21.65160 25.50289 23.57724
#
# Velocity S-wave (km/s) = 3.53247 3.83378 3.68620
# Velocity P-wave (km/s) = 6.51599 7.13164 6.83075
#
# Compressibility (1/GPa) = 0.02232050
#
# Stress axis : x y z
#
# Youngs Moduli (GPa) = 74.74445 63.98238 35.81059
#
# Poissons Ratio (x) = 0.22464 0.23989
# Poissons Ratio (y) = 0.26242 0.25413
# Poissons Ratio (z) = 0.50071 0.45405
#
# Static dielectric constant tensor:
#      x y z
#    x 3.568500 0.000000 0.214190 
#    y 0.000000 3.322370 0.000000 
#    z 0.214190 0.000000 2.927620 
# 
# 
# High freq. dielectric constant tensor:
#      x y z
#    x 1.682850 0.000000 0.026180 
#    y 0.000000 1.685370 0.000000 
#    z 0.026180 0.000000 1.620120 
# 
# From -- ./inp_files/64274.got.cif
#   From: 2010.06.25/outbox.cif.g09.slc.cpg/sg11_33_cif.got.tgz:64274.got - 2010.06.27 23:14:04.
