data_PCOD8070250
_publ_section_title
;
Structure prediction by ZEFSAII (Michael W. Deem and Ramdas Pophale) SiO2 
 PCOD8070250
Probable space group: P 21/M
;
_chemical_formula_sum "Si O2"
_cell_formula_units_Z 28
_cell_length_a 11.713674
_cell_length_b 24.304084
_cell_length_c 5.237760
_cell_angle_alpha 90.000000
_cell_angle_beta 91.081600
_cell_angle_gamma 90.000000
_cell_volume 1490.872824
_symmetry_space_group_name_H-M "P 21/M"
_symmetry_group_IT_number 11
_symmetry_cell_setting 'monoclinic'
loop_
_space_group_symop_operation_xyz
x,y,z
-x,1/2+y,-z
-x,-y,-z
x,1/2-y,z
loop_
_atom_site_type_symbol
_atom_site_label
_atom_site_fract_x
_atom_site_fract_y
_atom_site_fract_z
Si Si1 0.098991 0.514489 0.696104
Si Si2 0.731186 0.520655 0.664482
Si Si3 0.328556 0.312040 0.431362
Si Si4 0.816223 0.812053 0.080677
Si Si5 0.588482 0.047929 0.976594
Si Si6 0.490588 0.089488 0.463079
Si Si7 0.922441 0.582307 0.918123
O O1 0.218395 0.520705 0.549961
O O2 0.000000 0.500000 0.500000
O O3 0.052564 0.571111 0.826934
O O4 0.111269 0.463572 0.882504
O O5 0.710503 0.481740 0.916124
O O6 0.610142 0.543762 0.560693
O O7 0.819349 0.571632 0.708138
O O8 0.370079 0.250000 0.483308
O O9 0.239958 0.328428 0.652004
O O10 0.439301 0.349823 0.443997
O O11 0.274441 0.317397 0.149637
O O12 0.867359 0.750000 0.092636
O O13 0.917476 0.855858 0.029045
O O14 0.554440 0.085702 0.734357
O O15 0.583707 0.082814 0.238208
O O16 0.500000 0.000000 0.000000
#
# Coordination Sequence:
#
# PCOD8070250 Si02
#       7
#     4   4   4   4   4   4   4
#     4   9  20  32  47  74  98 137 172 203 257 314
#     4  10  19  30  49  68 104 137 161 209 246 298
#     4  10  20  33  51  75 101 136 172 203 252 302
#     4  10  20  33  52  77 102 135 171 205 252 306
#     4  10  22  31  46  74 101 135 174 197 247 304
#     4  11  20  33  49  73 104 137 166 205 247 296
#     4  10  19  32  51  72 104 137 169 206 258 307
#
# _framework density 18.780943000000001
#
# number of rings (size 3 to 8) (size 9 to 14) (size 15 to 20)
#    0.000    2.000    1.429    3.429   10.000    0.000 
#    0.000    0.000    0.000    0.000    0.000    2.000 
#    0.000    1.429    0.000    0.000    0.000    0.000 
#
# Total GULP energy -346895.439215 kJ/mol
# GULP energy per Si atom -12389.122829 kJ/mol
# Density = 1.873820 g / cm^3
# Si number density = 18.780943 Si / 1000 Ang^3
#
#
#
# Elastic Constant Matrix: (Units=GPa)
#
#
# Indices 1 2 3 4 5 6 
#
# 1 52.2395 30.6006 15.1141 0.0000 -27.7200 0.0000
# 2 30.6006 94.2533 9.8150 0.0000 -23.1225 0.0000
# 3 15.1141 9.8150 84.1769 0.0000 -20.8894 0.0000
# 4 0.0000 0.0000 0.0000 18.5675 0.0000 -3.3616
# 5 -27.7200 -23.1225 -20.8894 0.0000 37.9464 0.0000
# 6 0.0000 0.0000 0.0000 -3.3616 0.0000 31.5647
#
#
#
# Elastic Compliance Matrix: (Units=1/GPa)
#
#
# Indices 1 2 3 4 5 6 
#
# 1 0.033734 -0.005775 -0.000164 0.000000 0.021034 0.000000
# 2 -0.005775 0.013481 0.000529 0.000000 0.004287 0.000000
# 3 -0.000164 0.000529 0.013780 0.000000 0.007789 0.000000
# 4 0.000000 0.000000 0.000000 0.054916 0.000000 0.005848
# 5 0.021034 0.004287 0.007789 0.000000 0.048618 0.000000
# 6 0.000000 0.000000 0.000000 0.005848 0.000000 0.032304
#
#
# Mechanical properties :
#
#
# Convention : Reuss Voigt Hill
#
# Bulk Modulus (GPa) = 19.93003 37.96990 28.94996
# Shear Modulus (GPa) = 22.28371 29.29172 25.78772
#
# Velocity S-wave (km/s) = 3.44831 3.95353 3.70953
# Velocity P-wave (km/s) = 5.14678 6.41106 5.81339
#
# Compressibility (1/GPa) = 0.05017555
#
# Stress axis : x y z
#
# Youngs Moduli (GPa) = 29.64373 74.17649 72.56719
#
# Poissons Ratio (x) = 0.42838 0.01189
# Poissons Ratio (y) = 0.17120 -0.03838
# Poissons Ratio (z) = 0.00486 -0.03923
#
# Static dielectric constant tensor:
#      x y z
#    x 3.613010 0.000000 -0.503190 
#    y 0.000000 3.524710 0.000000 
#    z -0.503190 0.000000 4.003330 
# 
# 
# High freq. dielectric constant tensor:
#      x y z
#    x 1.695850 0.000000 -0.012550 
#    y 0.000000 1.699920 0.000000 
#    z -0.012550 0.000000 1.758300 
# 
# From -- ./inp_files/5252.got.cif
#   From: 2010.06.25/outbox.cif.g09.slc.cpg/sg11_3_cif.got.tgz:5252.got - 2010.06.27 23:14:04.
