data_PCOD8070733
_publ_section_title
;
Structure prediction by ZEFSAII (Michael W. Deem and Ramdas Pophale) SiO2 
 PCOD8070733
Probable space group: P 21/M
;
_chemical_formula_sum "Si O2"
_cell_formula_units_Z 32
_cell_length_a 14.679119
_cell_length_b 9.328004
_cell_length_c 20.883043
_cell_angle_alpha 90.000000
_cell_angle_beta 142.729558
_cell_angle_gamma 90.000000
_cell_volume 1731.619824
_symmetry_space_group_name_H-M "P 21/M"
_symmetry_group_IT_number 11
_symmetry_cell_setting 'monoclinic'
loop_
_space_group_symop_operation_xyz
x,y,z
-x,1/2+y,-z
-x,-y,-z
x,1/2-y,z
loop_
_atom_site_type_symbol
_atom_site_label
_atom_site_fract_x
_atom_site_fract_y
_atom_site_fract_z
Si Si1 0.132944 0.420738 0.423197
Si Si2 0.865383 0.414920 0.955300
Si Si3 0.427485 0.091204 0.514458
Si Si4 0.442840 0.590388 0.280177
Si Si5 0.706007 0.080156 0.993932
Si Si6 0.815706 0.419842 0.192668
Si Si7 0.397099 0.916369 0.813640
Si Si8 0.285513 0.915686 0.615463
O O1 0.135354 0.250000 0.435315
O O2 0.268067 0.469305 0.451558
O O3 0.157314 0.493636 0.506633
O O4 0.978547 0.478086 0.305828
O O5 0.911149 0.250000 0.979519
O O6 0.724823 0.449912 0.831933
O O7 0.826149 0.461259 0.006209
O O8 0.000000 0.500000 0.000000
O O9 0.400051 0.250000 0.471754
O O10 0.549060 0.092034 0.638901
O O11 0.500000 0.000000 0.500000
O O12 0.485986 0.750000 0.277583
O O13 0.550112 0.469474 0.312232
O O14 0.678234 0.250000 0.980146
O O15 0.772419 0.021724 0.098215
O O16 0.547249 0.008122 0.888635
O O17 0.824594 0.250000 0.196767
O O18 0.688421 0.471946 0.170903
O O19 0.443395 0.750000 0.845513
O O20 0.279595 0.936975 0.689016
O O21 0.267039 0.750000 0.586056
#
# Coordination Sequence:
#
# PCOD8070733 Si02
#       8
#     4   4   4   4   4   4   4   4
#     4   9  19  36  54  73 105 145 179 216 267 321
#     4  10  21  35  54  80 106 136 177 220 266 317
#     4   9  18  31  51  75  98 131 173 215 260 314
#     4   9  18  35  53  72 101 137 175 214 261 317
#     4  10  20  36  58  80 106 144 187 222 258 323
#     4   9  19  36  56  79 109 144 180 221 268 322
#     4  10  20  34  55  82 110 140 177 224 276 318
#     4  10  19  31  52  80 106 135 174 221 266 312
#
# _framework density 18.479807999999998
#
# number of rings (size 3 to 8) (size 9 to 14) (size 15 to 20)
#    0.000    2.500    1.250    1.500    0.000    5.000 
#    0.000    2.500    0.000    0.000    0.000    0.000 
#    0.000    0.000    0.000    0.000    0.000    0.000 
#
# Total GULP energy -396702.586087 kJ/mol
# GULP energy per Si atom -12396.955815 kJ/mol
# Density = 1.843775 g / cm^3
# Si number density = 18.479808 Si / 1000 Ang^3
#
#
#
# Elastic Constant Matrix: (Units=GPa)
#
#
# Indices 1 2 3 4 5 6 
#
# 1 106.0742 34.1226 46.2540 0.0000 -7.2379 0.0000
# 2 34.1226 49.3948 32.6756 0.0000 -2.3896 0.0000
# 3 46.2540 32.6756 113.2006 0.0000 -3.8934 0.0000
# 4 0.0000 0.0000 0.0000 26.6154 0.0000 -1.5518
# 5 -7.2379 -2.3896 -3.8934 0.0000 24.4120 0.0000
# 6 0.0000 0.0000 0.0000 -1.5518 0.0000 24.3160
#
#
#
# Elastic Compliance Matrix: (Units=1/GPa)
#
#
# Indices 1 2 3 4 5 6 
#
# 1 0.013271 -0.006811 -0.003363 0.000000 0.002732 0.000000
# 2 -0.006811 0.028560 -0.005464 0.000000 -0.000095 0.000000
# 3 -0.003363 -0.005464 0.011797 0.000000 0.000350 0.000000
# 4 0.000000 0.000000 0.000000 0.037713 0.000000 0.002407
# 5 0.002732 -0.000095 0.000350 0.000000 0.041820 0.000000
# 6 0.000000 0.000000 0.000000 0.002407 0.000000 0.041279
#
#
# Mechanical properties :
#
#
# Convention : Reuss Voigt Hill
#
# Bulk Modulus (GPa) = 44.73765 54.97489 49.85627
# Shear Modulus (GPa) = 23.45579 25.44315 24.44947
#
# Velocity S-wave (km/s) = 3.56654 3.71456 3.64130
# Velocity P-wave (km/s) = 6.42042 6.94338 6.68701
#
# Compressibility (1/GPa) = 0.02235254
#
# Stress axis : x y z
#
# Youngs Moduli (GPa) = 75.35158 35.01346 84.76662
#
# Poissons Ratio (x) = 0.23849 0.28503
# Poissons Ratio (y) = 0.51324 0.46318
# Poissons Ratio (z) = 0.25337 0.19132
#
# Static dielectric constant tensor:
#      x y z
#    x 3.352530 0.000000 -0.180400 
#    y 0.000000 3.256200 0.000000 
#    z -0.180400 0.000000 3.753210 
# 
# 
# High freq. dielectric constant tensor:
#      x y z
#    x 1.711090 0.000000 -0.010330 
#    y 0.000000 1.698380 0.000000 
#    z -0.010330 0.000000 1.725180 
# 
# From -- ./inp_files/54357.got.cif
#   From: 2010.06.25/outbox.cif.g09.slc.cpg/sg11_28_cif.got.tgz:54357.got - 2010.06.27 23:14:04.
