data_PCOD8070122
_publ_section_title
;
Structure prediction by ZEFSAII (Michael W. Deem and Ramdas Pophale) SiO2 
 PCOD8070122
Probable space group: P 21/M
;
_chemical_formula_sum "Si O2"
_cell_formula_units_Z 24
_cell_length_a 19.177395
_cell_length_b 8.976086
_cell_length_c 12.752820
_cell_angle_alpha 90.000000
_cell_angle_beta 43.632183
_cell_angle_gamma 90.000000
_cell_volume 1514.776052
_symmetry_space_group_name_H-M "P 21/M"
_symmetry_group_IT_number 11
_symmetry_cell_setting 'monoclinic'
loop_
_space_group_symop_operation_xyz
x,y,z
-x,1/2+y,-z
-x,-y,-z
x,1/2-y,z
loop_
_atom_site_type_symbol
_atom_site_label
_atom_site_fract_x
_atom_site_fract_y
_atom_site_fract_z
Si Si1 0.230573 0.418402 0.135620
Si Si2 0.918656 0.581297 0.325862
Si Si3 0.797442 0.425754 0.631980
Si Si4 0.106608 0.077735 0.876868
Si Si5 0.605700 0.918373 0.885993
Si Si6 0.152753 0.577081 0.024249
O O1 0.189163 0.250000 0.169232
O O2 0.165511 0.504481 0.296708
O O3 0.348090 0.417909 0.045798
O O4 0.224592 0.503276 0.032439
O O5 0.904003 0.750000 0.382833
O O6 0.876908 0.466134 0.455718
O O7 0.857037 0.560224 0.283353
O O8 0.036678 0.547052 0.180971
O O9 0.789351 0.250000 0.651946
O O10 0.686685 0.494530 0.723829
O O11 0.095067 0.250000 0.919751
O O12 0.179331 0.997832 0.882569
O O13 0.000000 0.000000 0.000000
O O14 0.592392 0.750000 0.858516
O O15 0.500000 0.000000 0.000000
O O16 0.178293 0.750000 0.988438
#
# Coordination Sequence:
#
# PCOD8070122 Si02
#       6
#     4   4   4   4   4   4
#     4   9  19  32  46  66  93 120 151 187 226 274
#     4   9  18  31  44  63  92 125 157 190 225 264
#     4  10  19  30  46  68  92 119 153 188 226 272
#     4   9  17  29  45  63  87 120 159 195 226 262
#     4   9  18  32  50  69  91 117 146 185 227 274
#     4  10  19  30  46  66  92 124 158 193 227 267
#
# _framework density 15.843927000000001
#
# number of rings (size 3 to 8) (size 9 to 14) (size 15 to 20)
#    1.000    1.667    0.000    4.000    0.000    4.667 
#    0.000    0.000    0.000    0.000    0.000    1.167 
#    0.000    0.000    0.000    0.000    0.000    0.000 
#
# Total GULP energy -297360.104561 kJ/mol
# GULP energy per Si atom -12390.004357 kJ/mol
# Density = 1.580787 g / cm^3
# Si number density = 15.843927 Si / 1000 Ang^3
#
#
#
# Elastic Constant Matrix: (Units=GPa)
#
#
# Indices 1 2 3 4 5 6 
#
# 1 63.7463 36.4377 18.7919 0.0000 17.6011 0.0000
# 2 36.4377 130.3363 15.9280 0.0000 12.4800 0.0000
# 3 18.7919 15.9280 12.6774 0.0000 11.6520 0.0000
# 4 0.0000 0.0000 0.0000 25.9836 0.0000 2.8164
# 5 17.6011 12.4800 11.6520 0.0000 23.6491 0.0000
# 6 0.0000 0.0000 0.0000 2.8164 0.0000 28.9630
#
#
#
# Elastic Compliance Matrix: (Units=1/GPa)
#
#
# Indices 1 2 3 4 5 6 
#
# 1 0.029092 -0.003408 -0.037638 0.000000 -0.001309 0.000000
# 2 -0.003408 0.009493 -0.008411 0.000000 0.001671 0.000000
# 3 -0.037638 -0.008411 0.210936 0.000000 -0.071477 0.000000
# 4 0.000000 0.000000 0.000000 0.038896 0.000000 -0.003782
# 5 -0.001309 0.001671 -0.071477 0.000000 0.077595 0.000000
# 6 0.000000 0.000000 0.000000 -0.003782 0.000000 0.034895
#
#
# Mechanical properties :
#
#
# Convention : Reuss Voigt Hill
#
# Bulk Modulus (GPa) = 6.63987 38.78614 22.71300
# Shear Modulus (GPa) = 9.09052 24.75930 16.92491
#
# Velocity S-wave (km/s) = 2.39792 3.95739 3.27192
# Velocity P-wave (km/s) = 3.44479 6.73903 5.35168
#
# Compressibility (1/GPa) = 0.15060544
#
# Stress axis : x y z
#
# Youngs Moduli (GPa) = 34.37340 105.33885 4.74078
#
# Poissons Ratio (x) = 0.35902 0.17844
# Poissons Ratio (y) = 0.11715 0.03988
# Poissons Ratio (z) = 1.29376 0.88603
#
# Static dielectric constant tensor:
#      x y z
#    x 2.949540 0.000000 0.312520 
#    y 0.000000 3.167300 0.000000 
#    z 0.312520 0.000000 2.770960 
# 
# 
# High freq. dielectric constant tensor:
#      x y z
#    x 1.587960 0.000000 0.026500 
#    y 0.000000 1.630690 0.000000 
#    z 0.026500 0.000000 1.568630 
# 
# From -- ./inp_files/40333.got.cif
#   From: 2010.06.25/outbox.cif.g09.slc.cpg/sg11_21_cif.got.tgz:40333.got - 2010.06.27 23:14:04.
