data_PCOD8070009
_publ_section_title
;
Structure prediction by ZEFSAII (Michael W. Deem and Ramdas Pophale) SiO2 
 PCOD8070009
Probable space group: P 21/M
;
_chemical_formula_sum "Si O2"
_cell_formula_units_Z 32
_cell_length_a 11.482096
_cell_length_b 8.901991
_cell_length_c 21.489024
_cell_angle_alpha 90.000000
_cell_angle_beta 57.172742
_cell_angle_gamma 90.000000
_cell_volume 1845.711952
_symmetry_space_group_name_H-M "P 21/M"
_symmetry_group_IT_number 11
_symmetry_cell_setting 'monoclinic'
loop_
_space_group_symop_operation_xyz
x,y,z
-x,1/2+y,-z
-x,-y,-z
x,1/2-y,z
loop_
_atom_site_type_symbol
_atom_site_label
_atom_site_fract_x
_atom_site_fract_y
_atom_site_fract_z
Si Si1 0.429208 0.584370 0.931516
Si Si2 0.945168 0.415302 0.574241
Si Si3 0.081477 0.573422 0.642970
Si Si4 0.290365 0.416277 0.072766
Si Si5 0.372704 0.571010 0.501344
Si Si6 0.388050 0.427888 0.231498
Si Si7 0.371010 0.914662 0.360397
Si Si8 0.144753 0.572015 0.222777
O O1 0.363543 0.750000 0.944794
O O2 0.562985 0.591452 0.936293
O O3 0.479222 0.526288 0.849369
O O4 0.312983 0.477652 0.995965
O O5 0.015439 0.250000 0.563278
O O6 0.785457 0.388587 0.612170
O O7 0.000000 0.500000 0.500000
O O8 0.972500 0.528872 0.621877
O O9 0.082485 0.750000 0.654620
O O10 0.233593 0.516174 0.577522
O O11 0.013763 0.489868 0.722292
O O12 0.224415 0.250000 0.087894
O O13 0.188645 0.525013 0.140592
O O14 0.500000 0.500000 0.500000
O O15 0.378996 0.750000 0.500719
O O16 0.379456 0.514394 0.427549
O O17 0.361236 0.250000 0.236411
O O18 0.430994 0.476384 0.289345
O O19 0.250687 0.507372 0.244036
O O20 0.444989 0.750000 0.337594
O O21 0.144697 0.750000 0.229838
#
# Coordination Sequence:
#
# PCOD8070009 Si02
#       8
#     4   4   4   4   4   4   4   4
#     4   8  15  26  38  57  88 125 163 198 230 274
#     4  11  20  31  48  72  98 125 156 193 242 293
#     4  11  21  35  51  70  98 125 159 204 245 286
#     4   9  16  26  40  59  86 126 167 197 232 278
#     4  10  23  41  56  71  93 124 161 203 245 290
#     4  10  19  29  44  68  96 128 164 199 240 285
#     4  10  20  34  49  70  99 126 159 201 245 286
#     4  11  20  29  43  67  97 128 162 199 242 287
#
# _framework density 17.337485000000001
#
# number of rings (size 3 to 8) (size 9 to 14) (size 15 to 20)
#    0.000    2.000    2.500    3.375    0.000    5.500 
#    0.000    0.000    0.000    0.000    0.000    0.000 
#    0.000    1.000    0.000    3.250    0.000    5.000 
#
# Total GULP energy -396465.423500 kJ/mol
# GULP energy per Si atom -12389.544484 kJ/mol
# Density = 1.729802 g / cm^3
# Si number density = 17.337485 Si / 1000 Ang^3
#
#
#
# Elastic Constant Matrix: (Units=GPa)
#
#
# Indices 1 2 3 4 5 6 
#
# 1 50.9159 21.5927 37.4939 0.0000 0.4594 0.0000
# 2 21.5927 90.4849 59.3786 0.0000 -3.5338 0.0000
# 3 37.4939 59.3786 159.4137 0.0000 -4.1304 0.0000
# 4 0.0000 0.0000 0.0000 30.5207 0.0000 -0.9649
# 5 0.4594 -3.5338 -4.1304 0.0000 6.5599 0.0000
# 6 0.0000 0.0000 0.0000 -0.9649 0.0000 17.1620
#
#
#
# Elastic Compliance Matrix: (Units=1/GPa)
#
#
# Indices 1 2 3 4 5 6 
#
# 1 0.024498 -0.002918 -0.004839 0.000000 -0.006334 0.000000
# 2 -0.002918 0.015108 -0.004803 0.000000 0.005318 0.000000
# 3 -0.004839 -0.004803 0.009294 0.000000 0.003603 0.000000
# 4 0.000000 0.000000 0.000000 0.032823 0.000000 0.001845
# 5 -0.006334 0.005318 0.003603 0.000000 0.158018 0.000000
# 6 0.000000 0.000000 0.000000 0.001845 0.000000 0.058372
#
#
# Mechanical properties :
#
#
# Convention : Reuss Voigt Hill
#
# Bulk Modulus (GPa) = 42.05404 59.74944 50.90174
# Shear Modulus (GPa) = 15.09847 23.00516 19.05181
#
# Velocity S-wave (km/s) = 2.95423 3.64662 3.31853
# Velocity P-wave (km/s) = 5.99545 7.22965 6.64128
#
# Compressibility (1/GPa) = 0.02377893
#
# Stress axis : x y z
#
# Youngs Moduli (GPa) = 40.81900 66.19208 107.60048
#
# Poissons Ratio (x) = 0.19314 0.52071
# Poissons Ratio (y) = 0.11910 0.51683
# Poissons Ratio (z) = 0.19753 0.31793
#
# Static dielectric constant tensor:
#      x y z
#    x 2.700450 0.000000 -0.003240 
#    y 0.000000 3.452500 0.000000 
#    z -0.003240 0.000000 3.631780 
# 
# 
# High freq. dielectric constant tensor:
#      x y z
#    x 1.586880 0.000000 -0.003810 
#    y 0.000000 1.679980 0.000000 
#    z -0.003810 0.000000 1.691670 
# 
# From -- ./inp_files/58708.got.cif
#   From: 2010.06.25/outbox.cif.g09.slc.cpg/sg11_30_cif.got.tgz:58708.got - 2010.06.27 23:14:04.
