data_PCOD8070282
_publ_section_title
;
Structure prediction by ZEFSAII (Michael W. Deem and Ramdas Pophale) SiO2 
 PCOD8070282
Probable space group: P 21/M
;
_chemical_formula_sum "Si O2"
_cell_formula_units_Z 32
_cell_length_a 30.558555
_cell_length_b 9.000025
_cell_length_c 13.012133
_cell_angle_alpha 90.000000
_cell_angle_beta 152.826256
_cell_angle_gamma 90.000000
_cell_volume 1634.356565
_symmetry_space_group_name_H-M "P 21/M"
_symmetry_group_IT_number 11
_symmetry_cell_setting 'monoclinic'
loop_
_space_group_symop_operation_xyz
x,y,z
-x,1/2+y,-z
-x,-y,-z
x,1/2-y,z
loop_
_atom_site_type_symbol
_atom_site_label
_atom_site_fract_x
_atom_site_fract_y
_atom_site_fract_z
Si Si1 0.177066 0.924295 0.398100
Si Si2 0.401711 0.072868 0.334546
Si Si3 0.075097 0.074227 0.372560
Si Si4 0.339732 0.086531 0.837374
Si Si5 0.754820 0.582937 0.144328
Si Si6 0.858045 0.423783 0.908783
Si Si7 0.460335 0.919946 0.818395
Si Si8 0.681042 0.575087 0.619437
O O1 0.162909 0.750000 0.381109
O O2 0.154151 0.976206 0.234581
O O3 0.104839 0.003986 0.325845
O O4 0.287007 0.967448 0.653971
O O5 0.411082 0.250000 0.338856
O O6 0.378496 0.029638 0.403523
O O7 0.500000 0.000000 0.500000
O O8 0.309069 0.006897 0.078423
O O9 0.093175 0.250000 0.398356
O O10 0.141744 0.012083 0.606684
O O11 0.965669 0.037020 0.169428
O O12 0.314252 0.250000 0.739897
O O13 0.309783 0.071132 0.890960
O O14 0.453423 0.065446 0.082181
O O15 0.774226 0.750000 0.148028
O O16 0.836032 0.250000 0.872890
O O17 0.788998 0.511251 0.843208
O O18 0.431292 0.750000 0.781037
O O19 0.368693 0.004529 0.583955
O O20 0.500000 0.000000 0.000000
O O21 0.685735 0.750000 0.617318
#
# Coordination Sequence:
#
# PCOD8070282 Si02
#       8
#     4   4   4   4   4   4   4   4
#     4  10  19  30  49  79 111 141 175 219 268 318
#     4  10  21  38  60  84 108 138 178 225 279 335
#     4   9  18  34  56  79 104 140 185 226 269 326
#     4   9  18  32  51  74 100 136 176 213 261 321
#     4   8  15  32  56  77  99 130 171 218 267 320
#     4  10  21  36  53  75 106 146 187 225 270 326
#     4  11  22  36  55  78 108 146 184 221 266 322
#     4  11  24  38  54  80 112 145 183 227 276 332
#
# _framework density 19.579571999999999
#
# number of rings (size 3 to 8) (size 9 to 14) (size 15 to 20)
#    0.000    2.250    0.000    3.750    0.000    6.500 
#    0.000    4.375    0.000    0.000    0.000    0.000 
#    0.000    0.000    0.000    0.000    0.000    0.000 
#
# Total GULP energy -396596.696203 kJ/mol
# GULP energy per Si atom -12393.646756 kJ/mol
# Density = 1.953501 g / cm^3
# Si number density = 19.579572 Si / 1000 Ang^3
#
#
#
# Elastic Constant Matrix: (Units=GPa)
#
#
# Indices 1 2 3 4 5 6 
#
# 1 83.5057 42.7458 54.3821 0.0000 9.4813 0.0000
# 2 42.7458 64.2561 37.1562 0.0000 4.1276 0.0000
# 3 54.3821 37.1562 126.5135 0.0000 1.9258 0.0000
# 4 0.0000 0.0000 0.0000 26.2656 0.0000 5.3530
# 5 9.4813 4.1276 1.9258 0.0000 23.4057 0.0000
# 6 0.0000 0.0000 0.0000 5.3530 0.0000 27.6460
#
#
#
# Elastic Compliance Matrix: (Units=1/GPa)
#
#
# Indices 1 2 3 4 5 6 
#
# 1 0.022394 -0.010797 -0.006354 0.000000 -0.006645 0.000000
# 2 -0.010797 0.024144 -0.002455 0.000000 0.000318 0.000000
# 3 -0.006354 -0.002455 0.011325 0.000000 0.002075 0.000000
# 4 0.000000 0.000000 0.000000 0.039637 0.000000 -0.007675
# 5 -0.006645 0.000318 0.002075 0.000000 0.045190 0.000000
# 6 0.000000 0.000000 0.000000 -0.007675 0.000000 0.037658
#
#
# Mechanical properties :
#
#
# Convention : Reuss Voigt Hill
#
# Bulk Modulus (GPa) = 53.61268 60.31593 56.96431
# Shear Modulus (GPa) = 22.14580 24.79622 23.47101
#
# Velocity S-wave (km/s) = 3.36678 3.56256 3.46605
# Velocity P-wave (km/s) = 6.52342 6.91338 6.72123
#
# Compressibility (1/GPa) = 0.01865230
#
# Stress axis : x y z
#
# Youngs Moduli (GPa) = 44.65385 41.41790 88.29936
#
# Poissons Ratio (x) = 0.44717 0.56108
# Poissons Ratio (y) = 0.48211 0.21677
# Poissons Ratio (z) = 0.28374 0.10168
#
# Static dielectric constant tensor:
#      x y z
#    x 3.633950 0.000000 0.198370 
#    y 0.000000 3.449040 0.000000 
#    z 0.198370 0.000000 3.958880 
# 
# 
# High freq. dielectric constant tensor:
#      x y z
#    x 1.751580 0.000000 0.010770 
#    y 0.000000 1.743490 0.000000 
#    z 0.010770 0.000000 1.774490 
# 
# From -- ./inp_files/45355.got.cif
#   From: 2010.06.25/outbox.cif.g09.slc.cpg/sg11_23_cif.got.tgz:45355.got - 2010.06.27 23:14:04.
