data_PCOD8070970
_publ_section_title
;
Structure prediction by ZEFSAII (Michael W. Deem and Ramdas Pophale) SiO2 
 PCOD8070970
Probable space group: P 21/M
;
_chemical_formula_sum "Si O2"
_cell_formula_units_Z 32
_cell_length_a 8.147607
_cell_length_b 8.866766
_cell_length_c 27.753473
_cell_angle_alpha 90.000000
_cell_angle_beta 125.832841
_cell_angle_gamma 90.000000
_cell_volume 1625.504001
_symmetry_space_group_name_H-M "P 21/M"
_symmetry_group_IT_number 11
_symmetry_cell_setting 'monoclinic'
loop_
_space_group_symop_operation_xyz
x,y,z
-x,1/2+y,-z
-x,-y,-z
x,1/2-y,z
loop_
_atom_site_type_symbol
_atom_site_label
_atom_site_fract_x
_atom_site_fract_y
_atom_site_fract_z
Si Si1 0.875321 0.929954 0.435540
Si Si2 0.825290 0.071219 0.000776
Si Si3 0.948846 0.070622 0.636193
Si Si4 0.442584 0.081097 0.879624
Si Si5 0.701325 0.073790 0.760472
Si Si6 0.412196 0.570557 0.361778
Si Si7 0.676208 0.573099 0.241738
Si Si8 0.069082 0.080145 0.883669
O O1 0.881108 0.750000 0.438805
O O2 0.643518 0.989646 0.402014
O O3 0.983797 0.989252 0.404955
O O4 0.000000 0.000000 0.500000
O O5 0.833934 0.250000 0.000828
O O6 0.846714 0.021543 0.059302
O O7 0.616834 0.004714 0.942204
O O8 0.000000 0.000000 0.000000
O O9 0.959843 0.250000 0.636769
O O10 0.722645 0.018246 0.614769
O O11 0.108577 0.008095 0.703304
O O12 0.520387 0.250000 0.882149
O O13 0.403127 0.996798 0.821666
O O14 0.232790 0.083316 0.870461
O O15 0.751208 0.250000 0.767506
O O16 0.701427 0.009496 0.705969
O O17 0.480189 0.039265 0.742732
O O18 0.870589 0.003353 0.825157
O O19 0.420891 0.750000 0.360934
O O20 0.700705 0.750000 0.236058
O O21 0.025081 0.250000 0.895450
#
# Coordination Sequence:
#
# PCOD8070970 Si02
#       8
#     4   4   4   4   4   4   4   4
#     4  10  20  34  51  75 104 134 168 207 250 299
#     4  11  22  36  51  70  98 134 173 213 257 308
#     4   9  16  27  46  72 103 133 165 209 256 298
#     4   9  18  30  47  73 102 130 164 207 256 305
#     4   9  15  25  46  75 104 130 162 206 253 297
#     4   9  16  28  47  74 104 133 168 211 254 296
#     4   9  14  24  43  71 103 129 158 205 255 293
#     4  10  19  32  51  76 102 130 164 206 257 311
#
# _framework density 19.686202999999999
#
# number of rings (size 3 to 8) (size 9 to 14) (size 15 to 20)
#    0.000    2.500    1.250    2.250    0.000    5.500 
#    0.000    0.625    0.000    0.750    0.000    2.625 
#    0.000    0.000    0.000    0.000    0.000    0.000 
#
# Total GULP energy -396502.499700 kJ/mol
# GULP energy per Si atom -12390.703116 kJ/mol
# Density = 1.964140 g / cm^3
# Si number density = 19.686203 Si / 1000 Ang^3
#
#
#
# Elastic Constant Matrix: (Units=GPa)
#
#
# Indices 1 2 3 4 5 6 
#
# 1 118.7044 11.7988 74.4035 0.0000 -0.8642 0.0000
# 2 11.7988 19.7776 16.1195 0.0000 -1.6062 0.0000
# 3 74.4035 16.1195 167.0358 0.0000 -1.1845 0.0000
# 4 0.0000 0.0000 0.0000 22.9780 0.0000 -1.1098
# 5 -0.8642 -1.6062 -1.1845 0.0000 33.0507 0.0000
# 6 0.0000 0.0000 0.0000 -1.1098 0.0000 11.5469
#
#
#
# Elastic Compliance Matrix: (Units=1/GPa)
#
#
# Indices 1 2 3 4 5 6 
#
# 1 0.011849 -0.003005 -0.004988 0.000000 -0.000015 0.000000
# 2 -0.003005 0.055844 -0.004033 0.000000 0.002491 0.000000
# 3 -0.004988 -0.004033 0.008598 0.000000 -0.000018 0.000000
# 4 0.000000 0.000000 0.000000 0.043723 0.000000 0.004202
# 5 -0.000015 0.002491 -0.000018 0.000000 0.030377 0.000000
# 6 0.000000 0.000000 0.000000 0.004202 0.000000 0.087007
#
#
# Mechanical properties :
#
#
# Convention : Reuss Voigt Hill
#
# Bulk Modulus (GPa) = 19.14271 56.68459 37.91365
# Shear Modulus (GPa) = 17.92996 27.06153 22.49574
#
# Velocity S-wave (km/s) = 3.02120 3.71164 3.38408
# Velocity P-wave (km/s) = 4.68137 6.87204 5.87963
#
# Compressibility (1/GPa) = 0.05223919
#
# Stress axis : x y z
#
# Youngs Moduli (GPa) = 84.39179 17.90703 116.30891
#
# Poissons Ratio (x) = 0.05380 0.58019
# Poissons Ratio (y) = 0.25356 0.46909
# Poissons Ratio (z) = 0.42097 0.07222
#
# Static dielectric constant tensor:
#      x y z
#    x 3.676230 0.000000 0.159720 
#    y 0.000000 3.019610 0.000000 
#    z 0.159720 0.000000 3.509440 
# 
# 
# High freq. dielectric constant tensor:
#      x y z
#    x 1.784040 0.000000 0.000950 
#    y 0.000000 1.680220 0.000000 
#    z 0.000950 0.000000 1.784120 
# 
# From -- ./inp_files/67961.got.cif
#   From: 2010.06.25/outbox.cif.g09.slc.cpg/sg11_34_cif.got.tgz:67961.got - 2010.06.27 23:14:04.
