data_PCOD8070728
_publ_section_title
;
Structure prediction by ZEFSAII (Michael W. Deem and Ramdas Pophale) SiO2 
 PCOD8070728
Probable space group: P 21/M
;
_chemical_formula_sum "Si O2"
_cell_formula_units_Z 28
_cell_length_a 9.591782
_cell_length_b 13.501444
_cell_length_c 13.969666
_cell_angle_alpha 90.000000
_cell_angle_beta 126.798516
_cell_angle_gamma 90.000000
_cell_volume 1448.641092
_symmetry_space_group_name_H-M "P 21/M"
_symmetry_group_IT_number 11
_symmetry_cell_setting 'monoclinic'
loop_
_space_group_symop_operation_xyz
x,y,z
-x,1/2+y,-z
-x,-y,-z
x,1/2-y,z
loop_
_atom_site_type_symbol
_atom_site_label
_atom_site_fract_x
_atom_site_fract_y
_atom_site_fract_z
Si Si1 0.089035 0.955966 0.390369
Si Si2 0.759583 0.540547 0.361908
Si Si3 0.532608 0.135669 0.258061
Si Si4 0.558235 0.133265 0.682698
Si Si5 0.561699 0.361440 0.477001
Si Si6 0.844829 0.864151 0.954127
Si Si7 0.903818 0.482475 0.823042
O O1 0.226929 0.866156 0.442668
O O2 0.085319 0.008009 0.284903
O O3 0.897073 0.916267 0.341523
O O4 0.148390 0.033861 0.496234
O O5 0.692431 0.434142 0.291843
O O6 0.594287 0.613402 0.303628
O O7 0.596617 0.250000 0.289378
O O8 0.481287 0.093824 0.345271
O O9 0.364712 0.124803 0.122097
O O10 0.596923 0.250000 0.691836
O O11 0.500894 0.089704 0.552882
O O12 0.733991 0.078898 0.786931
O O13 0.497704 0.250000 0.453916
O O14 0.899267 0.750000 0.970713
O O15 0.913197 0.915029 0.884839
O O16 0.929160 0.915086 0.081446
#
# Coordination Sequence:
#
# PCOD8070728 Si02
#       7
#     4   4   4   4   4   4   4
#     4   9  20  33  52  75 110 144 168 208 263 316
#     4  10  19  34  51  79 109 139 173 210 257 315
#     4   9  17  31  52  74 100 135 175 218 259 305
#     4  10  19  31  52  79 107 137 172 217 262 308
#     4   8  16  29  49  76 102 135 175 214 259 310
#     4  10  20  34  56  80 101 134 180 222 263 307
#     4  10  20  36  55  79 106 137 172 222 263 305
#
# _framework density 19.328458000000001
#
# number of rings (size 3 to 8) (size 9 to 14) (size 15 to 20)
#    0.000    2.571    1.429    0.429    2.000    2.857 
#    0.000    3.571    0.000    0.000    0.000    0.000 
#    0.000    0.000    0.000    0.000    0.000    0.000 
#
# Total GULP energy -346962.337534 kJ/mol
# GULP energy per Si atom -12391.512055 kJ/mol
# Density = 1.928447 g / cm^3
# Si number density = 19.328458 Si / 1000 Ang^3
#
#
#
# Elastic Constant Matrix: (Units=GPa)
#
#
# Indices 1 2 3 4 5 6 
#
# 1 87.7430 5.9338 8.4924 0.0000 10.7587 0.0000
# 2 5.9338 50.6976 12.9853 0.0000 0.9585 0.0000
# 3 8.4924 12.9853 72.4643 0.0000 7.1497 0.0000
# 4 0.0000 0.0000 0.0000 19.3065 0.0000 2.2091
# 5 10.7587 0.9585 7.1497 0.0000 22.3550 0.0000
# 6 0.0000 0.0000 0.0000 2.2091 0.0000 18.2075
#
#
#
# Elastic Compliance Matrix: (Units=1/GPa)
#
#
# Indices 1 2 3 4 5 6 
#
# 1 0.012229 -0.001153 -0.000672 0.000000 -0.005621 0.000000
# 2 -0.001153 0.020784 -0.003672 0.000000 0.000838 0.000000
# 3 -0.000672 -0.003672 0.014961 0.000000 -0.004304 0.000000
# 4 0.000000 0.000000 0.000000 0.052525 0.000000 -0.006373
# 5 -0.005621 0.000838 -0.004304 0.000000 0.048779 0.000000
# 6 0.000000 0.000000 0.000000 -0.006373 0.000000 0.055696
#
#
# Mechanical properties :
#
#
# Convention : Reuss Voigt Hill
#
# Bulk Modulus (GPa) = 27.04091 29.52530 28.28310
# Shear Modulus (GPa) = 21.90144 24.20668 23.05406
#
# Velocity S-wave (km/s) = 3.36983 3.54275 3.45737
# Velocity P-wave (km/s) = 5.40015 5.66069 5.53196
#
# Compressibility (1/GPa) = 0.03698101
#
# Stress axis : x y z
#
# Youngs Moduli (GPa) = 81.77171 48.11290 66.83892
#
# Poissons Ratio (x) = 0.05547 0.04491
# Poissons Ratio (y) = 0.09428 0.24544
# Poissons Ratio (z) = 0.05495 0.17667
#
# Static dielectric constant tensor:
#      x y z
#    x 3.396830 0.000000 0.072980 
#    y 0.000000 3.373190 0.000000 
#    z 0.072980 0.000000 3.651350 
# 
# 
# High freq. dielectric constant tensor:
#      x y z
#    x 1.723390 0.000000 0.012750 
#    y 0.000000 1.742600 0.000000 
#    z 0.012750 0.000000 1.750140 
# 
# From -- ./inp_files/21802.got.cif
#   From: 2010.06.25/outbox.cif.g09.slc.cpg/sg11_11_cif.got.tgz:21802.got - 2010.06.27 23:14:04.
