data_PCOD8070493
_publ_section_title
;
Structure prediction by ZEFSAII (Michael W. Deem and Ramdas Pophale) SiO2 
 PCOD8070493
Probable space group: P 21/M
;
_chemical_formula_sum "Si O2"
_cell_formula_units_Z 28
_cell_length_a 9.119783
_cell_length_b 9.150997
_cell_length_c 29.280243
_cell_angle_alpha 90.000000
_cell_angle_beta 38.634756
_cell_angle_gamma 90.000000
_cell_volume 1525.661493
_symmetry_space_group_name_H-M "P 21/M"
_symmetry_group_IT_number 11
_symmetry_cell_setting 'monoclinic'
loop_
_space_group_symop_operation_xyz
x,y,z
-x,1/2+y,-z
-x,-y,-z
x,1/2-y,z
loop_
_atom_site_type_symbol
_atom_site_label
_atom_site_fract_x
_atom_site_fract_y
_atom_site_fract_z
Si Si1 0.451660 0.422921 0.287282
Si Si2 0.890115 0.922998 0.708631
Si Si3 0.346870 0.916455 0.001779
Si Si4 0.739281 0.921590 0.843480
Si Si5 0.939805 0.921926 0.160184
Si Si6 0.754337 0.921477 0.565573
Si Si7 0.584671 0.077247 0.434090
O O1 0.491786 0.250000 0.274470
O O2 0.259026 0.479983 0.298031
O O3 0.691139 0.502098 0.216671
O O4 0.366089 0.470814 0.358060
O O5 0.891741 0.750000 0.708059
O O6 0.774547 0.980586 0.783657
O O7 0.155371 0.981508 0.640488
O O8 0.388441 0.750000 0.004138
O O9 0.461388 0.949065 0.923972
O O10 0.072982 0.953229 0.078731
O O11 0.500000 0.000000 0.000000
O O12 0.804621 0.750000 0.831319
O O13 0.912919 0.009940 0.834095
O O14 0.907803 0.750000 0.176899
O O15 0.802484 0.750000 0.553848
O O16 0.582884 0.969333 0.566604
O O17 0.000000 0.000000 0.500000
O O18 0.582466 0.250000 0.442473
O O19 0.500000 0.000000 0.500000
#
# Coordination Sequence:
#
# PCOD8070493 Si02
#       7
#     4   4   4   4   4   4   4
#     4  10  20  35  53  73  98 133 171 205 242 292
#     4   9  18  33  54  75  96 126 169 210 242 284
#     4   8  15  27  46  71  98 127 162 203 248 293
#     4   9  16  31  54  75  96 128 168 209 249 295
#     4  10  19  31  48  74 104 132 164 206 251 296
#     4  10  21  36  56  79 103 130 164 203 246 295
#     4  10  20  35  54  77 101 128 162 202 245 291
#
# _framework density 18.352696999999999
#
# number of rings (size 3 to 8) (size 9 to 14) (size 15 to 20)
#    0.000    2.571    0.000    2.143    0.000    5.143 
#    0.000    4.286    0.000    0.000    0.000    0.000 
#    0.000    0.000    0.000    0.000    0.000    0.000 
#
# Total GULP energy -346990.841869 kJ/mol
# GULP energy per Si atom -12392.530067 kJ/mol
# Density = 1.831093 g / cm^3
# Si number density = 18.352697 Si / 1000 Ang^3
#
#
#
# Elastic Constant Matrix: (Units=GPa)
#
#
# Indices 1 2 3 4 5 6 
#
# 1 141.0065 34.7939 97.5176 0.0000 -2.1046 0.0000
# 2 34.7939 37.0289 47.2103 0.0000 -5.6207 0.0000
# 3 97.5176 47.2103 202.5688 0.0000 -2.4247 0.0000
# 4 0.0000 0.0000 0.0000 30.3414 0.0000 -3.9700
# 5 -2.1046 -5.6207 -2.4247 0.0000 32.6218 0.0000
# 6 0.0000 0.0000 0.0000 -3.9700 0.0000 21.4791
#
#
#
# Elastic Compliance Matrix: (Units=1/GPa)
#
#
# Indices 1 2 3 4 5 6 
#
# 1 0.011312 -0.005342 -0.004206 0.000000 -0.000503 0.000000
# 2 -0.005342 0.042140 -0.007173 0.000000 0.006383 0.000000
# 3 -0.004206 -0.007173 0.008623 0.000000 -0.000866 0.000000
# 4 0.000000 0.000000 0.000000 0.033775 0.000000 0.006243
# 5 -0.000503 0.006383 -0.000866 0.000000 0.031657 0.000000
# 6 0.000000 0.000000 0.000000 0.006243 0.000000 0.047711
#
#
# Mechanical properties :
#
#
# Convention : Reuss Voigt Hill
#
# Bulk Modulus (GPa) = 34.92696 82.18308 58.55502
# Shear Modulus (GPa) = 22.91433 30.29395 26.60414
#
# Velocity S-wave (km/s) = 3.53732 4.06723 3.81150
# Velocity P-wave (km/s) = 5.97962 8.18129 7.16552
#
# Compressibility (1/GPa) = 0.02863118
#
# Stress axis : x y z
#
# Youngs Moduli (GPa) = 88.40400 23.73065 115.97002
#
# Poissons Ratio (x) = 0.12678 0.48783
# Poissons Ratio (y) = 0.47228 0.83183
# Poissons Ratio (z) = 0.37187 0.17021
#
# Static dielectric constant tensor:
#      x y z
#    x 3.319370 0.000000 0.027970 
#    y 0.000000 3.218040 0.000000 
#    z 0.027970 0.000000 4.050080 
# 
# 
# High freq. dielectric constant tensor:
#      x y z
#    x 1.692960 0.000000 -0.001680 
#    y 0.000000 1.692870 0.000000 
#    z -0.001680 0.000000 1.739320 
# 
# From -- ./inp_files/28533.got.cif
#   From: 2010.06.25/outbox.cif.g09.slc.cpg/sg11_15_cif.got.tgz:28533.got - 2010.06.27 23:14:04.
