data_PCOD8070547
_publ_section_title
;
Structure prediction by ZEFSAII (Michael W. Deem and Ramdas Pophale) SiO2 
 PCOD8070547
Probable space group: P 21/M
;
_chemical_formula_sum "Si O2"
_cell_formula_units_Z 28
_cell_length_a 12.518627
_cell_length_b 9.185072
_cell_length_c 14.854439
_cell_angle_alpha 90.000000
_cell_angle_beta 73.667389
_cell_angle_gamma 90.000000
_cell_volume 1639.103209
_symmetry_space_group_name_H-M "P 21/M"
_symmetry_group_IT_number 11
_symmetry_cell_setting 'monoclinic'
loop_
_space_group_symop_operation_xyz
x,y,z
-x,1/2+y,-z
-x,-y,-z
x,1/2-y,z
loop_
_atom_site_type_symbol
_atom_site_label
_atom_site_fract_x
_atom_site_fract_y
_atom_site_fract_z
Si Si1 0.654867 0.920170 0.404737
Si Si2 0.633359 0.420314 0.100612
Si Si3 0.981233 0.581141 0.912031
Si Si4 0.593752 0.079828 0.593671
Si Si5 0.739303 0.919018 0.913952
Si Si6 0.789328 0.419104 0.227276
Si Si7 0.393845 0.080679 0.228999
O O1 0.674412 0.750000 0.415708
O O2 0.537378 0.952213 0.384705
O O3 0.661159 0.000591 0.498689
O O4 0.752187 0.983820 0.319855
O O5 0.637997 0.250000 0.080748
O O6 0.723322 0.467851 0.153680
O O7 0.512066 0.470113 0.161581
O O8 0.659134 0.498189 0.001187
O O9 0.977529 0.750000 0.937382
O O10 0.866778 0.528345 0.893231
O O11 0.080536 0.548954 0.818740
O O12 0.000000 0.500000 0.000000
O O13 0.620601 0.250000 0.583135
O O14 0.636357 0.014521 0.677194
O O15 0.726667 0.750000 0.939664
O O16 0.701494 0.951587 0.821337
O O17 0.765092 0.250000 0.254444
O O18 0.398416 0.250000 0.255660
#
# Coordination Sequence:
#
# PCOD8070547 Si02
#       7
#     4   4   4   4   4   4   4
#     4  10  20  33  52  78 104 131 164 205 252 301
#     4  10  19  31  49  73 103 137 168 203 252 299
#     4  10  20  34  51  72  99 134 173 212 251 290
#     4  10  20  33  52  77 104 133 164 202 250 304
#     4  10  21  34  50  72 101 137 175 210 247 294
#     4  10  19  32  51  74 103 134 166 208 254 296
#     4  10  20  34  50  72 104 138 168 205 251 300
#
# _framework density 17.082511
#
# number of rings (size 3 to 8) (size 9 to 14) (size 15 to 20)
#    0.000    2.000    2.857    1.286    0.000    3.429 
#    0.000    0.000    0.000    0.857    0.000    0.000 
#    0.000    0.000    0.000    0.000    0.000    0.000 
#
# Total GULP energy -347319.024735 kJ/mol
# GULP energy per Si atom -12404.250883 kJ/mol
# Density = 1.704363 g / cm^3
# Si number density = 17.082511 Si / 1000 Ang^3
#
#
#
# Elastic Constant Matrix: (Units=GPa)
#
#
# Indices 1 2 3 4 5 6 
#
# 1 86.0161 32.2968 44.1198 0.0000 9.1390 0.0000
# 2 32.2968 72.5455 65.4841 0.0000 3.6154 0.0000
# 3 44.1198 65.4841 127.7971 0.0000 7.6249 0.0000
# 4 0.0000 0.0000 0.0000 38.7990 0.0000 1.1902
# 5 9.1390 3.6154 7.6249 0.0000 20.3154 0.0000
# 6 0.0000 0.0000 0.0000 1.1902 0.0000 17.0585
#
#
#
# Elastic Compliance Matrix: (Units=1/GPa)
#
#
# Indices 1 2 3 4 5 6 
#
# 1 0.015106 -0.003791 -0.002974 0.000000 -0.005005 0.000000
# 2 -0.003791 0.026601 -0.012419 0.000000 0.001633 0.000000
# 3 -0.002974 -0.012419 0.015347 0.000000 -0.002212 0.000000
# 4 0.000000 0.000000 0.000000 0.025829 0.000000 -0.001802
# 5 -0.005005 0.001633 -0.002212 0.000000 0.052015 0.000000
# 6 0.000000 0.000000 0.000000 -0.001802 0.000000 0.058748
#
#
# Mechanical properties :
#
#
# Convention : Reuss Voigt Hill
#
# Bulk Modulus (GPa) = 53.51604 63.35112 58.43358
# Shear Modulus (GPa) = 20.98686 24.86512 22.92599
#
# Velocity S-wave (km/s) = 3.50888 3.81936 3.66741
# Velocity P-wave (km/s) = 6.91465 7.52435 7.22593
#
# Compressibility (1/GPa) = 0.01868598
#
# Stress axis : x y z
#
# Youngs Moduli (GPa) = 66.19689 37.59209 65.15830
#
# Poissons Ratio (x) = 0.14253 0.19377
# Poissons Ratio (y) = 0.25098 0.80921
# Poissons Ratio (z) = 0.19686 0.46686
#
# Static dielectric constant tensor:
#      x y z
#    x 3.239250 0.000000 -0.013730 
#    y 0.000000 3.130740 0.000000 
#    z -0.013730 0.000000 3.101330 
# 
# 
# High freq. dielectric constant tensor:
#      x y z
#    x 1.642910 0.000000 -0.000570 
#    y 0.000000 1.660670 0.000000 
#    z -0.000570 0.000000 1.658070 
# 
# From -- ./inp_files/37223.got.cif
#   From: 2010.06.25/outbox.cif.g09.slc.cpg/sg11_19_cif.got.tgz:37223.got - 2010.06.27 23:14:04.
