data_PCOD8070190
_publ_section_title
;
Structure prediction by ZEFSAII (Michael W. Deem and Ramdas Pophale) SiO2 
 PCOD8070190
Probable space group: P 21/M
;
_chemical_formula_sum "Si O2"
_cell_formula_units_Z 32
_cell_length_a 15.692539
_cell_length_b 9.131746
_cell_length_c 25.657274
_cell_angle_alpha 90.000000
_cell_angle_beta 29.855716
_cell_angle_gamma 90.000000
_cell_volume 1830.323130
_symmetry_space_group_name_H-M "P 21/M"
_symmetry_group_IT_number 11
_symmetry_cell_setting 'monoclinic'
loop_
_space_group_symop_operation_xyz
x,y,z
-x,1/2+y,-z
-x,-y,-z
x,1/2-y,z
loop_
_atom_site_type_symbol
_atom_site_label
_atom_site_fract_x
_atom_site_fract_y
_atom_site_fract_z
Si Si1 0.742742 0.921089 0.156114
Si Si2 0.922064 0.581835 0.423220
Si Si3 0.884056 0.921095 0.763222
Si Si4 0.425982 0.917238 0.123445
Si Si5 0.768483 0.415745 0.669837
Si Si6 0.029955 0.421424 0.062938
Si Si7 0.385709 0.080625 0.342530
Si Si8 0.193708 0.421339 0.081260
O O1 0.731925 0.750000 0.173074
O O2 0.554422 0.986065 0.259202
O O3 0.821184 0.954456 0.057783
O O4 0.857480 0.993969 0.139902
O O5 0.962358 0.750000 0.388121
O O6 0.728040 0.559111 0.545016
O O7 0.956012 0.489418 0.352869
O O8 0.052783 0.532531 0.399388
O O9 0.878504 0.750000 0.754761
O O10 0.910767 0.954190 0.810443
O O11 0.703669 0.987472 0.841582
O O12 0.415977 0.750000 0.108518
O O13 0.381680 0.924480 0.207957
O O14 0.614664 0.986746 0.016341
O O15 0.781939 0.250000 0.640637
O O16 0.726647 0.527843 0.646383
O O17 0.985999 0.250000 0.088249
O O18 0.091325 0.485559 0.086076
O O19 0.433494 0.250000 0.309017
O O20 0.216706 0.250000 0.058719
#
# Coordination Sequence:
#
# PCOD8070190 Si02
#       8
#     4   4   4   4   4   4   4   4
#     4  10  20  34  53  77 102 126 154 192 239 288
#     4   9  20  36  49  65  95 134 168 198 241 288
#     4  10  19  30  47  72  98 127 167 208 238 271
#     4   9  17  31  48  68 101 138 163 189 236 292
#     4   9  17  30  48  70  98 131 163 197 238 282
#     4   9  18  35  55  73  99 131 157 188 236 292
#     4  11  21  32  50  73  96 127 165 200 238 289
#     4   9  17  30  50  73  97 129 165 197 237 287
#
# _framework density 17.483252
#
# number of rings (size 3 to 8) (size 9 to 14) (size 15 to 20)
#    0.000    2.500    0.000    3.375    0.000    5.500 
#    0.000    2.500    0.000    0.750    0.000    0.000 
#    0.000    0.000    0.000    0.000    0.000    0.000 
#
# Total GULP energy -396819.390512 kJ/mol
# GULP energy per Si atom -12400.605953 kJ/mol
# Density = 1.744346 g / cm^3
# Si number density = 17.483252 Si / 1000 Ang^3
#
#
#
# Elastic Constant Matrix: (Units=GPa)
#
#
# Indices 1 2 3 4 5 6 
#
# 1 100.4013 42.5912 46.2971 0.0000 9.5389 0.0000
# 2 42.5912 68.1789 39.0508 0.0000 2.8490 0.0000
# 3 46.2971 39.0508 89.4027 0.0000 -2.6826 0.0000
# 4 0.0000 0.0000 0.0000 27.1770 0.0000 -1.6601
# 5 9.5389 2.8490 -2.6826 0.0000 20.4525 0.0000
# 6 0.0000 0.0000 0.0000 -1.6601 0.0000 24.3339
#
#
#
# Elastic Compliance Matrix: (Units=1/GPa)
#
#
# Indices 1 2 3 4 5 6 
#
# 1 0.016014 -0.006431 -0.005703 0.000000 -0.007321 0.000000
# 2 -0.006431 0.022452 -0.006506 0.000000 -0.000982 0.000000
# 3 -0.005703 -0.006506 0.017155 0.000000 0.005816 0.000000
# 4 0.000000 0.000000 0.000000 0.036950 0.000000 0.002521
# 5 -0.007321 -0.000982 0.005816 0.000000 0.053208 0.000000
# 6 0.000000 0.000000 0.000000 0.002521 0.000000 0.041267
#
#
# Mechanical properties :
#
#
# Convention : Reuss Voigt Hill
#
# Bulk Modulus (GPa) = 54.52549 57.09567 55.81058
# Shear Modulus (GPa) = 21.69764 23.06227 22.37995
#
# Velocity S-wave (km/s) = 3.52668 3.63589 3.58170
# Velocity P-wave (km/s) = 6.91652 7.09609 7.00688
#
# Compressibility (1/GPa) = 0.01834005
#
# Stress axis : x y z
#
# Youngs Moduli (GPa) = 62.44711 44.53875 58.29153
#
# Poissons Ratio (x) = 0.28643 0.33245
# Poissons Ratio (y) = 0.40160 0.37926
# Poissons Ratio (z) = 0.35615 0.28978
#
# Static dielectric constant tensor:
#      x y z
#    x 3.161970 0.000000 0.053680 
#    y 0.000000 3.178890 0.000000 
#    z 0.053680 0.000000 3.265950 
# 
# 
# High freq. dielectric constant tensor:
#      x y z
#    x 1.656820 0.000000 0.005330 
#    y 0.000000 1.669290 0.000000 
#    z 0.005330 0.000000 1.673230 
# 
# From -- ./inp_files/51681.got.cif
#   From: 2010.06.25/outbox.cif.g09.slc.cpg/sg11_26_cif.got.tgz:51681.got - 2010.06.27 23:14:04.
