data_PCOD8070463
_publ_section_title
;
Structure prediction by ZEFSAII (Michael W. Deem and Ramdas Pophale) SiO2 
 PCOD8070463
Probable space group: P 21/M
;
_chemical_formula_sum "Si O2"
_cell_formula_units_Z 32
_cell_length_a 21.896061
_cell_length_b 9.015317
_cell_length_c 30.001600
_cell_angle_alpha 90.000000
_cell_angle_beta 18.699546
_cell_angle_gamma 90.000000
_cell_volume 1898.726279
_symmetry_space_group_name_H-M "P 21/M"
_symmetry_group_IT_number 11
_symmetry_cell_setting 'monoclinic'
loop_
_space_group_symop_operation_xyz
x,y,z
-x,1/2+y,-z
-x,-y,-z
x,1/2-y,z
loop_
_atom_site_type_symbol
_atom_site_label
_atom_site_fract_x
_atom_site_fract_y
_atom_site_fract_z
Si Si1 0.756187 0.920001 0.322801
Si Si2 0.169088 0.924699 0.410388
Si Si3 0.506237 0.925713 0.865146
Si Si4 0.081441 0.579287 0.158460
Si Si5 0.926799 0.423113 0.422560
Si Si6 0.357080 0.076622 0.131884
Si Si7 0.778195 0.574823 0.440489
Si Si8 0.515043 0.419383 0.560954
O O1 0.700124 0.750000 0.375504
O O2 0.703347 0.943477 0.306688
O O3 0.979823 0.943025 0.180253
O O4 0.643906 0.039859 0.429469
O O5 0.158768 0.750000 0.408550
O O6 0.148163 0.961940 0.476765
O O7 0.372873 0.990067 0.255753
O O8 0.000000 0.000000 0.500000
O O9 0.514367 0.750000 0.850293
O O10 0.596248 0.968720 0.850106
O O11 0.291214 0.992475 0.012170
O O12 0.113428 0.750000 0.147903
O O13 0.946909 0.514531 0.291107
O O14 0.908433 0.250000 0.425041
O O15 0.801738 0.511866 0.473522
O O16 0.144657 0.476558 0.267573
O O17 0.380590 0.250000 0.109212
O O18 0.500000 0.000000 0.000000
O O19 0.774821 0.750000 0.444867
O O20 0.573294 0.520116 0.562840
O O21 0.549441 0.250000 0.551141
#
# Coordination Sequence:
#
# PCOD8070463 Si02
#       8
#     4   4   4   4   4   4   4   4
#     4   8  14  25  41  65  96 133 169 193 227 283
#     4  11  22  38  56  72  92 121 161 206 246 289
#     4  10  19  34  52  71  97 127 160 200 244 281
#     4   8  15  28  47  70 100 131 159 194 233 281
#     4  10  21  36  50  67  95 125 157 200 245 284
#     4  10  20  33  48  70  99 129 159 192 234 287
#     4  10  19  31  48  71  98 129 165 198 238 294
#     4   9  15  24  41  65  97 132 163 197 236 278
#
# _framework density 16.853404999999999
#
# number of rings (size 3 to 8) (size 9 to 14) (size 15 to 20)
#    0.000    2.500    1.250    2.625    0.000    3.500 
#    0.000    3.125    0.000    0.000    0.000    0.875 
#    0.000    0.000    0.000    0.000    0.000    0.000 
#
# Total GULP energy -396569.681840 kJ/mol
# GULP energy per Si atom -12392.802557 kJ/mol
# Density = 1.681505 g / cm^3
# Si number density = 16.853405 Si / 1000 Ang^3
#
#
#
# Elastic Constant Matrix: (Units=GPa)
#
#
# Indices 1 2 3 4 5 6 
#
# 1 136.9060 51.2122 48.2927 0.0000 -17.0685 0.0000
# 2 51.2122 52.2330 25.5192 0.0000 0.0956 0.0000
# 3 48.2927 25.5192 42.7180 0.0000 3.3424 0.0000
# 4 0.0000 0.0000 0.0000 21.7821 0.0000 1.4493
# 5 -17.0685 0.0956 3.3424 0.0000 28.1150 0.0000
# 6 0.0000 0.0000 0.0000 1.4493 0.0000 26.4125
#
#
#
# Elastic Compliance Matrix: (Units=1/GPa)
#
#
# Indices 1 2 3 4 5 6 
#
# 1 0.018244 -0.010365 -0.015446 0.000000 0.012948 0.000000
# 2 -0.010365 0.033019 -0.007577 0.000000 -0.005504 0.000000
# 3 -0.015446 -0.007577 0.046563 0.000000 -0.014887 0.000000
# 4 0.000000 0.000000 0.000000 0.046078 0.000000 -0.002528
# 5 0.012948 -0.005504 -0.014887 0.000000 0.045217 0.000000
# 6 0.000000 0.000000 0.000000 -0.002528 0.000000 0.038000
#
#
# Mechanical properties :
#
#
# Convention : Reuss Voigt Hill
#
# Bulk Modulus (GPa) = 32.20663 53.54502 42.87582
# Shear Modulus (GPa) = 16.43401 22.38412 19.40907
#
# Velocity S-wave (km/s) = 3.12607 3.64835 3.39726
# Velocity P-wave (km/s) = 5.67284 7.04183 6.39408
#
# Compressibility (1/GPa) = 0.03104951
#
# Stress axis : x y z
#
# Youngs Moduli (GPa) = 54.81182 30.28529 21.47641
#
# Poissons Ratio (x) = 0.31390 0.33173
# Poissons Ratio (y) = 0.56812 0.16273
# Poissons Ratio (z) = 0.84664 0.22948
#
# Static dielectric constant tensor:
#      x y z
#    x 3.355230 0.000000 -0.318850 
#    y 0.000000 3.069850 0.000000 
#    z -0.318850 0.000000 3.153950 
# 
# 
# High freq. dielectric constant tensor:
#      x y z
#    x 1.652790 0.000000 -0.028440 
#    y 0.000000 1.644060 0.000000 
#    z -0.028440 0.000000 1.618450 
# 
# From -- ./inp_files/42476.got.cif
#   From: 2010.06.25/outbox.cif.g09.slc.cpg/sg11_22_cif.got.tgz:42476.got - 2010.06.27 23:14:04.
