data_PCOD8070112
_publ_section_title
;
Structure prediction by ZEFSAII (Michael W. Deem and Ramdas Pophale) SiO2 
 PCOD8070112
Probable space group: P 21/M
;
_chemical_formula_sum "Si O2"
_cell_formula_units_Z 32
_cell_length_a 18.784569
_cell_length_b 8.991824
_cell_length_c 25.889767
_cell_angle_alpha 90.000000
_cell_angle_beta 23.944172
_cell_angle_gamma 90.000000
_cell_volume 1774.756492
_symmetry_space_group_name_H-M "P 21/M"
_symmetry_group_IT_number 11
_symmetry_cell_setting 'monoclinic'
loop_
_space_group_symop_operation_xyz
x,y,z
-x,1/2+y,-z
-x,-y,-z
x,1/2-y,z
loop_
_atom_site_type_symbol
_atom_site_label
_atom_site_fract_x
_atom_site_fract_y
_atom_site_fract_z
Si Si1 0.359565 0.077832 0.935821
Si Si2 0.202292 0.572957 0.551425
Si Si3 0.407561 0.424378 0.698157
Si Si4 0.198272 0.076518 0.934754
Si Si5 0.952493 0.425095 0.453542
Si Si6 0.872189 0.575794 0.197919
Si Si7 0.994144 0.072804 0.217065
Si Si8 0.255811 0.926046 0.306716
O O1 0.371674 0.250000 0.940632
O O2 0.331681 0.051495 0.893593
O O3 0.546391 0.007546 0.828478
O O4 0.193914 0.012081 0.077694
O O5 0.209047 0.750000 0.546631
O O6 0.397139 0.506285 0.431131
O O7 0.125339 0.513019 0.548527
O O8 0.077412 0.517265 0.680554
O O9 0.423221 0.250000 0.697838
O O10 0.292628 0.489355 0.821519
O O11 0.314522 0.458529 0.705308
O O12 0.147698 0.250000 0.963051
O O13 0.022132 0.983807 0.060292
O O14 0.981452 0.250000 0.431775
O O15 0.819490 0.470630 0.587230
O O16 0.141289 0.500053 0.337575
O O17 0.900984 0.750000 0.187402
O O18 0.872448 0.493645 0.252660
O O19 0.987779 0.250000 0.215238
O O20 0.251146 0.750000 0.302626
#
# Coordination Sequence:
#
# PCOD8070112 Si02
#       8
#     4   4   4   4   4   4   4   4
#     4   8  14  26  46  68  86 114 155 187 214 260
#     4   9  17  31  50  69  90 120 160 198 226 260
#     4   9  17  28  46  71  94 119 153 193 234 275
#     4   9  16  29  49  70  93 121 155 190 225 273
#     4   9  17  29  47  70  92 115 146 186 228 269
#     4  10  19  30  45  68  97 123 150 190 238 278
#     4   9  18  33  51  67  87 121 163 198 224 262
#     4   9  16  28  47  69  94 119 143 178 228 280
#
# _framework density 18.030643000000001
#
# number of rings (size 3 to 8) (size 9 to 14) (size 15 to 20)
#    0.000    3.000    0.000    2.250    0.000    3.500 
#    0.000    4.375    0.000    6.750    0.000    0.000 
#    0.000    0.000    0.000    0.000    0.000    0.000 
#
# Total GULP energy -396681.853932 kJ/mol
# GULP energy per Si atom -12396.307935 kJ/mol
# Density = 1.798960 g / cm^3
# Si number density = 18.030643 Si / 1000 Ang^3
#
#
#
# Elastic Constant Matrix: (Units=GPa)
#
#
# Indices 1 2 3 4 5 6 
#
# 1 138.2249 24.8874 85.7434 0.0000 -10.8539 0.0000
# 2 24.8874 23.7542 20.8053 0.0000 -3.0882 0.0000
# 3 85.7434 20.8053 105.7641 0.0000 -4.9778 0.0000
# 4 0.0000 0.0000 0.0000 15.6186 0.0000 -3.8103
# 5 -10.8539 -3.0882 -4.9778 0.0000 32.0000 0.0000
# 6 0.0000 0.0000 0.0000 -3.8103 0.0000 24.5909
#
#
#
# Elastic Compliance Matrix: (Units=1/GPa)
#
#
# Indices 1 2 3 4 5 6 
#
# 1 0.015548 -0.006028 -0.011281 0.000000 0.002937 0.000000
# 2 -0.006028 0.053562 -0.005543 0.000000 0.002262 0.000000
# 3 -0.011281 -0.005543 0.019630 0.000000 -0.001308 0.000000
# 4 0.000000 0.000000 0.000000 0.066541 0.000000 0.010310
# 5 0.002937 0.002262 -0.001308 0.000000 0.032261 0.000000
# 6 0.000000 0.000000 0.000000 0.010310 0.000000 0.042263
#
#
# Mechanical properties :
#
#
# Convention : Reuss Voigt Hill
#
# Bulk Modulus (GPa) = 23.23643 58.95726 41.09685
# Shear Modulus (GPa) = 17.24998 23.52906 20.38952
#
# Velocity S-wave (km/s) = 3.09642 3.61633 3.36642
# Velocity P-wave (km/s) = 5.06941 7.08565 6.16057
#
# Compressibility (1/GPa) = 0.04303587
#
# Stress axis : x y z
#
# Youngs Moduli (GPa) = 64.31521 18.66990 50.94337
#
# Poissons Ratio (x) = 0.11253 0.57470
# Poissons Ratio (y) = 0.38766 0.28240
# Poissons Ratio (z) = 0.72555 0.10350
#
# Static dielectric constant tensor:
#      x y z
#    x 3.402830 0.000000 -0.105230 
#    y 0.000000 2.922670 0.000000 
#    z -0.105230 0.000000 3.581260 
# 
# 
# High freq. dielectric constant tensor:
#      x y z
#    x 1.699220 0.000000 -0.008700 
#    y 0.000000 1.653320 0.000000 
#    z -0.008700 0.000000 1.698570 
# 
# From -- ./inp_files/43828.got.cif
#   From: 2010.06.25/outbox.cif.g09.slc.cpg/sg11_22_cif.got.tgz:43828.got - 2010.06.27 23:14:04.
