data_PCOD8070933
_publ_section_title
;
Structure prediction by ZEFSAII (Michael W. Deem and Ramdas Pophale) SiO2 
 PCOD8070933
Probable space group: P 21/M
;
_chemical_formula_sum "Si O2"
_cell_formula_units_Z 24
_cell_length_a 23.376736
_cell_length_b 9.075505
_cell_length_c 17.218971
_cell_angle_alpha 90.000000
_cell_angle_beta 20.619818
_cell_angle_gamma 90.000000
_cell_volume 1286.496332
_symmetry_space_group_name_H-M "P 21/M"
_symmetry_group_IT_number 11
_symmetry_cell_setting 'monoclinic'
loop_
_space_group_symop_operation_xyz
x,y,z
-x,1/2+y,-z
-x,-y,-z
x,1/2-y,z
loop_
_atom_site_type_symbol
_atom_site_label
_atom_site_fract_x
_atom_site_fract_y
_atom_site_fract_z
Si Si1 0.550796 0.413168 0.049888
Si Si2 0.748461 0.586053 0.686966
Si Si3 0.063996 0.920716 0.674777
Si Si4 0.699643 0.574975 0.509362
Si Si5 0.717174 0.917879 0.179209
Si Si6 0.632024 0.421286 0.437476
O O1 0.624710 0.250000 0.965250
O O2 0.406964 0.410168 0.170421
O O3 0.471613 0.467890 0.231496
O O4 0.695860 0.519225 0.837274
O O5 0.816715 0.750000 0.614337
O O6 0.887779 0.488022 0.469948
O O7 0.115088 0.750000 0.611604
O O8 0.151005 0.003197 0.634870
O O9 0.871730 0.943074 0.928110
O O10 0.724350 0.750000 0.478531
O O11 0.700527 0.513933 0.421797
O O12 0.708940 0.750000 0.220577
O O13 0.559188 0.954196 0.328584
O O14 0.727322 0.025805 0.239901
O O15 0.668687 0.250000 0.404765
#
# Coordination Sequence:
#
# PCOD8070933 Si02
#       6
#     4   4   4   4   4   4
#     4   8  15  27  43  65  95 130 162 194 237 286
#     4   9  16  26  43  69  99 128 160 199 241 287
#     4  10  19  32  51  74 101 131 163 202 245 288
#     4  10  20  33  50  75 104 130 162 204 245 288
#     4   9  20  37  54  73  97 128 166 203 242 293
#     4  10  20  35  55  75  96 127 165 203 246 295
#
# _framework density 18.65532
#
# number of rings (size 3 to 8) (size 9 to 14) (size 15 to 20)
#    0.000    2.667    0.000    3.000    0.000    7.333 
#    0.000    0.000    0.000    1.000    0.000    0.000 
#    0.000    0.000    0.000    0.000    0.000    0.000 
#
# Total GULP energy -297579.316810 kJ/mol
# GULP energy per Si atom -12399.138200 kJ/mol
# Density = 1.861286 g / cm^3
# Si number density = 18.655320 Si / 1000 Ang^3
#
#
#
# Elastic Constant Matrix: (Units=GPa)
#
#
# Indices 1 2 3 4 5 6 
#
# 1 8.4306 7.2287 0.6818 0.0000 1.2222 0.0000
# 2 7.2287 100.0974 36.8696 0.0000 4.4545 0.0000
# 3 0.6818 36.8696 83.7089 0.0000 9.4282 0.0000
# 4 0.0000 0.0000 0.0000 29.8860 0.0000 9.2024
# 5 1.2222 4.4545 9.4282 0.0000 14.3766 0.0000
# 6 0.0000 0.0000 0.0000 9.2024 0.0000 22.7519
#
#
#
# Elastic Compliance Matrix: (Units=1/GPa)
#
#
# Indices 1 2 3 4 5 6 
#
# 1 0.128895 -0.010610 0.004845 0.000000 -0.010848 0.000000
# 2 -0.010610 0.012799 -0.005621 0.000000 0.000623 0.000000
# 3 0.004845 -0.005621 0.015368 0.000000 -0.008749 0.000000
# 4 0.000000 0.000000 0.000000 0.038221 0.000000 -0.015459
# 5 -0.010848 0.000623 -0.008749 0.000000 0.076024 0.000000
# 6 0.000000 0.000000 0.000000 -0.015459 0.000000 0.050205
#
#
# Mechanical properties :
#
#
# Convention : Reuss Voigt Hill
#
# Bulk Modulus (GPa) = 7.44660 31.31078 19.37869
# Shear Modulus (GPa) = 12.85192 23.23334 18.04263
#
# Velocity S-wave (km/s) = 2.62757 3.53285 3.11329
# Velocity P-wave (km/s) = 3.63398 5.78461 4.83050
#
# Compressibility (1/GPa) = 0.13428943
#
# Stress axis : x y z
#
# Youngs Moduli (GPa) = 7.75828 78.12940 65.07073
#
# Poissons Ratio (x) = 0.82898 -0.31529
# Poissons Ratio (y) = 0.08232 0.36577
# Poissons Ratio (z) = -0.03759 0.43918
#
# Static dielectric constant tensor:
#      x y z
#    x 3.111910 0.000000 0.278270 
#    y 0.000000 3.620290 0.000000 
#    z 0.278270 0.000000 3.429260 
# 
# 
# High freq. dielectric constant tensor:
#      x y z
#    x 1.688210 0.000000 0.026470 
#    y 0.000000 1.737430 0.000000 
#    z 0.026470 0.000000 1.717960 
# 
# From -- ./inp_files/44437.got.cif
#   From: 2010.06.25/outbox.cif.g09.slc.cpg/sg11_23_cif.got.tgz:44437.got - 2010.06.27 23:14:04.
