data_PCOD8070324
_publ_section_title
;
Structure prediction by ZEFSAII (Michael W. Deem and Ramdas Pophale) SiO2 
 PCOD8070324
Probable space group: P 21/M
;
_chemical_formula_sum "Si O2"
_cell_formula_units_Z 24
_cell_length_a 9.519375
_cell_length_b 15.304559
_cell_length_c 11.198826
_cell_angle_alpha 90.000000
_cell_angle_beta 122.885280
_cell_angle_gamma 90.000000
_cell_volume 1370.113730
_symmetry_space_group_name_H-M "P 21/M"
_symmetry_group_IT_number 11
_symmetry_cell_setting 'monoclinic'
loop_
_space_group_symop_operation_xyz
x,y,z
-x,1/2+y,-z
-x,-y,-z
x,1/2-y,z
loop_
_atom_site_type_symbol
_atom_site_label
_atom_site_fract_x
_atom_site_fract_y
_atom_site_fract_z
Si Si1 0.352971 0.750000 0.670968
Si Si2 0.184891 0.400946 0.584534
Si Si3 0.846036 0.411590 0.318087
Si Si4 0.718620 0.250000 0.624831
Si Si5 0.453199 0.846383 0.262270
Si Si6 0.418335 0.250000 0.014099
Si Si7 0.602649 0.416971 0.004950
Si Si8 0.899099 0.750000 0.270959
O O1 0.246399 0.835169 0.653734
O O2 0.387578 0.750000 0.546070
O O3 0.531150 0.750000 0.822195
O O4 0.201284 0.498064 0.641920
O O5 0.363090 0.376651 0.610255
O O6 0.132906 0.336688 0.667287
O O7 0.045645 0.395935 0.415506
O O8 0.784314 0.413129 0.151979
O O9 0.666384 0.337177 0.676410
O O10 0.914031 0.250000 0.691448
O O11 0.472025 0.750000 0.210981
O O12 0.374702 0.913602 0.128687
O O13 0.491291 0.335013 0.986354
O O14 0.218974 0.250000 0.901062
O O15 0.500000 0.500000 0.000000
#
# Coordination Sequence:
#
# PCOD8070324 Si02
#       8
#     2   4   4   2   4   2   4   2
#     4  10  20  36  49  83 112 148 172 229 275 323
#     4  11  18  34  56  87 106 138 189 228 267 315
#     4  10  21  29  58  88 109 131 189 236 271 302
#     4  10  22  36  56  74 115 153 178 210 278 340
#     4  10  20  36  55  80 106 149 181 216 273 327
#     4  10  19  30  55  81 104 133 195 218 269 315
#     4  11  17  33  56  84 108 137 174 238 268 309
#     4  12  17  36  58  80 109 150 177 231 270 324
#
# _framework density 17.516794000000001
#
# number of rings (size 3 to 8) (size 9 to 14) (size 15 to 20)
#    0.500    1.000    6.667    0.000    0.000    0.000 
#    0.000    2.500    0.000    4.000    0.000    0.000 
#    0.000    0.000    0.000    0.000    0.000    0.000 
#
# Total GULP energy -297420.979324 kJ/mol
# GULP energy per Si atom -12392.540805 kJ/mol
# Density = 1.747692 g / cm^3
# Si number density = 17.516794 Si / 1000 Ang^3
#
#
#
# Elastic Constant Matrix: (Units=GPa)
#
#
# Indices 1 2 3 4 5 6 
#
# 1 85.8317 26.6023 57.6937 0.0000 11.2753 0.0000
# 2 26.6023 109.5135 25.7843 0.0000 -0.9021 0.0000
# 3 57.6937 25.7843 149.5787 0.0000 15.6831 0.0000
# 4 0.0000 0.0000 0.0000 22.7476 0.0000 4.4170
# 5 11.2753 -0.9021 15.6831 0.0000 30.7499 0.0000
# 6 0.0000 0.0000 0.0000 4.4170 0.0000 20.6595
#
#
#
# Elastic Compliance Matrix: (Units=1/GPa)
#
#
# Indices 1 2 3 4 5 6 
#
# 1 0.016728 -0.002767 -0.005624 0.000000 -0.003347 0.000000
# 2 -0.002767 0.010016 -0.000842 0.000000 0.001738 0.000000
# 3 -0.005624 -0.000842 0.009283 0.000000 -0.002697 0.000000
# 4 0.000000 0.000000 0.000000 0.045865 0.000000 -0.009806
# 5 -0.003347 0.001738 -0.002697 0.000000 0.035174 0.000000
# 6 0.000000 0.000000 0.000000 -0.009806 0.000000 0.050500
#
#
# Mechanical properties :
#
#
# Convention : Reuss Voigt Hill
#
# Bulk Modulus (GPa) = 56.94353 62.78715 59.86534
# Shear Modulus (GPa) = 26.05721 30.48763 28.27242
#
# Velocity S-wave (km/s) = 3.86107 4.17643 4.02184
# Velocity P-wave (km/s) = 7.24263 7.69276 7.47109
#
# Compressibility (1/GPa) = 0.01756126
#
# Stress axis : x y z
#
# Youngs Moduli (GPa) = 59.77828 99.84175 107.72781
#
# Poissons Ratio (x) = 0.27625 0.60591
# Poissons Ratio (y) = 0.16540 0.09065
# Poissons Ratio (z) = 0.33622 0.08402
#
# Static dielectric constant tensor:
#      x y z
#    x 2.867230 0.000000 0.240140 
#    y 0.000000 3.428270 0.000000 
#    z 0.240140 0.000000 3.744990 
# 
# 
# High freq. dielectric constant tensor:
#      x y z
#    x 1.627800 0.000000 0.022440 
#    y 0.000000 1.688690 0.000000 
#    z 0.022440 0.000000 1.695270 
# 
# From -- ./inp_files/35332.got.cif
#   From: 2010.06.25/outbox.cif.g09.slc.cpg/sg11_18_cif.got.tgz:35332.got - 2010.06.27 23:14:04.
