data_PCOD8070900
_publ_section_title
;
Structure prediction by ZEFSAII (Michael W. Deem and Ramdas Pophale) SiO2 
 PCOD8070900
Probable space group: P 21/M
;
_chemical_formula_sum "Si O2"
_cell_formula_units_Z 32
_cell_length_a 26.396705
_cell_length_b 8.682631
_cell_length_c 12.304200
_cell_angle_alpha 90.000000
_cell_angle_beta 139.781867
_cell_angle_gamma 90.000000
_cell_volume 1820.894633
_symmetry_space_group_name_H-M "P 21/M"
_symmetry_group_IT_number 11
_symmetry_cell_setting 'monoclinic'
loop_
_space_group_symop_operation_xyz
x,y,z
-x,1/2+y,-z
-x,-y,-z
x,1/2-y,z
loop_
_atom_site_type_symbol
_atom_site_label
_atom_site_fract_x
_atom_site_fract_y
_atom_site_fract_z
Si Si1 0.185202 0.431471 0.773851
Si Si2 0.658927 0.429359 0.901957
Si Si3 0.077702 0.568023 0.420762
Si Si4 0.088027 0.930874 0.810994
Si Si5 0.176865 0.075023 0.149969
Si Si6 0.073302 0.427562 0.180600
Si Si7 0.496702 0.429245 0.376685
Si Si8 0.330641 0.926272 0.335904
O O1 0.174488 0.250000 0.755936
O O2 0.149881 0.501381 0.606559
O O3 0.143941 0.500998 0.811519
O O4 0.276587 0.476004 0.925731
O O5 0.668987 0.250000 0.942898
O O6 0.572849 0.485025 0.802901
O O7 0.667885 0.467416 0.789160
O O8 0.075823 0.750000 0.427069
O O9 0.090088 0.520071 0.317110
O O10 0.997636 0.503250 0.340065
O O11 0.081285 0.750000 0.782664
O O12 0.124735 0.965376 0.988678
O O13 0.164298 0.250000 0.089499
O O14 0.149476 0.055972 0.229175
O O15 0.268485 0.033272 0.295273
O O16 0.055070 0.250000 0.178887
O O17 0.000000 0.500000 0.000000
O O18 0.500000 0.500000 0.500000
O O19 0.476369 0.250000 0.351664
O O20 0.583748 0.454142 0.468574
O O21 0.304473 0.750000 0.307557
#
# Coordination Sequence:
#
# PCOD8070900 Si02
#       8
#     4   4   4   4   4   4   4   4
#     4  12  24  38  56  79 109 144 182 222 269 322
#     4  10  19  32  50  76 108 143 178 216 264 319
#     4  12  25  41  58  78 105 140 185 228 272 321
#     4  12  23  37  56  78 109 143 180 222 269 321
#     4  11  22  34  54  81 108 141 182 222 269 320
#     4  11  23  39  58  80 106 139 182 228 273 321
#     4   9  17  29  46  71 104 142 179 216 260 317
#     4   9  18  31  49  74 108 142 178 218 264 315
#
# _framework density 17.573779999999999
#
# number of rings (size 3 to 8) (size 9 to 14) (size 15 to 20)
#    0.000    1.250    2.500    6.000    0.000    4.000 
#    0.000    0.000    0.000    0.000    0.000    0.875 
#    0.000    0.000    0.000    0.000    0.000    0.000 
#
# Total GULP energy -396865.434934 kJ/mol
# GULP energy per Si atom -12402.044842 kJ/mol
# Density = 1.753378 g / cm^3
# Si number density = 17.573780 Si / 1000 Ang^3
#
#
#
# Elastic Constant Matrix: (Units=GPa)
#
#
# Indices 1 2 3 4 5 6 
#
# 1 48.4493 32.4647 40.1823 0.0000 14.0813 0.0000
# 2 32.4647 135.6362 47.5348 0.0000 8.5376 0.0000
# 3 40.1823 47.5348 113.5759 0.0000 16.2975 0.0000
# 4 0.0000 0.0000 0.0000 32.1459 0.0000 5.3412
# 5 14.0813 8.5376 16.2975 0.0000 28.5421 0.0000
# 6 0.0000 0.0000 0.0000 5.3412 0.0000 26.3894
#
#
#
# Elastic Compliance Matrix: (Units=1/GPa)
#
#
# Indices 1 2 3 4 5 6 
#
# 1 0.033759 -0.004409 -0.008602 0.000000 -0.010424 0.000000
# 2 -0.004409 0.009224 -0.002415 0.000000 0.000795 0.000000
# 3 -0.008602 -0.002415 0.013230 0.000000 -0.002588 0.000000
# 4 0.000000 0.000000 0.000000 0.032191 0.000000 -0.006515
# 5 -0.010424 0.000795 -0.002588 0.000000 0.041419 0.000000
# 6 0.000000 0.000000 0.000000 -0.006515 0.000000 0.039213
#
#
# Mechanical properties :
#
#
# Convention : Reuss Voigt Hill
#
# Bulk Modulus (GPa) = 39.43143 59.78056 49.60599
# Shear Modulus (GPa) = 23.99900 29.24745 26.62323
#
# Velocity S-wave (km/s) = 3.69943 4.08397 3.89645
# Velocity P-wave (km/s) = 6.38233 7.50527 6.96646
#
# Compressibility (1/GPa) = 0.02536048
#
# Stress axis : x y z
#
# Youngs Moduli (GPa) = 29.62178 108.40991 75.58486
#
# Poissons Ratio (x) = 0.47801 0.65021
# Poissons Ratio (y) = 0.13061 0.18252
# Poissons Ratio (z) = 0.25482 0.26178
#
# Static dielectric constant tensor:
#      x y z
#    x 3.303270 0.000000 0.307730 
#    y 0.000000 3.624530 0.000000 
#    z 0.307730 0.000000 3.442810 
# 
# 
# High freq. dielectric constant tensor:
#      x y z
#    x 1.656030 0.000000 0.026830 
#    y 0.000000 1.700560 0.000000 
#    z 0.026830 0.000000 1.669310 
# 
# From -- ./inp_files/44537.got.cif
#   From: 2010.06.25/outbox.cif.g09.slc.cpg/sg11_23_cif.got.tgz:44537.got - 2010.06.27 23:14:04.
