data_PCOD8070789
_publ_section_title
;
Structure prediction by ZEFSAII (Michael W. Deem and Ramdas Pophale) SiO2 
 PCOD8070789
Probable space group: P 21/M
;
_chemical_formula_sum "Si O2"
_cell_formula_units_Z 32
_cell_length_a 23.649036
_cell_length_b 9.312109
_cell_length_c 17.473324
_cell_angle_alpha 90.000000
_cell_angle_beta 149.381620
_cell_angle_gamma 90.000000
_cell_volume 1959.862616
_symmetry_space_group_name_H-M "P 21/M"
_symmetry_group_IT_number 11
_symmetry_cell_setting 'monoclinic'
loop_
_space_group_symop_operation_xyz
x,y,z
-x,1/2+y,-z
-x,-y,-z
x,1/2-y,z
loop_
_atom_site_type_symbol
_atom_site_label
_atom_site_fract_x
_atom_site_fract_y
_atom_site_fract_z
Si Si1 0.297269 0.416814 0.101092
Si Si2 0.870148 0.581447 0.963880
Si Si3 0.067603 0.082782 0.410289
Si Si4 0.084326 0.085069 0.256974
Si Si5 0.477841 0.580944 0.552902
Si Si6 0.183988 0.913328 0.845309
Si Si7 0.263637 0.415444 0.342170
Si Si8 0.106789 0.583257 0.595509
O O1 0.278227 0.250000 0.066294
O O2 0.211024 0.475601 0.063984
O O3 0.421390 0.450484 0.272381
O O4 0.276072 0.492682 0.995326
O O5 0.889452 0.750000 0.993217
O O6 0.815992 0.540169 0.820139
O O7 0.988581 0.506849 0.106458
O O8 0.086326 0.250000 0.450061
O O9 0.105360 0.039756 0.369191
O O10 0.938870 0.039684 0.270611
O O11 0.143262 0.990492 0.557902
O O12 0.045898 0.250000 0.207875
O O13 0.198931 0.060124 0.345927
O O14 0.500000 0.500000 0.500000
O O15 0.465155 0.750000 0.521600
O O16 0.369018 0.519234 0.466835
O O17 0.204802 0.750000 0.893567
O O18 0.198070 0.932823 0.769600
O O19 0.302229 0.250000 0.377497
O O20 0.078314 0.750000 0.548702
O O21 0.000000 0.500000 0.500000
#
# Coordination Sequence:
#
# PCOD8070789 Si02
#       8
#     4   4   4   4   4   4   4   4
#     4  10  20  32  48  71  97 127 161 202 246 286
#     4  10  19  32  48  70 101 130 164 204 243 291
#     4   9  17  29  44  68  98 129 161 191 233 288
#     4  10  20  33  50  72 101 133 167 203 239 289
#     4  11  22  37  54  72  96 126 166 210 250 293
#     4   9  17  29  45  68  97 125 160 196 234 291
#     4  10  21  37  52  70  98 131 168 209 247 285
#     4   9  17  28  43  66  95 127 159 193 233 284
#
# _framework density 16.327674999999999
#
# number of rings (size 3 to 8) (size 9 to 14) (size 15 to 20)
#    0.000    2.250    2.500    1.875    0.000    5.000 
#    0.000    0.000    0.000    0.000    0.000    0.875 
#    0.000    0.000    0.000    0.000    0.000    0.000 
#
# Total GULP energy -396774.879604 kJ/mol
# GULP energy per Si atom -12399.214988 kJ/mol
# Density = 1.629051 g / cm^3
# Si number density = 16.327675 Si / 1000 Ang^3
#
#
#
# Elastic Constant Matrix: (Units=GPa)
#
#
# Indices 1 2 3 4 5 6 
#
# 1 87.9676 41.7204 58.8757 0.0000 -14.7924 0.0000
# 2 41.7204 72.9527 57.5256 0.0000 -9.8315 0.0000
# 3 58.8757 57.5256 88.6323 0.0000 -15.6210 0.0000
# 4 0.0000 0.0000 0.0000 31.6695 0.0000 -3.0985
# 5 -14.7924 -9.8315 -15.6210 0.0000 28.3082 0.0000
# 6 0.0000 0.0000 0.0000 -3.0985 0.0000 24.2879
#
#
#
# Elastic Compliance Matrix: (Units=1/GPa)
#
#
# Indices 1 2 3 4 5 6 
#
# 1 0.020947 -0.002094 -0.011913 0.000000 0.003645 0.000000
# 2 -0.002094 0.028289 -0.017093 0.000000 -0.000702 0.000000
# 3 -0.011913 -0.017093 0.031179 0.000000 0.005044 0.000000
# 4 0.000000 0.000000 0.000000 0.031975 0.000000 0.004079
# 5 0.003645 -0.000702 0.005044 0.000000 0.039769 0.000000
# 6 0.000000 0.000000 0.000000 0.004079 0.000000 0.041693
#
#
# Mechanical properties :
#
#
# Convention : Reuss Voigt Hill
#
# Bulk Modulus (GPa) = 54.90158 62.86623 58.88390
# Shear Modulus (GPa) = 19.07483 22.94850 21.01166
#
# Velocity S-wave (km/s) = 3.42168 3.75306 3.59119
# Velocity P-wave (km/s) = 7.02199 7.57411 7.30327
#
# Compressibility (1/GPa) = 0.01821441
#
# Stress axis : x y z
#
# Youngs Moduli (GPa) = 47.73916 35.34909 32.07300
#
# Poissons Ratio (x) = 0.07404 0.38208
# Poissons Ratio (y) = 0.09999 0.54823
# Poissons Ratio (z) = 0.56871 0.60423
#
# Static dielectric constant tensor:
#      x y z
#    x 3.217690 0.000000 -0.299150 
#    y 0.000000 3.154880 0.000000 
#    z -0.299150 0.000000 3.032230 
# 
# 
# High freq. dielectric constant tensor:
#      x y z
#    x 1.614710 0.000000 -0.025360 
#    y 0.000000 1.633430 0.000000 
#    z -0.025360 0.000000 1.608460 
# 
# From -- ./inp_files/61803.got.cif
#   From: 2010.06.25/outbox.cif.g09.slc.cpg/sg11_31_cif.got.tgz:61803.got - 2010.06.27 23:14:04.
