data_PCOD8070221
_publ_section_title
;
Structure prediction by ZEFSAII (Michael W. Deem and Ramdas Pophale) SiO2 
 PCOD8070221
Probable space group: P 21/M
;
_chemical_formula_sum "Si O2"
_cell_formula_units_Z 32
_cell_length_a 11.636772
_cell_length_b 9.312125
_cell_length_c 22.540408
_cell_angle_alpha 90.000000
_cell_angle_beta 47.666442
_cell_angle_gamma 90.000000
_cell_volume 1805.621284
_symmetry_space_group_name_H-M "P 21/M"
_symmetry_group_IT_number 11
_symmetry_cell_setting 'monoclinic'
loop_
_space_group_symop_operation_xyz
x,y,z
-x,1/2+y,-z
-x,-y,-z
x,1/2-y,z
loop_
_atom_site_type_symbol
_atom_site_label
_atom_site_fract_x
_atom_site_fract_y
_atom_site_fract_z
Si Si1 0.142413 0.080983 0.276551
Si Si2 0.769123 0.081590 0.103296
Si Si3 0.395638 0.080723 0.398872
Si Si4 0.285697 0.583940 0.650868
Si Si5 0.430309 0.420543 0.253311
Si Si6 0.972902 0.414235 0.923465
Si Si7 0.186062 0.586788 0.555985
Si Si8 0.983864 0.083218 0.786092
O O1 0.150475 0.250000 0.259614
O O2 0.292843 0.022879 0.258921
O O3 0.991954 0.045368 0.368572
O O4 0.133197 0.997136 0.217606
O O5 0.773358 0.250000 0.114597
O O6 0.593927 0.022424 0.170700
O O7 0.830539 0.042330 0.016181
O O8 0.876235 0.009464 0.115837
O O9 0.372950 0.250000 0.408236
O O10 0.550674 0.033758 0.379572
O O11 0.405406 0.021343 0.328529
O O12 0.246293 0.012492 0.482216
O O13 0.248840 0.750000 0.679374
O O14 0.289560 0.562162 0.578762
O O15 0.154793 0.484871 0.725251
O O16 0.427459 0.250000 0.255311
O O17 0.021521 0.250000 0.917944
O O18 0.916591 0.437433 0.875739
O O19 0.198071 0.750000 0.530030
O O20 0.995330 0.250000 0.764447
#
# Coordination Sequence:
#
# PCOD8070221 Si02
#       8
#     4   4   4   4   4   4   4   4
#     4   9  19  36  52  66  91 127 166 203 235 274
#     4   9  17  32  54  75  98 130 161 188 228 285
#     4  10  19  30  48  73  96 121 158 200 239 284
#     4   9  18  32  49  71  99 127 157 194 235 284
#     4   9  18  33  52  71  92 124 166 204 233 271
#     4   9  18  31  49  77 107 127 149 191 241 283
#     4   9  18  31  46  66  94 127 159 196 241 282
#     4  10  19  31  49  73  99 126 158 196 239 283
#
# _framework density 17.722432000000001
#
# number of rings (size 3 to 8) (size 9 to 14) (size 15 to 20)
#    0.000    2.750    0.000    2.250    0.000    5.000 
#    0.000    2.500    0.000    0.000    0.000    0.000 
#    0.000    0.000    0.000    0.000    0.000    0.000 
#
# Total GULP energy -396814.987792 kJ/mol
# GULP energy per Si atom -12400.468369 kJ/mol
# Density = 1.768210 g / cm^3
# Si number density = 17.722432 Si / 1000 Ang^3
#
#
#
# Elastic Constant Matrix: (Units=GPa)
#
#
# Indices 1 2 3 4 5 6 
#
# 1 136.5970 40.2437 77.4212 0.0000 -4.9833 0.0000
# 2 40.2437 47.4998 42.0391 0.0000 2.6156 0.0000
# 3 77.4212 42.0391 117.4113 0.0000 6.2299 0.0000
# 4 0.0000 0.0000 0.0000 25.6305 0.0000 2.2547
# 5 -4.9833 2.6156 6.2299 0.0000 18.0611 0.0000
# 6 0.0000 0.0000 0.0000 2.2547 0.0000 18.8499
#
#
#
# Elastic Compliance Matrix: (Units=1/GPa)
#
#
# Indices 1 2 3 4 5 6 
#
# 1 0.013176 -0.005167 -0.007203 0.000000 0.006868 0.000000
# 2 -0.005167 0.032853 -0.008178 0.000000 -0.003363 0.000000
# 3 -0.007203 -0.008178 0.016540 0.000000 -0.006508 0.000000
# 4 0.000000 0.000000 0.000000 0.039431 0.000000 -0.004716
# 5 0.006868 -0.003363 -0.006508 0.000000 0.059995 0.000000
# 6 0.000000 0.000000 0.000000 -0.004716 0.000000 0.053615
#
#
# Mechanical properties :
#
#
# Convention : Reuss Voigt Hill
#
# Bulk Modulus (GPa) = 46.56667 68.99066 57.77867
# Shear Modulus (GPa) = 18.94936 21.96190 20.45563
#
# Velocity S-wave (km/s) = 3.27346 3.52407 3.40107
# Velocity P-wave (km/s) = 6.37338 7.45464 6.93511
#
# Compressibility (1/GPa) = 0.02147459
#
# Stress axis : x y z
#
# Youngs Moduli (GPa) = 75.89567 30.43883 60.45991
#
# Poissons Ratio (x) = 0.15727 0.43548
# Poissons Ratio (y) = 0.39213 0.49442
# Poissons Ratio (z) = 0.54666 0.24892
#
# Static dielectric constant tensor:
#      x y z
#    x 3.337100 0.000000 0.036300 
#    y 0.000000 3.124880 0.000000 
#    z 0.036300 0.000000 3.313690 
# 
# 
# High freq. dielectric constant tensor:
#      x y z
#    x 1.678380 0.000000 0.006240 
#    y 0.000000 1.669510 0.000000 
#    z 0.006240 0.000000 1.686040 
# 
# From -- ./inp_files/64348.got.cif
#   From: 2010.06.25/outbox.cif.g09.slc.cpg/sg11_33_cif.got.tgz:64348.got - 2010.06.27 23:14:04.
