data_PCOD8070536
_publ_section_title
;
Structure prediction by ZEFSAII (Michael W. Deem and Ramdas Pophale) SiO2 
 PCOD8070536
Probable space group: P 21/M
;
_chemical_formula_sum "Si O2"
_cell_formula_units_Z 24
_cell_length_a 23.593324
_cell_length_b 8.926850
_cell_length_c 13.604370
_cell_angle_alpha 90.000000
_cell_angle_beta 30.002472
_cell_angle_gamma 90.000000
_cell_volume 1432.742887
_symmetry_space_group_name_H-M "P 21/M"
_symmetry_group_IT_number 11
_symmetry_cell_setting 'monoclinic'
loop_
_space_group_symop_operation_xyz
x,y,z
-x,1/2+y,-z
-x,-y,-z
x,1/2-y,z
loop_
_atom_site_type_symbol
_atom_site_label
_atom_site_fract_x
_atom_site_fract_y
_atom_site_fract_z
Si Si1 0.170520 0.573746 0.712704
Si Si2 0.608713 0.923712 0.948253
Si Si3 0.053424 0.575756 0.270997
Si Si4 0.622119 0.924266 0.702316
Si Si5 0.053745 0.426247 0.063014
Si Si6 0.834331 0.923691 0.722633
O O1 0.176324 0.750000 0.718388
O O2 0.289068 0.516021 0.494544
O O3 0.071321 0.526769 0.786038
O O4 0.148238 0.500070 0.851786
O O5 0.575193 0.750000 0.008043
O O6 0.643456 0.961158 0.784476
O O7 0.713034 0.966859 0.860913
O O8 0.503260 0.023834 0.140739
O O9 0.069352 0.750000 0.224603
O O10 0.147182 0.523918 0.208904
O O11 0.072659 0.483835 0.143771
O O12 0.928575 0.538982 0.499324
O O13 0.636596 0.750000 0.657490
O O14 0.071069 0.250000 0.034068
O O15 0.841547 0.750000 0.741781
#
# Coordination Sequence:
#
# PCOD8070536 Si02
#       6
#     4   4   4   4   4   4
#     4  10  20  33  50  72  98 128 161 197 238 285
#     4   9  18  32  49  70  98 131 164 198 237 282
#     4  10  19  31  49  73 100 128 160 199 241 285
#     4  10  19  31  49  73 100 128 160 199 241 285
#     4  10  20  33  50  72  98 128 161 197 238 285
#     4   9  18  32  49  70  98 131 164 198 237 282
#
# _framework density 16.751086999999998
#
# number of rings (size 3 to 8) (size 9 to 14) (size 15 to 20)
#    0.000    2.333    0.000    3.000    0.000    5.333 
#    0.000    0.000    0.000    1.000    0.000    0.000 
#    0.000    0.000    0.000    0.000    0.000    0.000 
#
# Total GULP energy -297699.129765 kJ/mol
# GULP energy per Si atom -12404.130407 kJ/mol
# Density = 1.671296 g / cm^3
# Si number density = 16.751087 Si / 1000 Ang^3
#
#
#
# Elastic Constant Matrix: (Units=GPa)
#
#
# Indices 1 2 3 4 5 6 
#
# 1 89.6552 37.2572 53.1822 0.0000 -0.9952 0.0000
# 2 37.2572 69.9690 45.4792 0.0000 4.1389 0.0000
# 3 53.1822 45.4792 100.8706 0.0000 6.6154 0.0000
# 4 0.0000 0.0000 0.0000 31.4576 0.0000 1.1741
# 5 -0.9952 4.1389 6.6154 0.0000 21.2130 0.0000
# 6 0.0000 0.0000 0.0000 1.1741 0.0000 29.1773
#
#
#
# Elastic Compliance Matrix: (Units=1/GPa)
#
#
# Indices 1 2 3 4 5 6 
#
# 1 0.017561 -0.004809 -0.007357 0.000000 0.004056 0.000000
# 2 -0.004809 0.021560 -0.007038 0.000000 -0.002237 0.000000
# 3 -0.007357 -0.007038 0.017251 0.000000 -0.004352 0.000000
# 4 0.000000 0.000000 0.000000 0.031837 0.000000 -0.001281
# 5 0.004056 -0.002237 -0.004352 0.000000 0.049125 0.000000
# 6 0.000000 0.000000 0.000000 -0.001281 0.000000 0.034325
#
#
# Mechanical properties :
#
#
# Convention : Reuss Voigt Hill
#
# Bulk Modulus (GPa) = 55.66697 59.14802 57.40750
# Shear Modulus (GPa) = 23.14225 24.67467 23.90846
#
# Velocity S-wave (km/s) = 3.72094 3.84216 3.78203
# Velocity P-wave (km/s) = 7.19475 7.42088 7.30869
#
# Compressibility (1/GPa) = 0.01796397
#
# Stress axis : x y z
#
# Youngs Moduli (GPa) = 56.94367 46.38190 57.96742
#
# Poissons Ratio (x) = 0.22306 0.42644
# Poissons Ratio (y) = 0.27386 0.40800
# Poissons Ratio (z) = 0.41891 0.32645
#
# Static dielectric constant tensor:
#      x y z
#    x 3.092650 0.000000 -0.025980 
#    y 0.000000 3.201490 0.000000 
#    z -0.025980 0.000000 3.042850 
# 
# 
# High freq. dielectric constant tensor:
#      x y z
#    x 1.635400 0.000000 0.000400 
#    y 0.000000 1.658000 0.000000 
#    z 0.000400 0.000000 1.636220 
# 
# From -- ./inp_files/42655.got.cif
#   From: 2010.06.25/outbox.cif.g09.slc.cpg/sg11_22_cif.got.tgz:42655.got - 2010.06.27 23:14:04.
