data_PCOD8070932
_publ_section_title
;
Structure prediction by ZEFSAII (Michael W. Deem and Ramdas Pophale) SiO2 
 PCOD8070932
Probable space group: P 21/M
;
_chemical_formula_sum "Si O2"
_cell_formula_units_Z 20
_cell_length_a 15.715544
_cell_length_b 8.909042
_cell_length_c 23.034788
_cell_angle_alpha 90.000000
_cell_angle_beta 20.091153
_cell_angle_gamma 90.000000
_cell_volume 1107.872936
_symmetry_space_group_name_H-M "P 21/M"
_symmetry_group_IT_number 11
_symmetry_cell_setting 'monoclinic'
loop_
_space_group_symop_operation_xyz
x,y,z
-x,1/2+y,-z
-x,-y,-z
x,1/2-y,z
loop_
_atom_site_type_symbol
_atom_site_label
_atom_site_fract_x
_atom_site_fract_y
_atom_site_fract_z
Si Si1 0.904781 0.574539 0.119105
Si Si2 0.879106 0.574604 0.754954
Si Si3 0.413183 0.924682 0.380085
Si Si4 0.552957 0.075854 0.056540
Si Si5 0.331252 0.428023 0.900869
O O1 0.966684 0.750000 0.079650
O O2 0.606912 0.547356 0.309209
O O3 0.000000 0.500000 0.000000
O O4 0.049609 0.495055 0.079430
O O5 0.889486 0.750000 0.764633
O O6 0.783658 0.485558 0.871959
O O7 0.147947 0.505404 0.566825
O O8 0.702302 0.545863 0.813468
O O9 0.371280 0.750000 0.396525
O O10 0.516793 0.989174 0.252574
O O11 0.596830 0.250000 0.041050
O O12 0.530037 0.986967 0.131287
O O13 0.312625 0.250000 0.913965
#
# Coordination Sequence:
#
# PCOD8070932 Si02
#       5
#     4   4   4   4   4
#     4   9  16  29  49  73 101 129 159 196 241 290
#     4   9  18  35  54  70  95 130 163 198 244 292
#     4   8  16  31  52  75  97 125 161 200 240 286
#     4  10  20  33  50  73  99 128 163 201 242 290
#     4  10  19  32  51  74 100 130 164 200 240 286
#
# _framework density 18.052613000000001
#
# number of rings (size 3 to 8) (size 9 to 14) (size 15 to 20)
#    0.000    2.800    0.000    3.000    0.000    1.600 
#    0.000    7.000    0.000    0.000    0.000    0.000 
#    0.000    0.000    0.000    0.000    0.000    0.000 
#
# Total GULP energy -247890.606023 kJ/mol
# GULP energy per Si atom -12394.530301 kJ/mol
# Density = 1.801152 g / cm^3
# Si number density = 18.052613 Si / 1000 Ang^3
#
#
#
# Elastic Constant Matrix: (Units=GPa)
#
#
# Indices 1 2 3 4 5 6 
#
# 1 33.4060 16.9981 23.5106 0.0000 -2.9838 0.0000
# 2 16.9981 70.4904 30.9017 0.0000 -3.9112 0.0000
# 3 23.5106 30.9017 126.9357 0.0000 -7.4256 0.0000
# 4 0.0000 0.0000 0.0000 21.3358 0.0000 -2.9758
# 5 -2.9838 -3.9112 -7.4256 0.0000 16.3372 0.0000
# 6 0.0000 0.0000 0.0000 -2.9758 0.0000 34.0428
#
#
#
# Elastic Compliance Matrix: (Units=1/GPa)
#
#
# Indices 1 2 3 4 5 6 
#
# 1 0.037124 -0.006551 -0.005112 0.000000 0.002888 0.000000
# 2 -0.006551 0.017108 -0.002858 0.000000 0.001600 0.000000
# 3 -0.005112 -0.002858 0.009683 0.000000 0.002783 0.000000
# 4 0.000000 0.000000 0.000000 0.047448 0.000000 0.004148
# 5 0.002888 0.001600 0.002783 0.000000 0.063386 0.000000
# 6 0.000000 0.000000 0.000000 0.004148 0.000000 0.029737
#
#
# Mechanical properties :
#
#
# Convention : Reuss Voigt Hill
#
# Bulk Modulus (GPa) = 28.67526 41.51700 35.09613
# Shear Modulus (GPa) = 20.39551 24.97128 22.68339
#
# Velocity S-wave (km/s) = 3.36487 3.72324 3.54858
# Velocity P-wave (km/s) = 5.56913 6.44446 6.02272
#
# Compressibility (1/GPa) = 0.03487327
#
# Stress axis : x y z
#
# Youngs Moduli (GPa) = 26.93688 58.45361 103.26924
#
# Poissons Ratio (x) = 0.38291 0.52794
# Poissons Ratio (y) = 0.17646 0.29512
# Poissons Ratio (z) = 0.13771 0.16705
#
# Static dielectric constant tensor:
#      x y z
#    x 3.324110 0.000000 -0.282420 
#    y 0.000000 3.319330 0.000000 
#    z -0.282420 0.000000 3.677600 
# 
# 
# High freq. dielectric constant tensor:
#      x y z
#    x 1.688970 0.000000 -0.020470 
#    y 0.000000 1.691890 0.000000 
#    z -0.020470 0.000000 1.693000 
# 
# From -- ./inp_files/16030.got.cif
#   From: 2010.06.25/outbox.cif.g09.slc.cpg/sg11_9_cif.got.tgz:16030.got - 2010.06.27 23:14:04.
