data_PCOD8070325
_publ_section_title
;
Structure prediction by ZEFSAII (Michael W. Deem and Ramdas Pophale) SiO2 
 PCOD8070325
Probable space group: P 21/M
;
_chemical_formula_sum "Si O2"
_cell_formula_units_Z 32
_cell_length_a 14.320338
_cell_length_b 9.266562
_cell_length_c 16.264419
_cell_angle_alpha 90.000000
_cell_angle_beta 81.949444
_cell_angle_gamma 90.000000
_cell_volume 2137.023043
_symmetry_space_group_name_H-M "P 21/M"
_symmetry_group_IT_number 11
_symmetry_cell_setting 'monoclinic'
loop_
_space_group_symop_operation_xyz
x,y,z
-x,1/2+y,-z
-x,-y,-z
x,1/2-y,z
loop_
_atom_site_type_symbol
_atom_site_label
_atom_site_fract_x
_atom_site_fract_y
_atom_site_fract_z
Si Si1 0.231895 0.915783 0.318291
Si Si2 0.387532 0.581210 0.172836
Si Si3 0.537135 0.081791 0.074953
Si Si4 0.278028 0.916647 0.027595
Si Si5 0.954031 0.415956 0.757328
Si Si6 0.070015 0.580875 0.050869
Si Si7 0.142342 0.412878 0.466179
Si Si8 0.949911 0.413004 0.388679
O O1 0.224196 0.750000 0.347140
O O2 0.333000 0.948360 0.264517
O O3 0.150941 0.951415 0.261832
O O4 0.222825 0.013608 0.400413
O O5 0.409825 0.750000 0.158255
O O6 0.487051 0.493057 0.160125
O O7 0.324451 0.519704 0.105084
O O8 0.510247 0.250000 0.074586
O O9 0.651380 0.062503 0.059345
O O10 0.500000 0.000000 0.000000
O O11 0.259509 0.750000 0.049767
O O12 0.175366 0.983761 0.021804
O O13 0.978850 0.250000 0.736520
O O14 0.959629 0.453052 0.852305
O O15 0.031746 0.512307 0.701277
O O16 0.064665 0.750000 0.032204
O O17 0.000000 0.500000 0.000000
O O18 0.173239 0.250000 0.482864
O O19 0.131277 0.500492 0.552508
O O20 0.044918 0.416156 0.429376
O O21 0.915046 0.250000 0.378367
#
# Coordination Sequence:
#
# PCOD8070325 Si02
#       8
#     4   4   4   4   4   4   4   4
#     4   9  15  24  39  55  74 104 134 158 189 231
#     4   9  15  25  40  57  77 102 131 160 193 235
#     4   9  16  25  39  56  74  97 127 160 194 235
#     4   8  14  27  42  53  71 101 131 158 197 244
#     4   9  16  27  42  54  69  99 133 163 198 238
#     4  10  19  31  44  58  76 101 134 171 208 243
#     4   9  16  24  34  52  76 100 127 159 191 225
#     4   9  16  25  37  52  72  96 127 163 194 229
#
# _framework density 14.974100999999999
#
# number of rings (size 3 to 8) (size 9 to 14) (size 15 to 20)
#    0.000    3.000    1.250    1.875    0.000    4.000 
#    0.000    3.125    0.000    0.000    0.000    0.000 
#    0.000    0.000    0.000    1.125    0.000   14.500 
#
# Total GULP energy -396580.689915 kJ/mol
# GULP energy per Si atom -12393.146560 kJ/mol
# Density = 1.494002 g / cm^3
# Si number density = 14.974101 Si / 1000 Ang^3
#
#
#
# Elastic Constant Matrix: (Units=GPa)
#
#
# Indices 1 2 3 4 5 6 
#
# 1 66.3306 40.1933 45.3930 0.0000 -22.0000 0.0000
# 2 40.1933 90.2936 53.1731 0.0000 -23.2621 0.0000
# 3 45.3930 53.1731 78.1285 0.0000 -27.8541 0.0000
# 4 0.0000 0.0000 0.0000 26.2181 0.0000 -8.1219
# 5 -22.0000 -23.2621 -27.8541 0.0000 25.0252 0.0000
# 6 0.0000 0.0000 0.0000 -8.1219 0.0000 19.2839
#
#
#
# Elastic Compliance Matrix: (Units=1/GPa)
#
#
# Indices 1 2 3 4 5 6 
#
# 1 0.027314 -0.003947 -0.009832 0.000000 0.009399 0.000000
# 2 -0.003947 0.019482 -0.009527 0.000000 0.004035 0.000000
# 3 -0.009832 -0.009527 0.031097 0.000000 0.017112 0.000000
# 4 0.000000 0.000000 0.000000 0.043865 0.000000 0.018475
# 5 0.009399 0.004035 0.017112 0.000000 0.071021 0.000000
# 6 0.000000 0.000000 0.000000 0.018475 0.000000 0.059638
#
#
# Mechanical properties :
#
#
# Convention : Reuss Voigt Hill
#
# Bulk Modulus (GPa) = 31.96924 56.91907 44.44415
# Shear Modulus (GPa) = 16.15739 20.50499 18.33119
#
# Velocity S-wave (km/s) = 3.28841 3.70451 3.50264
# Velocity P-wave (km/s) = 5.98450 7.50946 6.78993
#
# Compressibility (1/GPa) = 0.03128007
#
# Stress axis : x y z
#
# Youngs Moduli (GPa) = 36.61166 51.32914 32.15736
#
# Poissons Ratio (x) = 0.20258 0.31618
# Poissons Ratio (y) = 0.14450 0.30638
# Poissons Ratio (z) = 0.35997 0.48903
#
# Static dielectric constant tensor:
#      x y z
#    x 2.842100 0.000000 -0.468660 
#    y 0.000000 2.948860 0.000000 
#    z -0.468660 0.000000 2.778460 
# 
# 
# High freq. dielectric constant tensor:
#      x y z
#    x 1.533450 0.000000 -0.048550 
#    y 0.000000 1.572300 0.000000 
#    z -0.048550 0.000000 1.548150 
# 
# From -- ./inp_files/51306.got.cif
#   From: 2010.06.25/outbox.cif.g09.slc.cpg/sg11_26_cif.got.tgz:51306.got - 2010.06.27 23:14:04.
