data_PCOD8070843
_publ_section_title
;
Structure prediction by ZEFSAII (Michael W. Deem and Ramdas Pophale) SiO2 
 PCOD8070843
Probable space group: P 21/M
;
_chemical_formula_sum "Si O2"
_cell_formula_units_Z 32
_cell_length_a 14.902767
_cell_length_b 9.292805
_cell_length_c 15.067231
_cell_angle_alpha 90.000000
_cell_angle_beta 77.566002
_cell_angle_gamma 90.000000
_cell_volume 2037.695582
_symmetry_space_group_name_H-M "P 21/M"
_symmetry_group_IT_number 11
_symmetry_cell_setting 'monoclinic'
loop_
_space_group_symop_operation_xyz
x,y,z
-x,1/2+y,-z
-x,-y,-z
x,1/2-y,z
loop_
_atom_site_type_symbol
_atom_site_label
_atom_site_fract_x
_atom_site_fract_y
_atom_site_fract_z
Si Si1 0.940041 0.582667 0.891159
Si Si2 0.249737 0.417627 0.729261
Si Si3 0.799436 0.082731 0.583324
Si Si4 0.402783 0.914637 0.428638
Si Si5 0.909733 0.916927 0.703634
Si Si6 0.120062 0.918750 0.621152
Si Si7 0.885143 0.914288 0.092220
Si Si8 0.418932 0.916538 0.631372
O O1 0.963520 0.750000 0.881523
O O2 0.890584 0.537439 0.810120
O O3 0.038159 0.507482 0.875985
O O4 0.876200 0.543188 0.989668
O O5 0.262387 0.250000 0.702312
O O6 0.178936 0.487720 0.676161
O O7 0.211481 0.437516 0.837609
O O8 0.347158 0.497558 0.707250
O O9 0.814749 0.250000 0.596015
O O10 0.691989 0.044981 0.598622
O O11 0.852662 0.033807 0.483681
O O12 0.838010 0.001794 0.659821
O O13 0.431827 0.750000 0.404329
O O14 0.388860 0.938980 0.536274
O O15 0.480184 0.019189 0.372996
O O16 0.891210 0.750000 0.691436
O O17 0.013731 0.956819 0.656029
O O18 0.141436 0.750000 0.633108
O O19 0.917838 0.750000 0.093227
O O20 0.419182 0.750000 0.658869
#
# Coordination Sequence:
#
# PCOD8070843 Si02
#       8
#     4   4   4   4   4   4   4   4
#     4   9  17  31  48  66  92 124 156 196 238 275
#     4  11  20  29  46  72  98 125 157 193 232 281
#     4  10  20  33  48  65  94 129 160 196 231 272
#     4   9  18  33  49  68  92 121 156 194 235 276
#     4  10  20  31  47  68  93 127 165 198 230 273
#     4  10  19  33  46  64  95 130 165 195 228 268
#     4   9  18  30  46  69  94 121 156 194 236 281
#     4  10  19  32  50  69  94 123 154 191 235 285
#
# _framework density 15.704014000000001
#
# number of rings (size 3 to 8) (size 9 to 14) (size 15 to 20)
#    0.000    2.250    2.500    1.125    0.000    3.000 
#    0.000    0.000    0.000    0.000    0.000    0.875 
#    0.000    0.000    0.000    0.000    0.000    0.000 
#
# Total GULP energy -396796.785214 kJ/mol
# GULP energy per Si atom -12399.899538 kJ/mol
# Density = 1.566827 g / cm^3
# Si number density = 15.704014 Si / 1000 Ang^3
#
#
#
# Elastic Constant Matrix: (Units=GPa)
#
#
# Indices 1 2 3 4 5 6 
#
# 1 88.8876 50.0050 60.5456 0.0000 -2.8494 0.0000
# 2 50.0050 69.6794 48.6455 0.0000 -4.2228 0.0000
# 3 60.5456 48.6455 105.9832 0.0000 -1.3631 0.0000
# 4 0.0000 0.0000 0.0000 20.1390 0.0000 2.4801
# 5 -2.8494 -4.2228 -1.3631 0.0000 19.7288 0.0000
# 6 0.0000 0.0000 0.0000 2.4801 0.0000 28.2977
#
#
#
# Elastic Compliance Matrix: (Units=1/GPa)
#
#
# Indices 1 2 3 4 5 6 
#
# 1 0.022795 -0.010660 -0.008123 0.000000 0.000449 0.000000
# 2 -0.010660 0.026401 -0.005980 0.000000 0.003698 0.000000
# 3 -0.008123 -0.005980 0.016804 0.000000 -0.001292 0.000000
# 4 0.000000 0.000000 0.000000 0.050197 0.000000 -0.004399
# 5 0.000449 0.003698 -0.001292 0.000000 0.051454 0.000000
# 6 0.000000 0.000000 0.000000 -0.004399 0.000000 0.035724
#
#
# Mechanical properties :
#
#
# Convention : Reuss Voigt Hill
#
# Bulk Modulus (GPa) = 60.70786 64.77137 62.73962
# Shear Modulus (GPa) = 19.35030 20.65671 20.00351
#
# Velocity S-wave (km/s) = 3.51406 3.63075 3.57288
# Velocity P-wave (km/s) = 7.43009 7.67536 7.55372
#
# Compressibility (1/GPa) = 0.01647233
#
# Stress axis : x y z
#
# Youngs Moduli (GPa) = 43.86956 37.87768 59.50790
#
# Poissons Ratio (x) = 0.40378 0.48341
# Poissons Ratio (y) = 0.46765 0.35588
# Poissons Ratio (z) = 0.35637 0.22652
#
# Static dielectric constant tensor:
#      x y z
#    x 2.851700 0.000000 -0.136920 
#    y 0.000000 3.041570 0.000000 
#    z -0.136920 0.000000 3.133480 
# 
# 
# High freq. dielectric constant tensor:
#      x y z
#    x 1.582960 0.000000 -0.011360 
#    y 0.000000 1.609530 0.000000 
#    z -0.011360 0.000000 1.593640 
# 
# From -- ./inp_files/51216.got.cif
#   From: 2010.06.25/outbox.cif.g09.slc.cpg/sg11_26_cif.got.tgz:51216.got - 2010.06.27 23:14:04.
