data_PCOD8070066
_publ_section_title
;
Structure prediction by ZEFSAII (Michael W. Deem and Ramdas Pophale) SiO2 
 PCOD8070066
Probable space group: P 21/M
;
_chemical_formula_sum "Si O2"
_cell_formula_units_Z 28
_cell_length_a 14.442256
_cell_length_b 9.481543
_cell_length_c 18.567860
_cell_angle_alpha 90.000000
_cell_angle_beta 38.930970
_cell_angle_gamma 90.000000
_cell_volume 1597.720371
_symmetry_space_group_name_H-M "P 21/M"
_symmetry_group_IT_number 11
_symmetry_cell_setting 'monoclinic'
loop_
_space_group_symop_operation_xyz
x,y,z
-x,1/2+y,-z
-x,-y,-z
x,1/2-y,z
loop_
_atom_site_type_symbol
_atom_site_label
_atom_site_fract_x
_atom_site_fract_y
_atom_site_fract_z
Si Si1 0.169743 0.084977 0.655951
Si Si2 0.542667 0.094142 0.775866
Si Si3 0.864204 0.088755 0.905785
Si Si4 0.357081 0.584503 0.438609
Si Si5 0.788888 0.593853 0.078187
Si Si6 0.325315 0.417773 0.706402
Si Si7 0.540971 0.415520 0.045942
O O1 0.198203 0.250000 0.626263
O O2 0.260939 0.028786 0.669909
O O3 0.997286 0.051811 0.771440
O O4 0.220971 0.999688 0.555057
O O5 0.588011 0.250000 0.777746
O O6 0.644260 0.052536 0.646181
O O7 0.377103 0.101587 0.848929
O O8 0.558586 0.977406 0.828748
O O9 0.872063 0.250000 0.925231
O O10 0.712832 0.054943 0.956537
O O11 0.884355 0.003473 0.967765
O O12 0.337081 0.750000 0.465414
O O13 0.507880 0.526836 0.384086
O O14 0.859523 0.750000 0.034734
O O15 0.781329 0.529380 0.163801
O O16 0.326806 0.250000 0.710831
O O17 0.506582 0.250000 0.058043
O O18 0.500000 0.500000 0.000000
#
# Coordination Sequence:
#
# PCOD8070066 Si02
#       7
#     4   4   4   4   4   4   4
#     4  10  19  30  44  63  93 130 159 187 226 267
#     4   8  15  29  48  69  93 119 147 184 228 266
#     4   9  19  32  44  65  96 123 147 182 231 278
#     4   9  17  30  47  67  92 123 161 197 222 252
#     4   8  14  27  46  64  86 120 157 189 223 267
#     4   8  15  28  45  65  90 122 160 198 230 257
#     4  10  19  32  52  75  95 114 142 182 227 278
#
# _framework density 17.524968000000001
#
# number of rings (size 3 to 8) (size 9 to 14) (size 15 to 20)
#    0.000    3.143    0.000    2.571    0.000    2.286 
#    0.000    2.857    0.000    0.857    0.000    0.000 
#    0.000    0.000    0.000    0.000    0.000    0.000 
#
# Total GULP energy -347069.969943 kJ/mol
# GULP energy per Si atom -12395.356069 kJ/mol
# Density = 1.748508 g / cm^3
# Si number density = 17.524968 Si / 1000 Ang^3
#
#
#
# Elastic Constant Matrix: (Units=GPa)
#
#
# Indices 1 2 3 4 5 6 
#
# 1 40.1075 36.0377 48.0648 0.0000 16.9373 0.0000
# 2 36.0377 82.1758 71.5538 0.0000 15.9619 0.0000
# 3 48.0648 71.5538 139.2186 0.0000 18.6751 0.0000
# 4 0.0000 0.0000 0.0000 32.8406 0.0000 4.7159
# 5 16.9373 15.9619 18.6751 0.0000 23.7713 0.0000
# 6 0.0000 0.0000 0.0000 4.7159 0.0000 17.9481
#
#
#
# Elastic Compliance Matrix: (Units=1/GPa)
#
#
# Indices 1 2 3 4 5 6 
#
# 1 0.059542 -0.011218 -0.011301 0.000000 -0.026013 0.000000
# 2 -0.011218 0.025105 -0.008764 0.000000 -0.001978 0.000000
# 3 -0.011301 -0.008764 0.015336 0.000000 0.001889 0.000000
# 4 0.000000 0.000000 0.000000 0.031644 0.000000 -0.008315
# 5 -0.026013 -0.001978 0.001889 0.000000 0.060446 0.000000
# 6 0.000000 0.000000 0.000000 -0.008315 0.000000 0.057901
#
#
# Mechanical properties :
#
#
# Convention : Reuss Voigt Hill
#
# Bulk Modulus (GPa) = 26.72804 63.64606 45.18705
# Shear Modulus (GPa) = 15.38401 21.96839 18.67620
#
# Velocity S-wave (km/s) = 2.96604 3.54439 3.26803
# Velocity P-wave (km/s) = 5.19754 7.29016 6.33091
#
# Compressibility (1/GPa) = 0.03741390
#
# Stress axis : x y z
#
# Youngs Moduli (GPa) = 16.79495 39.83321 65.20663
#
# Poissons Ratio (x) = 0.44687 0.73692
# Poissons Ratio (y) = 0.18841 0.57150
# Poissons Ratio (z) = 0.18980 0.34912
#
# Static dielectric constant tensor:
#      x y z
#    x 3.093980 0.000000 0.150070 
#    y 0.000000 3.291770 0.000000 
#    z 0.150070 0.000000 3.390390 
# 
# 
# High freq. dielectric constant tensor:
#      x y z
#    x 1.645540 0.000000 0.016200 
#    y 0.000000 1.664060 0.000000 
#    z 0.016200 0.000000 1.677650 
# 
# From -- ./inp_files/26441.got.cif
#   From: 2010.06.25/outbox.cif.g09.slc.cpg/sg11_14_cif.got.tgz:26441.got - 2010.06.27 23:14:04.
