data_PCOD8070376
_publ_section_title
;
Structure prediction by ZEFSAII (Michael W. Deem and Ramdas Pophale) SiO2 
 PCOD8070376
Probable space group: P 21/M
;
_chemical_formula_sum "Si O2"
_cell_formula_units_Z 28
_cell_length_a 13.405935
_cell_length_b 8.876766
_cell_length_c 27.290039
_cell_angle_alpha 90.000000
_cell_angle_beta 30.786668
_cell_angle_gamma 90.000000
_cell_volume 1662.236407
_symmetry_space_group_name_H-M "P 21/M"
_symmetry_group_IT_number 11
_symmetry_cell_setting 'monoclinic'
loop_
_space_group_symop_operation_xyz
x,y,z
-x,1/2+y,-z
-x,-y,-z
x,1/2-y,z
loop_
_atom_site_type_symbol
_atom_site_label
_atom_site_fract_x
_atom_site_fract_y
_atom_site_fract_z
Si Si1 0.409477 0.424628 0.112701
Si Si2 0.175196 0.576474 0.726439
Si Si3 0.785995 0.075523 0.896384
Si Si4 0.824972 0.079934 0.711319
Si Si5 0.047028 0.571987 0.531756
Si Si6 0.792752 0.581241 0.387124
Si Si7 0.601210 0.924686 0.566358
O O1 0.363127 0.250000 0.139175
O O2 0.273987 0.483076 0.126081
O O3 0.365320 0.508328 0.182495
O O4 0.635894 0.453975 0.004052
O O5 0.114813 0.750000 0.754919
O O6 0.217864 0.536490 0.652168
O O7 0.373122 0.546807 0.674012
O O8 0.000473 0.477432 0.822919
O O9 0.790919 0.250000 0.879472
O O10 0.777580 0.250000 0.714697
O O11 0.993273 0.075762 0.680413
O O12 0.886158 0.985003 0.638129
O O13 0.034357 0.750000 0.533450
O O14 0.266240 0.525207 0.454282
O O15 0.000000 0.500000 0.500000
O O16 0.748569 0.750000 0.386291
O O17 0.638448 0.531866 0.493797
O O18 0.661157 0.750000 0.548718
#
# Coordination Sequence:
#
# PCOD8070376 Si02
#       7
#     4   4   4   4   4   4   4
#     4  10  19  31  47  68  94 131 176 211 245 289
#     4  11  20  29  45  68  97 133 171 205 241 288
#     4  10  20  31  44  65  98 136 172 211 247 284
#     4  10  19  32  51  74 101 131 163 205 251 294
#     4  11  22  37  57  78 100 127 160 202 249 298
#     4   9  17  29  44  64  95 131 165 201 242 284
#     4   9  20  35  48  68  97 129 165 205 244 291
#
# _framework density 16.844774999999998
#
# number of rings (size 3 to 8) (size 9 to 14) (size 15 to 20)
#    0.000    2.000    1.429    4.286    0.000    5.143 
#    0.000    0.000    0.000    0.000    0.000    1.000 
#    0.000    0.000    0.000    0.000    0.000    0.000 
#
# Total GULP energy -347201.158160 kJ/mol
# GULP energy per Si atom -12400.041363 kJ/mol
# Density = 1.680644 g / cm^3
# Si number density = 16.844775 Si / 1000 Ang^3
#
#
#
# Elastic Constant Matrix: (Units=GPa)
#
#
# Indices 1 2 3 4 5 6 
#
# 1 59.3050 41.1934 44.2867 0.0000 5.8107 0.0000
# 2 41.1934 112.9524 53.9678 0.0000 0.4749 0.0000
# 3 44.2867 53.9678 115.3948 0.0000 -9.6586 0.0000
# 4 0.0000 0.0000 0.0000 30.6410 0.0000 0.6888
# 5 5.8107 0.4749 -9.6586 0.0000 15.4519 0.0000
# 6 0.0000 0.0000 0.0000 0.6888 0.0000 23.6599
#
#
#
# Elastic Compliance Matrix: (Units=1/GPa)
#
#
# Indices 1 2 3 4 5 6 
#
# 1 0.030611 -0.006135 -0.010369 0.000000 -0.017804 0.000000
# 2 -0.006135 0.012856 -0.003691 0.000000 -0.000395 0.000000
# 3 -0.010369 -0.003691 0.015520 0.000000 0.013714 0.000000
# 4 0.000000 0.000000 0.000000 0.032657 0.000000 -0.000951
# 5 -0.017804 -0.000395 0.013714 0.000000 0.079996 0.000000
# 6 0.000000 0.000000 0.000000 -0.000951 0.000000 0.042293
#
#
# Mechanical properties :
#
#
# Convention : Reuss Voigt Hill
#
# Bulk Modulus (GPa) = 53.77374 62.94977 58.36175
# Shear Modulus (GPa) = 19.19231 23.83086 21.51158
#
# Velocity S-wave (km/s) = 3.37911 3.76537 3.57746
# Velocity P-wave (km/s) = 6.87145 7.50704 7.19627
#
# Compressibility (1/GPa) = 0.01859644
#
# Stress axis : x y z
#
# Youngs Moduli (GPa) = 32.66831 77.78587 64.43502
#
# Poissons Ratio (x) = 0.47718 0.66813
# Poissons Ratio (y) = 0.20040 0.23784
# Poissons Ratio (z) = 0.33874 0.28712
#
# Static dielectric constant tensor:
#      x y z
#    x 2.778980 0.000000 -0.100230 
#    y 0.000000 3.268380 0.000000 
#    z -0.100230 0.000000 3.432300 
# 
# 
# High freq. dielectric constant tensor:
#      x y z
#    x 1.596390 0.000000 -0.008990 
#    y 0.000000 1.664200 0.000000 
#    z -0.008990 0.000000 1.655050 
# 
# From -- ./inp_files/51030.got.cif
#   From: 2010.06.25/outbox.cif.g09.slc.cpg/sg11_26_cif.got.tgz:51030.got - 2010.06.27 23:14:04.
