data_PCOD8070529
_publ_section_title
;
Structure prediction by ZEFSAII (Michael W. Deem and Ramdas Pophale) SiO2 
 PCOD8070529
Probable space group: P 21/M
;
_chemical_formula_sum "Si O2"
_cell_formula_units_Z 28
_cell_length_a 27.142844
_cell_length_b 9.303676
_cell_length_c 21.154147
_cell_angle_alpha 90.000000
_cell_angle_beta 162.650809
_cell_angle_gamma 90.000000
_cell_volume 1592.960587
_symmetry_space_group_name_H-M "P 21/M"
_symmetry_group_IT_number 11
_symmetry_cell_setting 'monoclinic'
loop_
_space_group_symop_operation_xyz
x,y,z
-x,1/2+y,-z
-x,-y,-z
x,1/2-y,z
loop_
_atom_site_type_symbol
_atom_site_label
_atom_site_fract_x
_atom_site_fract_y
_atom_site_fract_z
Si Si1 0.060137 0.911718 0.632700
Si Si2 0.525970 0.416311 0.132005
Si Si3 0.725702 0.589508 0.282883
Si Si4 0.511712 0.081216 0.656438
Si Si5 0.412976 0.918915 0.109044
Si Si6 0.351621 0.419369 0.284727
Si Si7 0.842425 0.584046 0.833636
O O1 0.088200 0.750000 0.642931
O O2 0.922053 0.918232 0.517839
O O3 0.226181 0.972073 0.867649
O O4 0.000000 0.000000 0.500000
O O5 0.553496 0.250000 0.179765
O O6 0.677720 0.474090 0.276489
O O7 0.529515 0.499333 0.202502
O O8 0.357063 0.447799 0.886462
O O9 0.667335 0.750000 0.231580
O O10 0.543463 0.250000 0.683879
O O11 0.533789 0.035910 0.755872
O O12 0.325215 0.038170 0.408234
O O13 0.652650 0.992525 0.789908
O O14 0.434101 0.750000 0.124604
O O15 0.500000 0.500000 0.500000
O O16 0.389086 0.250000 0.324911
O O17 0.187585 0.443686 0.127464
O O18 0.879951 0.750000 0.866816
O O19 0.000000 0.500000 0.000000
#
# Coordination Sequence:
#
# PCOD8070529 Si02
#       7
#     4   4   4   4   4   4   4
#     4  10  19  32  51  74  97 126 166 212 256 300
#     4  10  19  31  49  72  97 129 167 208 253 301
#     4   9  18  32  48  69  97 126 163 210 255 302
#     4   9  19  35  52  75 104 135 170 206 248 304
#     4  10  20  34  53  74 101 135 168 207 259 307
#     4   9  17  31  52  77 103 133 167 205 244 292
#     4   9  18  32  52  78 105 131 165 204 242 289
#
# _framework density 17.577334
#
# number of rings (size 3 to 8) (size 9 to 14) (size 15 to 20)
#    0.000    2.571    1.429    1.714    0.000    4.571 
#    0.000    1.429    0.000    6.857    0.000    0.000 
#    0.000    0.000    0.000    0.000    0.000    0.000 
#
# Total GULP energy -347067.740135 kJ/mol
# GULP energy per Si atom -12395.276433 kJ/mol
# Density = 1.753733 g / cm^3
# Si number density = 17.577334 Si / 1000 Ang^3
#
#
#
# Elastic Constant Matrix: (Units=GPa)
#
#
# Indices 1 2 3 4 5 6 
#
# 1 145.1453 67.0436 47.6314 0.0000 -5.8337 0.0000
# 2 67.0436 74.4179 29.4963 0.0000 0.5550 0.0000
# 3 47.6314 29.4963 64.1907 0.0000 0.3260 0.0000
# 4 0.0000 0.0000 0.0000 21.3142 0.0000 3.0858
# 5 -5.8337 0.5550 0.3260 0.0000 26.2196 0.0000
# 6 0.0000 0.0000 0.0000 3.0858 0.0000 37.6869
#
#
#
# Elastic Compliance Matrix: (Units=1/GPa)
#
#
# Indices 1 2 3 4 5 6 
#
# 1 0.013378 -0.009947 -0.005373 0.000000 0.003254 0.000000
# 2 -0.009947 0.023828 -0.003554 0.000000 -0.002673 0.000000
# 3 -0.005373 -0.003554 0.021206 0.000000 -0.001384 0.000000
# 4 0.000000 0.000000 0.000000 0.047480 0.000000 -0.003888
# 5 0.003254 -0.002673 -0.001384 0.000000 0.038937 0.000000
# 6 0.000000 0.000000 0.000000 -0.003888 0.000000 0.026853
#
#
# Mechanical properties :
#
#
# Convention : Reuss Voigt Hill
#
# Bulk Modulus (GPa) = 48.39574 63.56630 55.98102
# Shear Modulus (GPa) = 23.11408 26.34965 24.73186
#
# Velocity S-wave (km/s) = 3.63022 3.87598 3.75511
# Velocity P-wave (km/s) = 6.72043 7.50155 7.12171
#
# Compressibility (1/GPa) = 0.02066298
#
# Stress axis : x y z
#
# Youngs Moduli (GPa) = 74.74778 41.96735 47.15733
#
# Poissons Ratio (x) = 0.41746 0.25336
# Poissons Ratio (y) = 0.74354 0.16762
# Poissons Ratio (z) = 0.40160 0.14917
#
# Static dielectric constant tensor:
#      x y z
#    x 3.577840 0.000000 0.030230 
#    y 0.000000 3.406430 0.000000 
#    z 0.030230 0.000000 3.099500 
# 
# 
# High freq. dielectric constant tensor:
#      x y z
#    x 1.685220 0.000000 0.010800 
#    y 0.000000 1.682570 0.000000 
#    z 0.010800 0.000000 1.647120 
# 
# From -- ./inp_files/66905.got.cif
#   From: 2010.06.25/outbox.cif.g09.slc.cpg/sg11_34_cif.got.tgz:66905.got - 2010.06.27 23:14:04.
