data_PCOD8070998
_publ_section_title
;
Structure prediction by ZEFSAII (Michael W. Deem and Ramdas Pophale) SiO2 
 PCOD8070998
Probable space group: P 21/M
;
_chemical_formula_sum "Si O2"
_cell_formula_units_Z 32
_cell_length_a 23.425370
_cell_length_b 9.039501
_cell_length_c 9.396763
_cell_angle_alpha 90.000000
_cell_angle_beta 114.604209
_cell_angle_gamma 90.000000
_cell_volume 1809.136170
_symmetry_space_group_name_H-M "P 21/M"
_symmetry_group_IT_number 11
_symmetry_cell_setting 'monoclinic'
loop_
_space_group_symop_operation_xyz
x,y,z
-x,1/2+y,-z
-x,-y,-z
x,1/2-y,z
loop_
_atom_site_type_symbol
_atom_site_label
_atom_site_fract_x
_atom_site_fract_y
_atom_site_fract_z
Si Si1 0.763114 0.425855 0.985414
Si Si2 0.142764 0.580325 0.678701
Si Si3 0.041032 0.577319 0.804805
Si Si4 0.504262 0.427454 0.850106
Si Si5 0.375087 0.921415 0.199497
Si Si6 0.448182 0.576454 0.541688
Si Si7 0.098860 0.418510 0.368420
Si Si8 0.137581 0.080130 0.094014
O O1 0.765141 0.250000 0.965980
O O2 0.797106 0.472505 0.167239
O O3 0.800278 0.496579 0.892795
O O4 0.692223 0.490452 0.912982
O O5 0.150013 0.750000 0.646883
O O6 0.078964 0.549765 0.698981
O O7 0.141795 0.494004 0.530928
O O8 0.040374 0.750000 0.845965
O O9 0.074013 0.490239 0.966692
O O10 0.971083 0.512022 0.713574
O O11 0.498880 0.250000 0.853729
O O12 0.568828 0.484262 0.841966
O O13 0.446951 0.492501 0.693103
O O14 0.500000 0.500000 0.000000
O O15 0.373039 0.750000 0.161920
O O16 0.385407 0.945949 0.380716
O O17 0.500000 0.500000 0.500000
O O18 0.462380 0.750000 0.579610
O O19 0.090446 0.250000 0.405154
O O20 0.136207 0.436679 0.261458
O O21 0.140547 0.250000 0.048788
#
# Coordination Sequence:
#
# PCOD8070998 Si02
#       8
#     4   4   4   4   4   4   4   4
#     4   9  18  36  55  70  91 125 168 206 235 279
#     4   9  18  30  48  71  93 119 158 201 240 282
#     4   9  18  33  50  69  91 122 160 197 238 292
#     4  10  19  32  51  78 109 137 163 200 247 292
#     4   8  16  32  55  75  94 127 169 203 235 281
#     4   9  16  29  50  76 102 130 164 202 243 289
#     4  10  20  32  47  68  97 125 153 193 245 297
#     4  10  20  32  47  71  97 123 155 198 247 292
#
# _framework density 17.687999999999999
#
# number of rings (size 3 to 8) (size 9 to 14) (size 15 to 20)
#    0.000    2.750    0.000    3.375    0.000    3.500 
#    0.000    5.000    0.000    6.000    0.000    0.000 
#    0.000    0.000    0.000    0.000    0.000    0.000 
#
# Total GULP energy -396637.179026 kJ/mol
# GULP energy per Si atom -12394.911845 kJ/mol
# Density = 1.764774 g / cm^3
# Si number density = 17.688000 Si / 1000 Ang^3
#
#
#
# Elastic Constant Matrix: (Units=GPa)
#
#
# Indices 1 2 3 4 5 6 
#
# 1 87.0773 28.6058 59.2622 0.0000 16.3155 0.0000
# 2 28.6058 64.4624 51.5509 0.0000 -1.3483 0.0000
# 3 59.2622 51.5509 134.1306 0.0000 0.8701 0.0000
# 4 0.0000 0.0000 0.0000 33.4644 0.0000 -4.0713
# 5 16.3155 -1.3483 0.8701 0.0000 22.2547 0.0000
# 6 0.0000 0.0000 0.0000 -4.0713 0.0000 19.1762
#
#
#
# Elastic Compliance Matrix: (Units=1/GPa)
#
#
# Indices 1 2 3 4 5 6 
#
# 1 0.020672 -0.003266 -0.007780 0.000000 -0.015049 0.000000
# 2 -0.003266 0.022977 -0.007414 0.000000 0.004076 0.000000
# 3 -0.007780 -0.007414 0.013712 0.000000 0.004719 0.000000
# 4 0.000000 0.000000 0.000000 0.030675 0.000000 0.006513
# 5 -0.015049 0.004076 0.004719 0.000000 0.056029 0.000000
# 6 0.000000 0.000000 0.000000 0.006513 0.000000 0.053531
#
#
# Mechanical properties :
#
#
# Convention : Reuss Voigt Hill
#
# Bulk Modulus (GPa) = 48.92576 62.72311 55.82444
# Shear Modulus (GPa) = 20.71861 24.72917 22.72389
#
# Velocity S-wave (km/s) = 3.42619 3.74314 3.58817
# Velocity P-wave (km/s) = 6.58576 7.36338 6.98540
#
# Compressibility (1/GPa) = 0.02043913
#
# Stress axis : x y z
#
# Youngs Moduli (GPa) = 48.37536 43.52258 72.92946
#
# Poissons Ratio (x) = 0.14214 0.56742
# Poissons Ratio (y) = 0.15799 0.54071
# Poissons Ratio (z) = 0.37638 0.32268
#
# Static dielectric constant tensor:
#      x y z
#    x 3.282150 0.000000 0.223780 
#    y 0.000000 3.287620 0.000000 
#    z 0.223780 0.000000 3.465530 
# 
# 
# High freq. dielectric constant tensor:
#      x y z
#    x 1.659020 0.000000 0.004910 
#    y 0.000000 1.676560 0.000000 
#    z 0.004910 0.000000 1.690900 
# 
# From -- ./inp_files/27959.got.cif
#   From: 2010.06.25/outbox.cif.g09.slc.cpg/sg11_14_cif.got.tgz:27959.got - 2010.06.27 23:14:04.
