data_PCOD8070345
_publ_section_title
;
Structure prediction by ZEFSAII (Michael W. Deem and Ramdas Pophale) SiO2 
 PCOD8070345
Probable space group: P 21/M
;
_chemical_formula_sum "Si O2"
_cell_formula_units_Z 32
_cell_length_a 17.112836
_cell_length_b 9.364781
_cell_length_c 11.673339
_cell_angle_alpha 90.000000
_cell_angle_beta 94.172830
_cell_angle_gamma 90.000000
_cell_volume 1865.786343
_symmetry_space_group_name_H-M "P 21/M"
_symmetry_group_IT_number 11
_symmetry_cell_setting 'monoclinic'
loop_
_space_group_symop_operation_xyz
x,y,z
-x,1/2+y,-z
-x,-y,-z
x,1/2-y,z
loop_
_atom_site_type_symbol
_atom_site_label
_atom_site_fract_x
_atom_site_fract_y
_atom_site_fract_z
Si Si1 0.402641 0.585175 0.262003
Si Si2 0.783018 0.915430 0.380204
Si Si3 0.535988 0.917477 0.109405
Si Si4 0.684702 0.913517 0.578486
Si Si5 0.921476 0.414682 0.512672
Si Si6 0.714155 0.582754 0.132157
Si Si7 0.257777 0.911316 0.083628
Si Si8 0.182278 0.910258 0.297636
O O1 0.397958 0.750000 0.293574
O O2 0.486861 0.544550 0.218459
O O3 0.389918 0.500137 0.380200
O O4 0.335362 0.543958 0.162935
O O5 0.810524 0.750000 0.391572
O O6 0.702356 0.935045 0.445076
O O7 0.763317 0.960679 0.248964
O O8 0.851815 0.018215 0.430322
O O9 0.529926 0.750000 0.081911
O O10 0.624707 0.968564 0.138320
O O11 0.500000 0.000000 0.000000
O O12 0.669908 0.750000 0.607914
O O13 0.762693 0.966846 0.648830
O O14 0.932527 0.250000 0.477190
O O15 0.901220 0.425898 0.647065
O O16 0.000000 0.500000 0.500000
O O17 0.716878 0.750000 0.111564
O O18 0.754303 0.510379 0.027083
O O19 0.266537 0.750000 0.039963
O O20 0.181219 0.927810 0.159055
O O21 0.216233 0.750000 0.328081
#
# Coordination Sequence:
#
# PCOD8070345 Si02
#       8
#     4   4   4   4   4   4   4   4
#     4   9  17  29  44  64  93 125 159 206 256 294
#     4   9  19  35  50  70 101 131 161 198 241 290
#     4  10  19  31  46  66  94 128 166 208 252 295
#     4   9  16  27  46  67  89 121 161 204 241 281
#     4  10  19  33  56  82 104 128 156 191 236 286
#     4  10  20  32  48  69  96 131 166 203 248 291
#     4   9  16  28  46  68  95 126 161 200 239 284
#     4   8  16  30  47  70 100 127 153 190 239 286
#
# _framework density 17.150943999999999
#
# number of rings (size 3 to 8) (size 9 to 14) (size 15 to 20)
#    0.000    2.750    1.250    1.500    0.000    4.000 
#    0.000    0.625    0.000    0.750    0.000    0.000 
#    0.000    0.000    0.000    0.000    0.000    0.000 
#
# Total GULP energy -396548.634648 kJ/mol
# GULP energy per Si atom -12392.144833 kJ/mol
# Density = 1.711191 g / cm^3
# Si number density = 17.150944 Si / 1000 Ang^3
#
#
#
# Elastic Constant Matrix: (Units=GPa)
#
#
# Indices 1 2 3 4 5 6 
#
# 1 86.2949 41.6854 52.0422 0.0000 -19.7758 0.0000
# 2 41.6854 73.1858 52.8758 0.0000 -8.7285 0.0000
# 3 52.0422 52.8758 112.6367 0.0000 -18.7034 0.0000
# 4 0.0000 0.0000 0.0000 28.3344 0.0000 -7.2698
# 5 -19.7758 -8.7285 -18.7034 0.0000 24.8888 0.0000
# 6 0.0000 0.0000 0.0000 -7.2698 0.0000 23.7662
#
#
#
# Elastic Compliance Matrix: (Units=1/GPa)
#
#
# Indices 1 2 3 4 5 6 
#
# 1 0.019848 -0.007092 -0.004154 0.000000 0.010162 0.000000
# 2 -0.007092 0.023211 -0.008230 0.000000 -0.003680 0.000000
# 3 -0.004154 -0.008230 0.015577 0.000000 0.005519 0.000000
# 4 0.000000 0.000000 0.000000 0.038298 0.000000 0.011715
# 5 0.010162 -0.003680 0.005519 0.000000 0.051110 0.000000
# 6 0.000000 0.000000 0.000000 0.011715 0.000000 0.045660
#
#
# Mechanical properties :
#
#
# Convention : Reuss Voigt Hill
#
# Bulk Modulus (GPa) = 50.80323 62.81381 56.80852
# Shear Modulus (GPa) = 20.90148 23.76549 22.33348
#
# Velocity S-wave (km/s) = 3.49474 3.72649 3.61248
# Velocity P-wave (km/s) = 6.78011 7.43097 7.11299
#
# Compressibility (1/GPa) = 0.01968379
#
# Stress axis : x y z
#
# Youngs Moduli (GPa) = 50.38355 43.08364 64.19572
#
# Poissons Ratio (x) = 0.30555 0.26666
# Poissons Ratio (y) = 0.35732 0.52835
# Poissons Ratio (z) = 0.20928 0.35459
#
# Static dielectric constant tensor:
#      x y z
#    x 3.125690 0.000000 -0.424090 
#    y 0.000000 3.241030 0.000000 
#    z -0.424090 0.000000 3.315290 
# 
# 
# High freq. dielectric constant tensor:
#      x y z
#    x 1.630080 0.000000 -0.036290 
#    y 0.000000 1.667120 0.000000 
#    z -0.036290 0.000000 1.653970 
# 
# From -- ./inp_files/40682.got.cif
#   From: 2010.06.25/outbox.cif.g09.slc.cpg/sg11_21_cif.got.tgz:40682.got - 2010.06.27 23:14:04.
