data_PCOD8070228
_publ_section_title
;
Structure prediction by ZEFSAII (Michael W. Deem and Ramdas Pophale) SiO2 
 PCOD8070228
Probable space group: P 21/M
;
_chemical_formula_sum "Si O2"
_cell_formula_units_Z 24
_cell_length_a 19.633408
_cell_length_b 8.846000
_cell_length_c 15.033769
_cell_angle_alpha 90.000000
_cell_angle_beta 31.000320
_cell_angle_gamma 90.000000
_cell_volume 1344.788147
_symmetry_space_group_name_H-M "P 21/M"
_symmetry_group_IT_number 11
_symmetry_cell_setting 'monoclinic'
loop_
_space_group_symop_operation_xyz
x,y,z
-x,1/2+y,-z
-x,-y,-z
x,1/2-y,z
loop_
_atom_site_type_symbol
_atom_site_label
_atom_site_fract_x
_atom_site_fract_y
_atom_site_fract_z
Si Si1 0.677655 0.417816 0.737735
Si Si2 0.716459 0.070704 0.499957
Si Si3 0.368945 0.417570 0.041203
Si Si4 0.139200 0.429652 0.820218
Si Si5 0.365142 0.575891 0.681084
Si Si6 0.561073 0.077702 0.206223
O O1 0.727673 0.250000 0.704173
O O2 0.744972 0.476058 0.570871
O O3 0.714647 0.521024 0.780838
O O4 0.521697 0.416468 0.895857
O O5 0.728106 0.250000 0.474199
O O6 0.822719 0.985010 0.320977
O O7 0.569495 0.022963 0.635136
O O8 0.317412 0.250000 0.077223
O O9 0.348489 0.520397 0.976852
O O10 0.131520 0.250000 0.830453
O O11 0.244541 0.485298 0.774253
O O12 0.000000 0.500000 0.000000
O O13 0.500000 0.500000 0.500000
O O14 0.362058 0.750000 0.652339
O O15 0.351412 0.565732 0.802992
O O16 0.517010 0.250000 0.237253
#
# Coordination Sequence:
#
# PCOD8070228 Si02
#       6
#     4   4   4   4   4   4
#     4   8  15  26  41  64  96 133 168 208 258 311
#     4  10  19  32  51  74 102 136 176 219 264 316
#     4   9  16  25  40  65  98 134 169 211 258 307
#     4  12  25  40  57  78 107 143 181 225 271 319
#     4  11  22  36  56  81 108 141 181 223 268 320
#     4  10  19  30  48  74 104 138 174 214 263 315
#
# _framework density 17.846678000000001
#
# number of rings (size 3 to 8) (size 9 to 14) (size 15 to 20)
#    0.000    2.000    1.667    4.500    0.000    6.667 
#    0.000    0.000    0.000    0.000    0.000    1.167 
#    0.000    0.000    0.000    0.000    0.000    0.000 
#
# Total GULP energy -297555.578804 kJ/mol
# GULP energy per Si atom -12398.149117 kJ/mol
# Density = 1.780606 g / cm^3
# Si number density = 17.846678 Si / 1000 Ang^3
#
#
#
# Elastic Constant Matrix: (Units=GPa)
#
#
# Indices 1 2 3 4 5 6 
#
# 1 91.8730 57.8519 64.7900 0.0000 28.8740 0.0000
# 2 57.8519 143.9289 57.0704 0.0000 16.6424 0.0000
# 3 64.7900 57.0704 96.8663 0.0000 18.4403 0.0000
# 4 0.0000 0.0000 0.0000 27.8474 0.0000 7.6501
# 5 28.8740 16.6424 18.4403 0.0000 33.2707 0.0000
# 6 0.0000 0.0000 0.0000 7.6501 0.0000 30.2621
#
#
#
# Elastic Compliance Matrix: (Units=1/GPa)
#
#
# Indices 1 2 3 4 5 6 
#
# 1 0.027129 -0.004092 -0.013016 0.000000 -0.014283 0.000000
# 2 -0.004092 0.009776 -0.003094 0.000000 0.000376 0.000000
# 3 -0.013016 -0.003094 0.020579 0.000000 0.001438 0.000000
# 4 0.000000 0.000000 0.000000 0.038590 0.000000 -0.009755
# 5 -0.014283 0.000376 0.001438 0.000000 0.041467 0.000000
# 6 0.000000 0.000000 0.000000 -0.009755 0.000000 0.035511
#
#
# Mechanical properties :
#
#
# Convention : Reuss Voigt Hill
#
# Bulk Modulus (GPa) = 58.54903 76.89918 67.72411
# Shear Modulus (GPa) = 22.81557 28.47310 25.64434
#
# Velocity S-wave (km/s) = 3.57938 3.99861 3.79479
# Velocity P-wave (km/s) = 7.06828 8.03124 7.56510
#
# Compressibility (1/GPa) = 0.01707970
#
# Stress axis : x y z
#
# Youngs Moduli (GPa) = 36.86093 102.28995 48.59432
#
# Poissons Ratio (x) = 0.41857 0.63248
# Poissons Ratio (y) = 0.15083 0.15037
# Poissons Ratio (z) = 0.47977 0.31653
#
# Static dielectric constant tensor:
#      x y z
#    x 3.542270 0.000000 0.541140 
#    y 0.000000 3.552640 0.000000 
#    z 0.541140 0.000000 3.081990 
# 
# 
# High freq. dielectric constant tensor:
#      x y z
#    x 1.681770 0.000000 0.046570 
#    y 0.000000 1.709160 0.000000 
#    z 0.046570 0.000000 1.649360 
# 
# From -- ./inp_files/51487.got.cif
#   From: 2010.06.25/outbox.cif.g09.slc.cpg/sg11_26_cif.got.tgz:51487.got - 2010.06.27 23:14:04.
