data_PCOD8070370
_publ_section_title
;
Structure prediction by ZEFSAII (Michael W. Deem and Ramdas Pophale) SiO2 
 PCOD8070370
Probable space group: P 21/M
;
_chemical_formula_sum "Si O2"
_cell_formula_units_Z 32
_cell_length_a 12.126405
_cell_length_b 9.290885
_cell_length_c 16.812772
_cell_angle_alpha 90.000000
_cell_angle_beta 93.445602
_cell_angle_gamma 90.000000
_cell_volume 1890.787386
_symmetry_space_group_name_H-M "P 21/M"
_symmetry_group_IT_number 11
_symmetry_cell_setting 'monoclinic'
loop_
_space_group_symop_operation_xyz
x,y,z
-x,1/2+y,-z
-x,-y,-z
x,1/2-y,z
loop_
_atom_site_type_symbol
_atom_site_label
_atom_site_fract_x
_atom_site_fract_y
_atom_site_fract_z
Si Si1 0.711025 0.084776 0.791491
Si Si2 0.858120 0.416180 0.935807
Si Si3 0.439310 0.079790 0.324788
Si Si4 0.929567 0.082451 0.106878
Si Si5 0.297908 0.917707 0.447196
Si Si6 0.685003 0.419686 0.373312
Si Si7 0.887674 0.079534 0.280312
Si Si8 0.102586 0.912983 0.327139
O O1 0.673645 0.250000 0.777842
O O2 0.742879 0.051059 0.884922
O O3 0.819840 0.052117 0.744504
O O4 0.611720 0.982044 0.759355
O O5 0.889777 0.250000 0.925177
O O6 0.954712 0.505099 0.899390
O O7 0.847297 0.453835 0.029324
O O8 0.420616 0.250000 0.327511
O O9 0.567904 0.037447 0.330484
O O10 0.383158 0.008590 0.398739
O O11 0.956905 0.250000 0.111108
O O12 0.874841 0.032221 0.187318
O O13 0.332599 0.750000 0.443109
O O14 0.304010 0.979713 0.536648
O O15 0.173105 0.938650 0.410410
O O16 0.698347 0.250000 0.377818
O O17 0.781934 0.484349 0.322282
O O18 0.894028 0.250000 0.288905
O O19 0.998553 0.017796 0.323966
O O20 0.058839 0.750000 0.320621
#
# Coordination Sequence:
#
# PCOD8070370 Si02
#       8
#     4   4   4   4   4   4   4   4
#     4   9  17  30  48  68  95 126 151 185 234 281
#     4   9  16  28  46  68  95 124 152 182 226 275
#     4  10  19  31  50  72  91 114 154 203 237 266
#     4   9  17  27  44  71  96 121 153 188 221 264
#     4   9  18  34  52  67  90 122 153 190 236 281
#     4   9  19  34  49  66  91 126 158 187 232 278
#     4  10  19  31  47  67  96 127 154 186 224 274
#     4   9  17  29  45  67  92 122 153 185 228 276
#
# _framework density 16.924166
#
# number of rings (size 3 to 8) (size 9 to 14) (size 15 to 20)
#    0.000    2.750    1.250    1.500    0.000    3.000 
#    0.000    2.500    0.000    0.750    0.000    0.000 
#    0.000    0.000    0.000    0.000    0.000    0.125 
#
# Total GULP energy -396680.610562 kJ/mol
# GULP energy per Si atom -12396.269080 kJ/mol
# Density = 1.688565 g / cm^3
# Si number density = 16.924166 Si / 1000 Ang^3
#
#
#
# Elastic Constant Matrix: (Units=GPa)
#
#
# Indices 1 2 3 4 5 6 
#
# 1 100.3044 36.7133 49.5998 0.0000 11.9214 0.0000
# 2 36.7133 43.3858 30.1661 0.0000 5.0753 0.0000
# 3 49.5998 30.1661 88.2661 0.0000 21.9778 0.0000
# 4 0.0000 0.0000 0.0000 18.7195 0.0000 5.0376
# 5 11.9214 5.0753 21.9778 0.0000 23.2369 0.0000
# 6 0.0000 0.0000 0.0000 5.0376 0.0000 22.1197
#
#
#
# Elastic Compliance Matrix: (Units=1/GPa)
#
#
# Indices 1 2 3 4 5 6 
#
# 1 0.016511 -0.009936 -0.005642 0.000000 -0.000964 0.000000
# 2 -0.009936 0.036521 -0.008085 0.000000 0.004768 0.000000
# 3 -0.005642 -0.008085 0.021063 0.000000 -0.015261 0.000000
# 4 0.000000 0.000000 0.000000 0.056908 0.000000 -0.012961
# 5 -0.000964 0.004768 -0.015261 0.000000 0.056922 0.000000
# 6 0.000000 0.000000 0.000000 -0.012961 0.000000 0.048160
#
#
# Mechanical properties :
#
#
# Convention : Reuss Voigt Hill
#
# Bulk Modulus (GPa) = 37.35823 51.65719 44.50771
# Shear Modulus (GPa) = 17.10362 20.51369 18.80866
#
# Velocity S-wave (km/s) = 3.18245 3.48529 3.33731
# Velocity P-wave (km/s) = 5.96873 6.83998 6.41916
#
# Compressibility (1/GPa) = 0.02676786
#
# Stress axis : x y z
#
# Youngs Moduli (GPa) = 60.56550 27.38175 47.47590
#
# Poissons Ratio (x) = 0.27206 0.26788
# Poissons Ratio (y) = 0.60177 0.38386
# Poissons Ratio (z) = 0.34174 0.22139
#
# Static dielectric constant tensor:
#      x y z
#    x 3.043340 0.000000 0.159080 
#    y 0.000000 3.060180 0.000000 
#    z 0.159080 0.000000 3.518620 
# 
# 
# High freq. dielectric constant tensor:
#      x y z
#    x 1.627210 0.000000 0.022680 
#    y 0.000000 1.640810 0.000000 
#    z 0.022680 0.000000 1.658830 
# 
# From -- ./inp_files/40708.got.cif
#   From: 2010.06.25/outbox.cif.g09.slc.cpg/sg11_21_cif.got.tgz:40708.got - 2010.06.27 23:14:04.
