data_PCOD8070747
_publ_section_title
;
Structure prediction by ZEFSAII (Michael W. Deem and Ramdas Pophale) SiO2 
 PCOD8070747
Probable space group: P 21/M
;
_chemical_formula_sum "Si O2"
_cell_formula_units_Z 32
_cell_length_a 28.822451
_cell_length_b 8.970526
_cell_length_c 12.177054
_cell_angle_alpha 90.000000
_cell_angle_beta 145.206794
_cell_angle_gamma 90.000000
_cell_volume 1796.532769
_symmetry_space_group_name_H-M "P 21/M"
_symmetry_group_IT_number 11
_symmetry_cell_setting 'monoclinic'
loop_
_space_group_symop_operation_xyz
x,y,z
-x,1/2+y,-z
-x,-y,-z
x,1/2-y,z
loop_
_atom_site_type_symbol
_atom_site_label
_atom_site_fract_x
_atom_site_fract_y
_atom_site_fract_z
Si Si1 0.002579 0.922448 0.669563
Si Si2 0.629740 0.577043 0.233737
Si Si3 0.458695 0.922907 0.317842
Si Si4 0.876310 0.424862 0.272840
Si Si5 0.502345 0.579208 0.163864
Si Si6 0.779267 0.426997 0.432302
Si Si7 0.718858 0.426354 0.077511
Si Si8 0.951712 0.575153 0.808616
O O1 0.986187 0.750000 0.613653
O O2 0.087463 0.972725 0.775654
O O3 0.005927 0.955253 0.805239
O O4 0.928218 0.010279 0.473185
O O5 0.650481 0.750000 0.256843
O O6 0.588260 0.547400 0.271777
O O7 0.712207 0.481372 0.389948
O O8 0.567698 0.527028 0.018332
O O9 0.451711 0.750000 0.332659
O O10 0.512616 0.950806 0.313538
O O11 0.500000 0.000000 0.500000
O O12 0.368949 0.993294 0.123703
O O13 0.880395 0.250000 0.297012
O O14 0.782970 0.477335 0.107515
O O15 0.474250 0.750000 0.088320
O O16 0.789303 0.250000 0.458283
O O17 0.750008 0.484475 0.256039
O O18 0.863971 0.502121 0.626937
O O19 0.710609 0.250000 0.069835
O O20 0.941180 0.750000 0.810408
O O21 0.000000 0.500000 0.000000
#
# Coordination Sequence:
#
# PCOD8070747 Si02
#       8
#     4   4   4   4   4   4   4   4
#     4   9  18  31  50  78 109 134 169 218 261 307
#     4  10  19  31  53  83 109 138 179 227 270 317
#     4  10  20  36  53  75 107 144 180 219 267 320
#     4   9  16  30  53  79 104 135 171 212 263 316
#     4   9  18  34  53  75 110 147 179 219 271 323
#     4  11  20  35  57  81 107 140 180 225 275 325
#     4   9  17  31  54  78 103 136 175 213 261 321
#     4  11  23  38  54  78 111 148 184 222 267 320
#
# _framework density 17.812087999999999
#
# number of rings (size 3 to 8) (size 9 to 14) (size 15 to 20)
#    0.000    2.250    2.500    1.125    0.000    1.500 
#    0.000    1.875    0.000    1.500    0.000    0.000 
#    0.000    0.000    0.000    0.000    0.000    0.000 
#
# Total GULP energy -396701.935792 kJ/mol
# GULP energy per Si atom -12396.935493 kJ/mol
# Density = 1.777155 g / cm^3
# Si number density = 17.812088 Si / 1000 Ang^3
#
#
#
# Elastic Constant Matrix: (Units=GPa)
#
#
# Indices 1 2 3 4 5 6 
#
# 1 148.2350 48.4146 79.3148 0.0000 5.5133 0.0000
# 2 48.4146 61.3961 43.3109 0.0000 -1.1723 0.0000
# 3 79.3148 43.3109 127.6821 0.0000 0.4524 0.0000
# 4 0.0000 0.0000 0.0000 29.9891 0.0000 0.5353
# 5 5.5133 -1.1723 0.4524 0.0000 26.8335 0.0000
# 6 0.0000 0.0000 0.0000 0.5353 0.0000 24.4330
#
#
#
# Elastic Compliance Matrix: (Units=1/GPa)
#
#
# Indices 1 2 3 4 5 6 
#
# 1 0.011392 -0.005317 -0.005264 0.000000 -0.002484 0.000000
# 2 -0.005317 0.023923 -0.004820 0.000000 0.002219 0.000000
# 3 -0.005264 -0.004820 0.012734 0.000000 0.000656 0.000000
# 4 0.000000 0.000000 0.000000 0.033358 0.000000 -0.000731
# 5 -0.002484 0.002219 0.000656 0.000000 0.037863 0.000000
# 6 0.000000 0.000000 0.000000 -0.000731 0.000000 0.040944
#
#
# Mechanical properties :
#
#
# Convention : Reuss Voigt Hill
#
# Bulk Modulus (GPa) = 57.97995 75.48819 66.73407
# Shear Modulus (GPa) = 25.41097 27.33599 26.37348
#
# Velocity S-wave (km/s) = 3.78115 3.92176 3.85210
# Velocity P-wave (km/s) = 7.18918 7.93595 7.57178
#
# Compressibility (1/GPa) = 0.01724734
#
# Stress axis : x y z
#
# Youngs Moduli (GPa) = 87.78461 41.80089 78.52712
#
# Poissons Ratio (x) = 0.22226 0.41336
# Poissons Ratio (y) = 0.46675 0.37849
# Poissons Ratio (z) = 0.46209 0.20147
#
# Static dielectric constant tensor:
#      x y z
#    x 4.054210 0.000000 0.670030 
#    y 0.000000 3.248130 0.000000 
#    z 0.670030 0.000000 3.922290 
# 
# 
# High freq. dielectric constant tensor:
#      x y z
#    x 1.708870 0.000000 0.012570 
#    y 0.000000 1.681800 0.000000 
#    z 0.012570 0.000000 1.657820 
# 
# From -- ./inp_files/45283.got.cif
#   From: 2010.06.25/outbox.cif.g09.slc.cpg/sg11_23_cif.got.tgz:45283.got - 2010.06.27 23:14:04.
