data_PCOD8070444
_publ_section_title
;
Structure prediction by ZEFSAII (Michael W. Deem and Ramdas Pophale) SiO2 
 PCOD8070444
Probable space group: P 21/M
;
_chemical_formula_sum "Si O2"
_cell_formula_units_Z 28
_cell_length_a 20.075827
_cell_length_b 8.922655
_cell_length_c 18.369977
_cell_angle_alpha 90.000000
_cell_angle_beta 28.206378
_cell_angle_gamma 90.000000
_cell_volume 1555.302172
_symmetry_space_group_name_H-M "P 21/M"
_symmetry_group_IT_number 11
_symmetry_cell_setting 'monoclinic'
loop_
_space_group_symop_operation_xyz
x,y,z
-x,1/2+y,-z
-x,-y,-z
x,1/2-y,z
loop_
_atom_site_type_symbol
_atom_site_label
_atom_site_fract_x
_atom_site_fract_y
_atom_site_fract_z
Si Si1 0.912442 0.076761 0.192591
Si Si2 0.484893 0.920381 0.590524
Si Si3 0.650179 0.575198 0.705451
Si Si4 0.603129 0.073957 0.957994
Si Si5 0.705785 0.928195 0.492670
Si Si6 0.169861 0.919349 0.887869
Si Si7 0.154966 0.070853 0.349625
O O1 0.901032 0.250000 0.223235
O O2 0.828308 0.035695 0.199476
O O3 0.852953 0.983421 0.317775
O O4 0.074735 0.031614 0.025904
O O5 0.530431 0.750000 0.533644
O O6 0.581885 0.992137 0.559914
O O7 0.324685 0.932811 0.772152
O O8 0.500000 0.000000 0.500000
O O9 0.679840 0.750000 0.673454
O O10 0.685193 0.502682 0.593239
O O11 0.758730 0.513393 0.662216
O O12 0.483294 0.546957 0.883357
O O13 0.623541 0.250000 0.922983
O O14 0.755905 0.992032 0.806210
O O15 0.500000 0.000000 0.000000
O O16 0.702264 0.750000 0.499545
O O17 0.110457 0.750000 0.951822
O O18 0.144077 0.250000 0.354785
O O19 0.000000 0.000000 0.500000
#
# Coordination Sequence:
#
# PCOD8070444 Si02
#       7
#     4   4   4   4   4   4   4
#     4  10  19  31  48  70  97 128 164 208 255 299
#     4  10  19  31  50  73  96 123 162 209 251 293
#     4   8  17  33  52  75 102 133 169 204 245 302
#     4   9  16  30  52  76 104 136 171 210 248 297
#     4  10  19  33  53  74  98 132 169 206 253 305
#     4   9  18  32  47  67  95 126 165 208 251 302
#     4  10  19  33  54  80 107 135 170 211 252 302
#
# _framework density 18.002932999999999
#
# number of rings (size 3 to 8) (size 9 to 14) (size 15 to 20)
#    0.000    2.571    1.429    2.143    0.000    1.143 
#    0.000    5.714    0.000    5.143    0.000    0.000 
#    0.000    0.000    0.000    0.000    0.000    0.000 
#
# Total GULP energy -347013.570318 kJ/mol
# GULP energy per Si atom -12393.341797 kJ/mol
# Density = 1.796196 g / cm^3
# Si number density = 18.002933 Si / 1000 Ang^3
#
#
#
# Elastic Constant Matrix: (Units=GPa)
#
#
# Indices 1 2 3 4 5 6 
#
# 1 73.8933 23.2134 52.5768 0.0000 6.3873 0.0000
# 2 23.2134 51.4828 39.2516 0.0000 -0.3474 0.0000
# 3 52.5768 39.2516 136.0716 0.0000 4.9240 0.0000
# 4 0.0000 0.0000 0.0000 32.7012 0.0000 -2.7707
# 5 6.3873 -0.3474 4.9240 0.0000 29.8043 0.0000
# 6 0.0000 0.0000 0.0000 -2.7707 0.0000 17.0576
#
#
#
# Elastic Compliance Matrix: (Units=1/GPa)
#
#
# Indices 1 2 3 4 5 6 
#
# 1 0.019541 -0.004056 -0.006265 0.000000 -0.003200 0.000000
# 2 -0.004056 0.025808 -0.005955 0.000000 0.002154 0.000000
# 3 -0.006265 -0.005955 0.011510 0.000000 -0.000628 0.000000
# 4 0.000000 0.000000 0.000000 0.031007 0.000000 0.005037
# 5 -0.003200 0.002154 -0.000628 0.000000 0.034367 0.000000
# 6 0.000000 0.000000 0.000000 0.005037 0.000000 0.059443
#
#
# Mechanical properties :
#
#
# Convention : Reuss Voigt Hill
#
# Bulk Modulus (GPa) = 41.14042 54.61456 47.87749
# Shear Modulus (GPa) = 22.48896 25.67300 24.08098
#
# Velocity S-wave (km/s) = 3.53821 3.78040 3.66131
# Velocity P-wave (km/s) = 6.29235 7.03261 6.67275
#
# Compressibility (1/GPa) = 0.02430699
#
# Stress axis : x y z
#
# Youngs Moduli (GPa) = 51.17330 38.74787 86.87879
#
# Poissons Ratio (x) = 0.15718 0.54427
# Poissons Ratio (y) = 0.20758 0.51738
# Poissons Ratio (z) = 0.32059 0.23075
#
# Static dielectric constant tensor:
#      x y z
#    x 3.326070 0.000000 0.039510 
#    y 0.000000 3.240790 0.000000 
#    z 0.039510 0.000000 3.663770 
# 
# 
# High freq. dielectric constant tensor:
#      x y z
#    x 1.661570 0.000000 -0.004900 
#    y 0.000000 1.687050 0.000000 
#    z -0.004900 0.000000 1.709650 
# 
# From -- ./inp_files/61242.got.cif
#   From: 2010.06.25/outbox.cif.g09.slc.cpg/sg11_31_cif.got.tgz:61242.got - 2010.06.27 23:14:04.
