data_PCOD8070851
_publ_section_title
;
Structure prediction by ZEFSAII (Michael W. Deem and Ramdas Pophale) SiO2 
 PCOD8070851
Probable space group: P 21/M
;
_chemical_formula_sum "Si O2"
_cell_formula_units_Z 32
_cell_length_a 12.049800
_cell_length_b 9.258985
_cell_length_c 21.930046
_cell_angle_alpha 90.000000
_cell_angle_beta 134.307207
_cell_angle_gamma 90.000000
_cell_volume 1750.878677
_symmetry_space_group_name_H-M "P 21/M"
_symmetry_group_IT_number 11
_symmetry_cell_setting 'monoclinic'
loop_
_space_group_symop_operation_xyz
x,y,z
-x,1/2+y,-z
-x,-y,-z
x,1/2-y,z
loop_
_atom_site_type_symbol
_atom_site_label
_atom_site_fract_x
_atom_site_fract_y
_atom_site_fract_z
Si Si1 0.410768 0.578178 0.411019
Si Si2 0.932102 0.414826 0.529486
Si Si3 0.576803 0.416848 0.231422
Si Si4 0.037885 0.580242 0.107502
Si Si5 0.417688 0.917573 0.626120
Si Si6 0.852804 0.920291 0.278738
Si Si7 0.936846 0.079394 0.747140
Si Si8 0.773236 0.584059 0.915307
O O1 0.500000 0.500000 0.500000
O O2 0.438753 0.750000 0.425747
O O3 0.466513 0.519011 0.366949
O O4 0.229115 0.537989 0.345634
O O5 0.967999 0.250000 0.528642
O O6 0.750060 0.440692 0.468295
O O7 0.000000 0.500000 0.500000
O O8 0.017114 0.466131 0.622848
O O9 0.624758 0.250000 0.246881
O O10 0.585470 0.469700 0.304857
O O11 0.691187 0.504152 0.231684
O O12 0.406123 0.444947 0.138921
O O13 0.068842 0.750000 0.120087
O O14 0.039544 0.514232 0.176190
O O15 0.177982 0.509476 0.124072
O O16 0.873209 0.541259 0.013143
O O17 0.470449 0.750000 0.642114
O O18 0.823441 0.750000 0.267014
O O19 0.922025 0.976637 0.241018
O O20 0.947526 0.250000 0.755409
O O21 0.801496 0.750000 0.908280
#
# Coordination Sequence:
#
# PCOD8070851 Si02
#       8
#     4   4   4   4   4   4   4   4
#     4  11  22  36  54  76 104 135 171 213 258 308
#     4  10  19  32  50  71  98 133 171 214 255 298
#     4  10  20  34  51  75 107 137 165 209 265 308
#     4   9  17  33  57  80 102 134 172 207 250 308
#     4  10  20  34  52  74 104 136 168 212 262 306
#     4  10  20  34  52  72  98 135 179 219 251 297
#     4   9  19  36  55  74 101 138 175 211 253 301
#     4   9  18  32  53  81 109 132 161 209 263 308
#
# _framework density 18.276537999999999
#
# number of rings (size 3 to 8) (size 9 to 14) (size 15 to 20)
#    0.000    2.250    1.250    1.875    0.000    3.500 
#    0.000    4.375    0.000    0.000    0.000    0.000 
#    0.000    0.000    0.000    0.000    0.000    0.000 
#
# Total GULP energy -396800.698978 kJ/mol
# GULP energy per Si atom -12400.021843 kJ/mol
# Density = 1.823494 g / cm^3
# Si number density = 18.276538 Si / 1000 Ang^3
#
#
#
# Elastic Constant Matrix: (Units=GPa)
#
#
# Indices 1 2 3 4 5 6 
#
# 1 140.9485 48.3961 60.8627 0.0000 -7.9023 0.0000
# 2 48.3961 47.0936 31.4364 0.0000 -2.9899 0.0000
# 3 60.8627 31.4364 102.8685 0.0000 -6.0128 0.0000
# 4 0.0000 0.0000 0.0000 21.7959 0.0000 0.2417
# 5 -7.9023 -2.9899 -6.0128 0.0000 29.3755 0.0000
# 6 0.0000 0.0000 0.0000 0.2417 0.0000 31.1680
#
#
#
# Elastic Compliance Matrix: (Units=1/GPa)
#
#
# Indices 1 2 3 4 5 6 
#
# 1 0.012369 -0.009786 -0.004242 0.000000 0.001463 0.000000
# 2 -0.009786 0.034452 -0.004744 0.000000 -0.000097 0.000000
# 3 -0.004242 -0.004744 0.013750 0.000000 0.001191 0.000000
# 4 0.000000 0.000000 0.000000 0.045884 0.000000 -0.000356
# 5 0.001463 -0.000097 0.001191 0.000000 0.034669 0.000000
# 6 0.000000 0.000000 0.000000 -0.000356 0.000000 0.032087
#
#
# Mechanical properties :
#
#
# Convention : Reuss Voigt Hill
#
# Bulk Modulus (GPa) = 43.42817 63.58902 53.50859
# Shear Modulus (GPa) = 22.89051 26.48222 24.68637
#
# Velocity S-wave (km/s) = 3.54284 3.81067 3.67919
# Velocity P-wave (km/s) = 6.36780 7.36409 6.88399
#
# Compressibility (1/GPa) = 0.02302653
#
# Stress axis : x y z
#
# Youngs Moduli (GPa) = 80.84908 29.02594 72.72635
#
# Poissons Ratio (x) = 0.28406 0.30849
# Poissons Ratio (y) = 0.79122 0.34501
# Poissons Ratio (z) = 0.34295 0.13770
#
# Static dielectric constant tensor:
#      x y z
#    x 2.998850 0.000000 -0.078850 
#    y 0.000000 3.203890 0.000000 
#    z -0.078850 0.000000 3.557230 
# 
# 
# High freq. dielectric constant tensor:
#      x y z
#    x 1.708700 0.000000 0.002320 
#    y 0.000000 1.690920 0.000000 
#    z 0.002320 0.000000 1.712160 
# 
# From -- ./inp_files/64456.got.cif
#   From: 2010.06.25/outbox.cif.g09.slc.cpg/sg11_33_cif.got.tgz:64456.got - 2010.06.27 23:14:04.
