data_PCOD8070636
_publ_section_title
;
Structure prediction by ZEFSAII (Michael W. Deem and Ramdas Pophale) SiO2 
 PCOD8070636
Probable space group: P 21/M
;
_chemical_formula_sum "Si O2"
_cell_formula_units_Z 24
_cell_length_a 9.543908
_cell_length_b 9.130613
_cell_length_c 20.406181
_cell_angle_alpha 90.000000
_cell_angle_beta 48.933986
_cell_angle_gamma 90.000000
_cell_volume 1340.702130
_symmetry_space_group_name_H-M "P 21/M"
_symmetry_group_IT_number 11
_symmetry_cell_setting 'monoclinic'
loop_
_space_group_symop_operation_xyz
x,y,z
-x,1/2+y,-z
-x,-y,-z
x,1/2-y,z
loop_
_atom_site_type_symbol
_atom_site_label
_atom_site_fract_x
_atom_site_fract_y
_atom_site_fract_z
Si Si1 0.595747 0.919815 0.030580
Si Si2 0.584911 0.420009 0.779324
Si Si3 0.040598 0.917072 0.271244
Si Si4 0.968402 0.917927 0.855460
Si Si5 0.378158 0.076493 0.592032
Si Si6 0.384770 0.576688 0.726202
O O1 0.545135 0.750000 0.038898
O O2 0.522310 0.976889 0.122904
O O3 0.819101 0.947480 0.959004
O O4 0.500000 0.000000 0.000000
O O5 0.537842 0.250000 0.779609
O O6 0.806396 0.444359 0.719539
O O7 0.525726 0.520604 0.737491
O O8 0.039619 0.750000 0.249242
O O9 0.836290 0.961834 0.359309
O O10 0.101637 0.002161 0.187931
O O11 0.973751 0.750000 0.833705
O O12 0.175347 0.966838 0.813352
O O13 0.415686 0.250000 0.582001
O O14 0.500000 0.000000 0.500000
O O15 0.433594 0.006497 0.644312
O O16 0.410061 0.750000 0.708527
#
# Coordination Sequence:
#
# PCOD8070636 Si02
#       6
#     4   4   4   4   4   4
#     4  10  19  31  50  75 105 140 182 223 258 301
#     4  10  20  34  51  76 109 142 176 217 262 306
#     4   9  18  33  54  78 104 137 174 212 259 314
#     4   9  18  32  50  74 104 139 180 222 258 300
#     4  10  20  37  61  84 105 132 169 212 261 318
#     4  10  21  36  53  77 109 141 175 215 262 311
#
# _framework density 17.901067000000001
#
# number of rings (size 3 to 8) (size 9 to 14) (size 15 to 20)
#    0.000    2.333    1.667    1.000    0.000    3.333 
#    0.000    0.833    0.000    0.000    0.000    0.000 
#    0.000    0.000    0.000    0.000    0.000    0.000 
#
# Total GULP energy -297558.532434 kJ/mol
# GULP energy per Si atom -12398.272185 kJ/mol
# Density = 1.786032 g / cm^3
# Si number density = 17.901067 Si / 1000 Ang^3
#
#
#
# Elastic Constant Matrix: (Units=GPa)
#
#
# Indices 1 2 3 4 5 6 
#
# 1 110.8275 46.5744 59.8097 0.0000 6.5906 0.0000
# 2 46.5744 69.0958 48.3810 0.0000 5.4797 0.0000
# 3 59.8097 48.3810 128.9520 0.0000 2.0417 0.0000
# 4 0.0000 0.0000 0.0000 26.9842 0.0000 4.3484
# 5 6.5906 5.4797 2.0417 0.0000 20.2095 0.0000
# 6 0.0000 0.0000 0.0000 4.3484 0.0000 31.9081
#
#
#
# Elastic Compliance Matrix: (Units=1/GPa)
#
#
# Indices 1 2 3 4 5 6 
#
# 1 0.014072 -0.006442 -0.004071 0.000000 -0.002431 0.000000
# 2 -0.006442 0.023012 -0.005589 0.000000 -0.003574 0.000000
# 3 -0.004071 -0.005589 0.011714 0.000000 0.001660 0.000000
# 4 0.000000 0.000000 0.000000 0.037891 0.000000 -0.005164
# 5 -0.002431 -0.003574 0.001660 0.000000 0.051076 0.000000
# 6 0.000000 0.000000 0.000000 -0.005164 0.000000 0.032044
#
#
# Mechanical properties :
#
#
# Convention : Reuss Voigt Hill
#
# Bulk Modulus (GPa) = 60.26715 68.71173 64.48944
# Shear Modulus (GPa) = 24.09128 26.09437 25.09283
#
# Velocity S-wave (km/s) = 3.67250 3.82212 3.74806
# Velocity P-wave (km/s) = 7.19186 7.61220 7.40502
#
# Compressibility (1/GPa) = 0.01659279
#
# Stress axis : x y z
#
# Youngs Moduli (GPa) = 71.06395 43.45585 85.36783
#
# Poissons Ratio (x) = 0.27992 0.34757
# Poissons Ratio (y) = 0.45776 0.47716
# Poissons Ratio (z) = 0.28933 0.24289
#
# Static dielectric constant tensor:
#      x y z
#    x 3.306010 0.000000 -0.266650 
#    y 0.000000 3.329010 0.000000 
#    z -0.266650 0.000000 3.461270 
# 
# 
# High freq. dielectric constant tensor:
#      x y z
#    x 1.685040 0.000000 -0.015880 
#    y 0.000000 1.696420 0.000000 
#    z -0.015880 0.000000 1.686640 
# 
# From -- ./inp_files/20333.got.cif
#   From: 2010.06.25/outbox.cif.g09.slc.cpg/sg11_11_cif.got.tgz:20333.got - 2010.06.27 23:14:04.
