data_PCOD8070891
_publ_section_title
;
Structure prediction by ZEFSAII (Michael W. Deem and Ramdas Pophale) SiO2 
 PCOD8070891
Probable space group: P 21/M
;
_chemical_formula_sum "Si O2"
_cell_formula_units_Z 32
_cell_length_a 21.274676
_cell_length_b 8.871585
_cell_length_c 30.230096
_cell_angle_alpha 90.000000
_cell_angle_beta 18.196666
_cell_angle_gamma 90.000000
_cell_volume 1781.752467
_symmetry_space_group_name_H-M "P 21/M"
_symmetry_group_IT_number 11
_symmetry_cell_setting 'monoclinic'
loop_
_space_group_symop_operation_xyz
x,y,z
-x,1/2+y,-z
-x,-y,-z
x,1/2-y,z
loop_
_atom_site_type_symbol
_atom_site_label
_atom_site_fract_x
_atom_site_fract_y
_atom_site_fract_z
Si Si1 0.299217 0.924397 0.730966
Si Si2 0.387939 0.922732 0.009092
Si Si3 0.237301 0.923525 0.208661
Si Si4 0.193291 0.429040 0.523957
Si Si5 0.918029 0.071467 0.948076
Si Si6 0.371398 0.929041 0.781718
Si Si7 0.898072 0.572356 0.869556
Si Si8 0.244322 0.075408 0.588436
O O1 0.234100 0.750000 0.772328
O O2 0.298178 0.983366 0.782355
O O3 0.518110 0.946460 0.562723
O O4 0.146384 0.024019 0.804973
O O5 0.380896 0.750000 0.998527
O O6 0.620171 0.976379 0.855566
O O7 0.288555 0.946207 0.123093
O O8 0.268175 0.022990 0.054538
O O9 0.264326 0.750000 0.204476
O O10 0.005915 0.979694 0.369817
O O11 0.198782 0.250000 0.523727
O O12 0.398832 0.487190 0.363224
O O13 0.184514 0.488640 0.580165
O O14 0.904223 0.250000 0.953710
O O15 0.838929 0.999619 0.955851
O O16 0.775075 0.006700 0.082724
O O17 0.370664 0.750000 0.782610
O O18 0.897516 0.750000 0.874528
O O19 0.121380 0.518518 0.706786
O O20 0.182044 0.250000 0.634834
#
# Coordination Sequence:
#
# PCOD8070891 Si02
#       8
#     4   4   4   4   4   4   4   4
#     4   9  18  34  57  80 103 129 165 213 261 306
#     4  10  19  32  50  75 107 138 167 202 248 302
#     4   9  16  28  51  80 107 134 163 199 248 303
#     4   8  13  27  52  79 105 130 163 205 253 302
#     4  11  22  35  52  74 102 137 176 211 253 303
#     4   8  16  31  54  80 102 131 169 212 255 300
#     4  12  24  36  51  71 102 139 176 213 252 301
#     4   9  17  33  54  76 102 134 167 205 256 308
#
# _framework density 17.959847
#
# number of rings (size 3 to 8) (size 9 to 14) (size 15 to 20)
#    0.000    2.500    1.250    3.750    0.000    1.500 
#    0.000    0.625    0.000    3.750    0.000    0.000 
#    0.000    0.000    0.000    0.000    0.000    0.000 
#
# Total GULP energy -396726.828953 kJ/mol
# GULP energy per Si atom -12397.713405 kJ/mol
# Density = 1.791897 g / cm^3
# Si number density = 17.959847 Si / 1000 Ang^3
#
#
#
# Elastic Constant Matrix: (Units=GPa)
#
#
# Indices 1 2 3 4 5 6 
#
# 1 64.2463 30.8595 38.4464 0.0000 -4.1460 0.0000
# 2 30.8595 67.2589 26.9598 0.0000 -3.3819 0.0000
# 3 38.4464 26.9598 78.2555 0.0000 -16.9227 0.0000
# 4 0.0000 0.0000 0.0000 21.8617 0.0000 -6.7920
# 5 -4.1460 -3.3819 -16.9227 0.0000 24.8169 0.0000
# 6 0.0000 0.0000 0.0000 -6.7920 0.0000 24.1028
#
#
#
# Elastic Compliance Matrix: (Units=1/GPa)
#
#
# Indices 1 2 3 4 5 6 
#
# 1 0.025349 -0.007528 -0.010752 0.000000 -0.004123 0.000000
# 2 -0.007528 0.019570 -0.003213 0.000000 -0.000781 0.000000
# 3 -0.010752 -0.003213 0.021917 0.000000 0.012711 0.000000
# 4 0.000000 0.000000 0.000000 0.050131 0.000000 0.014126
# 5 -0.004123 -0.000781 0.012711 0.000000 0.048167 0.000000
# 6 0.000000 0.000000 0.000000 0.014126 0.000000 0.045470
#
#
# Mechanical properties :
#
#
# Convention : Reuss Voigt Hill
#
# Bulk Modulus (GPa) = 41.92752 44.69910 43.31331
# Shear Modulus (GPa) = 19.11753 21.72262 20.42008
#
# Velocity S-wave (km/s) = 3.26615 3.48157 3.37558
# Velocity P-wave (km/s) = 6.13347 6.41126 6.27390
#
# Compressibility (1/GPa) = 0.02385068
#
# Stress axis : x y z
#
# Youngs Moduli (GPa) = 39.44881 51.09752 45.62763
#
# Poissons Ratio (x) = 0.38467 0.49059
# Poissons Ratio (y) = 0.29698 0.14658
# Poissons Ratio (z) = 0.42415 0.16416
#
# Static dielectric constant tensor:
#      x y z
#    x 3.187740 0.000000 -0.102420 
#    y 0.000000 3.067260 0.000000 
#    z -0.102420 0.000000 3.669680 
# 
# 
# High freq. dielectric constant tensor:
#      x y z
#    x 1.675150 0.000000 -0.017120 
#    y 0.000000 1.672140 0.000000 
#    z -0.017120 0.000000 1.699120 
# 
# From -- ./inp_files/73615.got.cif
#   From: 2010.06.25/outbox.cif.g09.slc.cpg/sg11_37_cif.got.tgz:73615.got - 2010.06.27 23:14:04.
