data_PCOD8070822
_publ_section_title
;
Structure prediction by ZEFSAII (Michael W. Deem and Ramdas Pophale) SiO2 
 PCOD8070822
Probable space group: P 21/M
;
_chemical_formula_sum "Si O2"
_cell_formula_units_Z 32
_cell_length_a 14.394088
_cell_length_b 8.699436
_cell_length_c 15.923137
_cell_angle_alpha 90.000000
_cell_angle_beta 62.252171
_cell_angle_gamma 90.000000
_cell_volume 1764.614096
_symmetry_space_group_name_H-M "P 21/M"
_symmetry_group_IT_number 11
_symmetry_cell_setting 'monoclinic'
loop_
_space_group_symop_operation_xyz
x,y,z
-x,1/2+y,-z
-x,-y,-z
x,1/2-y,z
loop_
_atom_site_type_symbol
_atom_site_label
_atom_site_fract_x
_atom_site_fract_y
_atom_site_fract_z
Si Si1 0.563702 0.430854 0.151710
Si Si2 0.881274 0.928224 0.944763
Si Si3 0.224144 0.569586 0.857537
Si Si4 0.840791 0.927149 0.610261
Si Si5 0.663267 0.927689 0.953313
Si Si6 0.914627 0.431642 0.232487
Si Si7 0.934801 0.070635 0.410989
Si Si8 0.646610 0.429273 0.780104
O O1 0.546007 0.250000 0.169407
O O2 0.659302 0.493150 0.170313
O O3 0.459139 0.520606 0.224801
O O4 0.589141 0.469934 0.043972
O O5 0.898342 0.750000 0.955850
O O6 0.784242 0.958729 0.923866
O O7 0.983183 0.001262 0.856939
O O8 0.863046 0.006722 0.042036
O O9 0.225044 0.750000 0.869491
O O10 0.189344 0.524040 0.777476
O O11 0.806329 0.750000 0.628585
O O12 0.941680 0.957634 0.626252
O O13 0.866059 0.972234 0.504176
O O14 0.746540 0.032582 0.681481
O O15 0.632846 0.750000 0.979114
O O16 0.647144 0.973074 0.864561
O O17 0.930091 0.250000 0.232016
O O18 0.905176 0.494171 0.331226
O O19 0.907377 0.250000 0.434097
O O20 0.645583 0.250000 0.801171
#
# Coordination Sequence:
#
# PCOD8070822 Si02
#       8
#     4   4   4   4   4   4   4   4
#     4  10  20  34  49  69  99 133 168 207 247 285
#     4   9  17  29  47  71 102 136 165 196 237 286
#     4   9  18  31  48  70  98 132 168 205 241 280
#     4  10  20  35  54  77 104 130 157 195 243 293
#     4  10  19  32  49  72 102 134 166 201 243 291
#     4   9  16  29  50  74  99 130 166 199 238 288
#     4   9  18  34  55  77 103 132 159 192 239 295
#     4  12  23  34  51  73  96 128 168 206 246 293
#
# _framework density 18.134277000000001
#
# number of rings (size 3 to 8) (size 9 to 14) (size 15 to 20)
#    0.000    2.250    0.000    3.750    0.000    3.500 
#    0.000    1.250    0.000    0.750    0.000    0.000 
#    0.000    0.000    0.000    0.000    0.000    0.000 
#
# Total GULP energy -396818.670347 kJ/mol
# GULP energy per Si atom -12400.583448 kJ/mol
# Density = 1.809300 g / cm^3
# Si number density = 18.134277 Si / 1000 Ang^3
#
#
#
# Elastic Constant Matrix: (Units=GPa)
#
#
# Indices 1 2 3 4 5 6 
#
# 1 92.6489 22.4290 58.4721 0.0000 7.3809 0.0000
# 2 22.4290 40.4326 15.6219 0.0000 -0.9870 0.0000
# 3 58.4721 15.6219 82.7625 0.0000 10.9984 0.0000
# 4 0.0000 0.0000 0.0000 26.5846 0.0000 -2.8253
# 5 7.3809 -0.9870 10.9984 0.0000 31.8229 0.0000
# 6 0.0000 0.0000 0.0000 -2.8253 0.0000 20.2830
#
#
#
# Elastic Compliance Matrix: (Units=1/GPa)
#
#
# Indices 1 2 3 4 5 6 
#
# 1 0.020892 -0.006380 -0.013506 0.000000 -0.000376 0.000000
# 2 -0.006380 0.028848 -0.001314 0.000000 0.002829 0.000000
# 3 -0.013506 -0.001314 0.022495 0.000000 -0.004683 0.000000
# 4 0.000000 0.000000 0.000000 0.038181 0.000000 0.005318
# 5 -0.000376 0.002829 -0.004683 0.000000 0.033217 0.000000
# 6 0.000000 0.000000 0.000000 0.005318 0.000000 0.050043
#
#
# Mechanical properties :
#
#
# Convention : Reuss Voigt Hill
#
# Bulk Modulus (GPa) = 33.51671 45.43222 39.47446
# Shear Modulus (GPa) = 20.32350 23.69283 22.00816
#
# Velocity S-wave (km/s) = 3.35135 3.61851 3.48749
# Velocity P-wave (km/s) = 5.78775 6.52424 6.16700
#
# Compressibility (1/GPa) = 0.02983586
#
# Stress axis : x y z
#
# Youngs Moduli (GPa) = 47.86603 34.66407 44.45435
#
# Poissons Ratio (x) = 0.22116 0.60039
# Poissons Ratio (y) = 0.30539 0.05840
# Poissons Ratio (z) = 0.64647 0.04554
#
# Static dielectric constant tensor:
#      x y z
#    x 3.642890 0.000000 -0.009020 
#    y 0.000000 3.210710 0.000000 
#    z -0.009020 0.000000 3.252770 
# 
# 
# High freq. dielectric constant tensor:
#      x y z
#    x 1.707690 0.000000 -0.000570 
#    y 0.000000 1.693050 0.000000 
#    z -0.000570 0.000000 1.680480 
# 
# From -- ./inp_files/51616.got.cif
#   From: 2010.06.25/outbox.cif.g09.slc.cpg/sg11_26_cif.got.tgz:51616.got - 2010.06.27 23:14:04.
