data_PCOD8070682
_publ_section_title
;
Structure prediction by ZEFSAII (Michael W. Deem and Ramdas Pophale) SiO2 
 PCOD8070682
Probable space group: P 21/M
;
_chemical_formula_sum "Si O2"
_cell_formula_units_Z 32
_cell_length_a 15.581307
_cell_length_b 8.668703
_cell_length_c 15.703853
_cell_angle_alpha 90.000000
_cell_angle_beta 124.365884
_cell_angle_gamma 90.000000
_cell_volume 1750.873913
_symmetry_space_group_name_H-M "P 21/M"
_symmetry_group_IT_number 11
_symmetry_cell_setting 'monoclinic'
loop_
_space_group_symop_operation_xyz
x,y,z
-x,1/2+y,-z
-x,-y,-z
x,1/2-y,z
loop_
_atom_site_type_symbol
_atom_site_label
_atom_site_fract_x
_atom_site_fract_y
_atom_site_fract_z
Si Si1 0.565084 0.431672 0.217884
Si Si2 0.321585 0.430686 0.875666
Si Si3 0.039988 0.430037 0.147023
Si Si4 0.907307 0.568884 0.636993
Si Si5 0.354761 0.929883 0.075247
Si Si6 0.842829 0.571196 0.957507
Si Si7 0.874445 0.067543 0.311765
Si Si8 0.769773 0.430049 0.425452
O O1 0.544138 0.250000 0.209348
O O2 0.603328 0.475151 0.144908
O O3 0.460850 0.524327 0.183490
O O4 0.652896 0.481236 0.335687
O O5 0.335848 0.250000 0.866626
O O6 0.202369 0.480608 0.795722
O O7 0.352276 0.469176 0.988764
O O8 0.009950 0.250000 0.133236
O O9 0.089947 0.487226 0.263660
O O10 0.934595 0.524469 0.073135
O O11 0.123263 0.464393 0.120127
O O12 0.901908 0.750000 0.630516
O O13 0.804501 0.506287 0.533271
O O14 0.009896 0.510243 0.644964
O O15 0.353023 0.750000 0.051954
O O16 0.258750 0.970154 0.082350
O O17 0.816620 0.750000 0.956951
O O18 0.859651 0.250000 0.289358
O O19 0.847802 0.019095 0.393424
O O20 0.775037 0.250000 0.441942
#
# Coordination Sequence:
#
# PCOD8070682 Si02
#       8
#     4   4   4   4   4   4   4   4
#     4  10  21  38  54  72 102 137 172 212 256 298
#     4  11  21  33  51  77 106 137 172 209 251 301
#     4   9  19  35  54  79 109 137 166 206 257 306
#     4  10  19  31  51  75 101 135 172 210 252 301
#     4  12  23  35  53  76 102 134 172 212 255 305
#     4  10  20  35  55  79 106 135 168 208 255 307
#     4   9  18  32  48  72 107 142 172 207 252 296
#     4   9  19  33  49  71 102 137 171 210 252 296
#
# _framework density 18.276586999999999
#
# number of rings (size 3 to 8) (size 9 to 14) (size 15 to 20)
#    0.000    2.000    0.000    5.250    0.000    5.000 
#    0.000    0.000    0.000    0.750    0.000    0.000 
#    0.000    0.000    0.000    0.000    0.000    0.000 
#
# Total GULP energy -396889.257045 kJ/mol
# GULP energy per Si atom -12402.789283 kJ/mol
# Density = 1.823499 g / cm^3
# Si number density = 18.276587 Si / 1000 Ang^3
#
#
#
# Elastic Constant Matrix: (Units=GPa)
#
#
# Indices 1 2 3 4 5 6 
#
# 1 88.1502 24.6265 57.0812 0.0000 11.9109 0.0000
# 2 24.6265 48.8726 27.7953 0.0000 4.8332 0.0000
# 3 57.0812 27.7953 135.1029 0.0000 3.4746 0.0000
# 4 0.0000 0.0000 0.0000 30.4321 0.0000 3.4243
# 5 11.9109 4.8332 3.4746 0.0000 21.6626 0.0000
# 6 0.0000 0.0000 0.0000 3.4243 0.0000 26.7085
#
#
#
# Elastic Compliance Matrix: (Units=1/GPa)
#
#
# Indices 1 2 3 4 5 6 
#
# 1 0.017800 -0.004575 -0.006380 0.000000 -0.007743 0.000000
# 2 -0.004575 0.024779 -0.003100 0.000000 -0.002516 0.000000
# 3 -0.006380 -0.003100 0.010671 0.000000 0.002488 0.000000
# 4 0.000000 0.000000 0.000000 0.033341 0.000000 -0.004275
# 5 -0.007743 -0.002516 0.002488 0.000000 0.050582 0.000000
# 6 0.000000 0.000000 0.000000 -0.004275 0.000000 0.037989
#
#
# Mechanical properties :
#
#
# Convention : Reuss Voigt Hill
#
# Bulk Modulus (GPa) = 39.77846 54.57019 47.17432
# Shear Modulus (GPa) = 23.62359 26.60215 25.11287
#
# Velocity S-wave (km/s) = 3.59912 3.81928 3.71083
# Velocity P-wave (km/s) = 6.25168 7.02652 6.65040
#
# Compressibility (1/GPa) = 0.02513924
#
# Stress axis : x y z
#
# Youngs Moduli (GPa) = 56.17949 40.35737 93.70985
#
# Poissons Ratio (x) = 0.18463 0.59789
# Poissons Ratio (y) = 0.25702 0.29052
# Poissons Ratio (z) = 0.35844 0.12512
#
# Static dielectric constant tensor:
#      x y z
#    x 3.367670 0.000000 0.141510 
#    y 0.000000 3.306630 0.000000 
#    z 0.141510 0.000000 3.552400 
# 
# 
# High freq. dielectric constant tensor:
#      x y z
#    x 1.692760 0.000000 0.010910 
#    y 0.000000 1.710040 0.000000 
#    z 0.010910 0.000000 1.702900 
# 
# From -- ./inp_files/51759.got.cif
#   From: 2010.06.25/outbox.cif.g09.slc.cpg/sg11_26_cif.got.tgz:51759.got - 2010.06.27 23:14:04.
