data_PCOD8070068
_publ_section_title
;
Structure prediction by ZEFSAII (Michael W. Deem and Ramdas Pophale) SiO2 
 PCOD8070068
Probable space group: P 21/M
;
_chemical_formula_sum "Si O2"
_cell_formula_units_Z 32
_cell_length_a 30.445210
_cell_length_b 9.462775
_cell_length_c 14.174338
_cell_angle_alpha 90.000000
_cell_angle_beta 28.629329
_cell_angle_gamma 90.000000
_cell_volume 1956.607934
_symmetry_space_group_name_H-M "P 21/M"
_symmetry_group_IT_number 11
_symmetry_cell_setting 'monoclinic'
loop_
_space_group_symop_operation_xyz
x,y,z
-x,1/2+y,-z
-x,-y,-z
x,1/2-y,z
loop_
_atom_site_type_symbol
_atom_site_label
_atom_site_fract_x
_atom_site_fract_y
_atom_site_fract_z
Si Si1 0.355280 0.912008 0.522231
Si Si2 0.179969 0.910180 0.320151
Si Si3 0.977488 0.589455 0.697874
Si Si4 0.158924 0.587395 0.141062
Si Si5 0.506787 0.914607 0.390949
Si Si6 0.499217 0.086218 0.906362
Si Si7 0.211742 0.089692 0.879760
Si Si8 0.351958 0.415910 0.031628
O O1 0.323195 0.750000 0.586298
O O2 0.419467 0.947681 0.490283
O O3 0.407430 0.943594 0.326664
O O4 0.266102 0.013229 0.692909
O O5 0.199917 0.750000 0.313571
O O6 0.188934 0.927671 0.191454
O O7 0.077600 0.957004 0.546558
O O8 0.254669 0.008465 0.228183
O O9 0.986672 0.750000 0.638952
O O10 0.942360 0.482501 0.682250
O O11 0.899406 0.587213 0.928205
O O12 0.157284 0.750000 0.111236
O O13 0.230983 0.498951 0.940409
O O14 0.510530 0.750000 0.409257
O O15 0.597589 0.959546 0.161042
O O16 0.500000 0.000000 0.500000
O O17 0.490839 0.250000 0.947536
O O18 0.413765 0.037996 0.003622
O O19 0.500000 0.000000 0.000000
O O20 0.247202 0.250000 0.824549
O O21 0.335075 0.250000 0.064376
#
# Coordination Sequence:
#
# PCOD8070068 Si02
#       8
#     4   4   4   4   4   4   4   4
#     4   9  18  33  49  68  96 124 154 196 240 284
#     4  10  19  30  44  64  94 130 167 207 242 278
#     4   8  17  30  41  61  93 128 168 209 241 271
#     4   9  17  27  41  61  90 129 171 205 238 275
#     4   9  19  32  44  61  92 128 159 192 231 274
#     4   9  19  37  58  77  98 121 149 196 250 298
#     4   9  18  29  43  64  93 125 161 201 235 273
#     4   9  20  35  48  69  98 126 158 198 243 289
#
# _framework density 16.354834
#
# number of rings (size 3 to 8) (size 9 to 14) (size 15 to 20)
#    0.750    2.250    0.000    2.250    1.750    3.500 
#    0.000    2.500    0.000    0.000    0.000    0.875 
#    0.000    0.000    0.000    0.000    0.000    0.000 
#
# Total GULP energy -396475.738578 kJ/mol
# GULP energy per Si atom -12389.866831 kJ/mol
# Density = 1.631761 g / cm^3
# Si number density = 16.354834 Si / 1000 Ang^3
#
#
#
# Elastic Constant Matrix: (Units=GPa)
#
#
# Indices 1 2 3 4 5 6 
#
# 1 68.4270 42.8494 39.2021 0.0000 7.3843 0.0000
# 2 42.8494 87.3863 52.8501 0.0000 1.0956 0.0000
# 3 39.2021 52.8501 84.8423 0.0000 -0.0695 0.0000
# 4 0.0000 0.0000 0.0000 30.8896 0.0000 0.4031
# 5 7.3843 1.0956 -0.0695 0.0000 19.7176 0.0000
# 6 0.0000 0.0000 0.0000 0.4031 0.0000 25.0540
#
#
#
# Elastic Compliance Matrix: (Units=1/GPa)
#
#
# Indices 1 2 3 4 5 6 
#
# 1 0.024058 -0.007961 -0.006164 0.000000 -0.008589 0.000000
# 2 -0.007961 0.021017 -0.009412 0.000000 0.001780 0.000000
# 3 -0.006164 -0.009412 0.020500 0.000000 0.002904 0.000000
# 4 0.000000 0.000000 0.000000 0.032380 0.000000 -0.000521
# 5 -0.008589 0.001780 0.002904 0.000000 0.053844 0.000000
# 6 0.000000 0.000000 0.000000 -0.000521 0.000000 0.039922
#
#
# Mechanical properties :
#
#
# Convention : Reuss Voigt Hill
#
# Bulk Modulus (GPa) = 54.05217 56.71764 55.38491
# Shear Modulus (GPa) = 20.41132 22.18249 21.29691
#
# Velocity S-wave (km/s) = 3.53658 3.68683 3.61249
# Velocity P-wave (km/s) = 7.05676 7.27175 7.16506
#
# Compressibility (1/GPa) = 0.01850065
#
# Stress axis : x y z
#
# Youngs Moduli (GPa) = 41.56689 47.58051 48.78036
#
# Poissons Ratio (x) = 0.37879 0.30068
# Poissons Ratio (y) = 0.33091 0.45912
# Poissons Ratio (z) = 0.25622 0.44783
#
# Static dielectric constant tensor:
#      x y z
#    x 2.625300 0.000000 -0.080370 
#    y 0.000000 3.076930 0.000000 
#    z -0.080370 0.000000 3.157150 
# 
# 
# High freq. dielectric constant tensor:
#      x y z
#    x 1.574810 0.000000 -0.008000 
#    y 0.000000 1.635530 0.000000 
#    z -0.008000 0.000000 1.635930 
# 
# From -- ./inp_files/56464.got.cif
#   From: 2010.06.25/outbox.cif.g09.slc.cpg/sg11_29_cif.got.tgz:56464.got - 2010.06.27 23:14:04.
