data_PCOD8070149
_publ_section_title
;
Structure prediction by ZEFSAII (Michael W. Deem and Ramdas Pophale) SiO2 
 PCOD8070149
Probable space group: P 21/M
;
_chemical_formula_sum "Si O2"
_cell_formula_units_Z 32
_cell_length_a 20.165357
_cell_length_b 8.933848
_cell_length_c 28.800801
_cell_angle_alpha 90.000000
_cell_angle_beta 159.151118
_cell_angle_gamma 90.000000
_cell_volume 1846.640580
_symmetry_space_group_name_H-M "P 21/M"
_symmetry_group_IT_number 11
_symmetry_cell_setting 'monoclinic'
loop_
_space_group_symop_operation_xyz
x,y,z
-x,1/2+y,-z
-x,-y,-z
x,1/2-y,z
loop_
_atom_site_type_symbol
_atom_site_label
_atom_site_fract_x
_atom_site_fract_y
_atom_site_fract_z
Si Si1 0.056531 0.424837 0.229338
Si Si2 0.504745 0.079378 0.068533
Si Si3 0.551770 0.927728 0.683732
Si Si4 0.799676 0.076886 0.190513
Si Si5 0.878693 0.925752 0.831840
Si Si6 0.160712 0.572537 0.390468
Si Si7 0.681424 0.921275 0.963362
Si Si8 0.736236 0.925415 0.897214
O O1 0.066706 0.250000 0.246755
O O2 0.150362 0.466173 0.241403
O O3 0.162826 0.511450 0.339481
O O4 0.841820 0.473102 0.088281
O O5 0.449840 0.250000 0.019287
O O6 0.711919 0.045585 0.184410
O O7 0.498088 0.057926 0.120293
O O8 0.353997 0.969418 0.947642
O O9 0.549023 0.750000 0.681501
O O10 0.699614 0.986172 0.742359
O O11 0.347364 0.988491 0.537410
O O12 0.609799 0.988841 0.772597
O O13 0.849037 0.250000 0.215261
O O14 0.987060 0.983023 0.307285
O O15 0.907182 0.750000 0.856944
O O16 0.060776 0.002418 0.972039
O O17 0.154816 0.750000 0.384364
O O18 0.753827 0.750000 0.012433
O O19 0.632783 0.964282 0.878343
O O20 0.765297 0.750000 0.909825
#
# Coordination Sequence:
#
# PCOD8070149 Si02
#       8
#     4   4   4   4   4   4   4   4
#     4  10  19  30  46  70  97 124 154 194 243 286
#     4   9  17  29  47  72  99 125 153 187 235 287
#     4   9  19  34  50  68  93 129 165 196 233 282
#     4  10  19  30  46  70  98 126 156 193 235 280
#     4   9  18  33  51  71  96 122 153 199 249 285
#     4  11  21  33  48  65  94 133 166 194 231 282
#     4   9  16  28  49  74  97 121 151 191 235 283
#     4   9  17  31  52  75  95 119 158 200 236 278
#
# _framework density 17.328764
#
# number of rings (size 3 to 8) (size 9 to 14) (size 15 to 20)
#    0.000    2.500    1.250    1.500    0.000    1.500 
#    0.000    2.500    0.000    0.750    0.000    0.000 
#    0.000    0.000    0.000    0.000    0.000    0.500 
#
# Total GULP energy -396660.785304 kJ/mol
# GULP energy per Si atom -12395.649541 kJ/mol
# Density = 1.728932 g / cm^3
# Si number density = 17.328764 Si / 1000 Ang^3
#
#
#
# Elastic Constant Matrix: (Units=GPa)
#
#
# Indices 1 2 3 4 5 6 
#
# 1 154.3095 31.7961 80.1200 0.0000 1.0956 0.0000
# 2 31.7961 51.4084 35.4343 0.0000 -3.1066 0.0000
# 3 80.1200 35.4343 117.0880 0.0000 -8.3738 0.0000
# 4 0.0000 0.0000 0.0000 16.7173 0.0000 2.6763
# 5 1.0956 -3.1066 -8.3738 0.0000 17.9748 0.0000
# 6 0.0000 0.0000 0.0000 2.6763 0.0000 18.9575
#
#
#
# Elastic Compliance Matrix: (Units=1/GPa)
#
#
# Indices 1 2 3 4 5 6 
#
# 1 0.010491 -0.002006 -0.006871 0.000000 -0.004187 0.000000
# 2 -0.002006 0.024974 -0.006070 0.000000 0.001611 0.000000
# 3 -0.006871 -0.006070 0.015553 0.000000 0.006615 0.000000
# 4 0.000000 0.000000 0.000000 0.061201 0.000000 -0.008640
# 5 -0.004187 0.001611 0.006615 0.000000 0.059249 0.000000
# 6 0.000000 0.000000 0.000000 -0.008640 0.000000 0.053969
#
#
# Mechanical properties :
#
#
# Convention : Reuss Voigt Hill
#
# Bulk Modulus (GPa) = 47.34120 68.61185 57.97652
# Shear Modulus (GPa) = 19.05688 22.42697 20.74192
#
# Velocity S-wave (km/s) = 3.31981 3.60141 3.46347
# Velocity P-wave (km/s) = 6.48641 7.54809 7.03730
#
# Compressibility (1/GPa) = 0.02112325
#
# Stress axis : x y z
#
# Youngs Moduli (GPa) = 95.31824 40.04175 64.29811
#
# Poissons Ratio (x) = 0.08031 0.44181
# Poissons Ratio (y) = 0.19117 0.39031
# Poissons Ratio (z) = 0.65496 0.24306
#
# Static dielectric constant tensor:
#      x y z
#    x 3.665910 0.000000 0.013720 
#    y 0.000000 3.162220 0.000000 
#    z 0.013720 0.000000 3.068630 
# 
# 
# High freq. dielectric constant tensor:
#      x y z
#    x 1.688500 0.000000 0.004780 
#    y 0.000000 1.663120 0.000000 
#    z 0.004780 0.000000 1.629830 
# 
# From -- ./inp_files/40649.got.cif
#   From: 2010.06.25/outbox.cif.g09.slc.cpg/sg11_21_cif.got.tgz:40649.got - 2010.06.27 23:14:04.
