data_PCOD8070534
_publ_section_title
;
Structure prediction by ZEFSAII (Michael W. Deem and Ramdas Pophale) SiO2 
 PCOD8070534
Probable space group: P 21/M
;
_chemical_formula_sum "Si O2"
_cell_formula_units_Z 32
_cell_length_a 11.701380
_cell_length_b 9.009852
_cell_length_c 21.197434
_cell_angle_alpha 90.000000
_cell_angle_beta 52.432410
_cell_angle_gamma 90.000000
_cell_volume 1771.377348
_symmetry_space_group_name_H-M "P 21/M"
_symmetry_group_IT_number 11
_symmetry_cell_setting 'monoclinic'
loop_
_space_group_symop_operation_xyz
x,y,z
-x,1/2+y,-z
-x,-y,-z
x,1/2-y,z
loop_
_atom_site_type_symbol
_atom_site_label
_atom_site_fract_x
_atom_site_fract_y
_atom_site_fract_z
Si Si1 0.653782 0.574018 0.759304
Si Si2 0.362040 0.080056 0.893571
Si Si3 0.847395 0.920370 0.263321
Si Si4 0.349019 0.420721 0.041293
Si Si5 0.555460 0.914798 0.660667
Si Si6 0.157382 0.577341 0.207018
Si Si7 0.761502 0.084066 0.175146
Si Si8 0.455441 0.076441 0.579018
O O1 0.650428 0.750000 0.770713
O O2 0.512602 0.507143 0.839911
O O3 0.662100 0.535573 0.681610
O O4 0.792992 0.502355 0.745405
O O5 0.389839 0.250000 0.864004
O O6 0.240508 0.009342 0.888958
O O7 0.300827 0.069393 0.984772
O O8 0.828227 0.750000 0.249912
O O9 0.707670 0.972926 0.349757
O O10 0.985822 0.945221 0.260570
O O11 0.865760 0.011540 0.192225
O O12 0.361916 0.250000 0.059023
O O13 0.228719 0.503254 0.122217
O O14 0.500000 0.500000 0.000000
O O15 0.594962 0.750000 0.623040
O O16 0.398667 0.915032 0.744001
O O17 0.563146 0.025857 0.599009
O O18 0.200449 0.750000 0.194522
O O19 0.816654 0.250000 0.142197
O O20 0.471483 0.250000 0.564706
O O21 0.500000 0.000000 0.500000
#
# Coordination Sequence:
#
# PCOD8070534 Si02
#       8
#     4   4   4   4   4   4   4   4
#     4  10  19  31  50  75 103 135 174 218 260 302
#     4  10  19  31  49  72  99 132 172 219 267 311
#     4   9  20  37  54  75 105 139 173 208 254 313
#     4  11  22  34  50  73 102 136 177 223 266 310
#     4   8  16  30  48  75 105 131 164 207 252 299
#     4  11  22  35  52  74 103 140 177 215 261 312
#     4   9  17  30  51  75  99 130 169 216 263 306
#     4  10  19  33  56  83 108 134 164 205 253 303
#
# _framework density 18.065038000000001
#
# number of rings (size 3 to 8) (size 9 to 14) (size 15 to 20)
#    0.000    2.250    1.250    3.000    0.000    6.500 
#    0.000    0.625    0.000    0.750    0.000    0.000 
#    0.000    0.000    0.000    0.000    0.000    0.000 
#
# Total GULP energy -396785.300820 kJ/mol
# GULP energy per Si atom -12399.540651 kJ/mol
# Density = 1.802392 g / cm^3
# Si number density = 18.065038 Si / 1000 Ang^3
#
#
#
# Elastic Constant Matrix: (Units=GPa)
#
#
# Indices 1 2 3 4 5 6 
#
# 1 118.2107 62.9875 49.0566 0.0000 23.2186 0.0000
# 2 62.9875 126.0934 48.0204 0.0000 16.8713 0.0000
# 3 49.0566 48.0204 73.2617 0.0000 20.9651 0.0000
# 4 0.0000 0.0000 0.0000 26.1054 0.0000 9.0855
# 5 23.2186 16.8713 20.9651 0.0000 27.3992 0.0000
# 6 0.0000 0.0000 0.0000 9.0855 0.0000 32.4125
#
#
#
# Elastic Compliance Matrix: (Units=1/GPa)
#
#
# Indices 1 2 3 4 5 6 
#
# 1 0.013853 -0.004339 -0.004913 0.000000 -0.005308 0.000000
# 2 -0.004339 0.011979 -0.004978 0.000000 0.000109 0.000000
# 3 -0.004913 -0.004978 0.023218 0.000000 -0.010537 0.000000
# 4 0.000000 0.000000 0.000000 0.042447 0.000000 -0.011898
# 5 -0.005308 0.000109 -0.010537 0.000000 0.048991 0.000000
# 6 0.000000 0.000000 0.000000 -0.011898 0.000000 0.034188
#
#
# Mechanical properties :
#
#
# Convention : Reuss Voigt Hill
#
# Bulk Modulus (GPa) = 48.56677 70.85497 59.71087
# Shear Modulus (GPa) = 23.80978 27.68352 25.74665
#
# Velocity S-wave (km/s) = 3.63437 3.91888 3.77930
# Velocity P-wave (km/s) = 6.67490 7.73202 7.22283
#
# Compressibility (1/GPa) = 0.02059021
#
# Stress axis : x y z
#
# Youngs Moduli (GPa) = 72.18780 83.47928 43.07047
#
# Poissons Ratio (x) = 0.36218 0.21161
# Poissons Ratio (y) = 0.31319 0.21440
# Poissons Ratio (z) = 0.35467 0.41556
#
# Static dielectric constant tensor:
#      x y z
#    x 3.526130 0.000000 0.243160 
#    y 0.000000 3.567380 0.000000 
#    z 0.243160 0.000000 3.233750 
# 
# 
# High freq. dielectric constant tensor:
#      x y z
#    x 1.699230 0.000000 0.028950 
#    y 0.000000 1.715680 0.000000 
#    z 0.028950 0.000000 1.660410 
# 
# From -- ./inp_files/42899.got.cif
#   From: 2010.06.25/outbox.cif.g09.slc.cpg/sg11_22_cif.got.tgz:42899.got - 2010.06.27 23:14:04.
