data_PCOD8070372
_publ_section_title
;
Structure prediction by ZEFSAII (Michael W. Deem and Ramdas Pophale) SiO2 
 PCOD8070372
Probable space group: P 21/M
;
_chemical_formula_sum "Si O2"
_cell_formula_units_Z 32
_cell_length_a 23.783408
_cell_length_b 9.639114
_cell_length_c 11.587836
_cell_angle_alpha 90.000000
_cell_angle_beta 135.321456
_cell_angle_gamma 90.000000
_cell_volume 1867.876804
_symmetry_space_group_name_H-M "P 21/M"
_symmetry_group_IT_number 11
_symmetry_cell_setting 'monoclinic'
loop_
_space_group_symop_operation_xyz
x,y,z
-x,1/2+y,-z
-x,-y,-z
x,1/2-y,z
loop_
_atom_site_type_symbol
_atom_site_label
_atom_site_fract_x
_atom_site_fract_y
_atom_site_fract_z
Si Si1 0.536237 0.590190 0.747168
Si Si2 0.716959 0.589147 0.426745
Si Si3 0.430165 0.092205 0.946442
Si Si4 0.017666 0.906294 0.632187
Si Si5 0.353147 0.909378 0.479773
Si Si6 0.340492 0.590003 0.197739
Si Si7 0.849799 0.910705 0.448994
Si Si8 0.187919 0.911748 0.831753
O O1 0.538553 0.750000 0.709980
O O2 0.444744 0.539526 0.624082
O O3 0.581150 0.498362 0.718084
O O4 0.580984 0.567477 0.933795
O O5 0.713171 0.750000 0.456541
O O6 0.651909 0.551596 0.234679
O O7 0.703538 0.499731 0.521286
O O8 0.802261 0.548084 0.495449
O O9 0.454769 0.250000 0.957245
O O10 0.500000 0.000000 0.000000
O O11 0.010481 0.750000 0.576848
O O12 0.110055 0.934138 0.803417
O O13 0.945087 0.933749 0.617172
O O14 0.000000 0.000000 0.500000
O O15 0.347007 0.750000 0.510513
O O16 0.321126 0.929993 0.303859
O O17 0.359597 0.750000 0.198028
O O18 0.264412 0.535782 0.014604
O O19 0.831261 0.750000 0.391287
O O20 0.820658 0.001751 0.298197
O O21 0.196914 0.750000 0.811998
#
# Coordination Sequence:
#
# PCOD8070372 Si02
#       8
#     4   4   4   4   4   4   4   4
#     4  10  20  34  51  70  92 120 157 198 239 281
#     4  10  20  32  48  70  95 123 157 194 233 279
#     4  10  19  31  47  68  93 119 148 186 231 277
#     4   8  14  26  46  70  97 125 149 181 228 279
#     4  10  21  36  50  65  90 126 164 199 235 274
#     4  10  21  34  49  70  94 122 159 199 235 276
#     4   9  17  30  49  74 100 124 152 188 232 280
#     4   9  17  30  48  73 100 124 153 188 231 282
#
# _framework density 17.13175
#
# number of rings (size 3 to 8) (size 9 to 14) (size 15 to 20)
#    0.000    2.500    1.250    1.125    0.000    3.500 
#    0.000    0.000    0.000    0.750    0.000    0.000 
#    0.000    0.000    0.000    0.000    0.000    0.000 
#
# Total GULP energy -396604.625006 kJ/mol
# GULP energy per Si atom -12393.894531 kJ/mol
# Density = 1.709276 g / cm^3
# Si number density = 17.131750 Si / 1000 Ang^3
#
#
#
# Elastic Constant Matrix: (Units=GPa)
#
#
# Indices 1 2 3 4 5 6 
#
# 1 138.9810 54.1780 37.9899 0.0000 13.3134 0.0000
# 2 54.1780 53.3931 22.6055 0.0000 2.3036 0.0000
# 3 37.9899 22.6055 43.8291 0.0000 0.3938 0.0000
# 4 0.0000 0.0000 0.0000 19.1819 0.0000 -2.9711
# 5 13.3134 2.3036 0.3938 0.0000 22.0903 0.0000
# 6 0.0000 0.0000 0.0000 -2.9711 0.0000 29.3396
#
#
#
# Elastic Compliance Matrix: (Units=1/GPa)
#
#
# Indices 1 2 3 4 5 6 
#
# 1 0.013956 -0.011206 -0.006253 0.000000 -0.007131 0.000000
# 2 -0.011206 0.033075 -0.007376 0.000000 0.003436 0.000000
# 3 -0.006253 -0.007376 0.032005 0.000000 0.003967 0.000000
# 4 0.000000 0.000000 0.000000 0.052963 0.000000 0.005363
# 5 -0.007131 0.003436 0.003967 0.000000 0.049137 0.000000
# 6 0.000000 0.000000 0.000000 0.005363 0.000000 0.034627
#
#
# Mechanical properties :
#
#
# Convention : Reuss Voigt Hill
#
# Bulk Modulus (GPa) = 34.05497 51.75001 42.90249
# Shear Modulus (GPa) = 18.16723 22.21770 20.19247
#
# Velocity S-wave (km/s) = 3.25998 3.60512 3.43688
# Velocity P-wave (km/s) = 5.83878 6.89941 6.39113
#
# Compressibility (1/GPa) = 0.02936429
#
# Stress axis : x y z
#
# Youngs Moduli (GPa) = 71.65443 30.23470 31.24560
#
# Poissons Ratio (x) = 0.33881 0.19537
# Poissons Ratio (y) = 0.80296 0.23048
# Poissons Ratio (z) = 0.44804 0.22303
#
# Static dielectric constant tensor:
#      x y z
#    x 3.684090 0.000000 0.488660 
#    y 0.000000 3.223450 0.000000 
#    z 0.488660 0.000000 3.824870 
# 
# 
# High freq. dielectric constant tensor:
#      x y z
#    x 1.662280 0.000000 0.017250 
#    y 0.000000 1.662620 0.000000 
#    z 0.017250 0.000000 1.637720 
# 
# From -- ./inp_files/42468.got.cif
#   From: 2010.06.25/outbox.cif.g09.slc.cpg/sg11_22_cif.got.tgz:42468.got - 2010.06.27 23:14:04.
