data_PCOD8070772
_publ_section_title
;
Structure prediction by ZEFSAII (Michael W. Deem and Ramdas Pophale) SiO2 
 PCOD8070772
Probable space group: P 21/M
;
_chemical_formula_sum "Si O2"
_cell_formula_units_Z 32
_cell_length_a 24.212019
_cell_length_b 13.794420
_cell_length_c 14.847374
_cell_angle_alpha 90.000000
_cell_angle_beta 24.821508
_cell_angle_gamma 90.000000
_cell_volume 2081.704614
_symmetry_space_group_name_H-M "P 21/M"
_symmetry_group_IT_number 11
_symmetry_cell_setting 'monoclinic'
loop_
_space_group_symop_operation_xyz
x,y,z
-x,1/2+y,-z
-x,-y,-z
x,1/2-y,z
loop_
_atom_site_type_symbol
_atom_site_label
_atom_site_fract_x
_atom_site_fract_y
_atom_site_fract_z
Si Si1 0.246077 0.362598 0.420873
Si Si2 0.622197 0.012403 0.646012
Si Si3 0.535763 0.355735 0.522644
Si Si4 0.050910 0.634966 0.117339
Si Si5 0.779204 0.358082 0.295367
Si Si6 0.389598 0.137215 0.024453
Si Si7 0.725460 0.137181 0.082675
Si Si8 0.603242 0.511031 0.147245
O O1 0.257070 0.250000 0.432032
O O2 0.337958 0.422701 0.351407
O O3 0.290905 0.379581 0.252596
O O4 0.097065 0.401176 0.648943
O O5 0.533304 0.970803 0.694752
O O6 0.753053 0.067720 0.416264
O O7 0.532816 0.089859 0.834317
O O8 0.468707 0.250000 0.614196
O O9 0.646469 0.350687 0.435035
O O10 0.599530 0.382413 0.332628
O O11 0.426002 0.432350 0.715916
O O12 0.062820 0.750000 0.099988
O O13 0.104587 0.599400 0.940503
O O14 0.142962 0.597508 0.062772
O O15 0.815418 0.250000 0.278128
O O16 0.410078 0.250000 0.972776
O O17 0.328809 0.084141 0.025808
O O18 0.739187 0.250000 0.037034
O O19 0.701552 0.076829 0.026149
#
# Coordination Sequence:
#
# PCOD8070772 Si02
#       8
#     4   4   4   4   4   4   4   4
#     4  10  19  32  45  62  88 118 147 179 215 256
#     4   9  18  27  46  68  90 107 141 182 223 262
#     4   8  13  23  41  63  88 113 141 175 211 252
#     4   8  16  29  46  63  86 120 154 175 200 250
#     4   8  13  25  44  67  88 111 145 182 209 243
#     4   9  18  31  47  65  85 111 146 183 219 257
#     4   9  16  27  42  63  90 118 143 173 212 256
#     4   9  17  25  43  66  91 106 142 178 219 256
#
# _framework density 15.372016
#
# number of rings (size 3 to 8) (size 9 to 14) (size 15 to 20)
#    0.750    2.500    0.000    3.000    0.000    1.000 
#    0.000    0.625    0.000    0.000    0.000    3.500 
#    0.000    0.000    0.000    0.000    0.000    0.000 
#
# Total GULP energy -396469.580314 kJ/mol
# GULP energy per Si atom -12389.674385 kJ/mol
# Density = 1.533703 g / cm^3
# Si number density = 15.372016 Si / 1000 Ang^3
#
#
#
# Elastic Constant Matrix: (Units=GPa)
#
#
# Indices 1 2 3 4 5 6 
#
# 1 41.9386 33.9382 15.9577 0.0000 4.4165 0.0000
# 2 33.9382 67.2529 26.0754 0.0000 6.1306 0.0000
# 3 15.9577 26.0754 75.3825 0.0000 9.3343 0.0000
# 4 0.0000 0.0000 0.0000 12.2031 0.0000 1.6249
# 5 4.4165 6.1306 9.3343 0.0000 13.3846 0.0000
# 6 0.0000 0.0000 0.0000 1.6249 0.0000 25.3711
#
#
#
# Elastic Compliance Matrix: (Units=1/GPa)
#
#
# Indices 1 2 3 4 5 6 
#
# 1 0.040642 -0.019662 -0.001376 0.000000 -0.003445 0.000000
# 2 -0.019662 0.026890 -0.004835 0.000000 -0.002457 0.000000
# 3 -0.001376 -0.004835 0.016307 0.000000 -0.008704 0.000000
# 4 0.000000 0.000000 0.000000 0.082651 0.000000 -0.005294
# 5 -0.003445 -0.002457 -0.008704 0.000000 0.083045 0.000000
# 6 0.000000 0.000000 0.000000 -0.005294 0.000000 0.039754
#
#
# Mechanical properties :
#
#
# Convention : Reuss Voigt Hill
#
# Bulk Modulus (GPa) = 31.15866 37.39073 34.27469
# Shear Modulus (GPa) = 14.21540 17.43194 15.82367
#
# Velocity S-wave (km/s) = 3.04428 3.37115 3.21188
# Velocity P-wave (km/s) = 5.71582 6.28726 6.00834
#
# Compressibility (1/GPa) = 0.03209381
#
# Stress axis : x y z
#
# Youngs Moduli (GPa) = 24.60531 37.18873 61.32283
#
# Poissons Ratio (x) = 0.73120 0.08436
# Poissons Ratio (y) = 0.48378 0.29650
# Poissons Ratio (z) = 0.03385 0.17981
#
# Static dielectric constant tensor:
#      x y z
#    x 2.665940 0.000000 0.153820 
#    y 0.000000 2.859660 0.000000 
#    z 0.153820 0.000000 2.962110 
# 
# 
# High freq. dielectric constant tensor:
#      x y z
#    x 1.560230 0.000000 0.017360 
#    y 0.000000 1.577810 0.000000 
#    z 0.017360 0.000000 1.576080 
# 
# From -- ./inp_files/50163.got.cif
#   From: 2010.06.25/outbox.cif.g09.slc.cpg/sg11_26_cif.got.tgz:50163.got - 2010.06.27 23:14:04.
