data_PCOD8070911
_publ_section_title
;
Structure prediction by ZEFSAII (Michael W. Deem and Ramdas Pophale) SiO2 
 PCOD8070911
Probable space group: P 21/M
;
_chemical_formula_sum "Si O2"
_cell_formula_units_Z 28
_cell_length_a 17.034823
_cell_length_b 10.328808
_cell_length_c 13.895500
_cell_angle_alpha 90.000000
_cell_angle_beta 36.452260
_cell_angle_gamma 90.000000
_cell_volume 1452.647195
_symmetry_space_group_name_H-M "P 21/M"
_symmetry_group_IT_number 11
_symmetry_cell_setting 'monoclinic'
loop_
_space_group_symop_operation_xyz
x,y,z
-x,1/2+y,-z
-x,-y,-z
x,1/2-y,z
loop_
_atom_site_type_symbol
_atom_site_label
_atom_site_fract_x
_atom_site_fract_y
_atom_site_fract_z
Si Si1 0.915400 0.522909 0.727951
Si Si2 0.233614 0.599699 0.642312
Si Si3 0.736727 0.105377 0.170834
Si Si4 0.985376 0.892754 0.189470
Si Si5 0.389626 0.900265 0.304703
Si Si6 0.669829 0.604398 0.084874
Si Si7 0.173612 0.604485 0.377672
O O1 0.847515 0.472632 0.698705
O O2 0.961152 0.408231 0.753939
O O3 0.043594 0.606531 0.573710
O O4 0.804709 0.607024 0.891449
O O5 0.188846 0.750000 0.675646
O O6 0.295179 0.574700 0.686614
O O7 0.109033 0.508627 0.746992
O O8 0.345050 0.558774 0.455825
O O9 0.685242 0.250000 0.193467
O O10 0.667961 0.996905 0.173803
O O11 0.894152 0.100187 0.003664
O O12 0.918049 0.750000 0.249284
O O13 0.361774 0.750000 0.319186
O O14 0.544718 0.934217 0.140073
O O15 0.295553 0.964223 0.315491
O O16 0.647550 0.750000 0.147815
O O17 0.207685 0.750000 0.314288
#
# Coordination Sequence:
#
# PCOD8070911 Si02
#       7
#     4   4   4   4   4   4   4
#     4  10  20  33  55  81 108 141 181 224 268 324
#     4  10  19  34  55  78 108 148 186 221 266 324
#     4   9  20  35  53  79 111 144 181 225 274 321
#     4  10  19  32  50  79 114 142 175 229 278 315
#     4   9  19  35  55  79 110 144 183 224 268 317
#     4  10  21  37  57  81 110 143 183 226 267 322
#     4  10  19  34  56  80 106 143 182 220 272 325
#
# _framework density 19.275155999999999
#
# number of rings (size 3 to 8) (size 9 to 14) (size 15 to 20)
#    0.000    2.286    1.429    1.286    0.000    4.571 
#    0.000    0.714    0.000    0.000    0.000    0.000 
#    0.000    0.000    0.000    0.000    0.000    0.000 
#
# Total GULP energy -347027.345733 kJ/mol
# GULP energy per Si atom -12393.833776 kJ/mol
# Density = 1.923128 g / cm^3
# Si number density = 19.275156 Si / 1000 Ang^3
#
#
#
# Elastic Constant Matrix: (Units=GPa)
#
#
# Indices 1 2 3 4 5 6 
#
# 1 113.5239 48.0841 27.8505 0.0000 -5.1683 0.0000
# 2 48.0841 89.6466 14.1341 0.0000 -5.8105 0.0000
# 3 27.8505 14.1341 30.8592 0.0000 -1.8495 0.0000
# 4 0.0000 0.0000 0.0000 9.5900 0.0000 -4.8820
# 5 -5.1683 -5.8105 -1.8495 0.0000 32.0935 0.0000
# 6 0.0000 0.0000 0.0000 -4.8820 0.0000 25.0124
#
#
#
# Elastic Compliance Matrix: (Units=1/GPa)
#
#
# Indices 1 2 3 4 5 6 
#
# 1 0.013638 -0.005757 -0.009636 0.000000 0.000599 0.000000
# 2 -0.005757 0.014566 -0.001378 0.000000 0.001631 0.000000
# 3 -0.009636 -0.001378 0.041769 0.000000 0.000606 0.000000
# 4 0.000000 0.000000 0.000000 0.115779 0.000000 0.022598
# 5 0.000599 0.001631 0.000606 0.000000 0.031586 0.000000
# 6 0.000000 0.000000 0.000000 0.022598 0.000000 0.044391
#
#
# Mechanical properties :
#
#
# Convention : Reuss Voigt Hill
#
# Bulk Modulus (GPa) = 27.44879 46.01856 36.73367
# Shear Modulus (GPa) = 16.26467 22.93658 19.60062
#
# Velocity S-wave (km/s) = 2.90800 3.45332 3.19232
# Velocity P-wave (km/s) = 5.05438 6.31086 5.71724
#
# Compressibility (1/GPa) = 0.03643148
#
# Stress axis : x y z
#
# Youngs Moduli (GPa) = 73.32198 68.65364 23.94115
#
# Poissons Ratio (x) = 0.39526 0.23070
# Poissons Ratio (y) = 0.42213 0.03299
# Poissons Ratio (z) = 0.70653 0.09459
#
# Static dielectric constant tensor:
#      x y z
#    x 3.540380 0.000000 0.067230 
#    y 0.000000 3.385220 0.000000 
#    z 0.067230 0.000000 3.522620 
# 
# 
# High freq. dielectric constant tensor:
#      x y z
#    x 1.751170 0.000000 0.005710 
#    y 0.000000 1.734350 0.000000 
#    z 0.005710 0.000000 1.742630 
# 
# From -- ./inp_files/53238.got.cif
#   From: 2010.06.25/outbox.cif.g09.slc.cpg/sg11_27_cif.got.tgz:53238.got - 2010.06.27 23:14:04.
