data_PCOD8070351
_publ_section_title
;
Structure prediction by ZEFSAII (Michael W. Deem and Ramdas Pophale) SiO2 
 PCOD8070351
Probable space group: P 21/M
;
_chemical_formula_sum "Si O2"
_cell_formula_units_Z 20
_cell_length_a 23.897826
_cell_length_b 8.550643
_cell_length_c 5.221773
_cell_angle_alpha 90.000000
_cell_angle_beta 70.867357
_cell_angle_gamma 90.000000
_cell_volume 1008.086335
_symmetry_space_group_name_H-M "P 21/M"
_symmetry_group_IT_number 11
_symmetry_cell_setting 'monoclinic'
loop_
_space_group_symop_operation_xyz
x,y,z
-x,1/2+y,-z
-x,-y,-z
x,1/2-y,z
loop_
_atom_site_type_symbol
_atom_site_label
_atom_site_fract_x
_atom_site_fract_y
_atom_site_fract_z
Si Si1 0.633388 0.436181 0.299967
Si Si2 0.565595 0.064269 0.901656
Si Si3 0.767094 0.063317 0.099412
Si Si4 0.833970 0.063917 0.499097
Si Si5 0.031371 0.935565 0.702942
O O1 0.634523 0.250000 0.298259
O O2 0.599713 0.499650 0.600983
O O3 0.700195 0.501603 0.199719
O O4 0.599696 0.499653 0.100043
O O5 0.563666 0.250000 0.904554
O O6 0.500000 0.000000 0.000000
O O7 0.767064 0.250000 0.099463
O O8 0.800733 0.998230 0.298641
O O9 0.800749 0.998232 0.799283
O O10 0.832357 0.250000 0.501517
O O11 0.901206 0.003576 0.398200
O O12 0.028560 0.750000 0.707162
O O13 0.000000 0.000000 0.500000
O O14 0.000000 0.000000 0.000000
#
# Coordination Sequence:
#
# PCOD8070351 Si02
#       5
#     4   4   4   4   4
#     4   9  17  28  45  69  96 121 154 199 247 292
#     4  10  19  31  46  68  95 124 156 193 235 288
#     4   9  15  26  44  69  98 125 153 201 259 298
#     4   9  17  28  46  72 101 128 162 207 255 302
#     4  11  22  37  56  82 113 146 183 224 269 324
#
# _framework density 19.839569000000001
#
# number of rings (size 3 to 8) (size 9 to 14) (size 15 to 20)
#    0.000    2.400    0.000    3.600    0.000    8.000 
#    0.000    0.000    0.000    0.000    0.000   28.000 
#    0.000    0.000    0.000    0.000    0.000    0.000 
#
# Total GULP energy -248017.495532 kJ/mol
# GULP energy per Si atom -12400.874777 kJ/mol
# Density = 1.979441 g / cm^3
# Si number density = 19.839569 Si / 1000 Ang^3
#
#
#
# Elastic Constant Matrix: (Units=GPa)
#
#
# Indices 1 2 3 4 5 6 
#
# 1 234.0240 19.1664 132.4658 0.0000 0.5020 0.0000
# 2 19.1664 19.6647 17.7171 0.0000 -0.7146 0.0000
# 3 132.4658 17.7171 236.6508 0.0000 0.7957 0.0000
# 4 0.0000 0.0000 0.0000 15.6423 0.0000 -4.0355
# 5 0.5020 -0.7146 0.7957 0.0000 51.4321 0.0000
# 6 0.0000 0.0000 0.0000 -4.0355 0.0000 23.8455
#
#
#
# Elastic Compliance Matrix: (Units=1/GPa)
#
#
# Indices 1 2 3 4 5 6 
#
# 1 0.006443 -0.003252 -0.003363 0.000000 -0.000056 0.000000
# 2 -0.003252 0.056207 -0.002391 0.000000 0.000850 0.000000
# 3 -0.003363 -0.002391 0.006287 0.000000 -0.000098 0.000000
# 4 0.000000 0.000000 0.000000 0.066848 0.000000 0.011313
# 5 -0.000056 0.000850 -0.000098 0.000000 0.019457 0.000000
# 6 0.000000 0.000000 0.000000 0.011313 0.000000 0.043851
#
#
# Mechanical properties :
#
#
# Convention : Reuss Voigt Hill
#
# Bulk Modulus (GPa) = 19.63615 92.11534 55.87575
# Shear Modulus (GPa) = 21.36026 39.58333 30.47179
#
# Velocity S-wave (km/s) = 3.28479 4.47158 3.92332
# Velocity P-wave (km/s) = 4.93006 8.55517 6.98199
#
# Compressibility (1/GPa) = 0.05092648
#
# Stress axis : x y z
#
# Youngs Moduli (GPa) = 155.20716 17.79140 159.05116
#
# Poissons Ratio (x) = 0.05786 0.53486
# Poissons Ratio (y) = 0.50473 0.38022
# Poissons Ratio (z) = 0.52194 0.04253
#
# Static dielectric constant tensor:
#      x y z
#    x 3.894160 0.000000 0.026080 
#    y 0.000000 2.966770 0.000000 
#    z 0.026080 0.000000 3.947100 
# 
# 
# High freq. dielectric constant tensor:
#      x y z
#    x 1.795530 0.000000 0.000670 
#    y 0.000000 1.706400 0.000000 
#    z 0.000670 0.000000 1.796900 
# 
# From -- ./inp_files/7584.got.cif
#   From: 2010.06.25/outbox.cif.g09.slc.cpg/sg11_4_cif.got.tgz:7584.got - 2010.06.27 23:14:04.
