data_PCOD8070647
_publ_section_title
;
Structure prediction by ZEFSAII (Michael W. Deem and Ramdas Pophale) SiO2 
 PCOD8070647
Probable space group: P 21/M
;
_chemical_formula_sum "Si O2"
_cell_formula_units_Z 28
_cell_length_a 17.462891
_cell_length_b 8.885107
_cell_length_c 14.244304
_cell_angle_alpha 90.000000
_cell_angle_beta 136.052426
_cell_angle_gamma 90.000000
_cell_volume 1533.837792
_symmetry_space_group_name_H-M "P 21/M"
_symmetry_group_IT_number 11
_symmetry_cell_setting 'monoclinic'
loop_
_space_group_symop_operation_xyz
x,y,z
-x,1/2+y,-z
-x,-y,-z
x,1/2-y,z
loop_
_atom_site_type_symbol
_atom_site_label
_atom_site_fract_x
_atom_site_fract_y
_atom_site_fract_z
Si Si1 0.670270 0.071429 0.831124
Si Si2 0.080794 0.573855 0.280989
Si Si3 0.778929 0.921789 0.444313
Si Si4 0.138321 0.571472 0.865874
Si Si5 0.424284 0.426014 0.615449
Si Si6 0.717134 0.427538 0.665014
Si Si7 0.894012 0.576129 0.361085
O O1 0.674605 0.250000 0.833220
O O2 0.547008 0.013122 0.746203
O O3 0.707860 0.010122 0.762434
O O4 0.753531 0.011850 0.984064
O O5 0.055759 0.750000 0.258462
O O6 0.134033 0.530334 0.427877
O O7 0.163290 0.525421 0.270233
O O8 0.967052 0.484542 0.167953
O O9 0.806040 0.750000 0.498373
O O10 0.654331 0.964460 0.365125
O O11 0.792154 0.941134 0.344230
O O12 0.134493 0.750000 0.854994
O O13 0.141970 0.503967 0.765512
O O14 0.428609 0.250000 0.598728
O O15 0.380320 0.502177 0.482340
O O16 0.701795 0.250000 0.646307
O O17 0.920703 0.750000 0.363792
O O18 0.000000 0.500000 0.500000
#
# Coordination Sequence:
#
# PCOD8070647 Si02
#       7
#     4   4   4   4   4   4   4
#     4   9  19  35  53  73 104 142 174 207 254 307
#     4  10  19  31  50  76 105 133 167 214 261 303
#     4   9  18  32  53  78 102 128 165 211 257 306
#     4  11  22  35  51  73 104 141 176 210 252 307
#     4   9  17  33  56  79 101 132 173 212 252 303
#     4   9  18  33  53  78 104 133 171 215 259 302
#     4  11  21  34  54  79 104 133 168 212 259 306
#
# _framework density 18.254863
#
# number of rings (size 3 to 8) (size 9 to 14) (size 15 to 20)
#    0.000    2.286    1.429    1.714    0.000    1.714 
#    0.000    3.571    0.000    0.000    0.000    0.000 
#    0.000    0.000    0.000    0.000    0.000    0.000 
#
# Total GULP energy -347179.284480 kJ/mol
# GULP energy per Si atom -12399.260160 kJ/mol
# Density = 1.821331 g / cm^3
# Si number density = 18.254863 Si / 1000 Ang^3
#
#
#
# Elastic Constant Matrix: (Units=GPa)
#
#
# Indices 1 2 3 4 5 6 
#
# 1 126.3176 33.1544 87.4663 0.0000 4.2600 0.0000
# 2 33.1544 59.1025 43.1934 0.0000 2.3634 0.0000
# 3 87.4663 43.1934 156.8552 0.0000 7.8704 0.0000
# 4 0.0000 0.0000 0.0000 22.6130 0.0000 -2.2304
# 5 4.2600 2.3634 7.8704 0.0000 23.9395 0.0000
# 6 0.0000 0.0000 0.0000 -2.2304 0.0000 22.2721
#
#
#
# Elastic Compliance Matrix: (Units=1/GPa)
#
#
# Indices 1 2 3 4 5 6 
#
# 1 0.013192 -0.002535 -0.006663 0.000000 0.000093 0.000000
# 2 -0.002535 0.021670 -0.004544 0.000000 -0.000194 0.000000
# 3 -0.006663 -0.004544 0.011449 0.000000 -0.002130 0.000000
# 4 0.000000 0.000000 0.000000 0.044664 0.000000 0.004473
# 5 0.000093 -0.000194 -0.002130 0.000000 0.042475 0.000000
# 6 0.000000 0.000000 0.000000 0.004473 0.000000 0.045347
#
#
# Mechanical properties :
#
#
# Convention : Reuss Voigt Hill
#
# Bulk Modulus (GPa) = 53.11295 74.43372 63.77333
# Shear Modulus (GPa) = 23.52306 25.66233 24.59270
#
# Velocity S-wave (km/s) = 3.59359 3.75344 3.67439
# Velocity P-wave (km/s) = 6.81006 7.72319 7.28095
#
# Compressibility (1/GPa) = 0.01882780
#
# Stress axis : x y z
#
# Youngs Moduli (GPa) = 75.80100 46.14587 87.34346
#
# Poissons Ratio (x) = 0.11696 0.58198
# Poissons Ratio (y) = 0.19213 0.39691
# Poissons Ratio (z) = 0.50507 0.20970
#
# Static dielectric constant tensor:
#      x y z
#    x 3.742250 0.000000 0.100810 
#    y 0.000000 3.275670 0.000000 
#    z 0.100810 0.000000 3.352830 
# 
# 
# High freq. dielectric constant tensor:
#      x y z
#    x 1.723630 0.000000 0.005200 
#    y 0.000000 1.698350 0.000000 
#    z 0.005200 0.000000 1.686000 
# 
# From -- ./inp_files/42623.got.cif
#   From: 2010.06.25/outbox.cif.g09.slc.cpg/sg11_22_cif.got.tgz:42623.got - 2010.06.27 23:14:04.
