data_PCOD8070946
_publ_section_title
;
Structure prediction by ZEFSAII (Michael W. Deem and Ramdas Pophale) SiO2 
 PCOD8070946
Probable space group: P 21/M
;
_chemical_formula_sum "Si O2"
_cell_formula_units_Z 32
_cell_length_a 25.175296
_cell_length_b 9.582242
_cell_length_c 20.311249
_cell_angle_alpha 90.000000
_cell_angle_beta 22.776510
_cell_angle_gamma 90.000000
_cell_volume 1896.896851
_symmetry_space_group_name_H-M "P 21/M"
_symmetry_group_IT_number 11
_symmetry_cell_setting 'monoclinic'
loop_
_space_group_symop_operation_xyz
x,y,z
-x,1/2+y,-z
-x,-y,-z
x,1/2-y,z
loop_
_atom_site_type_symbol
_atom_site_label
_atom_site_fract_x
_atom_site_fract_y
_atom_site_fract_z
Si Si1 0.331028 0.588811 0.530271
Si Si2 0.630784 0.908959 0.863055
Si Si3 0.577219 0.911013 0.063719
Si Si4 0.819151 0.412909 0.027407
Si Si5 0.367253 0.910082 0.638068
Si Si6 0.132199 0.412860 0.667557
Si Si7 0.362915 0.087810 0.860701
Si Si8 0.308657 0.410801 0.344875
O O1 0.306238 0.750000 0.540297
O O2 0.307701 0.559793 0.633994
O O3 0.222003 0.496140 0.616965
O O4 0.484446 0.543349 0.335307
O O5 0.582317 0.750000 0.914300
O O6 0.678302 0.939422 0.884507
O O7 0.734728 0.939381 0.682944
O O8 0.500000 0.000000 0.000000
O O9 0.530542 0.750000 0.119974
O O10 0.658291 0.947457 0.037739
O O11 0.438826 0.999263 0.217536
O O12 0.807803 0.250000 0.023151
O O13 0.975971 0.462171 0.852359
O O14 0.750841 0.449110 0.175295
O O15 0.747086 0.497036 0.051835
O O16 0.413142 0.750000 0.592343
O O17 0.500000 0.000000 0.500000
O O18 0.147842 0.250000 0.666130
O O19 0.180696 0.447924 0.537660
O O20 0.337143 0.250000 0.874192
O O21 0.350990 0.250000 0.306138
#
# Coordination Sequence:
#
# PCOD8070946 Si02
#       8
#     4   4   4   4   4   4   4   4
#     4  10  20  34  53  76  99 126 162 203 245 289
#     4   8  14  24  40  65  94 124 155 192 237 280
#     4   9  16  27  45  70  98 123 156 201 242 281
#     4  10  22  37  52  72  99 131 165 201 242 290
#     4  10  20  35  54  74  98 126 161 203 245 288
#     4  10  21  35  50  73 103 132 164 199 239 291
#     4  10  19  32  51  75 100 127 163 204 244 288
#     4   9  16  27  45  68  96 128 160 193 235 285
#
# _framework density 16.869657
#
# number of rings (size 3 to 8) (size 9 to 14) (size 15 to 20)
#    0.000    2.500    2.500    0.000    0.000    2.500 
#    0.000    0.000    0.000    0.750    0.000    0.000 
#    0.000    0.000    0.000    0.000    0.000    0.000 
#
# Total GULP energy -396551.485591 kJ/mol
# GULP energy per Si atom -12392.233925 kJ/mol
# Density = 1.683126 g / cm^3
# Si number density = 16.869657 Si / 1000 Ang^3
#
#
#
# Elastic Constant Matrix: (Units=GPa)
#
#
# Indices 1 2 3 4 5 6 
#
# 1 130.6838 48.3518 74.0849 0.0000 16.9110 0.0000
# 2 48.3518 49.1567 43.3173 0.0000 -1.8488 0.0000
# 3 74.0849 43.3173 109.2592 0.0000 6.9592 0.0000
# 4 0.0000 0.0000 0.0000 18.1959 0.0000 -2.8782
# 5 16.9110 -1.8488 6.9592 0.0000 32.4907 0.0000
# 6 0.0000 0.0000 0.0000 -2.8782 0.0000 30.1061
#
#
#
# Elastic Compliance Matrix: (Units=1/GPa)
#
#
# Indices 1 2 3 4 5 6 
#
# 1 0.016107 -0.010662 -0.006206 0.000000 -0.007661 0.000000
# 2 -0.010662 0.038986 -0.008842 0.000000 0.009662 0.000000
# 3 -0.006206 -0.008842 0.016924 0.000000 -0.000898 0.000000
# 4 0.000000 0.000000 0.000000 0.055801 0.000000 0.005335
# 5 -0.007661 0.009662 -0.000898 0.000000 0.035507 0.000000
# 6 0.000000 0.000000 0.000000 0.005335 0.000000 0.033726
#
#
# Mechanical properties :
#
#
# Convention : Reuss Voigt Hill
#
# Bulk Modulus (GPa) = 48.55575 68.95640 58.75607
# Shear Modulus (GPa) = 19.58199 24.38159 21.98179
#
# Velocity S-wave (km/s) = 3.41072 3.80582 3.61368
# Velocity P-wave (km/s) = 6.66003 7.76384 7.23302
#
# Compressibility (1/GPa) = 0.02059488
#
# Stress axis : x y z
#
# Youngs Moduli (GPa) = 62.08651 25.65034 59.08883
#
# Poissons Ratio (x) = 0.27348 0.36672
# Poissons Ratio (y) = 0.66196 0.52248
# Poissons Ratio (z) = 0.38533 0.22681
#
# Static dielectric constant tensor:
#      x y z
#    x 3.467840 0.000000 0.507510 
#    y 0.000000 3.187550 0.000000 
#    z 0.507510 0.000000 3.288790 
# 
# 
# High freq. dielectric constant tensor:
#      x y z
#    x 1.654180 0.000000 0.036370 
#    y 0.000000 1.652860 0.000000 
#    z 0.036370 0.000000 1.630080 
# 
# From -- ./inp_files/27500.got.cif
#   From: 2010.06.25/outbox.cif.g09.slc.cpg/sg11_14_cif.got.tgz:27500.got - 2010.06.27 23:14:04.
