data_PCOD8070218
_publ_section_title
;
Structure prediction by ZEFSAII (Michael W. Deem and Ramdas Pophale) SiO2 
 PCOD8070218
Probable space group: P 21/M
;
_chemical_formula_sum "Si O2"
_cell_formula_units_Z 32
_cell_length_a 30.812560
_cell_length_b 8.931715
_cell_length_c 14.884571
_cell_angle_alpha 90.000000
_cell_angle_beta 151.390050
_cell_angle_gamma 90.000000
_cell_volume 1961.522539
_symmetry_space_group_name_H-M "P 21/M"
_symmetry_group_IT_number 11
_symmetry_cell_setting 'monoclinic'
loop_
_space_group_symop_operation_xyz
x,y,z
-x,1/2+y,-z
-x,-y,-z
x,1/2-y,z
loop_
_atom_site_type_symbol
_atom_site_label
_atom_site_fract_x
_atom_site_fract_y
_atom_site_fract_z
Si Si1 0.563868 0.076226 0.733008
Si Si2 0.303157 0.424389 0.685400
Si Si3 0.619939 0.073634 0.351386
Si Si4 0.741950 0.425016 0.743587
Si Si5 0.088924 0.574392 0.053827
Si Si6 0.891223 0.922206 0.724699
Si Si7 0.631729 0.925472 0.690095
Si Si8 0.567190 0.425805 0.944596
O O1 0.574609 0.250000 0.730685
O O2 0.460984 0.023829 0.527291
O O3 0.588299 0.037665 0.879470
O O4 0.632858 0.987850 0.793730
O O5 0.329109 0.250000 0.743283
O O6 0.336371 0.481485 0.649775
O O7 0.194536 0.448217 0.495784
O O8 0.345356 0.523100 0.841121
O O9 0.623369 0.250000 0.336174
O O10 0.673156 0.032681 0.538641
O O11 0.516794 0.021903 0.173202
O O12 0.738869 0.250000 0.758276
O O13 0.843182 0.481610 0.900964
O O14 0.715430 0.509208 0.786326
O O15 0.101190 0.750000 0.083792
O O16 0.123004 0.513016 0.210460
O O17 0.984548 0.527273 0.844109
O O18 0.899714 0.750000 0.768730
O O19 0.643015 0.750000 0.714536
O O20 0.547417 0.250000 0.922731
#
# Coordination Sequence:
#
# PCOD8070218 Si02
#       8
#     4   4   4   4   4   4   4   4
#     4   9  19  34  49  68  93 123 158 196 238 282
#     4  11  22  34  48  69  97 131 167 203 240 281
#     4  11  21  33  48  69  97 132 168 201 233 275
#     4  10  19  30  48  72  99 129 159 192 235 287
#     4   9  17  31  49  70  95 125 160 196 239 287
#     4   9  18  31  48  69  95 125 159 201 242 280
#     4  10  19  31  50  72  96 123 155 194 238 286
#     4  11  22  36  51  68  94 130 167 203 237 279
#
# _framework density 16.313856999999999
#
# number of rings (size 3 to 8) (size 9 to 14) (size 15 to 20)
#    0.000    2.000    2.500    1.875    0.000    3.000 
#    0.000    0.000    0.000    0.000    0.000    0.875 
#    0.000    0.000    0.000    0.000    0.000    0.000 
#
# Total GULP energy -396797.593533 kJ/mol
# GULP energy per Si atom -12399.924798 kJ/mol
# Density = 1.627673 g / cm^3
# Si number density = 16.313857 Si / 1000 Ang^3
#
#
#
# Elastic Constant Matrix: (Units=GPa)
#
#
# Indices 1 2 3 4 5 6 
#
# 1 110.4785 32.9468 41.7648 0.0000 16.6463 0.0000
# 2 32.9468 39.6877 18.7215 0.0000 4.7308 0.0000
# 3 41.7648 18.7215 70.5756 0.0000 12.9143 0.0000
# 4 0.0000 0.0000 0.0000 19.2074 0.0000 -1.9505
# 5 16.6463 4.7308 12.9143 0.0000 21.6160 0.0000
# 6 0.0000 0.0000 0.0000 -1.9505 0.0000 25.3631
#
#
#
# Elastic Compliance Matrix: (Units=1/GPa)
#
#
# Indices 1 2 3 4 5 6 
#
# 1 0.014598 -0.008960 -0.005124 0.000000 -0.006220 0.000000
# 2 -0.008960 0.034374 -0.004156 0.000000 0.001860 0.000000
# 3 -0.005124 -0.004156 0.019553 0.000000 -0.006826 0.000000
# 4 0.000000 0.000000 0.000000 0.052473 0.000000 0.004035
# 5 -0.006220 0.001860 -0.006826 0.000000 0.054723 0.000000
# 6 0.000000 0.000000 0.000000 0.004035 0.000000 0.039738
#
#
# Mechanical properties :
#
#
# Convention : Reuss Voigt Hill
#
# Bulk Modulus (GPa) = 31.20682 45.28978 38.24830
# Shear Modulus (GPa) = 19.03898 21.72456 20.38177
#
# Velocity S-wave (km/s) = 3.41991 3.65315 3.53845
# Velocity P-wave (km/s) = 5.89618 6.75395 6.33959
#
# Compressibility (1/GPa) = 0.03204427
#
# Stress axis : x y z
#
# Youngs Moduli (GPa) = 68.50454 29.09199 51.14322
#
# Poissons Ratio (x) = 0.26066 0.26204
# Poissons Ratio (y) = 0.61380 0.21258
# Poissons Ratio (z) = 0.35099 0.12092
#
# Static dielectric constant tensor:
#      x y z
#    x 3.126320 0.000000 0.190420 
#    y 0.000000 3.114710 0.000000 
#    z 0.190420 0.000000 3.095940 
# 
# 
# High freq. dielectric constant tensor:
#      x y z
#    x 1.620340 0.000000 0.012720 
#    y 0.000000 1.636390 0.000000 
#    z 0.012720 0.000000 1.604490 
# 
# From -- ./inp_files/51269.got.cif
#   From: 2010.06.25/outbox.cif.g09.slc.cpg/sg11_26_cif.got.tgz:51269.got - 2010.06.27 23:14:04.
