data_PCOD8070627
_publ_section_title
;
Structure prediction by ZEFSAII (Michael W. Deem and Ramdas Pophale) SiO2 
 PCOD8070627
Probable space group: P 21/M
;
_chemical_formula_sum "Si O2"
_cell_formula_units_Z 32
_cell_length_a 14.791881
_cell_length_b 8.638592
_cell_length_c 22.952274
_cell_angle_alpha 90.000000
_cell_angle_beta 140.058813
_cell_angle_gamma 90.000000
_cell_volume 1882.902152
_symmetry_space_group_name_H-M "P 21/M"
_symmetry_group_IT_number 11
_symmetry_cell_setting 'monoclinic'
loop_
_space_group_symop_operation_xyz
x,y,z
-x,1/2+y,-z
-x,-y,-z
x,1/2-y,z
loop_
_atom_site_type_symbol
_atom_site_label
_atom_site_fract_x
_atom_site_fract_y
_atom_site_fract_z
Si Si1 0.283412 0.428073 0.366426
Si Si2 0.542533 0.071763 0.113482
Si Si3 0.432746 0.928784 0.547266
Si Si4 0.013604 0.927664 0.265035
Si Si5 0.013399 0.569981 0.624553
Si Si6 0.288151 0.070517 0.706633
Si Si7 0.297672 0.427938 0.911374
Si Si8 0.750349 0.428818 0.434998
O O1 0.240987 0.250000 0.342444
O O2 0.401074 0.469972 0.375876
O O3 0.344083 0.464382 0.460282
O O4 0.141378 0.526484 0.285045
O O5 0.559195 0.250000 0.139324
O O6 0.576288 0.968802 0.186617
O O7 0.652758 0.036959 0.116411
O O8 0.384355 0.033141 0.013049
O O9 0.408363 0.750000 0.517071
O O10 0.380924 0.961729 0.586980
O O11 0.027273 0.750000 0.290887
O O12 0.867371 0.958311 0.158869
O O13 0.027665 0.030416 0.329797
O O14 0.049802 0.750000 0.636450
O O15 0.148610 0.471036 0.673531
O O16 0.884951 0.530765 0.518340
O O17 0.288013 0.250000 0.690680
O O18 0.300342 0.972176 0.654089
O O19 0.326244 0.250000 0.907076
O O20 0.795654 0.250000 0.459664
#
# Coordination Sequence:
#
# PCOD8070627 Si02
#       8
#     4   4   4   4   4   4   4   4
#     4  10  19  31  50  75 101 130 166 206 249 300
#     4  10  19  33  52  74  97 129 170 210 250 295
#     4   9  19  34  51  71  98 131 167 209 254 295
#     4  11  20  32  50  75 105 138 166 200 250 301
#     4  12  23  35  50  73 101 135 175 212 243 290
#     4  12  24  37  51  71 101 137 172 210 251 298
#     4   9  19  33  51  73 101 131 165 207 252 299
#     4  11  22  37  54  72  98 135 174 212 250 294
#
# _framework density 16.995039999999999
#
# number of rings (size 3 to 8) (size 9 to 14) (size 15 to 20)
#    0.000    1.500    2.500    4.125    0.000    2.000 
#    0.000    0.000    0.000    0.000    0.000    0.875 
#    0.000    0.000    0.000    0.000    0.000    0.000 
#
# Total GULP energy -396877.336862 kJ/mol
# GULP energy per Si atom -12402.416777 kJ/mol
# Density = 1.695636 g / cm^3
# Si number density = 16.995040 Si / 1000 Ang^3
#
#
#
# Elastic Constant Matrix: (Units=GPa)
#
#
# Indices 1 2 3 4 5 6 
#
# 1 68.9061 17.8741 38.2525 0.0000 14.2433 0.0000
# 2 17.8741 54.2225 20.7033 0.0000 6.8338 0.0000
# 3 38.2525 20.7033 102.6513 0.0000 12.3911 0.0000
# 4 0.0000 0.0000 0.0000 24.0098 0.0000 2.1906
# 5 14.2433 6.8338 12.3911 0.0000 25.0702 0.0000
# 6 0.0000 0.0000 0.0000 2.1906 0.0000 23.4875
#
#
#
# Elastic Compliance Matrix: (Units=1/GPa)
#
#
# Indices 1 2 3 4 5 6 
#
# 1 0.020287 -0.003456 -0.005940 0.000000 -0.007648 0.000000
# 2 -0.003456 0.020893 -0.002633 0.000000 -0.002431 0.000000
# 3 -0.005940 -0.002633 0.012753 0.000000 -0.002211 0.000000
# 4 0.000000 0.000000 0.000000 0.042007 0.000000 -0.003918
# 5 -0.007648 -0.002431 -0.002211 0.000000 0.045989 0.000000
# 6 0.000000 0.000000 0.000000 -0.003918 0.000000 0.042941
#
#
# Mechanical properties :
#
#
# Convention : Reuss Voigt Hill
#
# Bulk Modulus (GPa) = 33.47044 42.15999 37.81521
# Shear Modulus (GPa) = 22.84297 24.44350 23.64323
#
# Velocity S-wave (km/s) = 3.67017 3.79657 3.73390
# Velocity P-wave (km/s) = 6.13980 6.63925 6.39441
#
# Compressibility (1/GPa) = 0.02987711
#
# Stress axis : x y z
#
# Youngs Moduli (GPa) = 49.29217 47.86240 78.41284
#
# Poissons Ratio (x) = 0.16540 0.46575
# Poissons Ratio (y) = 0.17034 0.20644
# Poissons Ratio (z) = 0.29278 0.12601
#
# Static dielectric constant tensor:
#      x y z
#    x 3.162600 0.000000 0.192730 
#    y 0.000000 3.261670 0.000000 
#    z 0.192730 0.000000 3.198930 
# 
# 
# High freq. dielectric constant tensor:
#      x y z
#    x 1.633300 0.000000 0.016900 
#    y 0.000000 1.668870 0.000000 
#    z 0.016900 0.000000 1.640390 
# 
# From -- ./inp_files/51384.got.cif
#   From: 2010.06.25/outbox.cif.g09.slc.cpg/sg11_26_cif.got.tgz:51384.got - 2010.06.27 23:14:04.
