data_PCOD8070755
_publ_section_title
;
Structure prediction by ZEFSAII (Michael W. Deem and Ramdas Pophale) SiO2 
 PCOD8070755
Probable space group: P 21/M
;
_chemical_formula_sum "Si O2"
_cell_formula_units_Z 32
_cell_length_a 24.000206
_cell_length_b 8.597282
_cell_length_c 17.575341
_cell_angle_alpha 90.000000
_cell_angle_beta 27.528345
_cell_angle_gamma 90.000000
_cell_volume 1676.092482
_symmetry_space_group_name_H-M "P 21/M"
_symmetry_group_IT_number 11
_symmetry_cell_setting 'monoclinic'
loop_
_space_group_symop_operation_xyz
x,y,z
-x,1/2+y,-z
-x,-y,-z
x,1/2-y,z
loop_
_atom_site_type_symbol
_atom_site_label
_atom_site_fract_x
_atom_site_fract_y
_atom_site_fract_z
Si Si1 0.384401 0.566836 0.467010
Si Si2 0.702698 0.930224 0.577914
Si Si3 0.782583 0.567829 0.746912
Si Si4 0.468104 0.932174 0.957491
Si Si5 0.370907 0.569326 0.647477
Si Si6 0.350390 0.933629 0.836892
Si Si7 0.886050 0.068570 0.469001
Si Si8 0.132782 0.932868 0.206171
O O1 0.375185 0.750000 0.462509
O O2 0.306657 0.475997 0.498800
O O3 0.321105 0.516403 0.624779
O O4 0.525355 0.520073 0.294399
O O5 0.735713 0.750000 0.546852
O O6 0.806856 0.030065 0.491145
O O7 0.575072 0.969267 0.770430
O O8 0.792108 0.750000 0.719504
O O9 0.648598 0.518611 0.934366
O O10 0.814495 0.479962 0.631022
O O11 0.871381 0.519594 0.707537
O O12 0.441577 0.750000 0.996345
O O13 0.500000 0.000000 0.000000
O O14 0.500000 0.500000 0.500000
O O15 0.389445 0.750000 0.618886
O O16 0.300436 0.527003 0.811125
O O17 0.373800 0.750000 0.817562
O O18 0.246753 0.991562 0.019278
O O19 0.914073 0.250000 0.437630
O O20 0.010878 0.975584 0.309918
O O21 0.139231 0.750000 0.212746
#
# Coordination Sequence:
#
# PCOD8070755 Si02
#       8
#     4   4   4   4   4   4   4   4
#     4  10  19  31  53  85 117 145 177 220 266 317
#     4  11  23  38  56  79 110 145 182 221 268 325
#     4  12  24  39  58  81 110 142 181 226 273 324
#     4  11  22  36  56  80 108 142 179 222 271 322
#     4   8  15  29  50  79 112 144 176 213 263 317
#     4   9  18  34  56  81 112 147 180 218 266 322
#     4  12  25  41  59  77 103 140 184 230 276 322
#     4  11  23  39  58  80 107 141 184 228 272 320
#
# _framework density 19.092026000000001
#
# number of rings (size 3 to 8) (size 9 to 14) (size 15 to 20)
#    0.000    1.500    1.250    4.875    0.000    6.000 
#    0.000    0.000    0.000    0.750    0.000    0.000 
#    0.000    0.000    0.000    0.000    0.000    0.000 
#
# Total GULP energy -396716.283058 kJ/mol
# GULP energy per Si atom -12397.383846 kJ/mol
# Density = 1.904857 g / cm^3
# Si number density = 19.092026 Si / 1000 Ang^3
#
#
#
# Elastic Constant Matrix: (Units=GPa)
#
#
# Indices 1 2 3 4 5 6 
#
# 1 127.6649 19.4334 34.7437 0.0000 13.7341 0.0000
# 2 19.4334 39.8194 10.6601 0.0000 2.7135 0.0000
# 3 34.7437 10.6601 42.7280 0.0000 -3.4768 0.0000
# 4 0.0000 0.0000 0.0000 23.0009 0.0000 -4.1861
# 5 13.7341 2.7135 -3.4768 0.0000 28.4320 0.0000
# 6 0.0000 0.0000 0.0000 -4.1861 0.0000 33.3893
#
#
#
# Elastic Compliance Matrix: (Units=1/GPa)
#
#
# Indices 1 2 3 4 5 6 
#
# 1 0.011412 -0.002692 -0.009126 0.000000 -0.006372 0.000000
# 2 -0.002692 0.027880 -0.004926 0.000000 -0.001963 0.000000
# 3 -0.009126 -0.004926 0.032777 0.000000 0.008887 0.000000
# 4 0.000000 0.000000 0.000000 0.044492 0.000000 0.005578
# 5 -0.006372 -0.001963 0.008887 0.000000 0.039523 0.000000
# 6 0.000000 0.000000 0.000000 0.005578 0.000000 0.030649
#
#
# Mechanical properties :
#
#
# Convention : Reuss Voigt Hill
#
# Bulk Modulus (GPa) = 25.92064 37.76519 31.84291
# Shear Modulus (GPa) = 21.45164 26.65611 24.05387
#
# Velocity S-wave (km/s) = 3.35564 3.74062 3.55335
# Velocity P-wave (km/s) = 5.34976 6.20321 5.79222
#
# Compressibility (1/GPa) = 0.03857930
#
# Stress axis : x y z
#
# Youngs Moduli (GPa) = 87.62737 35.86821 30.50916
#
# Poissons Ratio (x) = 0.09656 0.27844
# Poissons Ratio (y) = 0.23590 0.15030
# Poissons Ratio (z) = 0.79972 0.17670
#
# Static dielectric constant tensor:
#      x y z
#    x 3.911460 0.000000 0.451580 
#    y 0.000000 3.500120 0.000000 
#    z 0.451580 0.000000 3.914410 
# 
# 
# High freq. dielectric constant tensor:
#      x y z
#    x 1.752690 0.000000 0.013790 
#    y 0.000000 1.750740 0.000000 
#    z 0.013790 0.000000 1.716840 
# 
# From -- ./inp_files/61754.got.cif
#   From: 2010.06.25/outbox.cif.g09.slc.cpg/sg11_31_cif.got.tgz:61754.got - 2010.06.27 23:14:04.
