data_PCOD8070548
_publ_section_title
;
Structure prediction by ZEFSAII (Michael W. Deem and Ramdas Pophale) SiO2 
 PCOD8070548
Probable space group: P 21/M
;
_chemical_formula_sum "Si O2"
_cell_formula_units_Z 32
_cell_length_a 14.996266
_cell_length_b 8.895709
_cell_length_c 23.056329
_cell_angle_alpha 90.000000
_cell_angle_beta 148.017641
_cell_angle_gamma 90.000000
_cell_volume 1629.106614
_symmetry_space_group_name_H-M "P 21/M"
_symmetry_group_IT_number 11
_symmetry_cell_setting 'monoclinic'
loop_
_space_group_symop_operation_xyz
x,y,z
-x,1/2+y,-z
-x,-y,-z
x,1/2-y,z
loop_
_atom_site_type_symbol
_atom_site_label
_atom_site_fract_x
_atom_site_fract_y
_atom_site_fract_z
Si Si1 0.637000 0.927731 0.616964
Si Si2 0.424562 0.085515 0.905845
Si Si3 0.078107 0.572940 0.397808
Si Si4 0.792241 0.074466 0.298736
Si Si5 0.449013 0.926771 0.626935
Si Si6 0.740727 0.084467 0.002609
Si Si7 0.020759 0.927970 0.234142
Si Si8 0.484965 0.071368 0.208782
O O1 0.639127 0.750000 0.607833
O O2 0.588170 0.969149 0.656069
O O3 0.500000 0.000000 0.500000
O O4 0.817697 0.996741 0.705316
O O5 0.347906 0.250000 0.880962
O O6 0.281871 0.975368 0.803960
O O7 0.565973 0.112509 0.937092
O O8 0.500000 0.000000 0.000000
O O9 0.074164 0.750000 0.403321
O O10 0.267421 0.507862 0.507818
O O11 0.008333 0.527217 0.295293
O O12 0.974711 0.505413 0.396050
O O13 0.822322 0.250000 0.318350
O O14 0.663705 0.020743 0.278132
O O15 0.428294 0.750000 0.621240
O O16 0.508825 0.989818 0.722107
O O17 0.820718 0.250000 0.032945
O O18 0.860463 0.986937 0.110016
O O19 0.685305 0.997501 0.913427
O O20 0.035016 0.750000 0.234678
O O21 0.468075 0.250000 0.193991
#
# Coordination Sequence:
#
# PCOD8070548 Si02
#       8
#     4   4   4   4   4   4   4   4
#     4  11  21  38  62  88 116 145 181 227 283 339
#     4  10  19  31  49  73 104 143 185 230 278 328
#     4  10  20  35  55  81 114 150 187 230 281 335
#     4  10  20  32  49  78 111 146 188 230 271 321
#     4   9  19  38  61  83 109 147 188 228 280 337
#     4  10  21  36  54  80 112 146 186 233 281 327
#     4  11  22  37  58  86 116 148 187 229 282 338
#     4   9  19  38  60  79 109 152 193 230 272 329
#
# _framework density 19.642666999999999
#
# number of rings (size 3 to 8) (size 9 to 14) (size 15 to 20)
#    0.000    2.000    1.250    2.625    0.000    5.500 
#    0.000    2.500    0.000    0.000    0.000    0.000 
#    0.000    0.000    0.000    0.000    0.000    0.000 
#
# Total GULP energy -396554.734559 kJ/mol
# GULP energy per Si atom -12392.335455 kJ/mol
# Density = 1.959796 g / cm^3
# Si number density = 19.642667 Si / 1000 Ang^3
#
#
#
# Elastic Constant Matrix: (Units=GPa)
#
#
# Indices 1 2 3 4 5 6 
#
# 1 91.9892 36.4116 27.9106 0.0000 -12.2579 0.0000
# 2 36.4116 67.8778 27.1490 0.0000 -4.4981 0.0000
# 3 27.9106 27.1490 79.1567 0.0000 -14.7946 0.0000
# 4 0.0000 0.0000 0.0000 30.1727 0.0000 7.4388
# 5 -12.2579 -4.4981 -14.7946 0.0000 36.4288 0.0000
# 6 0.0000 0.0000 0.0000 7.4388 0.0000 23.2513
#
#
#
# Elastic Compliance Matrix: (Units=1/GPa)
#
#
# Indices 1 2 3 4 5 6 
#
# 1 0.014649 -0.006745 -0.002258 0.000000 0.003180 0.000000
# 2 -0.006745 0.020183 -0.004872 0.000000 -0.001756 0.000000
# 3 -0.002258 -0.004872 0.016065 0.000000 0.005163 0.000000
# 4 0.000000 0.000000 0.000000 0.035981 0.000000 -0.011511
# 5 0.003180 -0.001756 0.005163 0.000000 0.030401 0.000000
# 6 0.000000 0.000000 0.000000 -0.011511 0.000000 0.046691
#
#
# Mechanical properties :
#
#
# Convention : Reuss Voigt Hill
#
# Bulk Modulus (GPa) = 43.20031 46.88515 45.04273
# Shear Modulus (GPa) = 25.07080 27.80739 26.43909
#
# Velocity S-wave (km/s) = 3.57647 3.76661 3.67277
# Velocity P-wave (km/s) = 6.25266 6.54502 6.40051
#
# Compressibility (1/GPa) = 0.02314798
#
# Stress axis : x y z
#
# Youngs Moduli (GPa) = 68.26296 49.54734 62.24553
#
# Poissons Ratio (x) = 0.33417 0.14054
# Poissons Ratio (y) = 0.46040 0.30328
# Poissons Ratio (z) = 0.15413 0.24141
#
# Static dielectric constant tensor:
#      x y z
#    x 3.522110 0.000000 0.137900 
#    y 0.000000 3.688340 0.000000 
#    z 0.137900 0.000000 3.588700 
# 
# 
# High freq. dielectric constant tensor:
#      x y z
#    x 1.757870 0.000000 0.001260 
#    y 0.000000 1.758840 0.000000 
#    z 0.001260 0.000000 1.765370 
# 
# From -- ./inp_files/69071.got.cif
#   From: 2010.06.25/outbox.cif.g09.slc.cpg/sg11_35_cif.got.tgz:69071.got - 2010.06.27 23:14:04.
