data_PCOD8070793
_publ_section_title
;
Structure prediction by ZEFSAII (Michael W. Deem and Ramdas Pophale) SiO2 
 PCOD8070793
Probable space group: P 21/M
;
_chemical_formula_sum "Si O2"
_cell_formula_units_Z 28
_cell_length_a 9.545880
_cell_length_b 8.844442
_cell_length_c 18.403380
_cell_angle_alpha 90.000000
_cell_angle_beta 94.105896
_cell_angle_gamma 90.000000
_cell_volume 1549.772386
_symmetry_space_group_name_H-M "P 21/M"
_symmetry_group_IT_number 11
_symmetry_cell_setting 'monoclinic'
loop_
_space_group_symop_operation_xyz
x,y,z
-x,1/2+y,-z
-x,-y,-z
x,1/2-y,z
loop_
_atom_site_type_symbol
_atom_site_label
_atom_site_fract_x
_atom_site_fract_y
_atom_site_fract_z
Si Si1 0.896850 0.427085 0.438726
Si Si2 0.971551 0.427211 0.076075
Si Si3 0.694424 0.578567 0.060626
Si Si4 0.426448 0.421953 0.098764
Si Si5 0.344827 0.430291 0.494929
Si Si6 0.850066 0.573506 0.644060
Si Si7 0.192216 0.072413 0.198678
O O1 0.875509 0.250000 0.453012
O O2 0.744353 0.509117 0.438041
O O3 0.000000 0.500000 0.500000
O O4 0.983474 0.454419 0.366840
O O5 0.994601 0.250000 0.069143
O O6 0.814032 0.467246 0.094389
O O7 0.073807 0.496518 0.141285
O O8 0.000000 0.500000 0.000000
O O9 0.735281 0.750000 0.080267
O O10 0.553463 0.538180 0.098387
O O11 0.677263 0.555831 0.973451
O O12 0.483226 0.250000 0.101138
O O13 0.344338 0.460667 0.169669
O O14 0.500000 0.500000 0.500000
O O15 0.355568 0.250000 0.499546
O O16 0.258327 0.489864 0.420893
O O17 0.818849 0.750000 0.645888
O O18 0.816623 0.498349 0.721285
O O19 0.164652 0.250000 0.204172
#
# Coordination Sequence:
#
# PCOD8070793 Si02
#       7
#     4   4   4   4   4   4   4
#     4   9  16  29  51  77 103 133 168 205 245 294
#     4  11  20  32  51  74  98 127 164 209 254 296
#     4  10  19  32  48  71  97 125 164 209 252 298
#     4   9  17  31  50  71  93 126 164 205 253 296
#     4  10  19  32  53  80 105 134 169 208 250 295
#     4   8  16  31  52  76 100 129 168 210 247 292
#     4   9  17  32  52  74  99 127 168 214 252 293
#
# _framework density 18.067170000000001
#
# number of rings (size 3 to 8) (size 9 to 14) (size 15 to 20)
#    0.000    2.571    1.429    2.571    0.000    0.571 
#    0.000    1.429    0.000   24.000    0.000    0.000 
#    0.000    0.000    0.000    0.000    0.000    0.000 
#
# Total GULP energy -346999.350320 kJ/mol
# GULP energy per Si atom -12392.833940 kJ/mol
# Density = 1.802605 g / cm^3
# Si number density = 18.067170 Si / 1000 Ang^3
#
#
#
# Elastic Constant Matrix: (Units=GPa)
#
#
# Indices 1 2 3 4 5 6 
#
# 1 113.7549 34.9212 49.7790 0.0000 -11.6803 0.0000
# 2 34.9212 57.2241 23.8125 0.0000 -4.7544 0.0000
# 3 49.7790 23.8125 104.9196 0.0000 -16.6887 0.0000
# 4 0.0000 0.0000 0.0000 15.4539 0.0000 -3.2808
# 5 -11.6803 -4.7544 -16.6887 0.0000 25.9951 0.0000
# 6 0.0000 0.0000 0.0000 -3.2808 0.0000 33.4652
#
#
#
# Elastic Compliance Matrix: (Units=1/GPa)
#
#
# Indices 1 2 3 4 5 6 
#
# 1 0.012675 -0.005745 -0.004423 0.000000 0.001805 0.000000
# 2 -0.005745 0.021916 -0.002251 0.000000 -0.000018 0.000000
# 3 -0.004423 -0.002251 0.013096 0.000000 0.006009 0.000000
# 4 0.000000 0.000000 0.000000 0.066084 0.000000 0.006479
# 5 0.001805 -0.000018 0.006009 0.000000 0.043134 0.000000
# 6 0.000000 0.000000 0.000000 0.006479 0.000000 0.030517
#
#
# Mechanical properties :
#
#
# Convention : Reuss Voigt Hill
#
# Bulk Modulus (GPa) = 43.76396 54.76933 49.26664
# Shear Modulus (GPa) = 22.74002 26.14190 24.44096
#
# Velocity S-wave (km/s) = 3.55158 3.80798 3.68201
# Velocity P-wave (km/s) = 6.41044 7.05084 6.73825
#
# Compressibility (1/GPa) = 0.02284985
#
# Stress axis : x y z
#
# Youngs Moduli (GPa) = 78.89487 45.62834 76.35797
#
# Poissons Ratio (x) = 0.26212 0.33771
# Poissons Ratio (y) = 0.45322 0.17192
# Poissons Ratio (z) = 0.34893 0.10273
#
# Static dielectric constant tensor:
#      x y z
#    x 3.593530 0.000000 -0.184060 
#    y 0.000000 3.284110 0.000000 
#    z -0.184060 0.000000 3.530860 
# 
# 
# High freq. dielectric constant tensor:
#      x y z
#    x 1.706870 0.000000 -0.020100 
#    y 0.000000 1.681600 0.000000 
#    z -0.020100 0.000000 1.673590 
# 
# From -- ./inp_files/63072.got.cif
#   From: 2010.06.25/outbox.cif.g09.slc.cpg/sg11_32_cif.got.tgz:63072.got - 2010.06.27 23:14:04.
