data_PCOD8070519
_publ_section_title
;
Structure prediction by ZEFSAII (Michael W. Deem and Ramdas Pophale) SiO2 
 PCOD8070519
Probable space group: P 21/M
;
_chemical_formula_sum "Si O2"
_cell_formula_units_Z 28
_cell_length_a 31.484280
_cell_length_b 8.672184
_cell_length_c 31.484268
_cell_angle_alpha 90.000000
_cell_angle_beta 9.472971
_cell_angle_gamma 90.000000
_cell_volume 1414.812896
_symmetry_space_group_name_H-M "P 21/M"
_symmetry_group_IT_number 11
_symmetry_cell_setting 'monoclinic'
loop_
_space_group_symop_operation_xyz
x,y,z
-x,1/2+y,-z
-x,-y,-z
x,1/2-y,z
loop_
_atom_site_type_symbol
_atom_site_label
_atom_site_fract_x
_atom_site_fract_y
_atom_site_fract_z
Si Si1 0.621384 0.566753 0.621423
Si Si2 0.667981 0.431955 0.667971
Si Si3 0.951839 0.433536 0.951843
Si Si4 0.095900 0.567472 0.095928
Si Si5 0.760767 0.431209 0.760768
Si Si6 0.476588 0.066977 0.476595
Si Si7 0.810144 0.068225 0.810152
O O1 0.625331 0.750000 0.625378
O O2 0.643544 0.479456 0.643525
O O3 0.856584 0.510725 0.360094
O O4 0.360039 0.510713 0.856647
O O5 0.670202 0.250000 0.670198
O O6 0.928537 0.499003 0.429882
O O7 0.429888 0.499002 0.928530
O O8 0.951034 0.250000 0.951031
O O9 0.927919 0.502180 0.927919
O O10 0.214787 0.495176 0.713432
O O11 0.713423 0.495175 0.214795
O O12 0.094399 0.750000 0.094381
O O13 0.757379 0.250000 0.757378
O O14 0.785447 0.476311 0.785453
O O15 0.000000 0.500000 0.500000
O O16 0.500000 0.500000 0.000000
O O17 0.477949 0.250000 0.477948
O O18 0.500000 0.000000 0.500000
O O19 0.813845 0.250000 0.813850
#
# Coordination Sequence:
#
# PCOD8070519 Si02
#       7
#     4   4   4   4   4   4   4
#     4  10  19  33  55  80 107 141 179 225 276 333
#     4  12  25  40  61  90 122 157 196 243 295 348
#     4   9  17  30  49  74 100 129 170 221 265 306
#     4   9  17  30  52  79 102 131 178 225 268 321
#     4  11  24  41  64  92 123 158 197 244 296 349
#     4  10  19  31  49  71  99 132 167 212 264 315
#     4  11  24  43  64  88 120 160 203 244 288 344
#
# _framework density 19.790603000000001
#
# number of rings (size 3 to 8) (size 9 to 14) (size 15 to 20)
#    0.000    1.714    0.000    5.143    0.000   10.286 
#    0.000    0.000    0.000    5.143    0.000    0.000 
#    0.000    0.000    0.000    0.000    0.000    0.000 
#
# Total GULP energy -347303.537354 kJ/mol
# GULP energy per Si atom -12403.697763 kJ/mol
# Density = 1.974556 g / cm^3
# Si number density = 19.790603 Si / 1000 Ang^3
#
#
#
# Elastic Constant Matrix: (Units=GPa)
#
#
# Indices 1 2 3 4 5 6 
#
# 1 214.2221 61.1844 125.3491 0.0000 -0.2738 0.0000
# 2 61.1844 48.8592 46.1594 0.0000 1.3214 0.0000
# 3 125.3491 46.1594 232.9936 0.0000 -1.4244 0.0000
# 4 0.0000 0.0000 0.0000 23.3394 0.0000 0.5974
# 5 -0.2738 1.3214 -1.4244 0.0000 45.9725 0.0000
# 6 0.0000 0.0000 0.0000 0.5974 0.0000 30.1310
#
#
#
# Elastic Compliance Matrix: (Units=1/GPa)
#
#
# Indices 1 2 3 4 5 6 
#
# 1 0.008811 -0.008073 -0.003140 0.000000 0.000187 0.000000
# 2 -0.008073 0.032611 -0.002124 0.000000 -0.001051 0.000000
# 3 -0.003140 -0.002124 0.006404 0.000000 0.000241 0.000000
# 4 0.000000 0.000000 0.000000 0.042868 0.000000 -0.000850
# 5 0.000187 -0.001051 0.000241 0.000000 0.021791 0.000000
# 6 0.000000 0.000000 0.000000 -0.000850 0.000000 0.033205
#
#
# Mechanical properties :
#
#
# Convention : Reuss Voigt Hill
#
# Bulk Modulus (GPa) = 47.27568 106.82895 77.05231
# Shear Modulus (GPa) = 27.86854 37.44740 32.65797
#
# Velocity S-wave (km/s) = 3.75663 4.35464 4.06664
# Velocity P-wave (km/s) = 6.53882 8.90958 7.81463
#
# Compressibility (1/GPa) = 0.02115253
#
# Stress axis : x y z
#
# Youngs Moduli (GPa) = 113.49196 30.66440 156.16378
#
# Poissons Ratio (x) = 0.24754 0.49034
# Poissons Ratio (y) = 0.91617 0.33172
# Poissons Ratio (z) = 0.35636 0.06514
#
# Static dielectric constant tensor:
#      x y z
#    x 3.903340 0.000000 -0.009550 
#    y 0.000000 3.345630 0.000000 
#    z -0.009550 0.000000 4.012210 
# 
# 
# High freq. dielectric constant tensor:
#      x y z
#    x 1.794600 0.000000 -0.000180 
#    y 0.000000 1.741430 0.000000 
#    z -0.000180 0.000000 1.796590 
# 
# From -- ./inp_files/9591.got.cif
#   From: 2010.06.25/outbox.cif.g09.slc.cpg/sg11_5_cif.got.tgz:9591.got - 2010.06.27 23:14:04.
