data_PCOD8070110
_publ_section_title
;
Structure prediction by ZEFSAII (Michael W. Deem and Ramdas Pophale) SiO2 
 PCOD8070110
Probable space group: P 21/M
;
_chemical_formula_sum "Si O2"
_cell_formula_units_Z 28
_cell_length_a 19.090060
_cell_length_b 9.189514
_cell_length_c 15.092460
_cell_angle_alpha 90.000000
_cell_angle_beta 142.674168
_cell_angle_gamma 90.000000
_cell_volume 1605.391983
_symmetry_space_group_name_H-M "P 21/M"
_symmetry_group_IT_number 11
_symmetry_cell_setting 'monoclinic'
loop_
_space_group_symop_operation_xyz
x,y,z
-x,1/2+y,-z
-x,-y,-z
x,1/2-y,z
loop_
_atom_site_type_symbol
_atom_site_label
_atom_site_fract_x
_atom_site_fract_y
_atom_site_fract_z
Si Si1 0.770746 0.590003 0.061572
Si Si2 0.398177 0.919374 0.217646
Si Si3 0.977242 0.921625 0.385866
Si Si4 0.271907 0.075630 0.246574
Si Si5 0.131868 0.923824 0.378818
Si Si6 0.061395 0.091121 0.935707
Si Si7 0.664802 0.581706 0.493585
O O1 0.718222 0.750000 0.030239
O O2 0.849210 0.533880 0.222388
O O3 0.853262 0.606183 0.060995
O O4 0.668044 0.477529 0.936374
O O5 0.370475 0.750000 0.203017
O O6 0.532803 0.947551 0.336614
O O7 0.361981 0.004091 0.269634
O O8 0.983731 0.750000 0.406518
O O9 0.075156 0.972147 0.414439
O O10 0.000000 0.000000 0.500000
O O11 0.278155 0.250000 0.240701
O O12 0.308081 0.025198 0.380235
O O13 0.139561 0.017319 0.092237
O O14 0.136527 0.750000 0.377388
O O15 0.054009 0.988061 0.217507
O O16 0.258737 0.991842 0.499439
O O17 0.024232 0.250000 0.932527
O O18 0.697466 0.750000 0.517952
#
# Coordination Sequence:
#
# PCOD8070110 Si02
#       7
#     4   4   4   4   4   4   4
#     4   8  15  30  50  70  94 124 154 185 230 283
#     4  10  19  30  45  68  96 124 163 208 237 265
#     4   9  18  33  55  81 102 119 145 186 234 286
#     4   9  17  31  48  64  89 127 166 202 242 282
#     4   9  18  32  48  68  95 125 156 188 229 285
#     4   7  12  26  46  64  86 118 154 192 228 267
#     4  10  21  32  43  65  97 130 162 200 241 275
#
# _framework density 17.441223999999998
#
# number of rings (size 3 to 8) (size 9 to 14) (size 15 to 20)
#    0.000    3.143    0.000    3.429    0.000    3.429 
#    0.000    5.714    0.000    0.857    0.000    0.000 
#    0.000    0.000    0.000    0.000    0.000    0.000 
#
# Total GULP energy -346908.902921 kJ/mol
# GULP energy per Si atom -12389.603676 kJ/mol
# Density = 1.740153 g / cm^3
# Si number density = 17.441224 Si / 1000 Ang^3
#
#
#
# Elastic Constant Matrix: (Units=GPa)
#
#
# Indices 1 2 3 4 5 6 
#
# 1 70.5153 36.2158 53.4122 0.0000 1.2633 0.0000
# 2 36.2158 48.9175 42.0387 0.0000 2.1148 0.0000
# 3 53.4122 42.0387 115.7923 0.0000 -8.3250 0.0000
# 4 0.0000 0.0000 0.0000 26.2470 0.0000 -0.7683
# 5 1.2633 2.1148 -8.3250 0.0000 25.9339 0.0000
# 6 0.0000 0.0000 0.0000 -0.7683 0.0000 23.3248
#
#
#
# Elastic Compliance Matrix: (Units=1/GPa)
#
#
# Indices 1 2 3 4 5 6 
#
# 1 0.026878 -0.013013 -0.007873 0.000000 -0.002776 0.000000
# 2 -0.013013 0.036962 -0.007767 0.000000 -0.004874 0.000000
# 3 -0.007873 -0.007767 0.015519 0.000000 0.005999 0.000000
# 4 0.000000 0.000000 0.000000 0.038136 0.000000 0.001256
# 5 -0.002776 -0.004874 0.005999 0.000000 0.041018 0.000000
# 6 0.000000 0.000000 0.000000 0.001256 0.000000 0.042914
#
#
# Mechanical properties :
#
#
# Convention : Reuss Voigt Hill
#
# Bulk Modulus (GPa) = 45.34595 55.39537 50.37066
# Shear Modulus (GPa) = 18.79100 22.00504 20.39802
#
# Velocity S-wave (km/s) = 3.28592 3.55585 3.42355
# Velocity P-wave (km/s) = 6.36020 6.97774 6.67611
#
# Compressibility (1/GPa) = 0.02205269
#
# Stress axis : x y z
#
# Youngs Moduli (GPa) = 37.20524 27.05478 64.43657
#
# Poissons Ratio (x) = 0.35205 0.50734
# Poissons Ratio (y) = 0.48414 0.50049
# Poissons Ratio (z) = 0.29293 0.21014
#
# Static dielectric constant tensor:
#      x y z
#    x 2.903610 0.000000 0.022230 
#    y 0.000000 3.114480 0.000000 
#    z 0.022230 0.000000 3.649130 
# 
# 
# High freq. dielectric constant tensor:
#      x y z
#    x 1.637070 0.000000 0.006600 
#    y 0.000000 1.656190 0.000000 
#    z 0.006600 0.000000 1.684190 
# 
# From -- ./inp_files/53239.got.cif
#   From: 2010.06.25/outbox.cif.g09.slc.cpg/sg11_27_cif.got.tgz:53239.got - 2010.06.27 23:14:04.
