data_PCOD8070878
_publ_section_title
;
Structure prediction by ZEFSAII (Michael W. Deem and Ramdas Pophale) SiO2 
 PCOD8070878
Probable space group: P 21/M
;
_chemical_formula_sum "Si O2"
_cell_formula_units_Z 32
_cell_length_a 21.172232
_cell_length_b 8.585698
_cell_length_c 12.523866
_cell_angle_alpha 90.000000
_cell_angle_beta 53.344198
_cell_angle_gamma 90.000000
_cell_volume 1826.345907
_symmetry_space_group_name_H-M "P 21/M"
_symmetry_group_IT_number 11
_symmetry_cell_setting 'monoclinic'
loop_
_space_group_symop_operation_xyz
x,y,z
-x,1/2+y,-z
-x,-y,-z
x,1/2-y,z
loop_
_atom_site_type_symbol
_atom_site_label
_atom_site_fract_x
_atom_site_fract_y
_atom_site_fract_z
Si Si1 0.078786 0.069004 0.800934
Si Si2 0.663951 0.930558 0.964821
Si Si3 0.178067 0.569762 0.130766
Si Si4 0.820018 0.430667 0.479210
Si Si5 0.086813 0.432820 0.416875
Si Si6 0.086439 0.069494 0.037464
Si Si7 0.667005 0.928556 0.710812
Si Si8 0.506329 0.430971 0.109895
O O1 0.057817 0.250000 0.811343
O O2 0.151556 0.025035 0.652740
O O3 0.101889 0.026749 0.898611
O O4 0.002899 0.971693 0.839969
O O5 0.677083 0.750000 0.975560
O O6 0.668748 0.969140 0.834472
O O7 0.729816 0.029101 0.959504
O O8 0.578194 0.982219 0.097531
O O9 0.165018 0.750000 0.172074
O O10 0.130621 0.463496 0.261762
O O11 0.146817 0.533624 0.044199
O O12 0.834940 0.250000 0.444541
O O13 0.866062 0.484460 0.537049
O O14 0.727254 0.461659 0.587368
O O15 0.083892 0.250000 0.442627
O O16 0.000000 0.500000 0.500000
O O17 0.101475 0.250000 0.046473
O O18 0.693031 0.750000 0.668847
O O19 0.579558 0.956844 0.749375
O O20 0.526758 0.250000 0.081697
O O21 0.500000 0.500000 0.000000
#
# Coordination Sequence:
#
# PCOD8070878 Si02
#       8
#     4   4   4   4   4   4   4   4
#     4  10  21  38  58  77 101 134 173 218 264 308
#     4  10  19  32  50  73 104 139 173 212 255 305
#     4  12  23  35  53  77 105 137 173 213 260 309
#     4  12  23  34  52  77 105 137 174 214 258 306
#     4  12  24  38  52  70 102 138 175 211 254 311
#     4  10  21  38  58  78 101 132 173 219 264 308
#     4   9  18  32  49  71 103 140 173 210 254 303
#     4   9  17  29  47  70 100 136 174 211 253 304
#
# _framework density 17.521325000000001
#
# number of rings (size 3 to 8) (size 9 to 14) (size 15 to 20)
#    0.000    1.500    1.250    6.375    0.000    4.000 
#    0.000    0.000    0.000    0.000    0.000    0.875 
#    0.000    0.000    0.000    0.000    0.000    0.000 
#
# Total GULP energy -396875.286927 kJ/mol
# GULP energy per Si atom -12402.352716 kJ/mol
# Density = 1.748145 g / cm^3
# Si number density = 17.521325 Si / 1000 Ang^3
#
#
#
# Elastic Constant Matrix: (Units=GPa)
#
#
# Indices 1 2 3 4 5 6 
#
# 1 95.8627 25.6700 46.7344 0.0000 -17.5753 0.0000
# 2 25.6700 58.3725 15.7947 0.0000 -2.5629 0.0000
# 3 46.7344 15.7947 69.3679 0.0000 -9.9726 0.0000
# 4 0.0000 0.0000 0.0000 26.0205 0.0000 -4.0041
# 5 -17.5753 -2.5629 -9.9726 0.0000 25.8909 0.0000
# 6 0.0000 0.0000 0.0000 -4.0041 0.0000 30.1560
#
#
#
# Elastic Compliance Matrix: (Units=1/GPa)
#
#
# Indices 1 2 3 4 5 6 
#
# 1 0.018016 -0.004901 -0.009881 0.000000 0.007939 0.000000
# 2 -0.004901 0.019590 -0.001438 0.000000 -0.001941 0.000000
# 3 -0.009881 -0.001438 0.021612 0.000000 0.001475 0.000000
# 4 0.000000 0.000000 0.000000 0.039233 0.000000 0.005209
# 5 0.007939 -0.001941 0.001475 0.000000 0.044389 0.000000
# 6 0.000000 0.000000 0.000000 0.005209 0.000000 0.033853
#
#
# Mechanical properties :
#
#
# Convention : Reuss Voigt Hill
#
# Bulk Modulus (GPa) = 37.34138 44.44460 40.89299
# Shear Modulus (GPa) = 22.92956 25.44039 24.18497
#
# Velocity S-wave (km/s) = 3.62147 3.81460 3.71929
# Velocity P-wave (km/s) = 6.23257 6.69497 6.46791
#
# Compressibility (1/GPa) = 0.02677994
#
# Stress axis : x y z
#
# Youngs Moduli (GPa) = 55.50478 51.04544 46.27005
#
# Poissons Ratio (x) = 0.25016 0.45719
# Poissons Ratio (y) = 0.27202 0.06654
# Poissons Ratio (z) = 0.54843 0.07340
#
# Static dielectric constant tensor:
#      x y z
#    x 3.428450 0.000000 -0.296090 
#    y 0.000000 3.439830 0.000000 
#    z -0.296090 0.000000 3.224990 
# 
# 
# High freq. dielectric constant tensor:
#      x y z
#    x 1.669560 0.000000 -0.024330 
#    y 0.000000 1.694330 0.000000 
#    z -0.024330 0.000000 1.651190 
# 
# From -- ./inp_files/42789.got.cif
#   From: 2010.06.25/outbox.cif.g09.slc.cpg/sg11_22_cif.got.tgz:42789.got - 2010.06.27 23:14:04.
