data_PCOD8070941
_publ_section_title
;
Structure prediction by ZEFSAII (Michael W. Deem and Ramdas Pophale) SiO2 
 PCOD8070941
Probable space group: P 21/M
;
_chemical_formula_sum "Si O2"
_cell_formula_units_Z 28
_cell_length_a 28.866116
_cell_length_b 9.468027
_cell_length_c 8.694778
_cell_angle_alpha 90.000000
_cell_angle_beta 37.716205
_cell_angle_gamma 90.000000
_cell_volume 1453.720392
_symmetry_space_group_name_H-M "P 21/M"
_symmetry_group_IT_number 11
_symmetry_cell_setting 'monoclinic'
loop_
_space_group_symop_operation_xyz
x,y,z
-x,1/2+y,-z
-x,-y,-z
x,1/2-y,z
loop_
_atom_site_type_symbol
_atom_site_label
_atom_site_fract_x
_atom_site_fract_y
_atom_site_fract_z
Si Si1 0.488259 0.082998 0.687503
Si Si2 0.249674 0.590401 0.903784
Si Si3 0.662049 0.908993 0.743371
Si Si4 0.956225 0.409043 0.827008
Si Si5 0.204324 0.591900 0.668872
Si Si6 0.386975 0.084255 0.473140
Si Si7 0.912405 0.408109 0.587008
O O1 0.508262 0.250000 0.621694
O O2 0.500000 0.000000 0.500000
O O3 0.539189 0.007022 0.681875
O O4 0.400919 0.062348 0.962861
O O5 0.274097 0.750000 0.887353
O O6 0.229246 0.589917 0.779241
O O7 0.317049 0.478911 0.756945
O O8 0.175282 0.541552 0.195378
O O9 0.691288 0.750000 0.670904
O O10 0.626074 0.941403 0.672133
O O11 0.736392 0.001147 0.585792
O O12 0.973215 0.250000 0.834007
O O13 0.938144 0.415028 0.694883
O O14 0.031679 0.498608 0.665504
O O15 0.882252 0.466649 0.114057
O O16 0.206973 0.750000 0.595909
O O17 0.397396 0.250000 0.486782
O O18 0.918906 0.250000 0.506556
#
# Coordination Sequence:
#
# PCOD8070941 Si02
#       7
#     4   4   4   4   4   4   4
#     4  11  23  38  53  71  96 124 154 192 237 283
#     4   8  14  25  39  58  86 119 154 191 229 270
#     4   9  19  33  50  72  96 122 156 196 235 278
#     4   8  13  20  30  49  79 114 150 186 224 266
#     4   8  14  24  39  59  85 118 154 190 229 273
#     4  10  19  32  51  74  96 122 157 194 235 282
#     4   8  13  20  31  49  77 115 153 185 222 267
#
# _framework density 19.260925
#
# number of rings (size 3 to 8) (size 9 to 14) (size 15 to 20)
#    0.000    3.143    0.000    3.000    0.000    2.857 
#    0.000    5.714    0.000    0.000    0.000    0.000 
#    0.000    1.143    0.000    3.714    0.000    8.571 
#
# Total GULP energy -346964.230873 kJ/mol
# GULP energy per Si atom -12391.579674 kJ/mol
# Density = 1.921709 g / cm^3
# Si number density = 19.260925 Si / 1000 Ang^3
#
#
#
# Elastic Constant Matrix: (Units=GPa)
#
#
# Indices 1 2 3 4 5 6 
#
# 1 9.5676 18.7687 25.6719 0.0000 -3.4970 0.0000
# 2 18.7687 105.8338 70.1628 0.0000 -11.1616 0.0000
# 3 25.6719 70.1628 125.6893 0.0000 -22.0858 0.0000
# 4 0.0000 0.0000 0.0000 38.6627 0.0000 -12.3614
# 5 -3.4970 -11.1616 -22.0858 0.0000 15.9485 0.0000
# 6 0.0000 0.0000 0.0000 -12.3614 0.0000 21.7950
#
#
#
# Elastic Compliance Matrix: (Units=1/GPa)
#
#
# Indices 1 2 3 4 5 6 
#
# 1 0.252788 -0.016484 -0.045882 0.000000 -0.019647 0.000000
# 2 -0.016484 0.016100 -0.005651 0.000000 -0.000172 0.000000
# 3 -0.045882 -0.005651 0.023814 0.000000 0.018963 0.000000
# 4 0.000000 0.000000 0.000000 0.031594 0.000000 0.017919
# 5 -0.019647 -0.000172 0.018963 0.000000 0.084534 0.000000
# 6 0.000000 0.000000 0.000000 0.017919 0.000000 0.056045
#
#
# Mechanical properties :
#
#
# Convention : Reuss Voigt Hill
#
# Bulk Modulus (GPa) = 6.38294 52.25528 29.31911
# Shear Modulus (GPa) = 7.65542 23.71373 15.68458
#
# Velocity S-wave (km/s) = 1.99580 3.51263 2.85673
# Velocity P-wave (km/s) = 2.93804 6.60610 5.11237
#
# Compressibility (1/GPa) = 0.15666765
#
# Stress axis : x y z
#
# Youngs Moduli (GPa) = 3.95589 62.11096 41.99175
#
# Poissons Ratio (x) = 1.02383 1.92668
# Poissons Ratio (y) = 0.06521 0.23729
# Poissons Ratio (z) = 0.18151 0.35099
#
# Static dielectric constant tensor:
#      x y z
#    x 3.084730 0.000000 -0.466070 
#    y 0.000000 3.692510 0.000000 
#    z -0.466070 0.000000 3.804670 
# 
# 
# High freq. dielectric constant tensor:
#      x y z
#    x 1.696730 0.000000 -0.031800 
#    y 0.000000 1.747630 0.000000 
#    z -0.031800 0.000000 1.754020 
# 
# From -- ./inp_files/29017.got.cif
#   From: 2010.06.25/outbox.cif.g09.slc.cpg/sg11_15_cif.got.tgz:29017.got - 2010.06.27 23:14:04.
