data_PCOD8070028
_publ_section_title
;
Structure prediction by ZEFSAII (Michael W. Deem and Ramdas Pophale) SiO2 
 PCOD8070028
Probable space group: P 21/M
;
_chemical_formula_sum "Si O2"
_cell_formula_units_Z 28
_cell_length_a 16.316310
_cell_length_b 8.874055
_cell_length_c 17.727298
_cell_angle_alpha 90.000000
_cell_angle_beta 41.379810
_cell_angle_gamma 90.000000
_cell_volume 1696.755539
_symmetry_space_group_name_H-M "P 21/M"
_symmetry_group_IT_number 11
_symmetry_cell_setting 'monoclinic'
loop_
_space_group_symop_operation_xyz
x,y,z
-x,1/2+y,-z
-x,-y,-z
x,1/2-y,z
loop_
_atom_site_type_symbol
_atom_site_label
_atom_site_fract_x
_atom_site_fract_y
_atom_site_fract_z
Si Si1 0.366213 0.072383 0.591682
Si Si2 0.064913 0.922796 0.059800
Si Si3 0.161681 0.421702 0.458495
Si Si4 0.179525 0.576321 0.825776
Si Si5 0.074965 0.080659 0.198950
Si Si6 0.906605 0.923705 0.651127
Si Si7 0.213893 0.922149 0.566580
O O1 0.379555 0.250000 0.583516
O O2 0.500000 0.000000 0.500000
O O3 0.294150 0.020296 0.716673
O O4 0.293696 0.023355 0.567192
O O5 0.020907 0.750000 0.090761
O O6 0.123015 0.968389 0.100445
O O7 0.167467 0.948888 0.924047
O O8 0.946667 0.027803 0.127993
O O9 0.185279 0.250000 0.466380
O O10 0.195099 0.447235 0.345966
O O11 0.239670 0.525678 0.462196
O O12 0.016123 0.457328 0.564091
O O13 0.202734 0.750000 0.788905
O O14 0.099042 0.250000 0.154042
O O15 0.149462 0.048856 0.225954
O O16 0.929847 0.053685 0.315460
O O17 0.957580 0.750000 0.613047
O O18 0.255786 0.750000 0.546464
#
# Coordination Sequence:
#
# PCOD8070028 Si02
#       7
#     4   4   4   4   4   4   4
#     4  12  24  37  53  70  90 119 156 196 237 279
#     4  10  19  29  46  69  93 122 157 193 229 274
#     4   9  15  24  39  58  82 115 154 189 223 269
#     4  10  20  34  48  66  92 121 154 194 235 274
#     4   9  16  26  42  62  91 124 154 189 228 271
#     4   8  15  25  36  55  85 120 152 185 225 267
#     4  10  19  31  45  63  89 120 153 190 231 274
#
# _framework density 16.502082000000001
#
# number of rings (size 3 to 8) (size 9 to 14) (size 15 to 20)
#    0.000    2.286    1.429    3.857    0.000    4.571 
#    0.000    0.000    0.000    0.000    0.000    0.000 
#    0.000    1.143    0.000    3.429    0.000    5.571 
#
# Total GULP energy -347011.285304 kJ/mol
# GULP energy per Si atom -12393.260189 kJ/mol
# Density = 1.646452 g / cm^3
# Si number density = 16.502082 Si / 1000 Ang^3
#
#
#
# Elastic Constant Matrix: (Units=GPa)
#
#
# Indices 1 2 3 4 5 6 
#
# 1 81.2393 41.6680 47.7036 0.0000 35.8649 0.0000
# 2 41.6680 102.7264 42.3439 0.0000 13.9799 0.0000
# 3 47.7036 42.3439 66.7073 0.0000 17.8881 0.0000
# 4 0.0000 0.0000 0.0000 21.7865 0.0000 5.7488
# 5 35.8649 13.9799 17.8881 0.0000 30.0703 0.0000
# 6 0.0000 0.0000 0.0000 5.7488 0.0000 26.6227
#
#
#
# Elastic Compliance Matrix: (Units=1/GPa)
#
#
# Indices 1 2 3 4 5 6 
#
# 1 0.040013 -0.004760 -0.015929 0.000000 -0.036034 0.000000
# 2 -0.004760 0.013798 -0.006136 0.000000 0.002912 0.000000
# 3 -0.015929 -0.006136 0.029052 0.000000 0.004569 0.000000
# 4 0.000000 0.000000 0.000000 0.048673 0.000000 -0.010510
# 5 -0.036034 0.002912 0.004569 0.000000 0.072161 0.000000
# 6 0.000000 0.000000 0.000000 -0.010510 0.000000 0.039831
#
#
# Mechanical properties :
#
#
# Convention : Reuss Voigt Hill
#
# Bulk Modulus (GPa) = 34.23216 57.12265 45.67740
# Shear Modulus (GPa) = 16.29111 23.62642 19.95876
#
# Velocity S-wave (km/s) = 3.14541 3.78792 3.48152
# Velocity P-wave (km/s) = 5.82929 7.33632 6.62579
#
# Compressibility (1/GPa) = 0.02921230
#
# Stress axis : x y z
#
# Youngs Moduli (GPa) = 24.99216 72.47358 34.42150
#
# Poissons Ratio (x) = 0.34498 0.54831
# Poissons Ratio (y) = 0.11896 0.21120
# Poissons Ratio (z) = 0.39811 0.44467
#
# Static dielectric constant tensor:
#      x y z
#    x 3.437790 0.000000 0.541970 
#    y 0.000000 3.238270 0.000000 
#    z 0.541970 0.000000 2.891710 
# 
# 
# High freq. dielectric constant tensor:
#      x y z
#    x 1.628130 0.000000 0.052780 
#    y 0.000000 1.651040 0.000000 
#    z 0.052780 0.000000 1.580720 
# 
# From -- ./inp_files/60082.got.cif
#   From: 2010.06.25/outbox.cif.g09.slc.cpg/sg11_31_cif.got.tgz:60082.got - 2010.06.27 23:14:04.
