data_PCOD8070393
_publ_section_title
;
Structure prediction by ZEFSAII (Michael W. Deem and Ramdas Pophale) SiO2 
 PCOD8070393
Probable space group: P 21/M
;
_chemical_formula_sum "Si O2"
_cell_formula_units_Z 32
_cell_length_a 21.082238
_cell_length_b 8.851936
_cell_length_c 30.346349
_cell_angle_alpha 90.000000
_cell_angle_beta 160.314839
_cell_angle_gamma 90.000000
_cell_volume 1907.654858
_symmetry_space_group_name_H-M "P 21/M"
_symmetry_group_IT_number 11
_symmetry_cell_setting 'monoclinic'
loop_
_space_group_symop_operation_xyz
x,y,z
-x,1/2+y,-z
-x,-y,-z
x,1/2-y,z
loop_
_atom_site_type_symbol
_atom_site_label
_atom_site_fract_x
_atom_site_fract_y
_atom_site_fract_z
Si Si1 0.780863 0.421844 0.949038
Si Si2 0.123097 0.074346 0.117941
Si Si3 0.456856 0.425959 0.136967
Si Si4 0.177512 0.572318 0.493331
Si Si5 0.222451 0.073551 0.802926
Si Si6 0.550012 0.074174 0.709146
Si Si7 0.831267 0.929031 0.416974
Si Si8 0.458456 0.073565 0.038659
O O1 0.744018 0.250000 0.939816
O O2 0.721057 0.533808 0.948846
O O3 0.656569 0.457329 0.824638
O O4 0.004004 0.446913 0.085248
O O5 0.152182 0.250000 0.126284
O O6 0.325471 0.990945 0.250238
O O7 0.000000 0.000000 0.000000
O O8 0.507240 0.250000 0.175054
O O9 0.634658 0.525021 0.266870
O O10 0.398559 0.467979 0.049030
O O11 0.195296 0.750000 0.514477
O O12 0.354421 0.514744 0.581147
O O13 0.161699 0.485162 0.528659
O O14 0.995944 0.531921 0.345083
O O15 0.254166 0.250000 0.819189
O O16 0.340369 0.999710 0.840513
O O17 0.297554 0.014478 0.899577
O O18 0.513074 0.250000 0.677087
O O19 0.850959 0.750000 0.429180
O O20 0.000000 0.000000 0.500000
O O21 0.486816 0.250000 0.051759
#
# Coordination Sequence:
#
# PCOD8070393 Si02
#       8
#     4   4   4   4   4   4   4   4
#     4   9  18  31  46  68  99 132 162 197 239 284
#     4   9  17  29  46  67  95 130 166 200 239 287
#     4  11  21  32  50  73  98 130 164 198 241 291
#     4  11  21  33  51  73  97 129 165 200 244 294
#     4   9  19  35  53  72  94 123 162 207 250 290
#     4  10  19  31  47  70 100 132 162 199 242 288
#     4  12  24  36  48  66  98 132 164 200 240 290
#     4   9  19  35  52  72  96 123 161 207 249 288
#
# _framework density 16.774522999999999
#
# number of rings (size 3 to 8) (size 9 to 14) (size 15 to 20)
#    0.000    2.000    1.250    4.125    0.000    6.500 
#    0.000    0.000    0.000    0.000    0.000    0.875 
#    0.000    0.000    0.000    0.000    0.000    0.000 
#
# Total GULP energy -396760.730674 kJ/mol
# GULP energy per Si atom -12398.772834 kJ/mol
# Density = 1.673634 g / cm^3
# Si number density = 16.774523 Si / 1000 Ang^3
#
#
#
# Elastic Constant Matrix: (Units=GPa)
#
#
# Indices 1 2 3 4 5 6 
#
# 1 94.0846 44.2779 59.1948 0.0000 18.4589 0.0000
# 2 44.2779 86.5859 45.3378 0.0000 7.7390 0.0000
# 3 59.1948 45.3378 92.7772 0.0000 16.3093 0.0000
# 4 0.0000 0.0000 0.0000 19.2942 0.0000 11.3181
# 5 18.4589 7.7390 16.3093 0.0000 27.6870 0.0000
# 6 0.0000 0.0000 0.0000 11.3181 0.0000 26.2665
#
#
#
# Elastic Compliance Matrix: (Units=1/GPa)
#
#
# Indices 1 2 3 4 5 6 
#
# 1 0.019996 -0.004788 -0.009270 0.000000 -0.006532 0.000000
# 2 -0.004788 0.016667 -0.005391 0.000000 0.001708 0.000000
# 3 -0.009270 -0.005391 0.020053 0.000000 -0.004125 0.000000
# 4 0.000000 0.000000 0.000000 0.069361 0.000000 -0.029888
# 5 -0.006532 0.001708 -0.004125 0.000000 0.042425 0.000000
# 6 0.000000 0.000000 0.000000 -0.029888 0.000000 0.050950
#
#
# Mechanical properties :
#
#
# Convention : Reuss Voigt Hill
#
# Bulk Modulus (GPa) = 56.11931 63.45207 59.78569
# Shear Modulus (GPa) = 18.91870 22.95869 20.93869
#
# Velocity S-wave (km/s) = 3.36195 3.70356 3.53688
# Velocity P-wave (km/s) = 6.97123 7.49647 7.23861
#
# Compressibility (1/GPa) = 0.01781918
#
# Stress axis : x y z
#
# Youngs Moduli (GPa) = 50.01028 59.99739 49.86907
#
# Poissons Ratio (x) = 0.28724 0.46229
# Poissons Ratio (y) = 0.23943 0.26883
# Poissons Ratio (z) = 0.46360 0.32342
#
# Static dielectric constant tensor:
#      x y z
#    x 3.391860 0.000000 0.222640 
#    y 0.000000 3.310180 0.000000 
#    z 0.222640 0.000000 3.400840 
# 
# 
# High freq. dielectric constant tensor:
#      x y z
#    x 1.635420 0.000000 0.024010 
#    y 0.000000 1.659760 0.000000 
#    z 0.024010 0.000000 1.626300 
# 
# From -- ./inp_files/73637.got.cif
#   From: 2010.06.25/outbox.cif.g09.slc.cpg/sg11_37_cif.got.tgz:73637.got - 2010.06.27 23:14:04.
