data_PCOD8070215
_publ_section_title
;
Structure prediction by ZEFSAII (Michael W. Deem and Ramdas Pophale) SiO2 
 PCOD8070215
Probable space group: P 21/M
;
_chemical_formula_sum "Si O2"
_cell_formula_units_Z 28
_cell_length_a 9.177323
_cell_length_b 15.056723
_cell_length_c 11.363180
_cell_angle_alpha 90.000000
_cell_angle_beta 113.143860
_cell_angle_gamma 90.000000
_cell_volume 1443.803086
_symmetry_space_group_name_H-M "P 21/M"
_symmetry_group_IT_number 11
_symmetry_cell_setting 'monoclinic'
loop_
_space_group_symop_operation_xyz
x,y,z
-x,1/2+y,-z
-x,-y,-z
x,1/2-y,z
loop_
_atom_site_type_symbol
_atom_site_label
_atom_site_fract_x
_atom_site_fract_y
_atom_site_fract_z
Si Si1 0.518913 0.353400 0.727328
Si Si2 0.751614 0.348370 0.188055
Si Si3 0.198715 0.427819 0.577242
Si Si4 0.568282 0.648132 0.036933
Si Si5 0.846273 0.348500 0.730956
Si Si6 0.852458 0.964001 0.168280
Si Si7 0.866976 0.121498 0.476021
O O1 0.516511 0.250000 0.704910
O O2 0.372138 0.390500 0.602808
O O3 0.505535 0.377888 0.860131
O O4 0.684368 0.390891 0.730097
O O5 0.801579 0.250000 0.154818
O O6 0.854660 0.427552 0.159237
O O7 0.762445 0.345822 0.333528
O O8 0.567160 0.366042 0.103146
O O9 0.189629 0.440659 0.713009
O O10 0.169399 0.519690 0.501266
O O11 0.051847 0.363575 0.495897
O O12 0.630108 0.750000 0.059024
O O13 0.712777 0.582405 0.047574
O O14 0.880596 0.250000 0.796692
O O15 0.831264 0.329392 0.586238
O O16 0.980260 0.419540 0.812165
#
# Coordination Sequence:
#
# PCOD8070215 Si02
#       7
#     4   4   4   4   4   4   4
#     4   9  18  31  48  71  96 124 159 197 234 273
#     4  10  19  30  48  72  97 124 155 194 236 282
#     4   8  16  30  48  69  92 122 158 193 231 276
#     4   9  17  31  51  72  94 123 158 193 232 280
#     4  10  19  31  49  72  97 123 155 199 241 274
#     4   9  17  31  50  72  94 120 160 201 234 271
#     4   9  17  30  48  71  95 121 154 192 236 281
#
# _framework density 19.393227
#
# number of rings (size 3 to 8) (size 9 to 14) (size 15 to 20)
#    0.000    2.857    0.000    2.143    0.000    4.571 
#    0.000    0.714    0.000    1.714    0.000   15.000 
#    0.000    0.000    0.000    0.000    0.000    0.000 
#
# Total GULP energy -346903.042125 kJ/mol
# GULP energy per Si atom -12389.394362 kJ/mol
# Density = 1.934909 g / cm^3
# Si number density = 19.393227 Si / 1000 Ang^3
#
#
#
# Elastic Constant Matrix: (Units=GPa)
#
#
# Indices 1 2 3 4 5 6 
#
# 1 139.2862 55.9782 35.8451 0.0000 28.6045 0.0000
# 2 55.9782 88.7379 29.0289 0.0000 15.4173 0.0000
# 3 35.8451 29.0289 71.5628 0.0000 29.9507 0.0000
# 4 0.0000 0.0000 0.0000 20.3216 0.0000 9.0688
# 5 28.6045 15.4173 29.9507 0.0000 23.8591 0.0000
# 6 0.0000 0.0000 0.0000 9.0688 0.0000 24.6001
#
#
#
# Elastic Compliance Matrix: (Units=1/GPa)
#
#
# Indices 1 2 3 4 5 6 
#
# 1 0.011563 -0.005706 0.001647 0.000000 -0.012243 0.000000
# 2 -0.005706 0.015970 -0.004560 0.000000 0.002245 0.000000
# 3 0.001647 -0.004560 0.030744 0.000000 -0.037621 0.000000
# 4 0.000000 0.000000 0.000000 0.058898 0.000000 -0.021713
# 5 -0.012243 0.002245 -0.037621 0.000000 0.102366 0.000000
# 6 0.000000 0.000000 0.000000 -0.021713 0.000000 0.048655
#
#
# Mechanical properties :
#
#
# Convention : Reuss Voigt Hill
#
# Bulk Modulus (GPa) = 24.36697 60.14347 42.25522
# Shear Modulus (GPa) = 16.71604 25.67182 21.19393
#
# Velocity S-wave (km/s) = 2.93909 3.64229 3.30942
# Velocity P-wave (km/s) = 4.91015 6.98343 6.03647
#
# Compressibility (1/GPa) = 0.04103917
#
# Stress axis : x y z
#
# Youngs Moduli (GPa) = 86.48164 62.61684 32.52681
#
# Poissons Ratio (x) = 0.35729 -0.05356
# Poissons Ratio (y) = 0.49346 0.14831
# Poissons Ratio (z) = -0.14241 0.28552
#
# Static dielectric constant tensor:
#      x y z
#    x 3.588800 0.000000 0.441790 
#    y 0.000000 3.805460 0.000000 
#    z 0.441790 0.000000 3.459260 
# 
# 
# High freq. dielectric constant tensor:
#      x y z
#    x 1.723880 0.000000 0.037350 
#    y 0.000000 1.761040 0.000000 
#    z 0.037350 0.000000 1.737260 
# 
# From -- ./inp_files/17956.got.cif
#   From: 2010.06.25/outbox.cif.g09.slc.cpg/sg11_9_cif.got.tgz:17956.got - 2010.06.27 23:14:04.
