data_PCOD8070921
_publ_section_title
;
Structure prediction by ZEFSAII (Michael W. Deem and Ramdas Pophale) SiO2 
 PCOD8070921
Probable space group: P 21/M
;
_chemical_formula_sum "Si O2"
_cell_formula_units_Z 32
_cell_length_a 22.674171
_cell_length_b 9.154734
_cell_length_c 28.309538
_cell_angle_alpha 90.000000
_cell_angle_beta 17.044390
_cell_angle_gamma 90.000000
_cell_volume 1722.440752
_symmetry_space_group_name_H-M "P 21/M"
_symmetry_group_IT_number 11
_symmetry_cell_setting 'monoclinic'
loop_
_space_group_symop_operation_xyz
x,y,z
-x,1/2+y,-z
-x,-y,-z
x,1/2-y,z
loop_
_atom_site_type_symbol
_atom_site_label
_atom_site_fract_x
_atom_site_fract_y
_atom_site_fract_z
Si Si1 0.793380 0.423341 0.010920
Si Si2 0.706099 0.418369 0.713166
Si Si3 0.695984 0.412481 0.229737
Si Si4 0.016607 0.918520 0.654527
Si Si5 0.517628 0.420820 0.685338
Si Si6 0.914803 0.911095 0.133390
Si Si7 0.755514 0.579811 0.943791
Si Si8 0.989869 0.079494 0.581173
O O1 0.755165 0.250000 0.041159
O O2 0.601611 0.501588 0.181094
O O3 0.997368 0.463539 0.883437
O O4 0.824667 0.481601 0.934511
O O5 0.742578 0.250000 0.672093
O O6 0.802823 0.511984 0.597081
O O7 0.807194 0.457803 0.685732
O O8 0.472533 0.456612 0.895849
O O9 0.606569 0.250000 0.305266
O O10 0.536209 0.512265 0.324481
O O11 0.743165 0.480337 0.245309
O O12 0.899814 0.405051 0.044370
O O13 0.975779 0.750000 0.674391
O O14 0.249673 0.950459 0.484229
O O15 0.895177 0.967719 0.793604
O O16 0.933149 0.011261 0.674783
O O17 0.463435 0.250000 0.726698
O O18 0.818565 0.750000 0.211459
O O19 0.782215 0.750000 0.936290
O O20 0.023888 0.250000 0.561304
#
# Coordination Sequence:
#
# PCOD8070921 Si02
#       8
#     4   4   4   4   4   4   4   4
#     4  10  20  33  51  77 104 130 167 212 254 298
#     4   9  19  36  56  78 104 134 167 205 252 302
#     4   9  16  26  44  72 101 127 162 208 252 295
#     4  10  22  37  52  73 102 137 173 208 249 299
#     4  10  19  32  51  73 100 135 170 205 251 303
#     4   8  15  27  43  67 100 131 158 198 253 304
#     4  10  21  37  54  72 100 137 173 208 249 300
#     4  10  20  34  55  81 105 131 166 208 252 299
#
# _framework density 18.578288000000001
#
# number of rings (size 3 to 8) (size 9 to 14) (size 15 to 20)
#    0.000    2.500    0.000    3.000    0.000    9.500 
#    0.000    0.000    0.000    0.750    0.000    0.000 
#    0.000    0.000    0.000    0.000    0.000    0.000 
#
# Total GULP energy -396837.833234 kJ/mol
# GULP energy per Si atom -12401.182289 kJ/mol
# Density = 1.853600 g / cm^3
# Si number density = 18.578288 Si / 1000 Ang^3
#
#
#
# Elastic Constant Matrix: (Units=GPa)
#
#
# Indices 1 2 3 4 5 6 
#
# 1 148.1987 75.5658 57.9245 0.0000 5.1398 0.0000
# 2 75.5658 99.4619 36.2278 0.0000 4.3632 0.0000
# 3 57.9245 36.2278 42.3519 0.0000 14.5025 0.0000
# 4 0.0000 0.0000 0.0000 15.8730 0.0000 -0.5717
# 5 5.1398 4.3632 14.5025 0.0000 17.2981 0.0000
# 6 0.0000 0.0000 0.0000 -0.5717 0.0000 39.2273
#
#
#
# Elastic Compliance Matrix: (Units=1/GPa)
#
#
# Indices 1 2 3 4 5 6 
#
# 1 0.021190 -0.005507 -0.031686 0.000000 0.021659 0.000000
# 2 -0.005507 0.017247 -0.008825 0.000000 0.004685 0.000000
# 3 -0.031686 -0.008825 0.098907 0.000000 -0.071281 0.000000
# 4 0.000000 0.000000 0.000000 0.063033 0.000000 0.000919
# 5 0.021659 0.004685 -0.071281 0.000000 0.109954 0.000000
# 6 0.000000 0.000000 0.000000 0.000919 0.000000 0.025506
#
#
# Mechanical properties :
#
#
# Convention : Reuss Voigt Hill
#
# Bulk Modulus (GPa) = 22.07220 69.93872 46.00546
# Shear Modulus (GPa) = 11.28729 22.49930 16.89330
#
# Velocity S-wave (km/s) = 2.46753 3.48379 3.01874
# Velocity P-wave (km/s) = 4.47490 7.34231 6.08006
#
# Compressibility (1/GPa) = 0.04530585
#
# Stress axis : x y z
#
# Youngs Moduli (GPa) = 47.19301 57.98029 10.11055
#
# Poissons Ratio (x) = 0.31932 0.32037
# Poissons Ratio (y) = 0.25991 0.08923
# Poissons Ratio (z) = 1.49537 0.51167
#
# Static dielectric constant tensor:
#      x y z
#    x 3.600190 0.000000 -0.150130 
#    y 0.000000 3.535470 0.000000 
#    z -0.150130 0.000000 3.113370 
# 
# 
# High freq. dielectric constant tensor:
#      x y z
#    x 1.730950 0.000000 -0.015560 
#    y 0.000000 1.727480 0.000000 
#    z -0.015560 0.000000 1.686180 
# 
# From -- ./inp_files/71994.got.cif
#   From: 2010.06.25/outbox.cif.g09.slc.cpg/sg11_36_cif.got.tgz:71994.got - 2010.06.27 23:14:04.
