data_PCOD8070952
_publ_section_title
;
Structure prediction by ZEFSAII (Michael W. Deem and Ramdas Pophale) SiO2 
 PCOD8070952
Probable space group: P 21/M
;
_chemical_formula_sum "Si O2"
_cell_formula_units_Z 32
_cell_length_a 19.938669
_cell_length_b 9.580650
_cell_length_c 20.375929
_cell_angle_alpha 90.000000
_cell_angle_beta 29.078144
_cell_angle_gamma 90.000000
_cell_volume 1891.675532
_symmetry_space_group_name_H-M "P 21/M"
_symmetry_group_IT_number 11
_symmetry_cell_setting 'monoclinic'
loop_
_space_group_symop_operation_xyz
x,y,z
-x,1/2+y,-z
-x,-y,-z
x,1/2-y,z
loop_
_atom_site_type_symbol
_atom_site_label
_atom_site_fract_x
_atom_site_fract_y
_atom_site_fract_z
Si Si1 0.633846 0.409764 0.872378
Si Si2 0.157959 0.912666 0.193256
Si Si3 0.381349 0.588000 0.897809
Si Si4 0.641594 0.090013 0.716600
Si Si5 0.567439 0.088986 0.290335
Si Si6 0.114553 0.912731 0.588552
Si Si7 0.630902 0.090967 0.374057
Si Si8 0.297608 0.911562 0.549761
O O1 0.593053 0.250000 0.921688
O O2 0.755711 0.456916 0.816509
O O3 0.687809 0.430099 0.752294
O O4 0.500000 0.500000 0.000000
O O5 0.119764 0.750000 0.226931
O O6 0.243863 0.952941 0.054684
O O7 0.019408 0.999849 0.312843
O O8 0.416492 0.750000 0.878931
O O9 0.509007 0.502532 0.816159
O O10 0.354536 0.552520 0.844020
O O11 0.602061 0.250000 0.735371
O O12 0.767554 0.041744 0.563424
O O13 0.520354 0.250000 0.330308
O O14 0.673623 0.060418 0.261368
O O15 0.429723 0.998443 0.413829
O O16 0.078629 0.750000 0.612441
O O17 0.165966 0.951264 0.618190
O O18 0.583060 0.250000 0.420823
O O19 0.739501 0.060195 0.340666
O O20 0.500000 0.000000 0.500000
O O21 0.335224 0.750000 0.505236
#
# Coordination Sequence:
#
# PCOD8070952 Si02
#       8
#     4   4   4   4   4   4   4   4
#     4  10  20  35  55  77 101 128 161 203 249 295
#     4  10  22  37  51  72 101 132 166 204 247 295
#     4  10  19  32  51  75 101 129 165 205 246 294
#     4  10  20  34  54  77 100 128 164 205 247 292
#     4   9  16  26  45  73  99 124 160 202 244 291
#     4  10  21  35  50  73 102 133 169 204 243 293
#     4   8  14  24  40  66  97 126 156 195 242 287
#     4   9  16  28  46  68  98 131 161 198 243 289
#
# _framework density 16.916221
#
# number of rings (size 3 to 8) (size 9 to 14) (size 15 to 20)
#    0.000    2.500    2.500    0.000    0.000    2.500 
#    0.000    0.000    0.000    0.750    0.000    0.000 
#    0.000    0.000    0.000    0.000    0.000    0.000 
#
# Total GULP energy -396530.787084 kJ/mol
# GULP energy per Si atom -12391.587096 kJ/mol
# Density = 1.687772 g / cm^3
# Si number density = 16.916221 Si / 1000 Ang^3
#
#
#
# Elastic Constant Matrix: (Units=GPa)
#
#
# Indices 1 2 3 4 5 6 
#
# 1 123.4205 29.6209 36.5474 0.0000 12.9418 0.0000
# 2 29.6209 43.1585 27.9449 0.0000 -6.2095 0.0000
# 3 36.5474 27.9449 61.6262 0.0000 -1.2716 0.0000
# 4 0.0000 0.0000 0.0000 24.9424 0.0000 -3.5524
# 5 12.9418 -6.2095 -1.2716 0.0000 28.3744 0.0000
# 6 0.0000 0.0000 0.0000 -3.5524 0.0000 23.7511
#
#
#
# Elastic Compliance Matrix: (Units=1/GPa)
#
#
# Indices 1 2 3 4 5 6 
#
# 1 0.011539 -0.006196 -0.004174 0.000000 -0.006806 0.000000
# 2 -0.006196 0.037379 -0.013060 0.000000 0.010421 0.000000
# 3 -0.004174 -0.013060 0.024627 0.000000 0.000149 0.000000
# 4 0.000000 0.000000 0.000000 0.040965 0.000000 0.006127
# 5 -0.006806 0.010421 0.000149 0.000000 0.040635 0.000000
# 6 0.000000 0.000000 0.000000 0.006127 0.000000 0.043020
#
#
# Mechanical properties :
#
#
# Convention : Reuss Voigt Hill
#
# Bulk Modulus (GPa) = 37.47440 46.27020 41.87230
# Shear Modulus (GPa) = 19.69125 24.35305 22.02215
#
# Velocity S-wave (km/s) = 3.41551 3.79836 3.61201
# Velocity P-wave (km/s) = 6.14454 6.82998 6.49631
#
# Compressibility (1/GPa) = 0.02668488
#
# Stress axis : x y z
#
# Youngs Moduli (GPa) = 86.66117 26.75328 40.60511
#
# Poissons Ratio (x) = 0.16577 0.16949
# Poissons Ratio (y) = 0.53698 0.53030
# Poissons Ratio (z) = 0.36172 0.34939
#
# Static dielectric constant tensor:
#      x y z
#    x 3.812430 0.000000 0.479630 
#    y 0.000000 3.192460 0.000000 
#    z 0.479630 0.000000 3.036870 
# 
# 
# High freq. dielectric constant tensor:
#      x y z
#    x 1.672230 0.000000 0.029260 
#    y 0.000000 1.654900 0.000000 
#    z 0.029260 0.000000 1.615760 
# 
# From -- ./inp_files/66395.got.cif
#   From: 2010.06.25/outbox.cif.g09.slc.cpg/sg11_34_cif.got.tgz:66395.got - 2010.06.27 23:14:04.
