data_PCOD8070230
_publ_section_title
;
Structure prediction by ZEFSAII (Michael W. Deem and Ramdas Pophale) SiO2 
 PCOD8070230
Probable space group: P 21/M
;
_chemical_formula_sum "Si O2"
_cell_formula_units_Z 32
_cell_length_a 23.672586
_cell_length_b 8.931684
_cell_length_c 12.320228
_cell_angle_alpha 90.000000
_cell_angle_beta 45.747968
_cell_angle_gamma 90.000000
_cell_volume 1865.859432
_symmetry_space_group_name_H-M "P 21/M"
_symmetry_group_IT_number 11
_symmetry_cell_setting 'monoclinic'
loop_
_space_group_symop_operation_xyz
x,y,z
-x,1/2+y,-z
-x,-y,-z
x,1/2-y,z
loop_
_atom_site_type_symbol
_atom_site_label
_atom_site_fract_x
_atom_site_fract_y
_atom_site_fract_z
Si Si1 0.690559 0.078255 0.712433
Si Si2 0.169551 0.078722 0.156651
Si Si3 0.683381 0.076444 0.131328
Si Si4 0.156643 0.075305 0.426496
Si Si5 0.581975 0.424466 0.054545
Si Si6 0.574187 0.422537 0.675093
Si Si7 0.578357 0.572795 0.442144
Si Si8 0.995469 0.422647 0.391234
O O1 0.712405 0.250000 0.706779
O O2 0.648570 0.058268 0.653764
O O3 0.770392 0.983274 0.600996
O O4 0.634589 0.018736 0.883875
O O5 0.198156 0.250000 0.106785
O O6 0.169674 0.032584 0.283078
O O7 0.082161 0.058704 0.221043
O O8 0.227488 0.970497 0.014034
O O9 0.681828 0.250000 0.165316
O O10 0.627809 0.042659 0.103925
O O11 0.653549 0.979917 0.272686
O O12 0.147420 0.250000 0.456225
O O13 0.075808 0.999379 0.580104
O O14 0.560301 0.250000 0.071693
O O15 0.503047 0.521735 0.158167
O O16 0.562274 0.250000 0.657025
O O17 0.590863 0.523429 0.548603
O O18 0.500000 0.500000 0.500000
O O19 0.569320 0.750000 0.449256
O O20 0.974828 0.250000 0.435700
O O21 0.000000 0.500000 0.500000
#
# Coordination Sequence:
#
# PCOD8070230 Si02
#       8
#     4   4   4   4   4   4   4   4
#     4  10  21  36  52  75 106 140 175 212 255 307
#     4   9  18  31  47  73 105 137 172 209 254 304
#     4  11  21  33  54  79 103 134 173 214 258 308
#     4  10  19  30  48  74 104 140 176 209 252 305
#     4  10  20  34  52  75 104 138 174 210 257 307
#     4  11  23  37  55  76 101 135 176 218 261 306
#     4  12  24  39  57  74  99 132 173 220 264 308
#     4   9  17  29  46  70 103 138 172 209 252 306
#
# _framework density 17.150272000000001
#
# number of rings (size 3 to 8) (size 9 to 14) (size 15 to 20)
#    0.000    1.750    2.500    3.750    0.000    4.500 
#    0.000    0.000    0.000    0.000    0.000    0.875 
#    0.000    0.000    0.000    0.000    0.000    0.000 
#
# Total GULP energy -396858.697489 kJ/mol
# GULP energy per Si atom -12401.834297 kJ/mol
# Density = 1.711124 g / cm^3
# Si number density = 17.150272 Si / 1000 Ang^3
#
#
#
# Elastic Constant Matrix: (Units=GPa)
#
#
# Indices 1 2 3 4 5 6 
#
# 1 84.1582 50.8115 40.5006 0.0000 -18.1033 0.0000
# 2 50.8115 112.1571 44.6852 0.0000 -14.1977 0.0000
# 3 40.5006 44.6852 55.0314 0.0000 -15.4892 0.0000
# 4 0.0000 0.0000 0.0000 30.6570 0.0000 -5.1286
# 5 -18.1033 -14.1977 -15.4892 0.0000 30.1363 0.0000
# 6 0.0000 0.0000 0.0000 -5.1286 0.0000 26.7589
#
#
#
# Elastic Compliance Matrix: (Units=1/GPa)
#
#
# Indices 1 2 3 4 5 6 
#
# 1 0.020591 -0.004757 -0.009869 0.000000 0.005056 0.000000
# 2 -0.004757 0.014297 -0.008203 0.000000 -0.000338 0.000000
# 3 -0.009869 -0.008203 0.034301 0.000000 0.007837 0.000000
# 4 0.000000 0.000000 0.000000 0.033699 0.000000 0.006459
# 5 0.005056 -0.000338 0.007837 0.000000 0.040089 0.000000
# 6 0.000000 0.000000 0.000000 0.006459 0.000000 0.038609
#
#
# Mechanical properties :
#
#
# Convention : Reuss Voigt Hill
#
# Bulk Modulus (GPa) = 42.49591 58.14906 50.32248
# Shear Modulus (GPa) = 21.26880 25.20038 23.23459
#
# Velocity S-wave (km/s) = 3.52539 3.83742 3.68471
# Velocity P-wave (km/s) = 6.43455 7.32213 6.89264
#
# Compressibility (1/GPa) = 0.02353168
#
# Stress axis : x y z
#
# Youngs Moduli (GPa) = 48.56452 69.94713 29.15371
#
# Poissons Ratio (x) = 0.33272 0.28771
# Poissons Ratio (y) = 0.23101 0.23915
# Poissons Ratio (z) = 0.47926 0.57379
#
# Static dielectric constant tensor:
#      x y z
#    x 3.185930 0.000000 -0.246080 
#    y 0.000000 3.343950 0.000000 
#    z -0.246080 0.000000 3.217630 
# 
# 
# High freq. dielectric constant tensor:
#      x y z
#    x 1.645240 0.000000 -0.023670 
#    y 0.000000 1.675220 0.000000 
#    z -0.023670 0.000000 1.644350 
# 
# From -- ./inp_files/42742.got.cif
#   From: 2010.06.25/outbox.cif.g09.slc.cpg/sg11_22_cif.got.tgz:42742.got - 2010.06.27 23:14:04.
