data_PCOD8070659
_publ_section_title
;
Structure prediction by ZEFSAII (Michael W. Deem and Ramdas Pophale) SiO2 
 PCOD8070659
Probable space group: P 21/M
;
_chemical_formula_sum "Si O2"
_cell_formula_units_Z 28
_cell_length_a 12.731669
_cell_length_b 9.004959
_cell_length_c 16.376456
_cell_angle_alpha 90.000000
_cell_angle_beta 125.386412
_cell_angle_gamma 90.000000
_cell_volume 1530.685193
_symmetry_space_group_name_H-M "P 21/M"
_symmetry_group_IT_number 11
_symmetry_cell_setting 'monoclinic'
loop_
_space_group_symop_operation_xyz
x,y,z
-x,1/2+y,-z
-x,-y,-z
x,1/2-y,z
loop_
_atom_site_type_symbol
_atom_site_label
_atom_site_fract_x
_atom_site_fract_y
_atom_site_fract_z
Si Si1 0.041514 0.081136 0.267527
Si Si2 0.763064 0.075655 0.190684
Si Si3 0.500789 0.925016 0.625734
Si Si4 0.696182 0.423737 0.603182
Si Si5 0.318012 0.426324 0.006565
Si Si6 0.071229 0.578822 0.959303
Si Si7 0.444439 0.924151 0.779308
O O1 0.077485 0.250000 0.305804
O O2 0.913616 0.030031 0.259921
O O3 0.015805 0.063726 0.160134
O O4 0.158458 0.976685 0.346220
O O5 0.751690 0.250000 0.164175
O O6 0.696980 0.036313 0.247846
O O7 0.684791 0.988547 0.086170
O O8 0.524720 0.750000 0.639411
O O9 0.383574 0.967060 0.513359
O O10 0.465141 0.993323 0.698570
O O11 0.633178 0.998123 0.653738
O O12 0.695842 0.250000 0.619420
O O13 0.304043 0.250000 0.997875
O O14 0.204852 0.494718 0.009296
O O15 0.449350 0.480054 0.108621
O O16 0.098046 0.750000 0.992423
O O17 0.000000 0.500000 0.000000
O O18 0.458016 0.750000 0.774625
#
# Coordination Sequence:
#
# PCOD8070659 Si02
#       7
#     4   4   4   4   4   4   4
#     4   9  19  34  53  72  99 139 171 203 256 312
#     4   9  18  35  54  75 102 138 179 211 250 307
#     4   9  19  36  55  76 103 134 169 213 263 315
#     4  10  20  34  54  78 103 132 170 216 263 308
#     4  10  19  31  50  77 106 138 172 209 257 306
#     4  10  21  35  50  73 105 139 174 214 255 306
#     4   9  18  33  55  77 101 136 176 213 255 312
#
# _framework density 18.292460999999999
#
# number of rings (size 3 to 8) (size 9 to 14) (size 15 to 20)
#    0.000    2.571    0.000    2.571    2.000    3.429 
#    0.000    2.857    0.000    0.000    0.000    0.000 
#    0.000    0.000    0.000    0.000    0.000    0.000 
#
# Total GULP energy -347175.679456 kJ/mol
# GULP energy per Si atom -12399.131409 kJ/mol
# Density = 1.825083 g / cm^3
# Si number density = 18.292461 Si / 1000 Ang^3
#
#
#
# Elastic Constant Matrix: (Units=GPa)
#
#
# Indices 1 2 3 4 5 6 
#
# 1 145.4885 38.5271 70.4086 0.0000 -5.0975 0.0000
# 2 38.5271 57.6039 34.0290 0.0000 1.8244 0.0000
# 3 70.4086 34.0290 70.7129 0.0000 0.9091 0.0000
# 4 0.0000 0.0000 0.0000 25.1660 0.0000 2.7823
# 5 -5.0975 1.8244 0.9091 0.0000 31.2684 0.0000
# 6 0.0000 0.0000 0.0000 2.7823 0.0000 25.5793
#
#
#
# Elastic Compliance Matrix: (Units=1/GPa)
#
#
# Indices 1 2 3 4 5 6 
#
# 1 0.013579 -0.001620 -0.012775 0.000000 0.002680 0.000000
# 2 -0.001620 0.024485 -0.010152 0.000000 -0.001397 0.000000
# 3 -0.012775 -0.010152 0.031778 0.000000 -0.002414 0.000000
# 4 0.000000 0.000000 0.000000 0.040220 0.000000 -0.004375
# 5 0.002680 -0.001397 -0.002414 0.000000 0.032570 0.000000
# 6 0.000000 0.000000 0.000000 -0.004375 0.000000 0.039570
#
#
# Mechanical properties :
#
#
# Convention : Reuss Voigt Hill
#
# Bulk Modulus (GPa) = 48.19768 62.19274 55.19521
# Shear Modulus (GPa) = 20.98977 25.12547 23.05762
#
# Velocity S-wave (km/s) = 3.39108 3.71015 3.55420
# Velocity P-wave (km/s) = 6.46051 7.24062 6.86166
#
# Compressibility (1/GPa) = 0.02074788
#
# Stress axis : x y z
#
# Youngs Moduli (GPa) = 73.64432 40.84177 31.46790
#
# Poissons Ratio (x) = 0.06616 0.40201
# Poissons Ratio (y) = 0.11929 0.31946
# Poissons Ratio (z) = 0.94083 0.41462
#
# Static dielectric constant tensor:
#      x y z
#    x 3.553850 0.000000 -0.046890 
#    y 0.000000 3.275460 0.000000 
#    z -0.046890 0.000000 3.314920 
# 
# 
# High freq. dielectric constant tensor:
#      x y z
#    x 1.722890 0.000000 0.000620 
#    y 0.000000 1.698670 0.000000 
#    z 0.000620 0.000000 1.691580 
# 
# From -- ./inp_files/38502.got.cif
#   From: 2010.06.25/outbox.cif.g09.slc.cpg/sg11_20_cif.got.tgz:38502.got - 2010.06.27 23:14:04.
