data_PCOD8070294
_publ_section_title
;
Structure prediction by ZEFSAII (Michael W. Deem and Ramdas Pophale) SiO2 
 PCOD8070294
Probable space group: P 21/M
;
_chemical_formula_sum "Si O2"
_cell_formula_units_Z 28
_cell_length_a 26.754329
_cell_length_b 9.303008
_cell_length_c 12.281019
_cell_angle_alpha 90.000000
_cell_angle_beta 148.730665
_cell_angle_gamma 90.000000
_cell_volume 1586.612488
_symmetry_space_group_name_H-M "P 21/M"
_symmetry_group_IT_number 11
_symmetry_cell_setting 'monoclinic'
loop_
_space_group_symop_operation_xyz
x,y,z
-x,1/2+y,-z
-x,-y,-z
x,1/2-y,z
loop_
_atom_site_type_symbol
_atom_site_label
_atom_site_fract_x
_atom_site_fract_y
_atom_site_fract_z
Si Si1 0.043115 0.413703 0.876856
Si Si2 0.333144 0.583835 0.409301
Si Si3 0.782580 0.583119 0.640554
Si Si4 0.472507 0.416530 0.340714
Si Si5 0.152430 0.079822 0.474021
Si Si6 0.735207 0.581857 0.110326
Si Si7 0.799780 0.584547 0.997485
O O1 0.007163 0.250000 0.819416
O O2 0.094578 0.441774 0.856184
O O3 0.954227 0.518296 0.722768
O O4 0.118237 0.450433 0.112303
O O5 0.303791 0.750000 0.361589
O O6 0.304282 0.507271 0.468409
O O7 0.447056 0.564081 0.602722
O O8 0.278912 0.514635 0.206097
O O9 0.755864 0.750000 0.601879
O O10 0.793680 0.535121 0.536391
O O11 0.500000 0.500000 0.500000
O O12 0.460183 0.250000 0.350418
O O13 0.372421 0.480053 0.106874
O O14 0.141179 0.250000 0.460952
O O15 0.213880 0.013742 0.688688
O O16 0.726851 0.750000 0.115552
O O17 0.801308 0.547024 0.128245
O O18 0.768479 0.750000 0.919447
#
# Coordination Sequence:
#
# PCOD8070294 Si02
#       7
#     4   4   4   4   4   4   4
#     4   9  18  31  49  73  99 130 168 209 253 292
#     4  10  19  30  50  80 103 123 163 213 252 285
#     4   9  19  35  53  72  98 134 172 205 245 299
#     4  10  19  32  53  78 102 130 163 202 247 296
#     4  10  20  34  52  73  97 134 177 206 239 295
#     4   9  18  33  52  73 102 136 166 200 245 300
#     4   9  17  32  52  73 101 136 165 195 250 308
#
# _framework density 17.647660999999999
#
# number of rings (size 3 to 8) (size 9 to 14) (size 15 to 20)
#    0.000    2.571    1.429    1.714    0.000    4.000 
#    0.000    2.143    0.000    0.000    0.000    0.000 
#    0.000    0.000    0.000    0.000    0.000    0.000 
#
# Total GULP energy -347170.375409 kJ/mol
# GULP energy per Si atom -12398.941979 kJ/mol
# Density = 1.760749 g / cm^3
# Si number density = 17.647661 Si / 1000 Ang^3
#
#
#
# Elastic Constant Matrix: (Units=GPa)
#
#
# Indices 1 2 3 4 5 6 
#
# 1 147.9384 50.6647 60.5059 0.0000 -14.0264 0.0000
# 2 50.6647 53.1755 30.8822 0.0000 2.3631 0.0000
# 3 60.5059 30.8822 58.4539 0.0000 -13.3055 0.0000
# 4 0.0000 0.0000 0.0000 17.8889 0.0000 3.1913
# 5 -14.0264 2.3631 -13.3055 0.0000 26.9532 0.0000
# 6 0.0000 0.0000 0.0000 3.1913 0.0000 23.3883
#
#
#
# Elastic Compliance Matrix: (Units=1/GPa)
#
#
# Indices 1 2 3 4 5 6 
#
# 1 0.013395 -0.007591 -0.009144 0.000000 0.003122 0.000000
# 2 -0.007591 0.034447 -0.013438 0.000000 -0.013604 0.000000
# 3 -0.009144 -0.013438 0.037017 0.000000 0.014693 0.000000
# 4 0.000000 0.000000 0.000000 0.057295 0.000000 -0.007818
# 5 0.003122 -0.013604 0.014693 0.000000 0.047172 0.000000
# 6 0.000000 0.000000 0.000000 -0.007818 0.000000 0.043823
#
#
# Mechanical properties :
#
#
# Convention : Reuss Voigt Hill
#
# Bulk Modulus (GPa) = 40.79591 60.40816 50.60203
# Shear Modulus (GPa) = 16.57451 21.48042 19.02746
#
# Velocity S-wave (km/s) = 3.06795 3.49260 3.28714
# Velocity P-wave (km/s) = 5.97635 7.11117 6.56832
#
# Compressibility (1/GPa) = 0.02451226
#
# Stress axis : x y z
#
# Youngs Moduli (GPa) = 74.65343 29.03000 27.01448
#
# Poissons Ratio (x) = 0.22036 0.24703
# Poissons Ratio (y) = 0.56668 0.36303
# Poissons Ratio (z) = 0.68266 0.39012
#
# Static dielectric constant tensor:
#      x y z
#    x 3.564300 0.000000 -0.067340 
#    y 0.000000 3.130600 0.000000 
#    z -0.067340 0.000000 3.283040 
# 
# 
# High freq. dielectric constant tensor:
#      x y z
#    x 1.696500 0.000000 0.004110 
#    y 0.000000 1.666180 0.000000 
#    z 0.004110 0.000000 1.661600 
# 
# From -- ./inp_files/44661.got.cif
#   From: 2010.06.25/outbox.cif.g09.slc.cpg/sg11_23_cif.got.tgz:44661.got - 2010.06.27 23:14:04.
