data_PCOD8070574
_publ_section_title
;
Structure prediction by ZEFSAII (Michael W. Deem and Ramdas Pophale) SiO2 
 PCOD8070574
Probable space group: P 21/M
;
_chemical_formula_sum "Si O2"
_cell_formula_units_Z 24
_cell_length_a 15.290490
_cell_length_b 8.741363
_cell_length_c 29.989887
_cell_angle_alpha 90.000000
_cell_angle_beta 160.495410
_cell_angle_gamma 90.000000
_cell_volume 1338.347464
_symmetry_space_group_name_H-M "P 21/M"
_symmetry_group_IT_number 11
_symmetry_cell_setting 'monoclinic'
loop_
_space_group_symop_operation_xyz
x,y,z
-x,1/2+y,-z
-x,-y,-z
x,1/2-y,z
loop_
_atom_site_type_symbol
_atom_site_label
_atom_site_fract_x
_atom_site_fract_y
_atom_site_fract_z
Si Si1 0.214443 0.429920 0.635593
Si Si2 0.744747 0.570682 0.855790
Si Si3 0.690711 0.074038 0.643447
Si Si4 0.034040 0.075237 0.402115
Si Si5 0.850281 0.423604 0.628344
Si Si6 0.359796 0.576912 0.284248
O O1 0.214422 0.250000 0.628611
O O2 0.496846 0.493976 0.759618
O O3 0.000000 0.500000 0.500000
O O4 0.149997 0.471398 0.655570
O O5 0.737415 0.750000 0.860892
O O6 0.746790 0.539020 0.803821
O O7 0.000000 0.500000 0.000000
O O8 0.583801 0.250000 0.588834
O O9 0.911668 0.047165 0.710902
O O10 0.801114 0.049474 0.746794
O O11 0.458720 0.953993 0.524666
O O12 0.951662 0.250000 0.369256
O O13 0.334430 0.045701 0.559599
O O14 0.987258 0.029949 0.327675
O O15 0.911336 0.250000 0.644188
O O16 0.320265 0.750000 0.247835
#
# Coordination Sequence:
#
# PCOD8070574 Si02
#       6
#     4   4   4   4   4   4
#     4  12  23  37  57  81 107 140 180 222 268 321
#     4  12  25  40  57  78 107 142 181 225 270 319
#     4   8  15  26  41  63  97 136 171 210 259 312
#     4  10  19  31  49  74 106 140 174 216 264 313
#     4   9  15  24  40  66  99 134 171 212 258 309
#     4   9  17  31  50  72 102 138 178 219 263 313
#
# _framework density 17.932562000000001
#
# number of rings (size 3 to 8) (size 9 to 14) (size 15 to 20)
#    0.000    2.000    1.667    5.000    0.000    3.333 
#    0.000    0.000    0.000    0.000    0.000    1.167 
#    0.000    0.000    0.000    0.000    0.000    0.000 
#
# Total GULP energy -297457.183650 kJ/mol
# GULP energy per Si atom -12394.049319 kJ/mol
# Density = 1.789175 g / cm^3
# Si number density = 17.932562 Si / 1000 Ang^3
#
#
#
# Elastic Constant Matrix: (Units=GPa)
#
#
# Indices 1 2 3 4 5 6 
#
# 1 162.6441 53.8538 43.4900 0.0000 -4.6903 0.0000
# 2 53.8538 120.8787 39.0468 0.0000 0.9976 0.0000
# 3 43.4900 39.0468 64.6800 0.0000 5.3749 0.0000
# 4 0.0000 0.0000 0.0000 20.0995 0.0000 -0.4498
# 5 -4.6903 0.9976 5.3749 0.0000 12.8479 0.0000
# 6 0.0000 0.0000 0.0000 -0.4498 0.0000 33.9371
#
#
#
# Elastic Compliance Matrix: (Units=1/GPa)
#
#
# Indices 1 2 3 4 5 6 
#
# 1 0.008277 -0.002229 -0.004647 0.000000 0.005139 0.000000
# 2 -0.002229 0.010920 -0.005134 0.000000 0.000486 0.000000
# 3 -0.004647 -0.005134 0.022577 0.000000 -0.010743 0.000000
# 4 0.000000 0.000000 0.000000 0.049767 0.000000 0.000660
# 5 0.005139 0.000486 -0.010743 0.000000 0.084167 0.000000
# 6 0.000000 0.000000 0.000000 0.000660 0.000000 0.029475
#
#
# Mechanical properties :
#
#
# Convention : Reuss Voigt Hill
#
# Bulk Modulus (GPa) = 56.32266 68.99821 62.66044
# Shear Modulus (GPa) = 21.26556 27.49771 24.38164
#
# Velocity S-wave (km/s) = 3.44737 3.92011 3.69132
# Velocity P-wave (km/s) = 6.87910 7.68438 7.29286
#
# Compressibility (1/GPa) = 0.01775484
#
# Stress axis : x y z
#
# Youngs Moduli (GPa) = 120.81391 91.57291 44.29203
#
# Poissons Ratio (x) = 0.20412 0.20582
# Poissons Ratio (y) = 0.26929 0.22740
# Poissons Ratio (z) = 0.56141 0.47015
#
# Static dielectric constant tensor:
#      x y z
#    x 3.918190 0.000000 -0.145340 
#    y 0.000000 3.422730 0.000000 
#    z -0.145340 0.000000 2.730760 
# 
# 
# High freq. dielectric constant tensor:
#      x y z
#    x 1.726410 0.000000 -0.007720 
#    y 0.000000 1.706130 0.000000 
#    z -0.007720 0.000000 1.613220 
# 
# From -- ./inp_files/46503.got.cif
#   From: 2010.06.25/outbox.cif.g09.slc.cpg/sg11_24_cif.got.tgz:46503.got - 2010.06.27 23:14:04.
