data_PCOD8070743
_publ_section_title
;
Structure prediction by ZEFSAII (Michael W. Deem and Ramdas Pophale) SiO2 
 PCOD8070743
Probable space group: P 21/M
;
_chemical_formula_sum "Si O2"
_cell_formula_units_Z 32
_cell_length_a 21.003176
_cell_length_b 9.510320
_cell_length_c 11.380734
_cell_angle_alpha 90.000000
_cell_angle_beta 127.263445
_cell_angle_gamma 90.000000
_cell_volume 1809.201840
_symmetry_space_group_name_H-M "P 21/M"
_symmetry_group_IT_number 11
_symmetry_cell_setting 'monoclinic'
loop_
_space_group_symop_operation_xyz
x,y,z
-x,1/2+y,-z
-x,-y,-z
x,1/2-y,z
loop_
_atom_site_type_symbol
_atom_site_label
_atom_site_fract_x
_atom_site_fract_y
_atom_site_fract_z
Si Si1 0.236263 0.414463 0.802136
Si Si2 0.509293 0.905443 0.852239
Si Si3 0.730319 0.916259 0.896552
Si Si4 0.934427 0.587530 0.493860
Si Si5 0.031442 0.412872 0.204350
Si Si6 0.374865 0.911866 0.874023
Si Si7 0.445506 0.091530 0.356773
Si Si8 0.111211 0.085802 0.053693
O O1 0.255892 0.250000 0.813052
O O2 0.148060 0.449773 0.660670
O O3 0.293377 0.500505 0.778434
O O4 0.248205 0.470524 0.948633
O O5 0.539415 0.750000 0.928334
O O6 0.419566 0.930991 0.799425
O O7 0.506183 0.909906 0.709989
O O8 0.568819 0.025622 0.961666
O O9 0.723716 0.750000 0.895928
O O10 0.643963 0.974424 0.757797
O O11 0.799450 0.963775 0.882468
O O12 0.956349 0.750000 0.503387
O O13 0.930238 0.547607 0.627338
O O14 0.000000 0.500000 0.500000
O O15 0.006452 0.250000 0.170511
O O16 0.096569 0.446990 0.175209
O O17 0.951853 0.503516 0.097060
O O18 0.356577 0.750000 0.882889
O O19 0.439100 0.250000 0.399579
O O20 0.500000 0.000000 0.500000
O O21 0.100033 0.250000 0.012726
#
# Coordination Sequence:
#
# PCOD8070743 Si02
#       8
#     4   4   4   4   4   4   4   4
#     4  10  19  34  53  74 104 142 175 209 262 314
#     4   9  18  35  55  73 103 138 166 207 264 314
#     4   9  17  32  54  74  96 132 175 209 248 306
#     4  10  21  35  53  78 108 141 173 212 261 309
#     4   9  18  33  51  77 110 134 165 214 258 294
#     4  10  19  31  53  81 102 130 173 215 254 302
#     4  10  20  36  54  74 103 136 170 213 261 306
#     4   9  17  32  56  78  99 136 177 208 245 304
#
# _framework density 17.687356999999999
#
# number of rings (size 3 to 8) (size 9 to 14) (size 15 to 20)
#    0.000    2.500    1.250    1.125    0.000    3.000 
#    2.250    1.250    0.000    0.000    0.000    0.000 
#    0.000    0.000    0.000    0.000    0.000    0.000 
#
# Total GULP energy -396724.632098 kJ/mol
# GULP energy per Si atom -12397.644753 kJ/mol
# Density = 1.764710 g / cm^3
# Si number density = 17.687357 Si / 1000 Ang^3
#
#
#
# Elastic Constant Matrix: (Units=GPa)
#
#
# Indices 1 2 3 4 5 6 
#
# 1 141.3785 54.9667 73.8521 0.0000 13.7818 0.0000
# 2 54.9667 65.3518 47.7298 0.0000 9.9995 0.0000
# 3 73.8521 47.7298 133.5433 0.0000 10.0885 0.0000
# 4 0.0000 0.0000 0.0000 27.7235 0.0000 3.4707
# 5 13.7818 9.9995 10.0885 0.0000 22.8403 0.0000
# 6 0.0000 0.0000 0.0000 3.4707 0.0000 29.5443
#
#
#
# Elastic Compliance Matrix: (Units=1/GPa)
#
#
# Indices 1 2 3 4 5 6 
#
# 1 0.012090 -0.006820 -0.004058 0.000000 -0.002517 0.000000
# 2 -0.006820 0.025379 -0.004936 0.000000 -0.004816 0.000000
# 3 -0.004058 -0.004936 0.011533 0.000000 -0.000485 0.000000
# 4 0.000000 0.000000 0.000000 0.036609 0.000000 -0.004301
# 5 -0.002517 -0.004816 -0.000485 0.000000 0.047623 0.000000
# 6 0.000000 0.000000 0.000000 -0.004301 0.000000 0.034353
#
#
# Mechanical properties :
#
#
# Convention : Reuss Voigt Hill
#
# Bulk Modulus (GPa) = 57.55329 77.04120 67.29725
# Shear Modulus (GPa) = 24.38945 26.93661 25.66303
#
# Velocity S-wave (km/s) = 3.71741 3.90671 3.81323
# Velocity P-wave (km/s) = 7.14391 8.00010 7.58409
#
# Compressibility (1/GPa) = 0.01737520
#
# Stress axis : x y z
#
# Youngs Moduli (GPa) = 82.71321 39.40221 86.70542
#
# Poissons Ratio (x) = 0.26870 0.35189
# Poissons Ratio (y) = 0.56406 0.42795
# Poissons Ratio (z) = 0.33569 0.19448
#
# Static dielectric constant tensor:
#      x y z
#    x 3.608980 0.000000 -0.037130 
#    y 0.000000 3.710880 0.000000 
#    z -0.037130 0.000000 3.195840 
# 
# 
# High freq. dielectric constant tensor:
#      x y z
#    x 1.697650 0.000000 -0.001040 
#    y 0.000000 1.671940 0.000000 
#    z -0.001040 0.000000 1.666420 
# 
# From -- ./inp_files/38106.got.cif
#   From: 2010.06.25/outbox.cif.g09.slc.cpg/sg11_20_cif.got.tgz:38106.got - 2010.06.27 23:14:04.
