data_PCOD8070896
_publ_section_title
;
Structure prediction by ZEFSAII (Michael W. Deem and Ramdas Pophale) SiO2 
 PCOD8070896
Probable space group: P 21/M
;
_chemical_formula_sum "Si O2"
_cell_formula_units_Z 32
_cell_length_a 12.045371
_cell_length_b 8.852584
_cell_length_c 28.556254
_cell_angle_alpha 90.000000
_cell_angle_beta 35.624618
_cell_angle_gamma 90.000000
_cell_volume 1773.645142
_symmetry_space_group_name_H-M "P 21/M"
_symmetry_group_IT_number 11
_symmetry_cell_setting 'monoclinic'
loop_
_space_group_symop_operation_xyz
x,y,z
-x,1/2+y,-z
-x,-y,-z
x,1/2-y,z
loop_
_atom_site_type_symbol
_atom_site_label
_atom_site_fract_x
_atom_site_fract_y
_atom_site_fract_z
Si Si1 0.037000 0.925800 0.640294
Si Si2 0.733066 0.427563 0.347889
Si Si3 0.821391 0.072776 0.216011
Si Si4 0.301949 0.922144 0.896127
Si Si5 0.601087 0.570483 0.657390
Si Si6 0.657238 0.074092 0.543202
Si Si7 0.328329 0.572505 0.270394
Si Si8 0.048980 0.076795 0.053184
O O1 0.983948 0.750000 0.662580
O O2 0.145624 0.981695 0.649555
O O3 0.167257 0.958453 0.550944
O O4 0.845940 0.023012 0.702651
O O5 0.687279 0.250000 0.365433
O O6 0.853934 0.467510 0.259371
O O7 0.532570 0.512667 0.416554
O O8 0.814364 0.250000 0.209792
O O9 0.616321 0.009612 0.269872
O O10 0.992076 0.011449 0.124315
O O11 0.371215 0.750000 0.876868
O O12 0.139514 0.939601 0.913254
O O13 0.477993 0.024758 0.821274
O O14 0.220882 0.977020 0.974015
O O15 0.614839 0.750000 0.653305
O O16 0.706311 0.509783 0.574941
O O17 0.700088 0.506985 0.669723
O O18 0.629617 0.250000 0.562599
O O19 0.328398 0.750000 0.277769
O O20 0.118258 0.250000 0.031027
#
# Coordination Sequence:
#
# PCOD8070896 Si02
#       8
#     4   4   4   4   4   4   4   4
#     4  10  22  38  54  74 104 143 183 218 262 317
#     4   9  18  34  57  80 103 139 180 219 264 312
#     4   8  14  28  52  79 104 131 167 211 259 305
#     4  10  19  32  50  75 108 142 171 206 256 314
#     4  10  19  35  55  76 105 141 175 212 264 319
#     4  10  20  34  54  81 108 134 171 224 271 310
#     4  12  24  36  53  76 105 140 178 219 265 317
#     4   9  16  29  50  78 108 136 169 208 254 308
#
# _framework density 18.04194
#
# number of rings (size 3 to 8) (size 9 to 14) (size 15 to 20)
#    0.000    2.250    1.250    3.375    0.000    2.500 
#    0.000    0.625    0.000    0.750    0.000    0.000 
#    0.000    0.000    0.000    0.000    0.000    0.000 
#
# Total GULP energy -396786.625034 kJ/mol
# GULP energy per Si atom -12399.582032 kJ/mol
# Density = 1.800088 g / cm^3
# Si number density = 18.041940 Si / 1000 Ang^3
#
#
#
# Elastic Constant Matrix: (Units=GPa)
#
#
# Indices 1 2 3 4 5 6 
#
# 1 53.0604 27.8065 29.1962 0.0000 -4.3414 0.0000
# 2 27.8065 79.0773 35.0575 0.0000 -0.2782 0.0000
# 3 29.1962 35.0575 74.4801 0.0000 11.5449 0.0000
# 4 0.0000 0.0000 0.0000 27.8454 0.0000 0.0510
# 5 -4.3414 -0.2782 11.5449 0.0000 18.9939 0.0000
# 6 0.0000 0.0000 0.0000 0.0510 0.0000 24.6631
#
#
#
# Elastic Compliance Matrix: (Units=1/GPa)
#
#
# Indices 1 2 3 4 5 6 
#
# 1 0.028565 -0.005235 -0.010746 0.000000 0.012984 0.000000
# 2 -0.005235 0.017439 -0.006636 0.000000 0.003092 0.000000
# 3 -0.010746 -0.006636 0.023359 0.000000 -0.016752 0.000000
# 4 0.000000 0.000000 0.000000 0.035913 0.000000 -0.000074
# 5 0.012984 0.003092 -0.016752 0.000000 0.065844 0.000000
# 6 0.000000 0.000000 0.000000 -0.000074 0.000000 0.040546
#
#
# Mechanical properties :
#
#
# Convention : Reuss Voigt Hill
#
# Bulk Modulus (GPa) = 41.44261 43.41534 42.42898
# Shear Modulus (GPa) = 18.87194 21.93767 20.40481
#
# Velocity S-wave (km/s) = 3.23771 3.49080 3.36663
# Velocity P-wave (km/s) = 6.08252 6.35322 6.21934
#
# Compressibility (1/GPa) = 0.02412975
#
# Stress axis : x y z
#
# Youngs Moduli (GPa) = 35.00768 57.34136 42.80988
#
# Poissons Ratio (x) = 0.30017 0.46004
# Poissons Ratio (y) = 0.18326 0.28409
# Poissons Ratio (z) = 0.37620 0.38052
#
# Static dielectric constant tensor:
#      x y z
#    x 3.295880 0.000000 0.280180 
#    y 0.000000 3.259580 0.000000 
#    z 0.280180 0.000000 3.443320 
# 
# 
# High freq. dielectric constant tensor:
#      x y z
#    x 1.680440 0.000000 0.021430 
#    y 0.000000 1.691500 0.000000 
#    z 0.021430 0.000000 1.698690 
# 
# From -- ./inp_files/73103.got.cif
#   From: 2010.06.25/outbox.cif.g09.slc.cpg/sg11_37_cif.got.tgz:73103.got - 2010.06.27 23:14:04.
