data_PCOD8070388
_publ_section_title
;
Structure prediction by ZEFSAII (Michael W. Deem and Ramdas Pophale) SiO2 
 PCOD8070388
Probable space group: P 21/M
;
_chemical_formula_sum "Si O2"
_cell_formula_units_Z 28
_cell_length_a 9.526797
_cell_length_b 9.261777
_cell_length_c 26.493731
_cell_angle_alpha 90.000000
_cell_angle_beta 39.661922
_cell_angle_gamma 90.000000
_cell_volume 1492.036660
_symmetry_space_group_name_H-M "P 21/M"
_symmetry_group_IT_number 11
_symmetry_cell_setting 'monoclinic'
loop_
_space_group_symop_operation_xyz
x,y,z
-x,1/2+y,-z
-x,-y,-z
x,1/2-y,z
loop_
_atom_site_type_symbol
_atom_site_label
_atom_site_fract_x
_atom_site_fract_y
_atom_site_fract_z
Si Si1 0.300928 0.083413 0.579380
Si Si2 0.818718 0.080018 0.684107
Si Si3 0.933067 0.417713 0.069324
Si Si4 0.263886 0.581473 0.183917
Si Si5 0.573469 0.422087 0.248973
Si Si6 0.383206 0.415010 0.989336
Si Si7 0.194646 0.419268 0.724035
O O1 0.355299 0.250000 0.558862
O O2 0.280406 0.043949 0.644072
O O3 0.079289 0.047702 0.608668
O O4 0.500000 0.000000 0.500000
O O5 0.769903 0.250000 0.690148
O O6 0.742539 0.013943 0.758949
O O7 0.672087 0.989488 0.685111
O O8 0.921182 0.250000 0.057938
O O9 0.713242 0.467999 0.159833
O O10 0.000000 0.500000 0.000000
O O11 0.126300 0.447600 0.056367
O O12 0.225559 0.750000 0.203523
O O13 0.498924 0.540445 0.095665
O O14 0.062415 0.532266 0.203596
O O15 0.561964 0.250000 0.256642
O O16 0.681762 0.483843 0.269493
O O17 0.432680 0.250000 0.987480
O O18 0.500000 0.500000 0.000000
O O19 0.226822 0.250000 0.728109
#
# Coordination Sequence:
#
# PCOD8070388 Si02
#       7
#     4   4   4   4   4   4   4
#     4   9  19  36  60  87 110 133 169 211 255 312
#     4   9  18  35  57  77  99 135 175 208 249 309
#     4  10  22  36  50  72 104 140 180 223 268 314
#     4   8  15  30  52  72  91 124 175 218 248 295
#     4  11  22  34  49  77 111 139 174 221 265 307
#     4  10  19  31  47  69  96 128 167 214 261 303
#     4   9  18  34  55  78 103 137 176 211 253 314
#
# _framework density 18.766295
#
# number of rings (size 3 to 8) (size 9 to 14) (size 15 to 20)
#    0.000    2.571    0.000    3.857    0.000    4.000 
#    0.000    3.571    0.000    0.000    0.000    0.000 
#    0.000    0.000    0.000    0.000    0.000    0.000 
#
# Total GULP energy -346981.440886 kJ/mol
# GULP energy per Si atom -12392.194317 kJ/mol
# Density = 1.872358 g / cm^3
# Si number density = 18.766295 Si / 1000 Ang^3
#
#
#
# Elastic Constant Matrix: (Units=GPa)
#
#
# Indices 1 2 3 4 5 6 
#
# 1 85.9293 37.2954 33.7140 0.0000 -11.6878 0.0000
# 2 37.2954 60.0202 42.4807 0.0000 -5.9835 0.0000
# 3 33.7140 42.4807 82.1886 0.0000 -18.9264 0.0000
# 4 0.0000 0.0000 0.0000 29.2539 0.0000 1.8671
# 5 -11.6878 -5.9835 -18.9264 0.0000 23.7058 0.0000
# 6 0.0000 0.0000 0.0000 1.8671 0.0000 31.1559
#
#
#
# Elastic Compliance Matrix: (Units=1/GPa)
#
#
# Indices 1 2 3 4 5 6 
#
# 1 0.016698 -0.009236 -0.000878 0.000000 0.005200 0.000000
# 2 -0.009236 0.031905 -0.014576 0.000000 -0.008138 0.000000
# 3 -0.000878 -0.014576 0.023421 0.000000 0.014586 0.000000
# 4 0.000000 0.000000 0.000000 0.034315 0.000000 -0.002056
# 5 0.005200 -0.008138 0.014586 0.000000 0.054339 0.000000
# 6 0.000000 0.000000 0.000000 -0.002056 0.000000 0.032220
#
#
# Mechanical properties :
#
#
# Convention : Reuss Voigt Hill
#
# Bulk Modulus (GPa) = 44.16402 50.56870 47.36636
# Shear Modulus (GPa) = 20.01392 24.46632 22.24012
#
# Velocity S-wave (km/s) = 3.26925 3.61465 3.44628
# Velocity P-wave (km/s) = 6.15105 6.66528 6.41332
#
# Compressibility (1/GPa) = 0.02264287
#
# Stress axis : x y z
#
# Youngs Moduli (GPa) = 59.88763 31.34262 42.69764
#
# Poissons Ratio (x) = 0.28947 0.03751
# Poissons Ratio (y) = 0.55310 0.62238
# Poissons Ratio (z) = 0.05261 0.45686
#
# Static dielectric constant tensor:
#      x y z
#    x 3.390480 0.000000 -0.201440 
#    y 0.000000 3.174870 0.000000 
#    z -0.201440 0.000000 3.293240 
# 
# 
# High freq. dielectric constant tensor:
#      x y z
#    x 1.734820 0.000000 -0.012280 
#    y 0.000000 1.709150 0.000000 
#    z -0.012280 0.000000 1.720740 
# 
# From -- ./inp_files/28974.got.cif
#   From: 2010.06.25/outbox.cif.g09.slc.cpg/sg11_15_cif.got.tgz:28974.got - 2010.06.27 23:14:04.
