data_PCOD8070881
_publ_section_title
;
Structure prediction by ZEFSAII (Michael W. Deem and Ramdas Pophale) SiO2 
 PCOD8070881
Probable space group: P 21/M
;
_chemical_formula_sum "Si O2"
_cell_formula_units_Z 32
_cell_length_a 14.079271
_cell_length_b 9.045715
_cell_length_c 28.267160
_cell_angle_alpha 90.000000
_cell_angle_beta 150.071314
_cell_angle_gamma 90.000000
_cell_volume 1796.129482
_symmetry_space_group_name_H-M "P 21/M"
_symmetry_group_IT_number 11
_symmetry_cell_setting 'monoclinic'
loop_
_space_group_symop_operation_xyz
x,y,z
-x,1/2+y,-z
-x,-y,-z
x,1/2-y,z
loop_
_atom_site_type_symbol
_atom_site_label
_atom_site_fract_x
_atom_site_fract_y
_atom_site_fract_z
Si Si1 0.290246 0.076061 0.708672
Si Si2 0.133988 0.575888 0.460032
Si Si3 0.503187 0.575089 0.110874
Si Si4 0.334434 0.921515 0.900481
Si Si5 0.121644 0.578714 0.898221
Si Si6 0.701345 0.574245 0.726186
Si Si7 0.616411 0.573572 0.354879
Si Si8 0.459601 0.921296 0.531648
O O1 0.283283 0.250000 0.700981
O O2 0.454956 0.029500 0.816935
O O3 0.340384 0.011140 0.679029
O O4 0.084224 0.023371 0.639055
O O5 0.155226 0.750000 0.480321
O O6 0.218065 0.486260 0.540237
O O7 0.250289 0.537627 0.462199
O O8 0.515005 0.750000 0.107879
O O9 0.674645 0.501481 0.154218
O O10 0.296343 0.511571 0.004959
O O11 0.380709 0.750000 0.913157
O O12 0.148262 0.944059 0.852976
O O13 0.500000 0.000000 0.000000
O O14 0.116534 0.750000 0.908378
O O15 0.916827 0.511318 0.823045
O O16 0.687759 0.750000 0.727868
O O17 0.586943 0.492111 0.717967
O O18 0.616085 0.531534 0.638175
O O19 0.609864 0.750000 0.354371
O O20 0.474139 0.750000 0.526751
O O21 0.500000 0.000000 0.500000
#
# Coordination Sequence:
#
# PCOD8070881 Si02
#       8
#     4   4   4   4   4   4   4   4
#     4   9  18  32  51  72  97 125 155 194 245 291
#     4   9  18  34  52  70  94 129 162 188 229 293
#     4   9  17  31  49  71  98 128 159 196 238 285
#     4   9  16  28  46  69  95 125 159 196 234 277
#     4   8  15  29  50  69  90 126 166 191 223 279
#     4   9  18  34  51  67  91 128 164 194 231 283
#     4  10  19  32  50  73  95 119 156 204 245 281
#     4   9  18  30  46  67  94 122 151 187 228 271
#
# _framework density 17.816087
#
# number of rings (size 3 to 8) (size 9 to 14) (size 15 to 20)
#    0.000    3.000    0.000    2.625    0.000    3.000 
#    0.000    6.250    0.000    0.000    0.000    0.000 
#    0.000    0.000    0.000    0.000    0.000    0.000 
#
# Total GULP energy -396516.263187 kJ/mol
# GULP energy per Si atom -12391.133225 kJ/mol
# Density = 1.777554 g / cm^3
# Si number density = 17.816087 Si / 1000 Ang^3
#
#
#
# Elastic Constant Matrix: (Units=GPa)
#
#
# Indices 1 2 3 4 5 6 
#
# 1 151.7969 36.8510 79.1681 0.0000 -2.2327 0.0000
# 2 36.8510 41.5284 24.1353 0.0000 -1.5987 0.0000
# 3 79.1681 24.1353 106.8103 0.0000 10.4089 0.0000
# 4 0.0000 0.0000 0.0000 17.2253 0.0000 -1.2061
# 5 -2.2327 -1.5987 10.4089 0.0000 29.6452 0.0000
# 6 0.0000 0.0000 0.0000 -1.2061 0.0000 28.0656
#
#
#
# Elastic Compliance Matrix: (Units=1/GPa)
#
#
# Indices 1 2 3 4 5 6 
#
# 1 0.012353 -0.006115 -0.008110 0.000000 0.003448 0.000000
# 2 -0.006115 0.031173 -0.002723 0.000000 0.002177 0.000000
# 3 -0.008110 -0.002723 0.016632 0.000000 -0.006597 0.000000
# 4 0.000000 0.000000 0.000000 0.058229 0.000000 0.002502
# 5 0.003448 0.002177 -0.006597 0.000000 0.036426 0.000000
# 6 0.000000 0.000000 0.000000 0.002502 0.000000 0.035738
#
#
# Mechanical properties :
#
#
# Convention : Reuss Voigt Hill
#
# Bulk Modulus (GPa) = 38.08063 64.49383 51.28723
# Shear Modulus (GPa) = 21.44059 25.65262 23.54661
#
# Velocity S-wave (km/s) = 3.47283 3.79866 3.63939
# Velocity P-wave (km/s) = 6.12384 7.45105 6.81981
#
# Compressibility (1/GPa) = 0.02626007
#
# Stress axis : x y z
#
# Youngs Moduli (GPa) = 80.95333 32.07899 60.12528
#
# Poissons Ratio (x) = 0.19617 0.48762
# Poissons Ratio (y) = 0.49506 0.16375
# Poissons Ratio (z) = 0.65654 0.08736
#
# Static dielectric constant tensor:
#      x y z
#    x 3.693940 0.000000 0.116110 
#    y 0.000000 3.178780 0.000000 
#    z 0.116110 0.000000 3.384140 
# 
# 
# High freq. dielectric constant tensor:
#      x y z
#    x 1.693720 0.000000 0.004230 
#    y 0.000000 1.664870 0.000000 
#    z 0.004230 0.000000 1.678240 
# 
# From -- ./inp_files/73315.got.cif
#   From: 2010.06.25/outbox.cif.g09.slc.cpg/sg11_37_cif.got.tgz:73315.got - 2010.06.27 23:14:04.
