data_PCOD8070715
_publ_section_title
;
Structure prediction by ZEFSAII (Michael W. Deem and Ramdas Pophale) SiO2 
 PCOD8070715
Probable space group: P 21/M
;
_chemical_formula_sum "Si O2"
_cell_formula_units_Z 32
_cell_length_a 12.193643
_cell_length_b 9.118999
_cell_length_c 20.996152
_cell_angle_alpha 90.000000
_cell_angle_beta 43.309818
_cell_angle_gamma 90.000000
_cell_volume 1601.431671
_symmetry_space_group_name_H-M "P 21/M"
_symmetry_group_IT_number 11
_symmetry_cell_setting 'monoclinic'
loop_
_space_group_symop_operation_xyz
x,y,z
-x,1/2+y,-z
-x,-y,-z
x,1/2-y,z
loop_
_atom_site_type_symbol
_atom_site_label
_atom_site_fract_x
_atom_site_fract_y
_atom_site_fract_z
Si Si1 0.439605 0.423079 0.821347
Si Si2 0.346661 0.591854 0.056064
Si Si3 0.439935 0.584461 0.693934
Si Si4 0.166288 0.923636 0.011135
Si Si5 0.627890 0.580332 0.489194
Si Si6 0.952079 0.076765 0.319410
Si Si7 0.242167 0.911999 0.240143
Si Si8 0.917915 0.418399 0.188323
O O1 0.412579 0.250000 0.839026
O O2 0.477174 0.468590 0.733578
O O3 0.592555 0.473023 0.799376
O O4 0.275161 0.504747 0.910508
O O5 0.401142 0.750000 0.007161
O O6 0.238996 0.521134 0.047294
O O7 0.254023 0.607390 0.160120
O O8 0.500000 0.500000 0.000000
O O9 0.440906 0.750000 0.721438
O O10 0.578127 0.565094 0.583729
O O11 0.271096 0.551345 0.731649
O O12 0.154034 0.750000 0.004936
O O13 0.989338 0.990947 0.096975
O O14 0.500000 0.500000 0.500000
O O15 0.637403 0.750000 0.464455
O O16 0.797954 0.505453 0.410198
O O17 0.928488 0.250000 0.336646
O O18 0.980744 0.036349 0.232521
O O19 0.095561 0.026219 0.306751
O O20 0.202942 0.750000 0.286191
O O21 0.959074 0.250000 0.157386
#
# Coordination Sequence:
#
# PCOD8070715 Si02
#       8
#     4   4   4   4   4   4   4   4
#     4  11  24  41  61  85 119 165 209 248 295 355
#     4  10  19  31  51  80 114 151 196 245 294 346
#     4  10  23  44  64  86 119 157 200 248 299 358
#     4  11  22  35  56  87 120 159 204 245 297 358
#     4  11  22  40  67  96 125 155 193 247 307 362
#     4  11  22  37  61  96 127 154 195 247 308 363
#     4  10  21  38  57  85 123 159 200 249 301 354
#     4  10  21  38  59  87 123 156 194 248 302 353
#
# _framework density 19.982119999999998
#
# number of rings (size 3 to 8) (size 9 to 14) (size 15 to 20)
#    0.000    1.500    3.750    1.500    0.000    4.500 
#    0.000    0.625    0.000    0.000    0.000    0.000 
#    0.000    0.000    0.000    0.000    0.000    0.000 
#
# Total GULP energy -396630.888997 kJ/mol
# GULP energy per Si atom -12394.715281 kJ/mol
# Density = 1.993664 g / cm^3
# Si number density = 19.982120 Si / 1000 Ang^3
#
#
#
# Elastic Constant Matrix: (Units=GPa)
#
#
# Indices 1 2 3 4 5 6 
#
# 1 52.0069 33.4347 22.5188 0.0000 -2.6487 0.0000
# 2 33.4347 108.4016 58.4528 0.0000 -12.0760 0.0000
# 3 22.5188 58.4528 105.1369 0.0000 -13.7561 0.0000
# 4 0.0000 0.0000 0.0000 36.8132 0.0000 -1.6834
# 5 -2.6487 -12.0760 -13.7561 0.0000 30.9755 0.0000
# 6 0.0000 0.0000 0.0000 -1.6834 0.0000 30.4208
#
#
#
# Elastic Compliance Matrix: (Units=1/GPa)
#
#
# Indices 1 2 3 4 5 6 
#
# 1 0.024189 -0.006739 -0.001600 0.000000 -0.001270 0.000000
# 2 -0.006739 0.015170 -0.006680 0.000000 0.002371 0.000000
# 3 -0.001600 -0.006680 0.014024 0.000000 0.003487 0.000000
# 4 0.000000 0.000000 0.000000 0.027233 0.000000 0.001507
# 5 -0.001270 0.002371 0.003487 0.000000 0.034648 0.000000
# 6 0.000000 0.000000 0.000000 0.001507 0.000000 0.032956
#
#
# Mechanical properties :
#
#
# Convention : Reuss Voigt Hill
#
# Bulk Modulus (GPa) = 42.83797 54.92868 48.88332
# Shear Modulus (GPa) = 26.87578 29.71783 28.29680
#
# Velocity S-wave (km/s) = 3.67139 3.86063 3.76720
# Velocity P-wave (km/s) = 6.28147 6.88631 6.59083
#
# Compressibility (1/GPa) = 0.02334378
#
# Stress axis : x y z
#
# Youngs Moduli (GPa) = 41.34098 65.91998 71.30417
#
# Poissons Ratio (x) = 0.44425 0.11410
# Poissons Ratio (y) = 0.27861 0.47633
# Poissons Ratio (z) = 0.06616 0.44036
#
# Static dielectric constant tensor:
#      x y z
#    x 3.600070 0.000000 -0.169210 
#    y 0.000000 3.730270 0.000000 
#    z -0.169210 0.000000 3.673980 
# 
# 
# High freq. dielectric constant tensor:
#      x y z
#    x 1.774880 0.000000 -0.009420 
#    y 0.000000 1.784590 0.000000 
#    z -0.009420 0.000000 1.771490 
# 
# From -- ./inp_files/64349.got.cif
#   From: 2010.06.25/outbox.cif.g09.slc.cpg/sg11_33_cif.got.tgz:64349.got - 2010.06.27 23:14:04.
