data_PCOD8070953
_publ_section_title
;
Structure prediction by ZEFSAII (Michael W. Deem and Ramdas Pophale) SiO2 
 PCOD8070953
Probable space group: P 21/M
;
_chemical_formula_sum "Si O2"
_cell_formula_units_Z 28
_cell_length_a 24.561919
_cell_length_b 9.008365
_cell_length_c 19.512787
_cell_angle_alpha 90.000000
_cell_angle_beta 158.737944
_cell_angle_gamma 90.000000
_cell_volume 1565.655694
_symmetry_space_group_name_H-M "P 21/M"
_symmetry_group_IT_number 11
_symmetry_cell_setting 'monoclinic'
loop_
_space_group_symop_operation_xyz
x,y,z
-x,1/2+y,-z
-x,-y,-z
x,1/2-y,z
loop_
_atom_site_type_symbol
_atom_site_label
_atom_site_fract_x
_atom_site_fract_y
_atom_site_fract_z
Si Si1 0.178979 0.583279 0.764440
Si Si2 0.842929 0.922961 0.833412
Si Si3 0.375313 0.424538 0.307905
Si Si4 0.848670 0.579080 0.405080
Si Si5 0.448620 0.075477 0.593338
Si Si6 0.404885 0.575798 0.828290
Si Si7 0.507856 0.418583 0.815548
O O1 0.172934 0.750000 0.725596
O O2 0.204835 0.467353 0.733686
O O3 0.024565 0.548856 0.622401
O O4 0.311235 0.569975 0.974900
O O5 0.871256 0.750000 0.856266
O O6 0.787258 0.956743 0.846746
O O7 0.709430 0.976231 0.625616
O O8 0.000000 0.000000 0.000000
O O9 0.500000 0.500000 0.500000
O O10 0.403678 0.250000 0.338163
O O11 0.403784 0.494636 0.266187
O O12 0.804323 0.750000 0.363705
O O13 0.766533 0.477455 0.364572
O O14 0.473054 0.250000 0.611520
O O15 0.442257 0.031411 0.665645
O O16 0.420688 0.750000 0.855330
O O17 0.451357 0.529250 0.807090
O O18 0.500000 0.500000 0.000000
O O19 0.458179 0.250000 0.774698
#
# Coordination Sequence:
#
# PCOD8070953 Si02
#       7
#     4   4   4   4   4   4   4
#     4   9  18  32  52  75  98 129 170 212 262 317
#     4   9  18  32  52  80 109 139 175 213 254 305
#     4   9  17  31  52  77 104 134 172 212 251 301
#     4  10  19  32  51  75 101 129 166 217 266 311
#     4   9  19  35  54  78 107 138 175 217 265 314
#     4  12  23  35  52  76 103 138 181 223 268 320
#     4  10  20  36  56  77 104 137 174 222 269 317
#
# _framework density 17.883880999999999
#
# number of rings (size 3 to 8) (size 9 to 14) (size 15 to 20)
#    0.000    2.286    1.429    3.000    0.000    4.000 
#    0.000    1.429    0.000    6.857    0.000    0.000 
#    0.000    0.000    0.000    0.000    0.000    0.000 
#
# Total GULP energy -347027.974885 kJ/mol
# GULP energy per Si atom -12393.856246 kJ/mol
# Density = 1.784318 g / cm^3
# Si number density = 17.883881 Si / 1000 Ang^3
#
#
#
# Elastic Constant Matrix: (Units=GPa)
#
#
# Indices 1 2 3 4 5 6 
#
# 1 129.3717 65.3690 61.6178 0.0000 12.1876 0.0000
# 2 65.3690 99.5203 37.0884 0.0000 9.4955 0.0000
# 3 61.6178 37.0884 84.5672 0.0000 11.1344 0.0000
# 4 0.0000 0.0000 0.0000 23.8086 0.0000 5.7591
# 5 12.1876 9.4955 11.1344 0.0000 29.2484 0.0000
# 6 0.0000 0.0000 0.0000 5.7591 0.0000 34.6850
#
#
#
# Elastic Compliance Matrix: (Units=1/GPa)
#
#
# Indices 1 2 3 4 5 6 
#
# 1 0.014998 -0.006849 -0.007784 0.000000 -0.001063 0.000000
# 2 -0.006849 0.015250 -0.001497 0.000000 -0.001527 0.000000
# 3 -0.007784 -0.001497 0.018594 0.000000 -0.003349 0.000000
# 4 0.000000 0.000000 0.000000 0.043759 0.000000 -0.007266
# 5 -0.001063 -0.001527 -0.003349 0.000000 0.036403 0.000000
# 6 0.000000 0.000000 0.000000 -0.007266 0.000000 0.030037
#
#
# Mechanical properties :
#
#
# Convention : Reuss Voigt Hill
#
# Bulk Modulus (GPa) = 60.30532 71.28995 65.79764
# Shear Modulus (GPa) = 25.40265 27.50733 26.45499
#
# Velocity S-wave (km/s) = 3.77294 3.92613 3.85029
# Velocity P-wave (km/s) = 7.26455 7.77829 7.52581
#
# Compressibility (1/GPa) = 0.01658229
#
# Stress axis : x y z
#
# Youngs Moduli (GPa) = 66.67611 65.57192 53.78035
#
# Poissons Ratio (x) = 0.44909 0.41864
# Poissons Ratio (y) = 0.45666 0.08051
# Poissons Ratio (z) = 0.51902 0.09816
#
# Static dielectric constant tensor:
#      x y z
#    x 3.484220 0.000000 0.246220 
#    y 0.000000 3.475660 0.000000 
#    z 0.246220 0.000000 3.310350 
# 
# 
# High freq. dielectric constant tensor:
#      x y z
#    x 1.688160 0.000000 0.020860 
#    y 0.000000 1.695600 0.000000 
#    z 0.020860 0.000000 1.671190 
# 
# From -- ./inp_files/66897.got.cif
#   From: 2010.06.25/outbox.cif.g09.slc.cpg/sg11_34_cif.got.tgz:66897.got - 2010.06.27 23:14:04.
