data_PCOD8070136
_publ_section_title
;
Structure prediction by ZEFSAII (Michael W. Deem and Ramdas Pophale) SiO2 
 PCOD8070136
Probable space group: P 21/M
;
_chemical_formula_sum "Si O2"
_cell_formula_units_Z 32
_cell_length_a 21.425696
_cell_length_b 8.751732
_cell_length_c 11.847933
_cell_angle_alpha 90.000000
_cell_angle_beta 127.033126
_cell_angle_gamma 90.000000
_cell_volume 1773.498520
_symmetry_space_group_name_H-M "P 21/M"
_symmetry_group_IT_number 11
_symmetry_cell_setting 'monoclinic'
loop_
_space_group_symop_operation_xyz
x,y,z
-x,1/2+y,-z
-x,-y,-z
x,1/2-y,z
loop_
_atom_site_type_symbol
_atom_site_label
_atom_site_fract_x
_atom_site_fract_y
_atom_site_fract_z
Si Si1 0.416098 0.570708 0.928038
Si Si2 0.040477 0.930257 0.152284
Si Si3 0.782251 0.069775 0.650302
Si Si4 0.175510 0.417073 0.718914
Si Si5 0.905568 0.931786 0.161188
Si Si6 0.240812 0.430226 0.141237
Si Si7 0.666895 0.917664 0.969192
Si Si8 0.277775 0.067206 0.637848
O O1 0.418546 0.750000 0.911591
O O2 0.358487 0.496440 0.774034
O O3 0.500000 0.500000 0.000000
O O4 0.389139 0.536042 0.027352
O O5 0.038918 0.750000 0.135240
O O6 0.128515 0.990669 0.261195
O O7 0.991224 0.980020 0.210174
O O8 0.000000 0.000000 0.000000
O O9 0.777264 0.250000 0.628134
O O10 0.744849 0.022165 0.728256
O O11 0.731663 0.988156 0.499397
O O12 0.143384 0.250000 0.650587
O O13 0.110686 0.500960 0.729206
O O14 0.204270 0.498477 0.634152
O O15 0.251003 0.401778 0.879460
O O16 0.896710 0.750000 0.162036
O O17 0.840916 0.989794 0.001220
O O18 0.237055 0.250000 0.162368
O O19 0.313620 0.470428 0.137686
O O20 0.626424 0.750000 0.924262
O O21 0.280308 0.250000 0.648317
#
# Coordination Sequence:
#
# PCOD8070136 Si02
#       8
#     4   4   4   4   4   4   4   4
#     4  11  21  35  58  86 113 137 163 202 250 300
#     4  10  19  30  46  68  99 134 174 222 266 311
#     4  11  22  32  45  72 107 140 174 220 270 313
#     4   7  12  25  47  70  90 120 166 214 254 297
#     4   8  13  25  46  69  92 124 168 218 264 303
#     4   9  16  29  51  73  97 136 180 216 254 305
#     4   8  15  29  50  78 105 131 170 212 249 297
#     4  10  20  36  55  74 100 136 177 215 253 310
#
# _framework density 18.043431000000002
#
# number of rings (size 3 to 8) (size 9 to 14) (size 15 to 20)
#    0.000    2.750    1.250    4.125    0.000    1.000 
#    0.000    0.625    0.000    1.500    0.000    0.000 
#    0.000    0.000    0.000    0.000    0.000    0.000 
#
# Total GULP energy -396472.291143 kJ/mol
# GULP energy per Si atom -12389.759098 kJ/mol
# Density = 1.800236 g / cm^3
# Si number density = 18.043431 Si / 1000 Ang^3
#
#
#
# Elastic Constant Matrix: (Units=GPa)
#
#
# Indices 1 2 3 4 5 6 
#
# 1 116.4696 36.3200 50.8541 0.0000 -9.7744 0.0000
# 2 36.3200 63.5665 30.5505 0.0000 -1.5123 0.0000
# 3 50.8541 30.5505 80.1116 0.0000 -12.6482 0.0000
# 4 0.0000 0.0000 0.0000 21.0050 0.0000 -2.9990
# 5 -9.7744 -1.5123 -12.6482 0.0000 25.3410 0.0000
# 6 0.0000 0.0000 0.0000 -2.9990 0.0000 22.8427
#
#
#
# Elastic Compliance Matrix: (Units=1/GPa)
#
#
# Indices 1 2 3 4 5 6 
#
# 1 0.012767 -0.004262 -0.006233 0.000000 0.001559 0.000000
# 2 -0.004262 0.020861 -0.005767 0.000000 -0.003278 0.000000
# 3 -0.006233 -0.005767 0.019762 0.000000 0.007115 0.000000
# 4 0.000000 0.000000 0.000000 0.048517 0.000000 0.006370
# 5 0.001559 -0.003278 0.007115 0.000000 0.043419 0.000000
# 6 0.000000 0.000000 0.000000 0.006370 0.000000 0.044614
#
#
# Mechanical properties :
#
#
# Convention : Reuss Voigt Hill
#
# Bulk Modulus (GPa) = 47.92649 55.06632 51.49641
# Shear Modulus (GPa) = 21.79413 23.33263 22.56338
#
# Velocity S-wave (km/s) = 3.47921 3.59992 3.54008
# Velocity P-wave (km/s) = 6.53906 6.91840 6.73140
#
# Compressibility (1/GPa) = 0.02086529
#
# Stress axis : x y z
#
# Youngs Moduli (GPa) = 78.32403 47.93738 50.60238
#
# Poissons Ratio (x) = 0.20432 0.31541
# Poissons Ratio (y) = 0.33383 0.29182
# Poissons Ratio (z) = 0.48820 0.27646
#
# Static dielectric constant tensor:
#      x y z
#    x 3.936050 0.000000 -0.324910 
#    y 0.000000 3.182910 0.000000 
#    z -0.324910 0.000000 3.051500 
# 
# 
# High freq. dielectric constant tensor:
#      x y z
#    x 1.711790 0.000000 -0.023590 
#    y 0.000000 1.674060 0.000000 
#    z -0.023590 0.000000 1.660130 
# 
# From -- ./inp_files/42898.got.cif
#   From: 2010.06.25/outbox.cif.g09.slc.cpg/sg11_22_cif.got.tgz:42898.got - 2010.06.27 23:14:04.
