data_PCOD8070820
_publ_section_title
;
Structure prediction by ZEFSAII (Michael W. Deem and Ramdas Pophale) SiO2 
 PCOD8070820
Probable space group: P 21/M
;
_chemical_formula_sum "Si O2"
_cell_formula_units_Z 32
_cell_length_a 14.136882
_cell_length_b 8.715345
_cell_length_c 31.743121
_cell_angle_alpha 90.000000
_cell_angle_beta 150.786078
_cell_angle_gamma 90.000000
_cell_volume 1908.848730
_symmetry_space_group_name_H-M "P 21/M"
_symmetry_group_IT_number 11
_symmetry_cell_setting 'monoclinic'
loop_
_space_group_symop_operation_xyz
x,y,z
-x,1/2+y,-z
-x,-y,-z
x,1/2-y,z
loop_
_atom_site_type_symbol
_atom_site_label
_atom_site_fract_x
_atom_site_fract_y
_atom_site_fract_z
Si Si1 0.924629 0.931166 0.513861
Si Si2 0.132956 0.071692 0.672824
Si Si3 0.766899 0.426095 0.583758
Si Si4 0.415839 0.926235 0.402321
Si Si5 0.494934 0.569179 0.645244
Si Si6 0.905826 0.069694 0.004518
Si Si7 0.297653 0.070041 0.191458
Si Si8 0.461298 0.068302 0.165925
O O1 0.921216 0.750000 0.508680
O O2 0.071419 0.978855 0.607591
O O3 0.000000 0.000000 0.500000
O O4 0.712561 0.992584 0.442036
O O5 0.144805 0.250000 0.665540
O O6 0.985398 0.042548 0.653988
O O7 0.337973 0.009963 0.768680
O O8 0.704885 0.250000 0.550608
O O9 0.749079 0.461467 0.626787
O O10 0.626092 0.536331 0.503165
O O11 0.414391 0.750000 0.387952
O O12 0.374903 0.027768 0.344898
O O13 0.467480 0.750000 0.638106
O O14 0.598650 0.499373 0.727120
O O15 0.871913 0.250000 0.985906
O O16 0.065474 0.034999 0.103110
O O17 0.699031 0.986467 0.930954
O O18 0.000000 0.000000 0.000000
O O19 0.331458 0.250000 0.204721
O O20 0.397221 0.007008 0.187394
O O21 0.481217 0.250000 0.171874
#
# Coordination Sequence:
#
# PCOD8070820 Si02
#       8
#     4   4   4   4   4   4   4   4
#     4  12  24  36  48  67  97 135 170 204 238 285
#     4  11  21  34  51  72  96 129 167 204 245 293
#     4   9  19  34  51  69  94 126 163 205 250 297
#     4  10  19  32  50  72  95 124 162 206 252 295
#     4  11  20  33  50  71  98 131 166 203 244 292
#     4   9  16  30  49  70  95 126 163 205 247 289
#     4   8  17  31  48  68  95 129 163 196 237 287
#     4  10  19  32  49  72 100 131 164 202 245 294
#
# _framework density 16.764030999999999
#
# number of rings (size 3 to 8) (size 9 to 14) (size 15 to 20)
#    0.000    2.000    1.250    4.500    0.000    2.000 
#    0.000    6.875    0.000    0.000    0.000    0.875 
#    0.000    0.000    0.000    0.000    0.000    0.000 
#
# Total GULP energy -396715.123450 kJ/mol
# GULP energy per Si atom -12397.347608 kJ/mol
# Density = 1.672588 g / cm^3
# Si number density = 16.764031 Si / 1000 Ang^3
#
#
#
# Elastic Constant Matrix: (Units=GPa)
#
#
# Indices 1 2 3 4 5 6 
#
# 1 89.2076 31.3353 31.3872 0.0000 11.5705 0.0000
# 2 31.3353 77.2210 22.7958 0.0000 5.4545 0.0000
# 3 31.3872 22.7958 74.3401 0.0000 20.5322 0.0000
# 4 0.0000 0.0000 0.0000 23.7042 0.0000 1.8058
# 5 11.5705 5.4545 20.5322 0.0000 20.1877 0.0000
# 6 0.0000 0.0000 0.0000 1.8058 0.0000 24.2408
#
#
#
# Elastic Compliance Matrix: (Units=1/GPa)
#
#
# Indices 1 2 3 4 5 6 
#
# 1 0.014587 -0.004547 -0.003886 0.000000 -0.003179 0.000000
# 2 -0.004547 0.015666 -0.003386 0.000000 0.001817 0.000000
# 3 -0.003886 -0.003386 0.021225 0.000000 -0.018445 0.000000
# 4 0.000000 0.000000 0.000000 0.042427 0.000000 -0.003161
# 5 -0.003179 0.001817 -0.018445 0.000000 0.069626 0.000000
# 6 0.000000 0.000000 0.000000 -0.003161 0.000000 0.041488
#
#
# Mechanical properties :
#
#
# Convention : Reuss Voigt Hill
#
# Bulk Modulus (GPa) = 35.92031 45.75614 40.83823
# Shear Modulus (GPa) = 21.01377 23.97655 22.49516
#
# Velocity S-wave (km/s) = 3.54433 3.78595 3.66713
# Velocity P-wave (km/s) = 6.18249 6.81650 6.50722
#
# Compressibility (1/GPa) = 0.02783940
#
# Stress axis : x y z
#
# Youngs Moduli (GPa) = 68.55505 63.83139 47.11378
#
# Poissons Ratio (x) = 0.29026 0.18309
# Poissons Ratio (y) = 0.31175 0.15952
# Poissons Ratio (z) = 0.26642 0.21612
#
# Static dielectric constant tensor:
#      x y z
#    x 3.069970 0.000000 0.113890 
#    y 0.000000 3.204700 0.000000 
#    z 0.113890 0.000000 3.351430 
# 
# 
# High freq. dielectric constant tensor:
#      x y z
#    x 1.627180 0.000000 0.007740 
#    y 0.000000 1.652840 0.000000 
#    z 0.007740 0.000000 1.632380 
# 
# From -- ./inp_files/73314.got.cif
#   From: 2010.06.25/outbox.cif.g09.slc.cpg/sg11_37_cif.got.tgz:73314.got - 2010.06.27 23:14:04.
