data_PCOD8070232
_publ_section_title
;
Structure prediction by ZEFSAII (Michael W. Deem and Ramdas Pophale) SiO2 
 PCOD8070232
Probable space group: P 21/M
;
_chemical_formula_sum "Si O2"
_cell_formula_units_Z 32
_cell_length_a 16.398026
_cell_length_b 8.659592
_cell_length_c 25.246641
_cell_angle_alpha 90.000000
_cell_angle_beta 153.548941
_cell_angle_gamma 90.000000
_cell_volume 1596.890742
_symmetry_space_group_name_H-M "P 21/M"
_symmetry_group_IT_number 11
_symmetry_cell_setting 'monoclinic'
loop_
_space_group_symop_operation_xyz
x,y,z
-x,1/2+y,-z
-x,-y,-z
x,1/2-y,z
loop_
_atom_site_type_symbol
_atom_site_label
_atom_site_fract_x
_atom_site_fract_y
_atom_site_fract_z
Si Si1 0.970339 0.573059 0.218717
Si Si2 0.553004 0.930582 0.353755
Si Si3 0.314296 0.078782 0.380145
Si Si4 0.921832 0.066688 0.606896
Si Si5 0.464874 0.927009 0.766864
Si Si6 0.153136 0.433765 0.963642
Si Si7 0.202818 0.079652 0.197755
Si Si8 0.096007 0.572942 0.606094
O O1 0.914575 0.750000 0.189520
O O2 0.855872 0.498115 0.102633
O O3 0.178224 0.548801 0.323177
O O4 0.962721 0.503806 0.274257
O O5 0.554372 0.750000 0.364091
O O6 0.714320 0.000686 0.484302
O O7 0.600042 0.970660 0.320365
O O8 0.347311 0.991246 0.244706
O O9 0.292157 0.250000 0.393485
O O10 0.300769 0.097312 0.310137
O O11 0.500000 0.000000 0.500000
O O12 0.902328 0.250000 0.598647
O O13 0.041129 0.020017 0.626091
O O14 0.483295 0.750000 0.758320
O O15 0.314460 0.940331 0.725721
O O16 0.655696 0.989944 0.901007
O O17 0.136811 0.250000 0.951614
O O18 0.991695 0.493700 0.908239
O O19 0.164921 0.250000 0.151325
O O20 0.033103 0.750000 0.575819
O O21 0.000000 0.500000 0.500000
#
# Coordination Sequence:
#
# PCOD8070232 Si02
#       8
#     4   4   4   4   4   4   4   4
#     4   9  19  35  56  80 109 147 187 229 278 331
#     4  12  24  36  56  85 115 150 194 239 284 340
#     4  10  19  30  48  74 106 145 187 231 279 330
#     4  11  22  37  58  86 120 151 184 234 290 340
#     4  10  22  40  62  84 112 148 187 237 290 338
#     4   9  19  39  62  83 110 150 197 235 275 333
#     4  10  21  36  53  78 114 152 189 233 283 334
#     4  11  22  38  61  88 116 149 186 232 288 343
#
# _framework density 20.038941999999999
#
# number of rings (size 3 to 8) (size 9 to 14) (size 15 to 20)
#    0.000    1.750    1.250    3.375    0.000    7.000 
#    0.000    0.625    0.000    0.000    0.000    0.000 
#    0.000    0.000    0.000    0.000    0.000    0.000 
#
# Total GULP energy -396535.283084 kJ/mol
# GULP energy per Si atom -12391.727596 kJ/mol
# Density = 1.999333 g / cm^3
# Si number density = 20.038942 Si / 1000 Ang^3
#
#
#
# Elastic Constant Matrix: (Units=GPa)
#
#
# Indices 1 2 3 4 5 6 
#
# 1 86.5191 15.1844 13.8476 0.0000 -1.6529 0.0000
# 2 15.1844 70.0281 22.5970 0.0000 -0.8078 0.0000
# 3 13.8476 22.5970 70.1167 0.0000 10.3656 0.0000
# 4 0.0000 0.0000 0.0000 18.8870 0.0000 7.4710
# 5 -1.6529 -0.8078 10.3656 0.0000 27.8488 0.0000
# 6 0.0000 0.0000 0.0000 7.4710 0.0000 26.5377
#
#
#
# Elastic Compliance Matrix: (Units=1/GPa)
#
#
# Indices 1 2 3 4 5 6 
#
# 1 0.012254 -0.002001 -0.001983 0.000000 0.001407 0.000000
# 2 -0.002001 0.016432 -0.005242 0.000000 0.002309 0.000000
# 3 -0.001983 -0.005242 0.017337 0.000000 -0.006723 0.000000
# 4 0.000000 0.000000 0.000000 0.059581 0.000000 -0.016773
# 5 0.001407 0.002309 -0.006723 0.000000 0.038561 0.000000
# 6 0.000000 0.000000 0.000000 -0.016773 0.000000 0.042404
#
#
# Mechanical properties :
#
#
# Convention : Reuss Voigt Hill
#
# Bulk Modulus (GPa) = 36.27061 36.65800 36.46431
# Shear Modulus (GPa) = 23.34150 26.32370 24.83260
#
# Velocity S-wave (km/s) = 3.41663 3.62833 3.52407
# Velocity P-wave (km/s) = 5.80550 5.99050 5.89873
#
# Compressibility (1/GPa) = 0.02757053
#
# Stress axis : x y z
#
# Youngs Moduli (GPa) = 81.60867 60.85722 57.68087
#
# Poissons Ratio (x) = 0.12176 0.11440
# Poissons Ratio (y) = 0.16328 0.30235
# Poissons Ratio (z) = 0.16185 0.31900
#
# Static dielectric constant tensor:
#      x y z
#    x 4.128910 0.000000 0.270640 
#    y 0.000000 3.645540 0.000000 
#    z 0.270640 0.000000 4.275110 
# 
# 
# High freq. dielectric constant tensor:
#      x y z
#    x 1.781160 0.000000 -0.007480 
#    y 0.000000 1.778540 0.000000 
#    z -0.007480 0.000000 1.776580 
# 
# From -- ./inp_files/55620.got.cif
#   From: 2010.06.25/outbox.cif.g09.slc.cpg/sg11_28_cif.got.tgz:55620.got - 2010.06.27 23:14:04.
