data_PCOD8070058
_publ_section_title
;
Structure prediction by ZEFSAII (Michael W. Deem and Ramdas Pophale) SiO2 
 PCOD8070058
Probable space group: P 21/M
;
_chemical_formula_sum "Si O2"
_cell_formula_units_Z 32
_cell_length_a 30.340788
_cell_length_b 9.140618
_cell_length_c 16.055619
_cell_angle_alpha 90.000000
_cell_angle_beta 29.331293
_cell_angle_gamma 90.000000
_cell_volume 2181.224018
_symmetry_space_group_name_H-M "P 21/M"
_symmetry_group_IT_number 11
_symmetry_cell_setting 'monoclinic'
loop_
_space_group_symop_operation_xyz
x,y,z
-x,1/2+y,-z
-x,-y,-z
x,1/2-y,z
loop_
_atom_site_type_symbol
_atom_site_label
_atom_site_fract_x
_atom_site_fract_y
_atom_site_fract_z
Si Si1 0.536781 0.417989 0.058082
Si Si2 0.016729 0.080109 0.886682
Si Si3 0.640504 0.580754 0.750485
Si Si4 0.330097 0.082502 0.658183
Si Si5 0.180917 0.583098 0.807465
Si Si6 0.810653 0.423574 0.398108
Si Si7 0.478745 0.921521 0.725288
Si Si8 0.581789 0.580785 0.322361
O O1 0.565801 0.250000 0.995286
O O2 0.434957 0.441952 0.195464
O O3 0.541798 0.461883 0.146066
O O4 0.604168 0.524927 0.899007
O O5 0.039977 0.250000 0.863303
O O6 0.101370 0.998973 0.703997
O O7 0.922823 0.064475 0.990861
O O8 0.000000 0.000000 0.000000
O O9 0.668712 0.750000 0.711942
O O10 0.724504 0.482125 0.587967
O O11 0.318698 0.250000 0.651706
O O12 0.421045 0.023029 0.464079
O O13 0.334351 0.062996 0.751998
O O14 0.242543 0.001906 0.770121
O O15 0.211173 0.750000 0.761215
O O16 0.194394 0.527520 0.690335
O O17 0.818431 0.250000 0.395206
O O18 0.470176 0.750000 0.721707
O O19 0.404235 0.004825 0.790852
O O20 0.500000 0.500000 0.500000
O O21 0.558204 0.750000 0.348035
#
# Coordination Sequence:
#
# PCOD8070058 Si02
#       8
#     4   4   4   4   4   4   4   4
#     4   9  18  31  44  60  84 110 139 175 210 245
#     4   9  17  29  42  59  82 107 137 171 205 243
#     4  10  19  30  44  61  82 110 141 174 210 243
#     4   9  17  27  40  59  83 109 137 168 203 243
#     4   9  18  28  40  60  83 107 137 170 202 240
#     4  10  19  30  43  60  82 110 142 173 207 245
#     4   9  17  29  43  59  80 109 141 171 206 243
#     4   9  17  28  40  57  80 106 137 171 204 241
#
# _framework density 14.670662999999999
#
# number of rings (size 3 to 8) (size 9 to 14) (size 15 to 20)
#    0.000    2.750    0.000    3.750    0.000    7.500 
#    0.000    0.000    0.000    0.000    0.000    0.000 
#    0.000    1.000    0.000    3.250    0.000    4.750 
#
# Total GULP energy -396614.159988 kJ/mol
# GULP energy per Si atom -12394.192500 kJ/mol
# Density = 1.463727 g / cm^3
# Si number density = 14.670663 Si / 1000 Ang^3
#
#
#
# Elastic Constant Matrix: (Units=GPa)
#
#
# Indices 1 2 3 4 5 6 
#
# 1 90.2441 47.9651 39.5048 0.0000 2.8105 0.0000
# 2 47.9651 80.7744 39.8105 0.0000 -3.9557 0.0000
# 3 39.5048 39.8105 69.3023 0.0000 -4.9456 0.0000
# 4 0.0000 0.0000 0.0000 25.3001 0.0000 -1.9990
# 5 2.8105 -3.9557 -4.9456 0.0000 20.5873 0.0000
# 6 0.0000 0.0000 0.0000 -1.9990 0.0000 27.1253
#
#
#
# Elastic Compliance Matrix: (Units=1/GPa)
#
#
# Indices 1 2 3 4 5 6 
#
# 1 0.018233 -0.008064 -0.006155 0.000000 -0.005517 0.000000
# 2 -0.008064 0.020854 -0.007141 0.000000 0.003392 0.000000
# 3 -0.006155 -0.007141 0.022386 0.000000 0.004846 0.000000
# 4 0.000000 0.000000 0.000000 0.039757 0.000000 0.002930
# 5 -0.005517 0.003392 0.004846 0.000000 0.051143 0.000000
# 6 0.000000 0.000000 0.000000 0.002930 0.000000 0.037082
#
#
# Mechanical properties :
#
#
# Convention : Reuss Voigt Hill
#
# Bulk Modulus (GPa) = 53.32220 54.98685 54.15452
# Shear Modulus (GPa) = 20.97087 22.13855 21.55471
#
# Velocity S-wave (km/s) = 3.78490 3.88884 3.83722
# Velocity P-wave (km/s) = 7.45155 7.59779 7.52502
#
# Compressibility (1/GPa) = 0.01875392
#
# Stress axis : x y z
#
# Youngs Moduli (GPa) = 54.84488 47.95210 44.67065
#
# Poissons Ratio (x) = 0.38667 0.27495
# Poissons Ratio (y) = 0.44226 0.31899
# Poissons Ratio (z) = 0.33758 0.34242
#
# Static dielectric constant tensor:
#      x y z
#    x 2.889360 0.000000 0.576000 
#    y 0.000000 3.001050 0.000000 
#    z 0.576000 0.000000 1.708900 
# 
# 
# High freq. dielectric constant tensor:
#      x y z
#    x 1.545240 0.000000 -0.006630 
#    y 0.000000 1.574730 0.000000 
#    z -0.006630 0.000000 1.530200 
# 
# From -- ./inp_files/56469.got.cif
#   From: 2010.06.25/outbox.cif.g09.slc.cpg/sg11_29_cif.got.tgz:56469.got - 2010.06.27 23:14:04.
