data_PCOD8070677
_publ_section_title
;
Structure prediction by ZEFSAII (Michael W. Deem and Ramdas Pophale) SiO2 
 PCOD8070677
Probable space group: P 21/M
;
_chemical_formula_sum "Si O2"
_cell_formula_units_Z 24
_cell_length_a 11.118226
_cell_length_b 9.046230
_cell_length_c 23.373565
_cell_angle_alpha 90.000000
_cell_angle_beta 144.306550
_cell_angle_gamma 90.000000
_cell_volume 1371.609587
_symmetry_space_group_name_H-M "P 21/M"
_symmetry_group_IT_number 11
_symmetry_cell_setting 'monoclinic'
loop_
_space_group_symop_operation_xyz
x,y,z
-x,1/2+y,-z
-x,-y,-z
x,1/2-y,z
loop_
_atom_site_type_symbol
_atom_site_label
_atom_site_fract_x
_atom_site_fract_y
_atom_site_fract_z
Si Si1 0.828927 0.923058 0.859410
Si Si2 0.235286 0.079341 0.036880
Si Si3 0.597375 0.423694 0.092343
Si Si4 0.333254 0.077859 0.474483
Si Si5 0.024883 0.923569 0.284817
Si Si6 0.353461 0.917691 0.313115
O O1 0.848909 0.750000 0.860900
O O2 0.746104 0.970773 0.889878
O O3 0.667002 0.979329 0.749961
O O4 0.054413 0.990837 0.934998
O O5 0.173741 0.250000 0.008505
O O6 0.451138 0.046472 0.090091
O O7 0.626271 0.250000 0.091842
O O8 0.812336 0.498783 0.188793
O O9 0.500000 0.500000 0.000000
O O10 0.315323 0.250000 0.451072
O O11 0.416236 0.060060 0.571656
O O12 0.500000 0.000000 0.500000
O O13 0.115781 0.996140 0.378576
O O14 0.992063 0.750000 0.281855
O O15 0.180355 0.957612 0.293089
O O16 0.322484 0.750000 0.280991
#
# Coordination Sequence:
#
# PCOD8070677 Si02
#       6
#     4   4   4   4   4   4
#     4  10  19  31  51  74  94 123 163 201 236 282
#     4   9  20  36  49  67  98 130 158 196 244 284
#     4  11  22  35  51  71  99 131 162 197 239 289
#     4   9  17  30  48  71  99 130 162 197 242 288
#     4  10  20  33  49  72 102 131 161 199 243 288
#     4   9  18  31  48  72 101 128 154 194 244 285
#
# _framework density 17.497689999999999
#
# number of rings (size 3 to 8) (size 9 to 14) (size 15 to 20)
#    0.000    2.333    0.000    4.000    0.000   10.000 
#    0.000    0.000    0.000    1.000    0.000    0.000 
#    0.000    0.000    0.000    0.000    0.000    0.000 
#
# Total GULP energy -297558.550255 kJ/mol
# GULP energy per Si atom -12398.272927 kJ/mol
# Density = 1.745786 g / cm^3
# Si number density = 17.497690 Si / 1000 Ang^3
#
#
#
# Elastic Constant Matrix: (Units=GPa)
#
#
# Indices 1 2 3 4 5 6 
#
# 1 53.9384 40.4713 46.3089 0.0000 -1.8350 0.0000
# 2 40.4713 105.3858 74.6498 0.0000 -1.8279 0.0000
# 3 46.3089 74.6498 162.3594 0.0000 -2.3959 0.0000
# 4 0.0000 0.0000 0.0000 40.1343 0.0000 -2.1770
# 5 -1.8350 -1.8279 -2.3959 0.0000 22.8495 0.0000
# 6 0.0000 0.0000 0.0000 -2.1770 0.0000 23.8734
#
#
#
# Elastic Compliance Matrix: (Units=1/GPa)
#
#
# Indices 1 2 3 4 5 6 
#
# 1 0.028158 -0.007588 -0.004525 0.000000 0.001180 0.000000
# 2 -0.007588 0.016121 -0.005246 0.000000 0.000130 0.000000
# 3 -0.004525 -0.005246 0.009866 0.000000 0.000251 0.000000
# 4 0.000000 0.000000 0.000000 0.025040 0.000000 0.002283
# 5 0.001180 0.000130 0.000251 0.000000 0.043896 0.000000
# 6 0.000000 0.000000 0.000000 0.002283 0.000000 0.042096
#
#
# Mechanical properties :
#
#
# Convention : Reuss Voigt Hill
#
# Bulk Modulus (GPa) = 51.47503 71.61597 61.54550
# Shear Modulus (GPa) = 24.22821 28.05501 26.14161
#
# Velocity S-wave (km/s) = 3.72513 4.00854 3.86943
# Velocity P-wave (km/s) = 6.92706 7.90203 7.43056
#
# Compressibility (1/GPa) = 0.01942690
#
# Stress axis : x y z
#
# Youngs Moduli (GPa) = 35.51361 62.03034 101.36137
#
# Poissons Ratio (x) = 0.47066 0.45870
# Poissons Ratio (y) = 0.26946 0.53175
# Poissons Ratio (z) = 0.16071 0.32542
#
# Static dielectric constant tensor:
#      x y z
#    x 3.080990 0.000000 -0.133190 
#    y 0.000000 3.518570 0.000000 
#    z -0.133190 0.000000 3.576950 
# 
# 
# High freq. dielectric constant tensor:
#      x y z
#    x 1.638060 0.000000 -0.010730 
#    y 0.000000 1.691340 0.000000 
#    z -0.010730 0.000000 1.688540 
# 
# From -- ./inp_files/40809.got.cif
#   From: 2010.06.25/outbox.cif.g09.slc.cpg/sg11_21_cif.got.tgz:40809.got - 2010.06.27 23:14:04.
