data_PCOD8070888
_publ_section_title
;
Structure prediction by ZEFSAII (Michael W. Deem and Ramdas Pophale) SiO2 
 PCOD8070888
Probable space group: P 21/M
;
_chemical_formula_sum "Si O2"
_cell_formula_units_Z 28
_cell_length_a 19.085614
_cell_length_b 8.872833
_cell_length_c 14.258483
_cell_angle_alpha 90.000000
_cell_angle_beta 42.494308
_cell_angle_gamma 90.000000
_cell_volume 1631.090368
_symmetry_space_group_name_H-M "P 21/M"
_symmetry_group_IT_number 11
_symmetry_cell_setting 'monoclinic'
loop_
_space_group_symop_operation_xyz
x,y,z
-x,1/2+y,-z
-x,-y,-z
x,1/2-y,z
loop_
_atom_site_type_symbol
_atom_site_label
_atom_site_fract_x
_atom_site_fract_y
_atom_site_fract_z
Si Si1 0.394209 0.573979 0.000235
Si Si2 0.814484 0.427087 0.897965
Si Si3 0.001188 0.429108 0.397288
Si Si4 0.879562 0.924109 0.017064
Si Si5 0.878953 0.075480 0.208682
Si Si6 0.605173 0.071965 0.786996
Si Si7 0.802198 0.428760 0.482036
O O1 0.416428 0.750000 0.975916
O O2 0.297941 0.528971 0.030646
O O3 0.372005 0.520724 0.128751
O O4 0.495885 0.492518 0.859138
O O5 0.836504 0.250000 0.865514
O O6 0.897529 0.520399 0.757789
O O7 0.817734 0.475976 0.003050
O O8 0.000453 0.250000 0.405874
O O9 0.000000 0.500000 0.500000
O O10 0.900395 0.491461 0.442471
O O11 0.851064 0.750000 0.030818
O O12 0.843827 0.975301 0.155561
O O13 0.001482 0.953203 0.883009
O O14 0.861315 0.250000 0.200820
O O15 0.810395 0.022714 0.365082
O O16 0.601408 0.250000 0.782151
O O17 0.696621 0.005746 0.631006
O O18 0.804237 0.250000 0.487271
#
# Coordination Sequence:
#
# PCOD8070888 Si02
#       7
#     4   4   4   4   4   4   4
#     4   9  19  34  50  72 102 133 169 211 253 295
#     4  11  21  34  52  74 102 138 172 207 253 304
#     4  11  21  34  49  73 107 139 168 204 250 304
#     4  10  19  32  50  75 103 132 167 211 252 301
#     4   9  17  32  51  72 100 135 167 203 253 308
#     4   9  17  32  54  74  95 130 172 209 247 297
#     4   9  17  32  52  73 101 133 166 205 253 303
#
# _framework density 17.166429999999998
#
# number of rings (size 3 to 8) (size 9 to 14) (size 15 to 20)
#    0.000    2.286    1.429    2.143    0.000    4.000 
#    0.000    5.000    0.000    0.857    0.000    0.000 
#    0.000    0.000    0.000    0.000    0.000    0.000 
#
# Total GULP energy -347237.476599 kJ/mol
# GULP energy per Si atom -12401.338450 kJ/mol
# Density = 1.712736 g / cm^3
# Si number density = 17.166430 Si / 1000 Ang^3
#
#
#
# Elastic Constant Matrix: (Units=GPa)
#
#
# Indices 1 2 3 4 5 6 
#
# 1 107.7995 34.8615 68.5231 0.0000 2.1150 0.0000
# 2 34.8615 44.6756 32.5788 0.0000 -1.7233 0.0000
# 3 68.5231 32.5788 126.2915 0.0000 2.3295 0.0000
# 4 0.0000 0.0000 0.0000 25.9215 0.0000 1.7780
# 5 2.1150 -1.7233 2.3295 0.0000 25.0238 0.0000
# 6 0.0000 0.0000 0.0000 1.7780 0.0000 28.4298
#
#
#
# Elastic Compliance Matrix: (Units=1/GPa)
#
#
# Indices 1 2 3 4 5 6 
#
# 1 0.016045 -0.007683 -0.006701 0.000000 -0.001261 0.000000
# 2 -0.007683 0.031414 -0.003994 0.000000 0.003185 0.000000
# 3 -0.006701 -0.003994 0.012600 0.000000 -0.000882 0.000000
# 4 0.000000 0.000000 0.000000 0.038744 0.000000 -0.002423
# 5 -0.001261 0.003185 -0.000882 0.000000 0.040370 0.000000
# 6 0.000000 0.000000 0.000000 -0.002423 0.000000 0.035326
#
#
# Mechanical properties :
#
#
# Convention : Reuss Voigt Hill
#
# Bulk Modulus (GPa) = 42.90954 61.18815 52.04884
# Shear Modulus (GPa) = 22.82876 25.39524 24.11200
#
# Velocity S-wave (km/s) = 3.65067 3.85041 3.75187
# Velocity P-wave (km/s) = 6.54372 7.44909 7.01104
#
# Compressibility (1/GPa) = 0.02330484
#
# Stress axis : x y z
#
# Youngs Moduli (GPa) = 62.32478 31.83296 79.36312
#
# Poissons Ratio (x) = 0.24456 0.53177
# Poissons Ratio (y) = 0.47883 0.31697
# Poissons Ratio (z) = 0.41761 0.12714
#
# Static dielectric constant tensor:
#      x y z
#    x 3.030810 0.000000 -0.155440 
#    y 0.000000 3.131450 0.000000 
#    z -0.155440 0.000000 3.038950 
# 
# 
# High freq. dielectric constant tensor:
#      x y z
#    x 1.656830 0.000000 0.009810 
#    y 0.000000 1.654200 0.000000 
#    z 0.009810 0.000000 1.655630 
# 
# From -- ./inp_files/42331.got.cif
#   From: 2010.06.25/outbox.cif.g09.slc.cpg/sg11_22_cif.got.tgz:42331.got - 2010.06.27 23:14:04.
