data_PCOD8070959
_publ_section_title
;
Structure prediction by ZEFSAII (Michael W. Deem and Ramdas Pophale) SiO2 
 PCOD8070959
Probable space group: P 21/M
;
_chemical_formula_sum "Si O2"
_cell_formula_units_Z 32
_cell_length_a 30.725471
_cell_length_b 9.257360
_cell_length_c 11.875618
_cell_angle_alpha 90.000000
_cell_angle_beta 149.734053
_cell_angle_gamma 90.000000
_cell_volume 1702.491117
_symmetry_space_group_name_H-M "P 21/M"
_symmetry_group_IT_number 11
_symmetry_cell_setting 'monoclinic'
loop_
_space_group_symop_operation_xyz
x,y,z
-x,1/2+y,-z
-x,-y,-z
x,1/2-y,z
loop_
_atom_site_type_symbol
_atom_site_label
_atom_site_fract_x
_atom_site_fract_y
_atom_site_fract_z
Si Si1 0.588982 0.917610 0.684813
Si Si2 0.751935 0.919419 0.191162
Si Si3 0.723147 0.419481 0.346977
Si Si4 0.364734 0.085372 0.454574
Si Si5 0.894922 0.082388 0.375981
Si Si6 0.772695 0.081602 0.706466
Si Si7 0.936191 0.416367 0.211620
Si Si8 0.531384 0.414323 0.963621
O O1 0.565147 0.750000 0.621160
O O2 0.638813 0.967330 0.682532
O O3 0.500000 0.000000 0.500000
O O4 0.653183 0.947995 0.932159
O O5 0.773102 0.750000 0.242825
O O6 0.768680 0.989374 0.350529
O O7 0.813780 0.994754 0.239668
O O8 0.731514 0.250000 0.337992
O O9 0.769722 0.459753 0.568314
O O10 0.623997 0.471387 0.130064
O O11 0.333596 0.250000 0.397212
O O12 0.464340 0.067109 0.712750
O O13 0.304130 0.992258 0.398026
O O14 0.887713 0.250000 0.393414
O O15 0.895381 0.060032 0.243177
O O16 0.981860 0.018272 0.624949
O O17 0.757284 0.250000 0.689642
O O18 0.865420 0.034914 0.961932
O O19 0.964408 0.250000 0.258407
O O20 0.541245 0.250000 0.025406
O O21 0.500000 0.500000 0.000000
#
# Coordination Sequence:
#
# PCOD8070959 Si02
#       8
#     4   4   4   4   4   4   4   4
#     4  10  22  38  55  79 110 145 184 227 274 321
#     4  11  23  38  57  81 111 148 188 228 271 323
#     4  10  21  37  55  77 109 148 188 229 272 325
#     4  10  20  33  52  78 109 142 178 225 277 324
#     4  10  20  36  60  87 113 145 179 217 273 333
#     4  10  20  35  56  82 109 141 180 224 275 325
#     4   9  19  36  59  87 115 139 174 225 275 327
#     4  10  19  32  51  75 105 142 181 223 266 314
#
# _framework density 18.795985000000002
#
# number of rings (size 3 to 8) (size 9 to 14) (size 15 to 20)
#    0.000    2.000    1.250    2.250    0.000    4.500 
#    0.000    0.625    0.000    0.000    0.000    0.000 
#    0.000    0.000    0.000    0.000    0.000    0.000 
#
# Total GULP energy -396889.125889 kJ/mol
# GULP energy per Si atom -12402.785184 kJ/mol
# Density = 1.875320 g / cm^3
# Si number density = 18.795985 Si / 1000 Ang^3
#
#
#
# Elastic Constant Matrix: (Units=GPa)
#
#
# Indices 1 2 3 4 5 6 
#
# 1 80.0726 46.2950 39.1900 0.0000 -3.5383 0.0000
# 2 46.2950 80.2127 46.9042 0.0000 4.7213 0.0000
# 3 39.1900 46.9042 109.5970 0.0000 -6.7514 0.0000
# 4 0.0000 0.0000 0.0000 29.9024 0.0000 4.3715
# 5 -3.5383 4.7213 -6.7514 0.0000 29.4623 0.0000
# 6 0.0000 0.0000 0.0000 4.3715 0.0000 36.7308
#
#
#
# Elastic Compliance Matrix: (Units=1/GPa)
#
#
# Indices 1 2 3 4 5 6 
#
# 1 0.019714 -0.010110 -0.002513 0.000000 0.003412 0.000000
# 2 -0.010110 0.022383 -0.006349 0.000000 -0.006256 0.000000
# 3 -0.002513 -0.006349 0.012967 0.000000 0.003687 0.000000
# 4 0.000000 0.000000 0.000000 0.034034 0.000000 -0.004051
# 5 0.003412 -0.006256 0.003687 0.000000 0.036199 0.000000
# 6 0.000000 0.000000 0.000000 -0.004051 0.000000 0.027707
#
#
# Mechanical properties :
#
#
# Convention : Reuss Voigt Hill
#
# Bulk Modulus (GPa) = 58.40878 59.40675 58.90777
# Shear Modulus (GPa) = 25.42518 28.38530 26.90524
#
# Velocity S-wave (km/s) = 3.68189 3.89032 3.78754
# Velocity P-wave (km/s) = 7.01553 7.20098 7.10886
#
# Compressibility (1/GPa) = 0.01712071
#
# Stress axis : x y z
#
# Youngs Moduli (GPa) = 50.72468 44.67716 77.11673
#
# Poissons Ratio (x) = 0.45167 0.19377
# Poissons Ratio (y) = 0.51281 0.48965
# Poissons Ratio (z) = 0.12745 0.28368
#
# Static dielectric constant tensor:
#      x y z
#    x 3.727280 0.000000 -0.130540 
#    y 0.000000 3.378280 0.000000 
#    z -0.130540 0.000000 3.638310 
# 
# 
# High freq. dielectric constant tensor:
#      x y z
#    x 1.724120 0.000000 -0.007090 
#    y 0.000000 1.728590 0.000000 
#    z -0.007090 0.000000 1.734200 
# 
# From -- ./inp_files/38254.got.cif
#   From: 2010.06.25/outbox.cif.g09.slc.cpg/sg11_20_cif.got.tgz:38254.got - 2010.06.27 23:14:04.
