data_PCOD8070219
_publ_section_title
;
Structure prediction by ZEFSAII (Michael W. Deem and Ramdas Pophale) SiO2 
 PCOD8070219
Probable space group: P 21/M
;
_chemical_formula_sum "Si O2"
_cell_formula_units_Z 32
_cell_length_a 11.028831
_cell_length_b 8.816300
_cell_length_c 20.252152
_cell_angle_alpha 90.000000
_cell_angle_beta 126.113547
_cell_angle_gamma 90.000000
_cell_volume 1590.809024
_symmetry_space_group_name_H-M "P 21/M"
_symmetry_group_IT_number 11
_symmetry_cell_setting 'monoclinic'
loop_
_space_group_symop_operation_xyz
x,y,z
-x,1/2+y,-z
-x,-y,-z
x,1/2-y,z
loop_
_atom_site_type_symbol
_atom_site_label
_atom_site_fract_x
_atom_site_fract_y
_atom_site_fract_z
Si Si1 0.909833 0.569808 0.869427
Si Si2 0.795706 0.077074 0.192624
Si Si3 0.165122 0.569022 0.539729
Si Si4 0.338368 0.572508 0.462704
Si Si5 0.757407 0.069555 0.036782
Si Si6 0.653066 0.070934 0.276405
Si Si7 0.345123 0.071781 0.120307
Si Si8 0.146210 0.077133 0.292682
O O1 0.915184 0.750000 0.869961
O O2 0.806995 0.507880 0.895593
O O3 0.834320 0.519664 0.776065
O O4 0.078060 0.507695 0.932133
O O5 0.740958 0.250000 0.175940
O O6 0.731245 0.007359 0.103092
O O7 0.729942 0.995111 0.236290
O O8 0.972812 0.066492 0.255030
O O9 0.148106 0.750000 0.533772
O O10 0.248086 0.512460 0.499009
O O11 0.273398 0.507369 0.633128
O O12 0.000000 0.500000 0.500000
O O13 0.500000 0.500000 0.500000
O O14 0.364505 0.750000 0.478893
O O15 0.236342 0.537203 0.367244
O O16 0.751870 0.250000 0.034159
O O17 0.636591 0.003319 0.946317
O O18 0.678736 0.250000 0.285113
O O19 0.478147 0.028002 0.213495
O O20 0.340955 0.250000 0.107741
O O21 0.204606 0.250000 0.321139
#
# Coordination Sequence:
#
# PCOD8070219 Si02
#       8
#     4   4   4   4   4   4   4   4
#     4   8  16  30  51  74  97 135 180 215 258 321
#     4   8  15  30  52  76  99 133 177 216 262 324
#     4  10  22  40  63  87 112 147 191 238 285 339
#     4  11  24  38  56  86 119 150 186 232 288 344
#     4   9  17  31  49  71 100 133 172 215 259 314
#     4   9  18  32  52  76 102 134 175 218 263 322
#     4  10  19  30  48  73 101 134 173 216 261 315
#     4   9  17  33  58  78  99 137 183 226 270 323
#
# _framework density 20.115551
#
# number of rings (size 3 to 8) (size 9 to 14) (size 15 to 20)
#    0.000    2.750    0.000    3.000    1.750    2.500 
#    0.000    3.750    0.000    1.500    0.000    0.000 
#    0.000    0.000    0.000    0.000    0.000    0.000 
#
# Total GULP energy -396496.023080 kJ/mol
# GULP energy per Si atom -12390.500721 kJ/mol
# Density = 2.006977 g / cm^3
# Si number density = 20.115551 Si / 1000 Ang^3
#
#
#
# Elastic Constant Matrix: (Units=GPa)
#
#
# Indices 1 2 3 4 5 6 
#
# 1 93.8072 19.5947 35.0524 0.0000 -12.9038 0.0000
# 2 19.5947 26.3075 19.5900 0.0000 -0.8293 0.0000
# 3 35.0524 19.5900 140.2326 0.0000 -12.7245 0.0000
# 4 0.0000 0.0000 0.0000 29.9490 0.0000 -0.7526
# 5 -12.9038 -0.8293 -12.7245 0.0000 21.4175 0.0000
# 6 0.0000 0.0000 0.0000 -0.7526 0.0000 18.5735
#
#
#
# Elastic Compliance Matrix: (Units=1/GPa)
#
#
# Indices 1 2 3 4 5 6 
#
# 1 0.014160 -0.009120 -0.001610 0.000000 0.007222 0.000000
# 2 -0.009120 0.048380 -0.005081 0.000000 -0.006640 0.000000
# 3 -0.001610 -0.005081 0.008601 0.000000 0.003943 0.000000
# 4 0.000000 0.000000 0.000000 0.033424 0.000000 0.001354
# 5 0.007222 -0.006640 0.003943 0.000000 0.053127 0.000000
# 6 0.000000 0.000000 0.000000 0.001354 0.000000 0.053895
#
#
# Mechanical properties :
#
#
# Convention : Reuss Voigt Hill
#
# Bulk Modulus (GPa) = 25.30533 45.42462 35.36498
# Shear Modulus (GPa) = 19.50202 26.39534 22.94868
#
# Velocity S-wave (km/s) = 3.11706 3.62634 3.38130
# Velocity P-wave (km/s) = 5.05589 6.33756 5.73266
#
# Compressibility (1/GPa) = 0.03951736
#
# Stress axis : x y z
#
# Youngs Moduli (GPa) = 70.62005 20.66988 116.26400
#
# Poissons Ratio (x) = 0.18852 0.18720
# Poissons Ratio (y) = 0.64408 0.59077
# Poissons Ratio (z) = 0.11371 0.10503
#
# Static dielectric constant tensor:
#      x y z
#    x 3.976150 0.000000 -0.199140 
#    y 0.000000 3.125570 0.000000 
#    z -0.199140 0.000000 3.858070 
# 
# 
# High freq. dielectric constant tensor:
#      x y z
#    x 1.793320 0.000000 -0.008840 
#    y 0.000000 1.728270 0.000000 
#    z -0.008840 0.000000 1.800940 
# 
# From -- ./inp_files/64423.got.cif
#   From: 2010.06.25/outbox.cif.g09.slc.cpg/sg11_33_cif.got.tgz:64423.got - 2010.06.27 23:14:04.
