data_PCOD8070164
_publ_section_title
;
Structure prediction by ZEFSAII (Michael W. Deem and Ramdas Pophale) SiO2 
 PCOD8070164
Probable space group: P 21/M
;
_chemical_formula_sum "Si O2"
_cell_formula_units_Z 32
_cell_length_a 14.626837
_cell_length_b 9.082093
_cell_length_c 15.394774
_cell_angle_alpha 90.000000
_cell_angle_beta 117.933664
_cell_angle_gamma 90.000000
_cell_volume 1806.806278
_symmetry_space_group_name_H-M "P 21/M"
_symmetry_group_IT_number 11
_symmetry_cell_setting 'monoclinic'
loop_
_space_group_symop_operation_xyz
x,y,z
-x,1/2+y,-z
-x,-y,-z
x,1/2-y,z
loop_
_atom_site_type_symbol
_atom_site_label
_atom_site_fract_x
_atom_site_fract_y
_atom_site_fract_z
Si Si1 0.916562 0.081058 0.659748
Si Si2 0.426172 0.422524 0.276646
Si Si3 0.622937 0.575573 0.433853
Si Si4 0.350071 0.080540 0.904208
Si Si5 0.806725 0.077054 0.433775
Si Si6 0.261572 0.080658 0.342069
Si Si7 0.141575 0.078777 0.714427
Si Si8 0.555951 0.079226 0.896127
O O1 0.893980 0.250000 0.666828
O O2 0.880662 0.036315 0.547054
O O3 0.038030 0.044112 0.723571
O O4 0.849813 0.997801 0.703156
O O5 0.452656 0.250000 0.285259
O O6 0.511118 0.505036 0.371836
O O7 0.316111 0.451163 0.274489
O O8 0.418687 0.486091 0.177342
O O9 0.615036 0.750000 0.417606
O O10 0.698508 0.509421 0.394185
O O11 0.663416 0.527340 0.546617
O O12 0.353285 0.250000 0.936543
O O13 0.239410 0.036404 0.816538
O O14 0.436698 0.052633 0.869311
O O15 0.368852 0.975746 0.994339
O O16 0.784410 0.250000 0.417328
O O17 0.862928 0.021409 0.372603
O O18 0.237656 0.250000 0.345088
O O19 0.144717 0.250000 0.687885
O O20 0.578135 0.250000 0.887643
#
# Coordination Sequence:
#
# PCOD8070164 Si02
#       8
#     4   4   4   4   4   4   4   4
#     4   9  19  33  49  71 100 134 171 210 247 287
#     4  11  21  33  51  75 101 130 166 205 247 295
#     4  10  19  32  49  71 101 135 169 204 244 290
#     4   9  19  35  53  73 100 130 158 196 246 296
#     4  10  19  30  46  72 104 136 169 204 244 290
#     4   9  20  35  50  70  99 135 170 206 247 289
#     4  10  19  32  51  74 100 132 169 206 249 297
#     4  10  20  34  53  77 102 129 160 195 243 300
#
# _framework density 17.710808
#
# number of rings (size 3 to 8) (size 9 to 14) (size 15 to 20)
#    0.000    2.250    0.000    3.000    0.000    4.500 
#    0.000    0.000    0.000    0.750    0.000    0.000 
#    0.000    0.000    0.000    0.000    0.000    0.000 
#
# Total GULP energy -396879.184764 kJ/mol
# GULP energy per Si atom -12402.474524 kJ/mol
# Density = 1.767050 g / cm^3
# Si number density = 17.710808 Si / 1000 Ang^3
#
#
#
# Elastic Constant Matrix: (Units=GPa)
#
#
# Indices 1 2 3 4 5 6 
#
# 1 121.0443 55.1264 56.3132 0.0000 4.3191 0.0000
# 2 55.1264 80.8796 38.1591 0.0000 -1.8574 0.0000
# 3 56.3132 38.1591 68.9859 0.0000 3.1930 0.0000
# 4 0.0000 0.0000 0.0000 25.6702 0.0000 -2.8084
# 5 4.3191 -1.8574 3.1930 0.0000 27.1749 0.0000
# 6 0.0000 0.0000 0.0000 -2.8084 0.0000 31.7904
#
#
#
# Elastic Compliance Matrix: (Units=1/GPa)
#
#
# Indices 1 2 3 4 5 6 
#
# 1 0.015365 -0.006273 -0.008988 0.000000 -0.001815 0.000000
# 2 -0.006273 0.019429 -0.005765 0.000000 0.003002 0.000000
# 3 -0.008988 -0.005765 0.025110 0.000000 -0.001916 0.000000
# 4 0.000000 0.000000 0.000000 0.039336 0.000000 0.003475
# 5 -0.001815 0.003002 -0.001916 0.000000 0.037517 0.000000
# 6 0.000000 0.000000 0.000000 0.003475 0.000000 0.031763
#
#
# Mechanical properties :
#
#
# Convention : Reuss Voigt Hill
#
# Bulk Modulus (GPa) = 56.01975 63.34524 59.68250
# Shear Modulus (GPa) = 23.09217 25.01449 24.05333
#
# Velocity S-wave (km/s) = 3.61480 3.76225 3.68926
# Velocity P-wave (km/s) = 7.00866 7.39708 7.20549
#
# Compressibility (1/GPa) = 0.01785085
#
# Stress axis : x y z
#
# Youngs Moduli (GPa) = 65.08361 51.46998 39.82441
#
# Poissons Ratio (x) = 0.32290 0.35795
# Poissons Ratio (y) = 0.40830 0.22958
# Poissons Ratio (z) = 0.58498 0.29672
#
# Static dielectric constant tensor:
#      x y z
#    x 3.350230 0.000000 0.042890 
#    y 0.000000 3.326050 0.000000 
#    z 0.042890 0.000000 3.061760 
# 
# 
# High freq. dielectric constant tensor:
#      x y z
#    x 1.684960 0.000000 0.001210 
#    y 0.000000 1.692770 0.000000 
#    z 0.001210 0.000000 1.659090 
# 
# From -- ./inp_files/51608.got.cif
#   From: 2010.06.25/outbox.cif.g09.slc.cpg/sg11_26_cif.got.tgz:51608.got - 2010.06.27 23:14:04.
