data_PCOD8070567
_publ_section_title
;
Structure prediction by ZEFSAII (Michael W. Deem and Ramdas Pophale) SiO2 
 PCOD8070567
Probable space group: P 21/M
;
_chemical_formula_sum "Si O2"
_cell_formula_units_Z 32
_cell_length_a 15.718924
_cell_length_b 9.005473
_cell_length_c 25.456831
_cell_angle_alpha 90.000000
_cell_angle_beta 29.552416
_cell_angle_gamma 90.000000
_cell_volume 1777.354237
_symmetry_space_group_name_H-M "P 21/M"
_symmetry_group_IT_number 11
_symmetry_cell_setting 'monoclinic'
loop_
_space_group_symop_operation_xyz
x,y,z
-x,1/2+y,-z
-x,-y,-z
x,1/2-y,z
loop_
_atom_site_type_symbol
_atom_site_label
_atom_site_fract_x
_atom_site_fract_y
_atom_site_fract_z
Si Si1 0.970107 0.419049 0.070036
Si Si2 0.586318 0.078040 0.576017
Si Si3 0.883304 0.925360 0.349501
Si Si4 0.245684 0.076592 0.158938
Si Si5 0.546975 0.923301 0.055838
Si Si6 0.720711 0.425465 0.059002
Si Si7 0.401508 0.582201 0.759671
Si Si8 0.356946 0.082256 0.607857
O O1 0.035131 0.250000 0.031905
O O2 0.765204 0.425659 0.189563
O O3 0.000000 0.500000 0.000000
O O4 0.086663 0.503991 0.050867
O O5 0.643128 0.250000 0.546885
O O6 0.399616 0.057887 0.646375
O O7 0.736343 0.981762 0.468589
O O8 0.550949 0.020045 0.654117
O O9 0.914645 0.750000 0.341278
O O10 0.828749 0.963105 0.317604
O O11 0.054844 0.015556 0.269008
O O12 0.252277 0.250000 0.169435
O O13 0.364873 0.987959 0.135330
O O14 0.308288 0.047409 0.065968
O O15 0.525904 0.750000 0.079378
O O16 0.597390 0.009626 0.081140
O O17 0.737940 0.250000 0.043555
O O18 0.642117 0.471304 0.157873
O O19 0.471167 0.750000 0.724461
O O20 0.384914 0.250000 0.576497
O O21 0.500000 0.000000 0.500000
#
# Coordination Sequence:
#
# PCOD8070567 Si02
#       8
#     4   4   4   4   4   4   4   4
#     4   9  17  30  47  69  99 134 173 214 254 298
#     4  10  19  31  49  74 104 139 178 216 253 297
#     4  10  19  33  53  75 103 138 173 211 256 306
#     4  10  21  37  56  79 105 131 164 208 257 311
#     4  10  21  37  57  80 104 131 165 208 259 312
#     4  10  20  34  53  76 104 138 175 216 259 307
#     4   9  19  33  48  71 104 141 177 212 253 299
#     4   8  16  29  44  66  95 128 166 205 244 286
#
# _framework density 18.004289
#
# number of rings (size 3 to 8) (size 9 to 14) (size 15 to 20)
#    0.000    2.500    0.000    3.000    0.000    6.500 
#    0.000    2.500    0.000    0.750    0.000    0.000 
#    0.000    0.000    0.000    0.000    0.000    0.000 
#
# Total GULP energy -396461.687941 kJ/mol
# GULP energy per Si atom -12389.427748 kJ/mol
# Density = 1.796331 g / cm^3
# Si number density = 18.004289 Si / 1000 Ang^3
#
#
#
# Elastic Constant Matrix: (Units=GPa)
#
#
# Indices 1 2 3 4 5 6 
#
# 1 97.0767 43.0604 38.8223 0.0000 -5.5981 0.0000
# 2 43.0604 91.3315 34.4099 0.0000 -1.2520 0.0000
# 3 38.8223 34.4099 63.4583 0.0000 -5.4259 0.0000
# 4 0.0000 0.0000 0.0000 29.0800 0.0000 -3.5214
# 5 -5.5981 -1.2520 -5.4259 0.0000 20.7597 0.0000
# 6 0.0000 0.0000 0.0000 -3.5214 0.0000 31.4313
#
#
#
# Elastic Compliance Matrix: (Units=1/GPa)
#
#
# Indices 1 2 3 4 5 6 
#
# 1 0.015088 -0.004618 -0.006549 0.000000 0.002079 0.000000
# 2 -0.004618 0.015200 -0.005570 0.000000 -0.001784 0.000000
# 3 -0.006549 -0.005570 0.023122 0.000000 0.003941 0.000000
# 4 0.000000 0.000000 0.000000 0.034861 0.000000 0.003906
# 5 0.002079 -0.001784 0.003941 0.000000 0.049653 0.000000
# 6 0.000000 0.000000 0.000000 0.003906 0.000000 0.032253
#
#
# Mechanical properties :
#
#
# Convention : Reuss Voigt Hill
#
# Bulk Modulus (GPa) = 50.15658 53.82797 51.99227
# Shear Modulus (GPa) = 23.77590 25.29247 24.53419
#
# Velocity S-wave (km/s) = 3.63791 3.75214 3.69546
# Velocity P-wave (km/s) = 6.75014 6.98094 6.86651
#
# Compressibility (1/GPa) = 0.01993756
#
# Stress axis : x y z
#
# Youngs Moduli (GPa) = 66.27615 65.78812 43.24878
#
# Poissons Ratio (x) = 0.30380 0.28323
# Poissons Ratio (y) = 0.30606 0.24088
# Poissons Ratio (z) = 0.43404 0.36642
#
# Static dielectric constant tensor:
#      x y z
#    x 3.894140 0.000000 -0.045290 
#    y 0.000000 3.504610 0.000000 
#    z -0.045290 0.000000 3.080850 
# 
# 
# High freq. dielectric constant tensor:
#      x y z
#    x 1.684410 0.000000 -0.003130 
#    y 0.000000 1.714680 0.000000 
#    z -0.003130 0.000000 1.673280 
# 
# From -- ./inp_files/55708.got.cif
#   From: 2010.06.25/outbox.cif.g09.slc.cpg/sg11_28_cif.got.tgz:55708.got - 2010.06.27 23:14:04.
