data_PCOD8070126
_publ_section_title
;
Structure prediction by ZEFSAII (Michael W. Deem and Ramdas Pophale) SiO2 
 PCOD8070126
Probable space group: P 21/M
;
_chemical_formula_sum "Si O2"
_cell_formula_units_Z 32
_cell_length_a 18.139649
_cell_length_b 17.844336
_cell_length_c 12.296136
_cell_angle_alpha 90.000000
_cell_angle_beta 151.306771
_cell_angle_gamma 90.000000
_cell_volume 1910.942321
_symmetry_space_group_name_H-M "P 21/M"
_symmetry_group_IT_number 11
_symmetry_cell_setting 'monoclinic'
loop_
_space_group_symop_operation_xyz
x,y,z
-x,1/2+y,-z
-x,-y,-z
x,1/2-y,z
loop_
_atom_site_type_symbol
_atom_site_label
_atom_site_fract_x
_atom_site_fract_y
_atom_site_fract_z
Si Si1 0.430286 0.455700 0.109721
Si Si2 0.684804 0.614636 0.239272
Si Si3 0.710675 0.332412 0.956124
Si Si4 0.034757 0.167586 0.280213
Si Si5 0.369680 0.614637 0.924154
Si Si6 0.359127 0.982685 0.240334
Si Si7 0.749152 0.044301 0.428584
Si Si8 0.977917 0.017314 0.096711
O O1 0.368832 0.457886 0.153663
O O2 0.613836 0.438700 0.341503
O O3 0.335987 0.393020 0.918724
O O4 0.398600 0.534152 0.012714
O O5 0.823824 0.668085 0.452609
O O6 0.715512 0.534150 0.329618
O O7 0.529374 0.649017 0.088110
O O8 0.658413 0.250000 0.845434
O O9 0.616310 0.397659 0.772415
O O10 0.695016 0.331911 0.066226
O O11 0.888482 0.347284 0.165467
O O12 0.028599 0.250000 0.215631
O O13 0.039784 0.102342 0.195893
O O14 0.253260 0.606981 0.670531
O O15 0.500000 0.000000 0.500000
O O16 0.198309 0.992896 0.094925
O O17 0.916003 0.042112 0.700830
O O18 0.000000 0.000000 0.000000
#
# Coordination Sequence:
#
# PCOD8070126 Si02
#       8
#     4   4   4   4   4   4   4   4
#     4   8  14  26  43  64  90 114 139 176 219 262
#     4   8  14  25  43  66  89 113 140 173 216 264
#     4   9  18  31  46  66  92 120 149 185 231 279
#     4   9  18  31  46  66  92 120 149 185 231 279
#     4   8  14  25  43  66  89 113 140 173 216 264
#     4  10  19  30  46  67  91 121 158 196 231 270
#     4   8  14  26  43  64  90 114 139 176 219 262
#     4  10  19  30  46  67  91 121 158 196 231 270
#
# _framework density 16.745664999999999
#
# number of rings (size 3 to 8) (size 9 to 14) (size 15 to 20)
#    0.000    3.250    0.000    2.250    0.000    2.500 
#    0.000    5.000    0.000    1.500    0.000    3.500 
#    0.000    0.000    0.000    0.000    0.000    0.000 
#
# Total GULP energy -396440.856056 kJ/mol
# GULP energy per Si atom -12388.776752 kJ/mol
# Density = 1.670755 g / cm^3
# Si number density = 16.745665 Si / 1000 Ang^3
#
#
#
# Elastic Constant Matrix: (Units=GPa)
#
#
# Indices 1 2 3 4 5 6 
#
# 1 114.1429 35.0020 53.9551 0.0000 -13.1347 0.0000
# 2 35.0020 57.3164 37.0546 0.0000 -3.7062 0.0000
# 3 53.9551 37.0546 124.4581 0.0000 -5.4780 0.0000
# 4 0.0000 0.0000 0.0000 15.5614 0.0000 0.2613
# 5 -13.1347 -3.7062 -5.4780 0.0000 19.9152 0.0000
# 6 0.0000 0.0000 0.0000 0.2613 0.0000 15.7047
#
#
#
# Elastic Compliance Matrix: (Units=1/GPa)
#
#
# Indices 1 2 3 4 5 6 
#
# 1 0.012823 -0.004956 -0.003798 0.000000 0.006490 0.000000
# 2 -0.004956 0.023624 -0.004895 0.000000 -0.000218 0.000000
# 3 -0.003798 -0.004895 0.011123 0.000000 -0.000356 0.000000
# 4 0.000000 0.000000 0.000000 0.064279 0.000000 -0.001070
# 5 0.006490 -0.000218 -0.000356 0.000000 0.054355 0.000000
# 6 0.000000 0.000000 0.000000 -0.001070 0.000000 0.063693
#
#
# Mechanical properties :
#
#
# Convention : Reuss Voigt Hill
#
# Bulk Modulus (GPa) = 49.32688 60.88231 55.10460
# Shear Modulus (GPa) = 18.94300 21.56332 20.25316
#
# Velocity S-wave (km/s) = 3.36701 3.59234 3.48150
# Velocity P-wave (km/s) = 6.68103 7.32411 7.00994
#
# Compressibility (1/GPa) = 0.02027292
#
# Stress axis : x y z
#
# Youngs Moduli (GPa) = 77.98709 42.33064 89.90512
#
# Poissons Ratio (x) = 0.20978 0.34144
# Poissons Ratio (y) = 0.38648 0.44005
# Poissons Ratio (z) = 0.29618 0.20719
#
# Static dielectric constant tensor:
#      x y z
#    x 3.315170 0.000000 -0.009680 
#    y 0.000000 3.073330 0.000000 
#    z -0.009680 0.000000 3.320400 
# 
# 
# High freq. dielectric constant tensor:
#      x y z
#    x 1.642510 0.000000 0.007110 
#    y 0.000000 1.610390 0.000000 
#    z 0.007110 0.000000 1.638560 
# 
# From -- ./inp_files/36066.got.cif
#   From: 2010.06.25/outbox.cif.g09.slc.cpg/sg11_19_cif.got.tgz:36066.got - 2010.06.27 23:14:04.
