data_PCOD8070729
_publ_section_title
;
Structure prediction by ZEFSAII (Michael W. Deem and Ramdas Pophale) SiO2 
 PCOD8070729
Probable space group: P 21/M
;
_chemical_formula_sum "Si O2"
_cell_formula_units_Z 32
_cell_length_a 11.880697
_cell_length_b 8.983037
_cell_length_c 21.057317
_cell_angle_alpha 90.000000
_cell_angle_beta 52.052613
_cell_angle_gamma 90.000000
_cell_volume 1772.195255
_symmetry_space_group_name_H-M "P 21/M"
_symmetry_group_IT_number 11
_symmetry_cell_setting 'monoclinic'
loop_
_space_group_symop_operation_xyz
x,y,z
-x,1/2+y,-z
-x,-y,-z
x,1/2-y,z
loop_
_atom_site_type_symbol
_atom_site_label
_atom_site_fract_x
_atom_site_fract_y
_atom_site_fract_z
Si Si1 0.734723 0.923664 0.336841
Si Si2 0.083500 0.076928 0.334257
Si Si3 0.512978 0.577689 0.896635
Si Si4 0.016714 0.077540 0.211565
Si Si5 0.623084 0.421293 0.741287
Si Si6 0.562771 0.079262 0.618470
Si Si7 0.280623 0.922405 0.076948
Si Si8 0.798956 0.576205 0.457984
O O1 0.761529 0.750000 0.315420
O O2 0.584833 0.977546 0.360511
O O3 0.734495 0.962586 0.411427
O O4 0.858231 0.013613 0.257768
O O5 0.088441 0.250000 0.348991
O O6 0.071677 0.047401 0.263520
O O7 0.224788 0.000985 0.311533
O O8 0.948645 0.006351 0.416959
O O9 0.551475 0.750000 0.873512
O O10 0.513655 0.496208 0.828778
O O11 0.634929 0.509581 0.898272
O O12 0.357892 0.556338 0.982270
O O13 0.015761 0.250000 0.194004
O O14 0.122426 0.991074 0.126933
O O15 0.645720 0.250000 0.751978
O O16 0.550922 0.438872 0.697941
O O17 0.592261 0.250000 0.588632
O O18 0.690016 0.978128 0.548923
O O19 0.273399 0.750000 0.098769
O O20 0.826259 0.750000 0.456835
#
# Coordination Sequence:
#
# PCOD8070729 Si02
#       8
#     4   4   4   4   4   4   4   4
#     4   9  19  36  56  77 104 135 173 220 266 311
#     4  10  20  34  52  75 106 140 171 212 263 311
#     4  10  20  33  50  77 109 140 172 210 256 305
#     4  10  19  31  52  81 109 135 170 216 263 308
#     4  11  22  35  53  75 105 143 178 212 256 314
#     4  10  22  38  54  75 103 139 178 217 263 312
#     4  10  19  31  52  79 108 139 171 209 256 309
#     4  10  20  34  56  81 102 131 172 220 269 315
#
# _framework density 18.056701
#
# number of rings (size 3 to 8) (size 9 to 14) (size 15 to 20)
#    0.000    2.000    1.250    2.625    0.000    5.000 
#    0.000    0.000    0.000    0.750    0.000    0.000 
#    0.000    0.000    0.000    0.000    0.000    0.000 
#
# Total GULP energy -396941.969589 kJ/mol
# GULP energy per Si atom -12404.436550 kJ/mol
# Density = 1.801560 g / cm^3
# Si number density = 18.056701 Si / 1000 Ang^3
#
#
#
# Elastic Constant Matrix: (Units=GPa)
#
#
# Indices 1 2 3 4 5 6 
#
# 1 38.3653 25.4090 28.4323 0.0000 0.4202 0.0000
# 2 25.4090 107.6687 58.5527 0.0000 -5.5536 0.0000
# 3 28.4323 58.5527 115.3341 0.0000 -12.1685 0.0000
# 4 0.0000 0.0000 0.0000 34.5461 0.0000 -4.7800
# 5 0.4202 -5.5536 -12.1685 0.0000 21.7156 0.0000
# 6 0.0000 0.0000 0.0000 -4.7800 0.0000 22.5816
#
#
#
# Elastic Compliance Matrix: (Units=1/GPa)
#
#
# Indices 1 2 3 4 5 6 
#
# 1 0.034168 -0.004766 -0.006591 0.000000 -0.005574 0.000000
# 2 -0.004766 0.013498 -0.005637 0.000000 0.000386 0.000000
# 3 -0.006591 -0.005637 0.013837 0.000000 0.006439 0.000000
# 4 0.000000 0.000000 0.000000 0.029820 0.000000 0.006312
# 5 -0.005574 0.000386 0.006439 0.000000 0.049865 0.000000
# 6 0.000000 0.000000 0.000000 0.006312 0.000000 0.045620
#
#
# Mechanical properties :
#
#
# Convention : Reuss Voigt Hill
#
# Bulk Modulus (GPa) = 36.34644 54.01734 45.18189
# Shear Modulus (GPa) = 21.74221 25.70026 23.72124
#
# Velocity S-wave (km/s) = 3.47379 3.77677 3.62844
# Velocity P-wave (km/s) = 6.02183 6.99993 6.52922
#
# Compressibility (1/GPa) = 0.02751301
#
# Stress axis : x y z
#
# Youngs Moduli (GPa) = 29.26730 74.08526 72.27238
#
# Poissons Ratio (x) = 0.35311 0.47638
# Poissons Ratio (y) = 0.13950 0.40740
# Poissons Ratio (z) = 0.19291 0.41762
#
# Static dielectric constant tensor:
#      x y z
#    x 3.133160 0.000000 -0.143010 
#    y 0.000000 3.447610 0.000000 
#    z -0.143010 0.000000 3.430620 
# 
# 
# High freq. dielectric constant tensor:
#      x y z
#    x 1.670790 0.000000 -0.016400 
#    y 0.000000 1.713990 0.000000 
#    z -0.016400 0.000000 1.701790 
# 
# From -- ./inp_files/38152.got.cif
#   From: 2010.06.25/outbox.cif.g09.slc.cpg/sg11_20_cif.got.tgz:38152.got - 2010.06.27 23:14:04.
