data_PCOD8070037
_publ_section_title
;
Structure prediction by ZEFSAII (Michael W. Deem and Ramdas Pophale) SiO2 
 PCOD8070037
Probable space group: P 21/M
;
_chemical_formula_sum "Si O2"
_cell_formula_units_Z 32
_cell_length_a 19.971165
_cell_length_b 9.157440
_cell_length_c 12.317299
_cell_angle_alpha 90.000000
_cell_angle_beta 125.488945
_cell_angle_gamma 90.000000
_cell_volume 1834.166501
_symmetry_space_group_name_H-M "P 21/M"
_symmetry_group_IT_number 11
_symmetry_cell_setting 'monoclinic'
loop_
_space_group_symop_operation_xyz
x,y,z
-x,1/2+y,-z
-x,-y,-z
x,1/2-y,z
loop_
_atom_site_type_symbol
_atom_site_label
_atom_site_fract_x
_atom_site_fract_y
_atom_site_fract_z
Si Si1 0.257017 0.919568 0.169901
Si Si2 0.793193 0.421827 0.643436
Si Si3 0.477642 0.576742 0.867005
Si Si4 0.972699 0.419160 0.866641
Si Si5 0.615482 0.083803 0.882892
Si Si6 0.135462 0.418589 0.901337
Si Si7 0.769809 0.081695 0.181877
Si Si8 0.293769 0.576346 0.650660
O O1 0.234348 0.750000 0.130415
O O2 0.260512 0.960242 0.300260
O O3 0.345221 0.953160 0.197891
O O4 0.185011 0.011006 0.047010
O O5 0.797721 0.250000 0.629729
O O6 0.885748 0.483644 0.742918
O O7 0.748637 0.492126 0.496633
O O8 0.482253 0.750000 0.887148
O O9 0.540584 0.526173 0.832668
O O10 0.387743 0.523215 0.745525
O O11 0.500000 0.500000 0.000000
O O12 0.962959 0.250000 0.888672
O O13 0.038806 0.441245 0.832866
O O14 0.000000 0.500000 0.000000
O O15 0.583025 0.250000 0.856789
O O16 0.684310 0.059080 0.038948
O O17 0.159797 0.250000 0.918427
O O18 0.157526 0.491557 0.807000
O O19 0.796377 0.250000 0.205345
O O20 0.757277 0.022615 0.292213
O O21 0.293266 0.750000 0.647556
#
# Coordination Sequence:
#
# PCOD8070037 Si02
#       8
#     4   4   4   4   4   4   4   4
#     4   9  17  31  52  74  98 131 169 202 240 295
#     4   9  17  32  54  75  97 133 173 206 243 293
#     4  11  20  32  51  75 100 128 165 210 252 292
#     4  10  19  31  51  77 102 129 166 209 249 291
#     4   9  17  30  48  74 102 126 163 208 246 289
#     4  10  19  29  46  76 106 128 158 208 255 292
#     4   9  17  32  51  71  98 133 169 205 243 292
#     4   9  18  33  52  74  99 129 173 212 240 291
#
# _framework density 17.446618000000001
#
# number of rings (size 3 to 8) (size 9 to 14) (size 15 to 20)
#    0.000    2.500    2.500    1.500    0.000    2.500 
#    0.000    1.250    0.000    4.500    0.000    0.000 
#    0.000    0.000    0.000    0.000    0.000    0.000 
#
# Total GULP energy -396735.802460 kJ/mol
# GULP energy per Si atom -12397.993827 kJ/mol
# Density = 1.740691 g / cm^3
# Si number density = 17.446618 Si / 1000 Ang^3
#
#
#
# Elastic Constant Matrix: (Units=GPa)
#
#
# Indices 1 2 3 4 5 6 
#
# 1 149.0377 47.3290 79.1439 0.0000 -12.0563 0.0000
# 2 47.3290 55.7448 32.4047 0.0000 -0.5397 0.0000
# 3 79.1439 32.4047 126.6698 0.0000 -9.5436 0.0000
# 4 0.0000 0.0000 0.0000 13.9637 0.0000 -0.1186
# 5 -12.0563 -0.5397 -9.5436 0.0000 28.7159 0.0000
# 6 0.0000 0.0000 0.0000 -0.1186 0.0000 28.6304
#
#
#
# Elastic Compliance Matrix: (Units=1/GPa)
#
#
# Indices 1 2 3 4 5 6 
#
# 1 0.012153 -0.007061 -0.005551 0.000000 0.003125 0.000000
# 2 -0.007061 0.025232 -0.002288 0.000000 -0.003251 0.000000
# 3 -0.005551 -0.002288 0.012072 0.000000 0.001638 0.000000
# 4 0.000000 0.000000 0.000000 0.071617 0.000000 0.000297
# 5 0.003125 -0.003251 0.001638 0.000000 0.036619 0.000000
# 6 0.000000 0.000000 0.000000 0.000297 0.000000 0.034929
#
#
# Mechanical properties :
#
#
# Convention : Reuss Voigt Hill
#
# Bulk Modulus (GPa) = 50.87454 72.13418 61.50436
# Shear Modulus (GPa) = 21.83646 25.76698 23.80172
#
# Velocity S-wave (km/s) = 3.54166 3.84722 3.69760
# Velocity P-wave (km/s) = 6.77848 7.82114 7.31840
#
# Compressibility (1/GPa) = 0.01965620
#
# Stress axis : x y z
#
# Youngs Moduli (GPa) = 82.28676 39.63162 82.83711
#
# Poissons Ratio (x) = 0.27983 0.45986
# Poissons Ratio (y) = 0.58100 0.18956
# Poissons Ratio (z) = 0.45680 0.09069
#
# Static dielectric constant tensor:
#      x y z
#    x 3.586090 0.000000 -0.091490 
#    y 0.000000 3.054280 0.000000 
#    z -0.091490 0.000000 3.243540 
# 
# 
# High freq. dielectric constant tensor:
#      x y z
#    x 1.691810 0.000000 -0.009650 
#    y 0.000000 1.649740 0.000000 
#    z -0.009650 0.000000 1.646590 
# 
# From -- ./inp_files/42478.got.cif
#   From: 2010.06.25/outbox.cif.g09.slc.cpg/sg11_22_cif.got.tgz:42478.got - 2010.06.27 23:14:04.
