data_PCOD8070029
_publ_section_title
;
Structure prediction by ZEFSAII (Michael W. Deem and Ramdas Pophale) SiO2 
 PCOD8070029
Probable space group: P 21/M
;
_chemical_formula_sum "Si O2"
_cell_formula_units_Z 32
_cell_length_a 12.907079
_cell_length_b 13.928870
_cell_length_c 14.034852
_cell_angle_alpha 90.000000
_cell_angle_beta 42.352454
_cell_angle_gamma 90.000000
_cell_volume 1699.853050
_symmetry_space_group_name_H-M "P 21/M"
_symmetry_group_IT_number 11
_symmetry_cell_setting 'monoclinic'
loop_
_space_group_symop_operation_xyz
x,y,z
-x,1/2+y,-z
-x,-y,-z
x,1/2-y,z
loop_
_atom_site_type_symbol
_atom_site_label
_atom_site_fract_x
_atom_site_fract_y
_atom_site_fract_z
Si Si1 0.302759 0.861622 0.872643
Si Si2 0.075985 0.639025 0.182650
Si Si3 0.739692 0.861141 0.473101
Si Si4 0.958323 0.359357 0.457100
Si Si5 0.643234 0.141199 0.567271
Si Si6 0.180835 0.977323 0.278895
Si Si7 0.582154 0.521953 0.736636
Si Si8 0.579431 0.138834 0.403763
O O1 0.349851 0.750000 0.840801
O O2 0.429789 0.915235 0.850774
O O3 0.314456 0.900916 0.755769
O O4 0.134971 0.878203 0.033567
O O5 0.097209 0.750000 0.195793
O O6 0.188057 0.576298 0.173087
O O7 0.898189 0.607555 0.313802
O O8 0.744121 0.750000 0.499913
O O9 0.716292 0.923170 0.584892
O O10 0.599702 0.881147 0.495846
O O11 0.011801 0.250000 0.438573
O O12 0.821722 0.362766 0.473325
O O13 0.910400 0.405168 0.589969
O O14 0.098133 0.420531 0.319621
O O15 0.579077 0.250000 0.615211
O O16 0.623824 0.092706 0.475344
O O17 0.543699 0.077868 0.708489
O O18 0.351034 0.998456 0.204222
O O19 0.615772 0.250000 0.390624
#
# Coordination Sequence:
#
# PCOD8070029 Si02
#       8
#     4   4   4   4   4   4   4   4
#     4   9  19  33  49  71  95 121 155 193 235 280
#     4  10  19  32  49  69  96 125 154 192 234 278
#     4   9  17  29  48  72  94 118 152 194 237 276
#     4   9  17  29  46  72 100 124 155 195 236 276
#     4   9  17  29  48  72  96 123 156 192 230 276
#     4  10  19  29  46  69  95 127 159 192 233 278
#     4  10  19  31  49  71  96 123 154 195 234 274
#     4   8  15  30  50  71  94 119 152 193 234 277
#
# _framework density 18.825156
#
# number of rings (size 3 to 8) (size 9 to 14) (size 15 to 20)
#    0.000    2.750    0.000    3.750    0.000    5.000 
#    0.000    0.000    0.000    7.500    0.000    5.250 
#    0.000    0.000    0.000    0.000    0.000    0.000 
#
# Total GULP energy -396632.818044 kJ/mol
# GULP energy per Si atom -12394.775564 kJ/mol
# Density = 1.878231 g / cm^3
# Si number density = 18.825156 Si / 1000 Ang^3
#
#
#
# Elastic Constant Matrix: (Units=GPa)
#
#
# Indices 1 2 3 4 5 6 
#
# 1 78.8672 16.5314 19.0614 0.0000 11.1919 0.0000
# 2 16.5314 76.7064 14.6764 0.0000 -0.0227 0.0000
# 3 19.0614 14.6764 82.9439 0.0000 -2.2735 0.0000
# 4 0.0000 0.0000 0.0000 17.2457 0.0000 -0.0176
# 5 11.1919 -0.0227 -2.2735 0.0000 11.9717 0.0000
# 6 0.0000 0.0000 0.0000 -0.0176 0.0000 23.0373
#
#
#
# Elastic Compliance Matrix: (Units=1/GPa)
#
#
# Indices 1 2 3 4 5 6 
#
# 1 0.016459 -0.002840 -0.003721 0.000000 -0.016099 0.000000
# 2 -0.002840 0.013986 -0.001758 0.000000 0.002348 0.000000
# 3 -0.003721 -0.001758 0.013387 0.000000 0.006018 0.000000
# 4 0.000000 0.000000 0.000000 0.057986 0.000000 0.000044
# 5 -0.016099 0.002348 0.006018 0.000000 0.099728 0.000000
# 6 0.000000 0.000000 0.000000 0.000044 0.000000 0.043408
#
#
# Mechanical properties :
#
#
# Convention : Reuss Voigt Hill
#
# Bulk Modulus (GPa) = 36.77221 37.67286 37.22253
# Shear Modulus (GPa) = 18.47363 23.00081 20.73722
#
# Velocity S-wave (km/s) = 3.13601 3.49924 3.32259
# Velocity P-wave (km/s) = 5.71740 6.03172 5.87666
#
# Compressibility (1/GPa) = 0.02719445
#
# Stress axis : x y z
#
# Youngs Moduli (GPa) = 60.75794 71.50129 74.69664
#
# Poissons Ratio (x) = 0.20306 0.27796
# Poissons Ratio (y) = 0.17255 0.13129
# Poissons Ratio (z) = 0.22609 0.12568
#
# Static dielectric constant tensor:
#      x y z
#    x 3.464400 0.000000 0.077270 
#    y 0.000000 3.627680 0.000000 
#    z 0.077270 0.000000 3.228850 
# 
# 
# High freq. dielectric constant tensor:
#      x y z
#    x 1.724880 0.000000 0.003160 
#    y 0.000000 1.738570 0.000000 
#    z 0.003160 0.000000 1.692220 
# 
# From -- ./inp_files/50379.got.cif
#   From: 2010.06.25/outbox.cif.g09.slc.cpg/sg11_26_cif.got.tgz:50379.got - 2010.06.27 23:14:04.
