data_PCOD8070736
_publ_section_title
;
Structure prediction by ZEFSAII (Michael W. Deem and Ramdas Pophale) SiO2 
 PCOD8070736
Probable space group: P 21/M
;
_chemical_formula_sum "Si O2"
_cell_formula_units_Z 32
_cell_length_a 26.488274
_cell_length_b 8.816251
_cell_length_c 21.215150
_cell_angle_alpha 90.000000
_cell_angle_beta 159.155114
_cell_angle_gamma 90.000000
_cell_volume 1762.939899
_symmetry_space_group_name_H-M "P 21/M"
_symmetry_group_IT_number 11
_symmetry_cell_setting 'monoclinic'
loop_
_space_group_symop_operation_xyz
x,y,z
-x,1/2+y,-z
-x,-y,-z
x,1/2-y,z
loop_
_atom_site_type_symbol
_atom_site_label
_atom_site_fract_x
_atom_site_fract_y
_atom_site_fract_z
Si Si1 0.545922 0.082140 0.733415
Si Si2 0.647489 0.429918 0.982725
Si Si3 0.847904 0.929693 0.313656
Si Si4 0.234168 0.080483 0.425964
Si Si5 0.357583 0.576704 0.682102
Si Si6 0.650609 0.424425 0.184190
Si Si7 0.559322 0.427215 0.506281
Si Si8 0.137131 0.570419 0.191806
O O1 0.587929 0.250000 0.758189
O O2 0.392922 0.087060 0.586384
O O3 0.546507 0.969918 0.674606
O O4 0.651092 0.027549 0.912102
O O5 0.652113 0.250000 0.996946
O O6 0.782468 0.507020 0.172392
O O7 0.506430 0.489668 0.852208
O O8 0.856443 0.750000 0.319360
O O9 0.758473 0.978353 0.269541
O O10 0.000000 0.000000 0.500000
O O11 0.171530 0.250000 0.360546
O O12 0.236959 0.997083 0.496754
O O13 0.138150 0.987365 0.264918
O O14 0.383292 0.750000 0.690966
O O15 0.299519 0.567138 0.685216
O O16 0.646371 0.250000 0.155884
O O17 0.500000 0.500000 0.000000
O O18 0.500000 0.500000 0.500000
O O19 0.556126 0.250000 0.511865
O O20 0.719906 0.482969 0.678274
O O21 0.125195 0.750000 0.177735
O O22 0.000000 0.500000 0.000000
#
# Coordination Sequence:
#
# PCOD8070736 Si02
#       8
#     4   4   4   4   4   4   4   4
#     4   8  16  30  50  77 106 137 174 219 265 314
#     4  10  19  33  55  81 109 141 180 225 273 325
#     4  12  25  40  58  80 110 148 186 228 277 332
#     4   9  17  30  50  77 108 142 178 220 268 318
#     4  10  19  31  52  82 112 141 177 226 274 318
#     4  11  22  36  57  85 114 144 183 228 274 325
#     4  10  20  33  53  80 109 141 177 220 266 313
#     4  10  20  34  54  80 109 143 181 221 265 322
#
# _framework density 18.151496999999999
#
# number of rings (size 3 to 8) (size 9 to 14) (size 15 to 20)
#    0.000    2.000    1.250    4.125    0.000    6.500 
#    0.000    0.000    2.750    0.000    0.000    0.000 
#    0.000    0.000    0.000    0.000    0.000    0.000 
#
# Total GULP energy -396763.011046 kJ/mol
# GULP energy per Si atom -12398.844095 kJ/mol
# Density = 1.811018 g / cm^3
# Si number density = 18.151497 Si / 1000 Ang^3
#
#
#
# Elastic Constant Matrix: (Units=GPa)
#
#
# Indices 1 2 3 4 5 6 
#
# 1 97.2119 49.2018 58.9148 0.0000 -21.3521 0.0000
# 2 49.2018 125.7076 58.5815 0.0000 -12.9279 0.0000
# 3 58.9148 58.5815 130.1007 0.0000 -23.2675 0.0000
# 4 0.0000 0.0000 0.0000 33.4175 0.0000 -6.8975
# 5 -21.3521 -12.9279 -23.2675 0.0000 30.6232 0.0000
# 6 0.0000 0.0000 0.0000 -6.8975 0.0000 31.8098
#
#
#
# Elastic Compliance Matrix: (Units=1/GPa)
#
#
# Indices 1 2 3 4 5 6 
#
# 1 0.016294 -0.003563 -0.004642 0.000000 0.006330 0.000000
# 2 -0.003563 0.010870 -0.003361 0.000000 -0.000450 0.000000
# 3 -0.004642 -0.003361 0.012116 0.000000 0.004550 0.000000
# 4 0.000000 0.000000 0.000000 0.031327 0.000000 0.006793
# 5 0.006330 -0.000450 0.004550 0.000000 0.040336 0.000000
# 6 0.000000 0.000000 0.000000 0.006793 0.000000 0.032910
#
#
# Mechanical properties :
#
#
# Convention : Reuss Voigt Hill
#
# Bulk Modulus (GPa) = 61.93395 76.26848 69.10121
# Shear Modulus (GPa) = 29.00803 31.59156 30.29979
#
# Velocity S-wave (km/s) = 4.00197 4.17638 4.09011
# Velocity P-wave (km/s) = 7.45312 8.08487 7.77542
#
# Compressibility (1/GPa) = 0.01614623
#
# Stress axis : x y z
#
# Youngs Moduli (GPa) = 61.37305 91.99848 82.53772
#
# Poissons Ratio (x) = 0.32781 0.38315
# Poissons Ratio (y) = 0.21868 0.27743
# Poissons Ratio (z) = 0.28490 0.30923
#
# Static dielectric constant tensor:
#      x y z
#    x 3.329780 0.000000 -0.420530 
#    y 0.000000 3.602520 0.000000 
#    z -0.420530 0.000000 3.382620 
# 
# 
# High freq. dielectric constant tensor:
#      x y z
#    x 1.689750 0.000000 -0.034920 
#    y 0.000000 1.720780 0.000000 
#    z -0.034920 0.000000 1.686740 
# 
# From -- ./inp_files/67131.got.cif
#   From: 2010.06.25/outbox.cif.g09.slc.cpg/sg11_34_cif.got.tgz:67131.got - 2010.06.27 23:14:04.
