data_PCOD8070344
_publ_section_title
;
Structure prediction by ZEFSAII (Michael W. Deem and Ramdas Pophale) SiO2 
 PCOD8070344
Probable space group: P 21/M
;
_chemical_formula_sum "Si O2"
_cell_formula_units_Z 28
_cell_length_a 21.525669
_cell_length_b 8.847365
_cell_length_c 11.555059
_cell_angle_alpha 90.000000
_cell_angle_beta 130.719718
_cell_angle_gamma 90.000000
_cell_volume 1667.862851
_symmetry_space_group_name_H-M "P 21/M"
_symmetry_group_IT_number 11
_symmetry_cell_setting 'monoclinic'
loop_
_space_group_symop_operation_xyz
x,y,z
-x,1/2+y,-z
-x,-y,-z
x,1/2-y,z
loop_
_atom_site_type_symbol
_atom_site_label
_atom_site_fract_x
_atom_site_fract_y
_atom_site_fract_z
Si Si1 0.932170 0.075601 0.293009
Si Si2 0.892607 0.577531 0.478523
Si Si3 0.548050 0.572643 0.394719
Si Si4 0.759188 0.424882 0.025961
Si Si5 0.731855 0.072345 0.254758
Si Si6 0.378996 0.571743 0.305454
Si Si7 0.428587 0.429074 0.837838
O O1 0.925351 0.250000 0.330743
O O2 0.855569 0.047150 0.112046
O O3 0.022407 0.050953 0.344180
O O4 0.920361 0.957185 0.381700
O O5 0.862949 0.750000 0.453155
O O6 0.817008 0.470808 0.424391
O O7 0.560022 0.750000 0.416232
O O8 0.457578 0.523543 0.325199
O O9 0.616132 0.499071 0.560965
O O10 0.561096 0.513244 0.280894
O O11 0.736472 0.250000 0.999585
O O12 0.739397 0.484782 0.131233
O O13 0.700473 0.498457 0.857352
O O14 0.716164 0.250000 0.246517
O O15 0.658944 0.982397 0.224410
O O16 0.373265 0.750000 0.314158
O O17 0.435636 0.250000 0.854363
O O18 0.500000 0.500000 0.000000
#
# Coordination Sequence:
#
# PCOD8070344 Si02
#       7
#     4   4   4   4   4   4   4
#     4   8  14  24  39  60  89 122 151 184 227 271
#     4   9  15  24  39  61  89 120 154 186 221 269
#     4   9  19  33  46  64  91 119 146 181 224 262
#     4   8  14  26  44  66  91 119 149 183 225 266
#     4  10  19  31  46  65  93 125 154 185 224 268
#     4   9  16  29  49  67  85 114 151 184 216 262
#     4  11  22  35  50  68  92 120 150 184 222 265
#
# _framework density 16.787951
#
# number of rings (size 3 to 8) (size 9 to 14) (size 15 to 20)
#    0.000    2.857    0.000    3.000    0.000    4.000 
#    0.000    6.429    0.000    0.000    0.000    1.000 
#    0.000    0.000    0.000    0.000    0.000    0.000 
#
# Total GULP energy -346920.822178 kJ/mol
# GULP energy per Si atom -12390.029364 kJ/mol
# Density = 1.674974 g / cm^3
# Si number density = 16.787951 Si / 1000 Ang^3
#
#
#
# Elastic Constant Matrix: (Units=GPa)
#
#
# Indices 1 2 3 4 5 6 
#
# 1 82.5052 22.3555 69.4656 0.0000 11.8049 0.0000
# 2 22.3555 34.4738 30.2531 0.0000 0.9018 0.0000
# 3 69.4656 30.2531 148.6141 0.0000 16.5168 0.0000
# 4 0.0000 0.0000 0.0000 23.2750 0.0000 3.4148
# 5 11.8049 0.9018 16.5168 0.0000 28.1075 0.0000
# 6 0.0000 0.0000 0.0000 3.4148 0.0000 22.7960
#
#
#
# Elastic Compliance Matrix: (Units=1/GPa)
#
#
# Indices 1 2 3 4 5 6 
#
# 1 0.021382 -0.006545 -0.008224 0.000000 -0.003937 0.000000
# 2 -0.006545 0.037610 -0.005101 0.000000 0.004540 0.000000
# 3 -0.008224 -0.005101 0.011993 0.000000 -0.003429 0.000000
# 4 0.000000 0.000000 0.000000 0.043930 0.000000 -0.006581
# 5 -0.003937 0.004540 -0.003429 0.000000 0.039101 0.000000
# 6 0.000000 0.000000 0.000000 -0.006581 0.000000 0.044853
#
#
# Mechanical properties :
#
#
# Convention : Reuss Voigt Hill
#
# Bulk Modulus (GPa) = 32.00757 56.63795 44.32276
# Shear Modulus (GPa) = 20.07835 24.40364 22.24100
#
# Velocity S-wave (km/s) = 3.46207 3.81680 3.64375
# Velocity P-wave (km/s) = 5.92355 7.29619 6.64541
#
# Compressibility (1/GPa) = 0.03124261
#
# Stress axis : x y z
#
# Youngs Moduli (GPa) = 46.76872 26.58871 83.38399
#
# Poissons Ratio (x) = 0.17403 0.68578
# Poissons Ratio (y) = 0.30611 0.42537
# Poissons Ratio (z) = 0.38464 0.13564
#
# Static dielectric constant tensor:
#      x y z
#    x 3.096310 0.000000 0.372170 
#    y 0.000000 3.048720 0.000000 
#    z 0.372170 0.000000 3.502040 
# 
# 
# High freq. dielectric constant tensor:
#      x y z
#    x 1.615500 0.000000 0.037470 
#    y 0.000000 1.639800 0.000000 
#    z 0.037470 0.000000 1.644270 
# 
# From -- ./inp_files/42379.got.cif
#   From: 2010.06.25/outbox.cif.g09.slc.cpg/sg11_22_cif.got.tgz:42379.got - 2010.06.27 23:14:04.
