data_PCOD8070289
_publ_section_title
;
Structure prediction by ZEFSAII (Michael W. Deem and Ramdas Pophale) SiO2 
 PCOD8070289
Probable space group: P 21/M
;
_chemical_formula_sum "Si O2"
_cell_formula_units_Z 32
_cell_length_a 28.854218
_cell_length_b 9.039163
_cell_length_c 12.125595
_cell_angle_alpha 90.000000
_cell_angle_beta 34.580098
_cell_angle_gamma 90.000000
_cell_volume 1794.943051
_symmetry_space_group_name_H-M "P 21/M"
_symmetry_group_IT_number 11
_symmetry_cell_setting 'monoclinic'
loop_
_space_group_symop_operation_xyz
x,y,z
-x,1/2+y,-z
-x,-y,-z
x,1/2-y,z
loop_
_atom_site_type_symbol
_atom_site_label
_atom_site_fract_x
_atom_site_fract_y
_atom_site_fract_z
Si Si1 0.813501 0.577428 0.328482
Si Si2 0.123067 0.425644 0.560913
Si Si3 0.701531 0.418193 0.395218
Si Si4 0.222034 0.924215 0.173956
Si Si5 0.162222 0.920422 0.049255
Si Si6 0.384562 0.420750 0.806814
Si Si7 0.436700 0.920070 0.487537
Si Si8 0.049707 0.075151 0.111630
O O1 0.804224 0.750000 0.335842
O O2 0.826840 0.528364 0.427977
O O3 0.728904 0.510631 0.448212
O O4 0.889842 0.524469 0.104811
O O5 0.117472 0.250000 0.558842
O O6 0.167500 0.495471 0.370406
O O7 0.033493 0.491180 0.748089
O O8 0.709184 0.250000 0.417461
O O9 0.609118 0.457262 0.537957
O O10 0.757784 0.452884 0.179460
O O11 0.222635 0.750000 0.194454
O O12 0.182951 0.964861 0.133129
O O13 0.314137 0.983835 0.001753
O O14 0.135107 0.750000 0.093619
O O15 0.087676 0.022405 0.153746
O O16 0.357692 0.250000 0.856282
O O17 0.466622 0.443276 0.718709
O O18 0.401926 0.472859 0.649028
O O19 0.417320 0.750000 0.560408
O O20 0.034436 0.250000 0.145052
#
# Coordination Sequence:
#
# PCOD8070289 Si02
#       8
#     4   4   4   4   4   4   4   4
#     4   9  20  36  54  78 105 131 168 221 263 303
#     4  11  23  38  54  74 102 137 176 214 261 311
#     4   9  16  30  53  78 105 136 169 210 257 305
#     4  11  22  37  54  73 106 142 177 215 254 310
#     4   9  18  33  52  74 103 138 169 207 259 305
#     4  10  19  30  50  78 109 142 173 209 255 306
#     4   9  17  31  50  78 111 140 172 210 254 304
#     4  10  20  35  56  80 103 129 168 216 263 309
#
# _framework density 17.827864000000002
#
# number of rings (size 3 to 8) (size 9 to 14) (size 15 to 20)
#    0.000    2.250    1.250    1.875    0.000    4.000 
#    0.000    0.000    0.000    0.750    0.000    0.000 
#    0.000    0.000    0.000    0.000    0.000    0.000 
#
# Total GULP energy -396816.403935 kJ/mol
# GULP energy per Si atom -12400.512623 kJ/mol
# Density = 1.778729 g / cm^3
# Si number density = 17.827864 Si / 1000 Ang^3
#
#
#
# Elastic Constant Matrix: (Units=GPa)
#
#
# Indices 1 2 3 4 5 6 
#
# 1 103.2340 43.7236 -2.4639 0.0000 -2.1053 0.0000
# 2 43.7236 66.7870 15.4786 0.0000 -0.9661 0.0000
# 3 -2.4639 15.4786 -13.5839 0.0000 8.0060 0.0000
# 4 0.0000 0.0000 0.0000 27.2649 0.0000 -3.2358
# 5 -2.1053 -0.9661 8.0060 0.0000 23.8414 0.0000
# 6 0.0000 0.0000 0.0000 -3.2358 0.0000 32.2131
#
#
#
# Elastic Compliance Matrix: (Units=1/GPa)
#
#
# Indices 1 2 3 4 5 6 
#
# 1 0.012222 -0.006243 -0.007382 0.000000 0.003305 0.000000
# 2 -0.006243 0.015370 0.015600 0.000000 -0.005167 0.000000
# 3 -0.007382 0.015600 -0.045507 0.000000 0.015261 0.000000
# 4 0.000000 0.000000 0.000000 0.037120 0.000000 0.003729
# 5 0.003305 -0.005167 0.015261 0.000000 0.036902 0.000000
# 6 0.000000 0.000000 0.000000 0.003729 0.000000 0.031418
#
#
# Mechanical properties :
#
#
# Convention : Reuss Voigt Hill
#
# Bulk Modulus (GPa) = -71.61235 29.99041 -20.81097
# Shear Modulus (GPa) = 63.35644 23.31045 43.33344
#
# Velocity S-wave (km/s) = 5.96783 3.61990 4.93552
# Velocity P-wave (km/s) = 2.68900 5.85921 4.55856
#
# Compressibility (1/GPa) = -0.01396407
#
# Stress axis : x y z
#
# Youngs Moduli (GPa) = 81.82006 65.06361 -21.97488
#
# Poissons Ratio (x) = 0.40617 -0.16222
# Poissons Ratio (y) = 0.51077 0.34282
# Poissons Ratio (z) = 0.60401 -1.01501
#
# Static dielectric constant tensor:
#      x y z
#    x 3.548360 0.000000 -0.161190 
#    y 0.000000 3.362240 0.000000 
#    z -0.161190 0.000000 3.157660 
# 
# 
# High freq. dielectric constant tensor:
#      x y z
#    x 1.697560 0.000000 -0.017120 
#    y 0.000000 1.697120 0.000000 
#    z -0.017120 0.000000 1.659770 
# 
# From -- ./inp_files/38184.got.cif
#   From: 2010.06.25/outbox.cif.g09.slc.cpg/sg11_20_cif.got.tgz:38184.got - 2010.06.27 23:14:04.
