data_PCOD8070349
_publ_section_title
;
Structure prediction by ZEFSAII (Michael W. Deem and Ramdas Pophale) SiO2 
 PCOD8070349
Probable space group: P 21/M
;
_chemical_formula_sum "Si O2"
_cell_formula_units_Z 32
_cell_length_a 14.577882
_cell_length_b 9.451493
_cell_length_c 14.240264
_cell_angle_alpha 90.000000
_cell_angle_beta 73.048920
_cell_angle_gamma 90.000000
_cell_volume 1876.819029
_symmetry_space_group_name_H-M "P 21/M"
_symmetry_group_IT_number 11
_symmetry_cell_setting 'monoclinic'
loop_
_space_group_symop_operation_xyz
x,y,z
-x,1/2+y,-z
-x,-y,-z
x,1/2-y,z
loop_
_atom_site_type_symbol
_atom_site_label
_atom_site_fract_x
_atom_site_fract_y
_atom_site_fract_z
Si Si1 0.351526 0.587916 0.315408
Si Si2 0.250418 0.915429 0.167004
Si Si3 0.438792 0.405643 0.793587
Si Si4 0.596167 0.083694 0.498615
Si Si5 0.112729 0.915349 0.873524
Si Si6 0.072352 0.588127 0.096345
Si Si7 0.594477 0.589068 0.987683
Si Si8 0.697029 0.087120 0.282526
O O1 0.332437 0.750000 0.342507
O O2 0.264892 0.535998 0.272306
O O3 0.448492 0.559917 0.226835
O O4 0.361683 0.518570 0.415951
O O5 0.280300 0.750000 0.146324
O O6 0.142404 0.939461 0.163640
O O7 0.315474 0.013691 0.084099
O O8 0.428572 0.250000 0.750442
O O9 0.394874 0.518163 0.737191
O O10 0.384434 0.409124 0.908101
O O11 0.568898 0.250000 0.514909
O O12 0.682633 0.062539 0.398022
O O13 0.500000 0.000000 0.500000
O O14 0.099869 0.750000 0.858044
O O15 0.203766 0.976520 0.788085
O O16 0.124313 0.947915 0.981374
O O17 0.019471 0.991148 0.859901
O O18 0.037848 0.750000 0.104625
O O19 0.582494 0.750000 0.953115
O O20 0.500000 0.500000 0.000000
O O21 0.693929 0.250000 0.255345
#
# Coordination Sequence:
#
# PCOD8070349 Si02
#       8
#     4   4   4   4   4   4   4   4
#     4   9  17  31  48  67  96 131 162 196 240 289
#     4  10  19  34  52  70  97 131 166 204 244 291
#     4  10  19  31  46  67  97 132 164 195 239 289
#     4  10  19  32  50  71  97 129 168 204 244 291
#     4   9  18  33  50  72 101 125 154 202 251 293
#     4   9  18  32  53  75  95 125 162 199 243 296
#     4  11  21  31  44  66  97 132 166 197 235 286
#     4  10  20  32  50  75  98 127 164 206 251 290
#
# _framework density 17.050125999999999
#
# number of rings (size 3 to 8) (size 9 to 14) (size 15 to 20)
#    0.000    2.250    2.500    1.125    0.000    3.000 
#    0.000    3.125    0.000    0.750    0.000    0.000 
#    0.000    0.000    0.000    0.000    0.000    0.000 
#
# Total GULP energy -396565.471828 kJ/mol
# GULP energy per Si atom -12392.670995 kJ/mol
# Density = 1.701132 g / cm^3
# Si number density = 17.050126 Si / 1000 Ang^3
#
#
#
# Elastic Constant Matrix: (Units=GPa)
#
#
# Indices 1 2 3 4 5 6 
#
# 1 94.5706 33.0093 53.2601 0.0000 17.2575 0.0000
# 2 33.0093 49.2165 22.9981 0.0000 4.0478 0.0000
# 3 53.2601 22.9981 101.1603 0.0000 13.3869 0.0000
# 4 0.0000 0.0000 0.0000 17.9337 0.0000 0.4561
# 5 17.2575 4.0478 13.3869 0.0000 29.4810 0.0000
# 6 0.0000 0.0000 0.0000 0.4561 0.0000 27.5948
#
#
#
# Elastic Compliance Matrix: (Units=1/GPa)
#
#
# Indices 1 2 3 4 5 6 
#
# 1 0.018805 -0.008784 -0.007029 0.000000 -0.006610 0.000000
# 2 -0.008784 0.026856 -0.001780 0.000000 0.002263 0.000000
# 3 -0.007029 -0.001780 0.014271 0.000000 -0.002121 0.000000
# 4 0.000000 0.000000 0.000000 0.055785 0.000000 -0.000922
# 5 -0.006610 0.002263 -0.002121 0.000000 0.038442 0.000000
# 6 0.000000 0.000000 0.000000 -0.000922 0.000000 0.036254
#
#
# Mechanical properties :
#
#
# Convention : Reuss Voigt Hill
#
# Bulk Modulus (GPa) = 40.41131 51.49803 45.95467
# Shear Modulus (GPa) = 21.38146 24.04723 22.71435
#
# Velocity S-wave (km/s) = 3.54508 3.75958 3.65390
# Velocity P-wave (km/s) = 6.36472 7.00824 6.69422
#
# Compressibility (1/GPa) = 0.02474555
#
# Stress axis : x y z
#
# Youngs Moduli (GPa) = 53.17752 37.23617 70.07031
#
# Poissons Ratio (x) = 0.32709 0.49252
# Poissons Ratio (y) = 0.46712 0.12473
# Poissons Ratio (z) = 0.37378 0.06628
#
# Static dielectric constant tensor:
#      x y z
#    x 3.095780 0.000000 0.097360 
#    y 0.000000 3.164450 0.000000 
#    z 0.097360 0.000000 3.488930 
# 
# 
# High freq. dielectric constant tensor:
#      x y z
#    x 1.638970 0.000000 0.010770 
#    y 0.000000 1.647610 0.000000 
#    z 0.010770 0.000000 1.654260 
# 
# From -- ./inp_files/51183.got.cif
#   From: 2010.06.25/outbox.cif.g09.slc.cpg/sg11_26_cif.got.tgz:51183.got - 2010.06.27 23:14:04.
