data_PCOD8070722
_publ_section_title
;
Structure prediction by ZEFSAII (Michael W. Deem and Ramdas Pophale) SiO2 
 PCOD8070722
Probable space group: P 21/M
;
_chemical_formula_sum "Si O2"
_cell_formula_units_Z 32
_cell_length_a 21.916891
_cell_length_b 9.011297
_cell_length_c 28.355505
_cell_angle_alpha 90.000000
_cell_angle_beta 161.309678
_cell_angle_gamma 90.000000
_cell_volume 1794.601249
_symmetry_space_group_name_H-M "P 21/M"
_symmetry_group_IT_number 11
_symmetry_cell_setting 'monoclinic'
loop_
_space_group_symop_operation_xyz
x,y,z
-x,1/2+y,-z
-x,-y,-z
x,1/2-y,z
loop_
_atom_site_type_symbol
_atom_site_label
_atom_site_fract_x
_atom_site_fract_y
_atom_site_fract_z
Si Si1 0.815235 0.922912 0.345245
Si Si2 0.114785 0.576013 0.941014
Si Si3 0.691920 0.920550 0.154018
Si Si4 0.410434 0.576788 0.083803
Si Si5 0.946978 0.576612 0.912810
Si Si6 0.525596 0.575492 0.569079
Si Si7 0.121992 0.421588 0.805956
Si Si8 0.173282 0.073746 0.350332
O O1 0.858630 0.750000 0.374982
O O2 0.773759 0.986339 0.262673
O O3 0.635108 0.957487 0.247539
O O4 0.000000 0.000000 0.500000
O O5 0.088809 0.750000 0.926671
O O6 0.082822 0.510961 0.970179
O O7 0.949716 0.520453 0.784860
O O8 0.321121 0.534135 0.069778
O O9 0.637886 0.750000 0.122193
O O10 0.850320 0.941260 0.229665
O O11 0.500000 0.000000 0.000000
O O12 0.369043 0.750000 0.042855
O O13 0.309512 0.482661 0.969261
O O14 0.979875 0.750000 0.944052
O O15 0.731590 0.540510 0.740943
O O16 0.000000 0.500000 0.000000
O O17 0.500000 0.500000 0.500000
O O18 0.491086 0.750000 0.538094
O O19 0.377291 0.504680 0.497257
O O20 0.094075 0.250000 0.799403
O O21 0.935081 0.515481 0.682567
O O22 0.198262 0.250000 0.371349
#
# Coordination Sequence:
#
# PCOD8070722 Si02
#       8
#     4   4   4   4   4   4   4   4
#     4  10  21  36  53  78 109 145 184 225 273 325
#     4   8  15  31  53  76 103 135 172 221 269 315
#     4  10  20  34  54  80 110 141 178 223 274 324
#     4   9  17  32  55  77 103 139 179 222 271 324
#     4  10  21  37  54  78 111 145 181 223 272 326
#     4  11  21  35  56  83 113 143 182 228 277 327
#     4  10  19  31  51  82 113 140 175 225 278 326
#     4  10  19  34  55  80 110 144 182 226 277 326
#
# _framework density 17.83126
#
# number of rings (size 3 to 8) (size 9 to 14) (size 15 to 20)
#    0.000    2.250    2.500    1.875    0.000    2.500 
#    0.000    1.875    0.000    3.000    0.000    0.000 
#    0.000    0.000    0.000    0.000    0.000    0.000 
#
# Total GULP energy -396716.567594 kJ/mol
# GULP energy per Si atom -12397.392737 kJ/mol
# Density = 1.779068 g / cm^3
# Si number density = 17.831260 Si / 1000 Ang^3
#
#
#
# Elastic Constant Matrix: (Units=GPa)
#
#
# Indices 1 2 3 4 5 6 
#
# 1 150.8274 47.9681 78.7429 0.0000 8.1832 0.0000
# 2 47.9681 68.6368 53.7240 0.0000 4.2009 0.0000
# 3 78.7429 53.7240 114.5808 0.0000 8.2580 0.0000
# 4 0.0000 0.0000 0.0000 30.8736 0.0000 1.7065
# 5 8.1832 4.2009 8.2580 0.0000 29.8402 0.0000
# 6 0.0000 0.0000 0.0000 1.7065 0.0000 27.8274
#
#
#
# Elastic Compliance Matrix: (Units=1/GPa)
#
#
# Indices 1 2 3 4 5 6 
#
# 1 0.010672 -0.002707 -0.006001 0.000000 -0.000885 0.000000
# 2 -0.002707 0.023705 -0.009252 0.000000 -0.000035 0.000000
# 3 -0.006001 -0.009252 0.017323 0.000000 -0.001846 0.000000
# 4 0.000000 0.000000 0.000000 0.032500 0.000000 -0.001993
# 5 -0.000885 -0.000035 -0.001846 0.000000 0.034270 0.000000
# 6 0.000000 0.000000 0.000000 -0.001993 0.000000 0.036058
#
#
# Mechanical properties :
#
#
# Convention : Reuss Voigt Hill
#
# Bulk Modulus (GPa) = 63.37238 77.21278 70.29258
# Shear Modulus (GPa) = 25.54825 27.94890 26.74857
#
# Velocity S-wave (km/s) = 3.78931 3.96335 3.87731
# Velocity P-wave (km/s) = 7.40016 8.02123 7.71694
#
# Compressibility (1/GPa) = 0.01577975
#
# Stress axis : x y z
#
# Youngs Moduli (GPa) = 93.70313 42.18491 57.72805
#
# Poissons Ratio (x) = 0.11419 0.34643
# Poissons Ratio (y) = 0.25365 0.53410
# Poissons Ratio (z) = 0.56232 0.39029
#
# Static dielectric constant tensor:
#      x y z
#    x 3.858980 0.000000 0.192970 
#    y 0.000000 3.248970 0.000000 
#    z 0.192970 0.000000 3.200740 
# 
# 
# High freq. dielectric constant tensor:
#      x y z
#    x 1.702620 0.000000 0.021670 
#    y 0.000000 1.682020 0.000000 
#    z 0.021670 0.000000 1.666880 
# 
# From -- ./inp_files/72069.got.cif
#   From: 2010.06.25/outbox.cif.g09.slc.cpg/sg11_37_cif.got.tgz:72069.got - 2010.06.27 23:14:04.
