data_PCOD8070517
_publ_section_title
;
Structure prediction by ZEFSAII (Michael W. Deem and Ramdas Pophale) SiO2 
 PCOD8070517
Probable space group: P 21/M
;
_chemical_formula_sum "Si O2"
_cell_formula_units_Z 28
_cell_length_a 19.920956
_cell_length_b 9.225980
_cell_length_c 18.275997
_cell_angle_alpha 90.000000
_cell_angle_beta 28.418744
_cell_angle_gamma 90.000000
_cell_volume 1598.565288
_symmetry_space_group_name_H-M "P 21/M"
_symmetry_group_IT_number 11
_symmetry_cell_setting 'monoclinic'
loop_
_space_group_symop_operation_xyz
x,y,z
-x,1/2+y,-z
-x,-y,-z
x,1/2-y,z
loop_
_atom_site_type_symbol
_atom_site_label
_atom_site_fract_x
_atom_site_fract_y
_atom_site_fract_z
Si Si1 0.784653 0.578650 0.519503
Si Si2 0.836578 0.919338 0.304944
Si Si3 0.419532 0.918045 0.185911
Si Si4 0.089527 0.585195 0.971273
Si Si5 0.649909 0.078184 0.363009
Si Si6 0.669295 0.412996 0.889251
Si Si7 0.985251 0.414412 0.588189
O O1 0.765539 0.750000 0.542234
O O2 0.809415 0.527450 0.413110
O O3 0.644761 0.502927 0.683946
O O4 0.915906 0.523618 0.442553
O O5 0.796970 0.750000 0.332347
O O6 0.736761 0.014766 0.348425
O O7 0.007005 0.942071 0.127245
O O8 0.423161 0.750000 0.202105
O O9 0.330821 0.951372 0.197217
O O10 0.578055 0.974037 0.022604
O O11 0.074766 0.750000 0.961719
O O12 0.256563 0.545606 0.801313
O O13 0.000000 0.500000 0.000000
O O14 0.625212 0.250000 0.397534
O O15 0.500000 0.000000 0.500000
O O16 0.608824 0.250000 0.957295
O O17 0.826132 0.425681 0.770112
O O18 0.026961 0.250000 0.530148
O O19 0.000000 0.500000 0.500000
#
# Coordination Sequence:
#
# PCOD8070517 Si02
#       7
#     4   4   4   4   4   4   4
#     4  10  20  33  52  75 101 132 167 211 262 311
#     4   9  18  34  53  75 102 134 170 208 253 307
#     4  10  19  31  49  71  97 131 168 210 257 307
#     4   8  15  29  50  73  99 130 167 204 242 290
#     4  10  19  32  53  81 108 136 169 209 248 294
#     4   9  18  32  48  69  96 127 168 215 259 306
#     4  10  19  32  50  73  98 127 168 215 259 304
#
# _framework density 17.515706999999999
#
# number of rings (size 3 to 8) (size 9 to 14) (size 15 to 20)
#    0.000    2.571    1.429    0.857    0.000    2.286 
#    0.000    1.429    0.000    5.143    0.000    0.000 
#    0.000    0.000    0.000    0.000    0.000    0.000 
#
# Total GULP energy -346942.579147 kJ/mol
# GULP energy per Si atom -12390.806398 kJ/mol
# Density = 1.747584 g / cm^3
# Si number density = 17.515707 Si / 1000 Ang^3
#
#
#
# Elastic Constant Matrix: (Units=GPa)
#
#
# Indices 1 2 3 4 5 6 
#
# 1 74.2290 34.2151 56.7403 0.0000 5.1319 0.0000
# 2 34.2151 56.7418 51.7127 0.0000 3.2023 0.0000
# 3 56.7403 51.7127 143.9049 0.0000 9.2136 0.0000
# 4 0.0000 0.0000 0.0000 28.7939 0.0000 -0.5978
# 5 5.1319 3.2023 9.2136 0.0000 28.1045 0.0000
# 6 0.0000 0.0000 0.0000 -0.5978 0.0000 21.7439
#
#
#
# Elastic Compliance Matrix: (Units=1/GPa)
#
#
# Indices 1 2 3 4 5 6 
#
# 1 0.021385 -0.007751 -0.005570 0.000000 -0.001196 0.000000
# 2 -0.007751 0.029016 -0.007405 0.000000 0.000537 0.000000
# 3 -0.005570 -0.007405 0.011938 0.000000 -0.002053 0.000000
# 4 0.000000 0.000000 0.000000 0.034749 0.000000 0.000955
# 5 -0.001196 0.000537 -0.002053 0.000000 0.036412 0.000000
# 6 0.000000 0.000000 0.000000 0.000955 0.000000 0.046016
#
#
# Mechanical properties :
#
#
# Convention : Reuss Voigt Hill
#
# Bulk Modulus (GPa) = 47.87871 62.24578 55.06224
# Shear Modulus (GPa) = 21.93645 24.54231 23.23938
#
# Velocity S-wave (km/s) = 3.54275 3.74727 3.64644
# Velocity P-wave (km/s) = 6.64295 7.37136 7.01662
#
# Compressibility (1/GPa) = 0.02088611
#
# Stress axis : x y z
#
# Youngs Moduli (GPa) = 46.76181 34.46331 83.76841
#
# Poissons Ratio (x) = 0.26714 0.46658
# Poissons Ratio (y) = 0.36247 0.62032
# Poissons Ratio (z) = 0.26046 0.25521
#
# Static dielectric constant tensor:
#      x y z
#    x 2.997880 0.000000 0.018250 
#    y 0.000000 3.292160 0.000000 
#    z 0.018250 0.000000 3.728810 
# 
# 
# High freq. dielectric constant tensor:
#      x y z
#    x 1.637050 0.000000 -0.004970 
#    y 0.000000 1.680460 0.000000 
#    z -0.004970 0.000000 1.692750 
# 
# From -- ./inp_files/61227.got.cif
#   From: 2010.06.25/outbox.cif.g09.slc.cpg/sg11_31_cif.got.tgz:61227.got - 2010.06.27 23:14:04.
