data_PCOD8070072
_publ_section_title
;
Structure prediction by ZEFSAII (Michael W. Deem and Ramdas Pophale) SiO2 
 PCOD8070072
Probable space group: P 21/M
;
_chemical_formula_sum "Si O2"
_cell_formula_units_Z 28
_cell_length_a 13.300846
_cell_length_b 9.015253
_cell_length_c 27.055794
_cell_angle_alpha 90.000000
_cell_angle_beta 31.243573
_cell_angle_gamma 90.000000
_cell_volume 1682.731239
_symmetry_space_group_name_H-M "P 21/M"
_symmetry_group_IT_number 11
_symmetry_cell_setting 'monoclinic'
loop_
_space_group_symop_operation_xyz
x,y,z
-x,1/2+y,-z
-x,-y,-z
x,1/2-y,z
loop_
_atom_site_type_symbol
_atom_site_label
_atom_site_fract_x
_atom_site_fract_y
_atom_site_fract_z
Si Si1 0.903642 0.078763 0.930600
Si Si2 0.657767 0.916007 0.798255
Si Si3 0.716544 0.415129 0.109054
Si Si4 0.056697 0.075949 0.403600
Si Si5 0.444391 0.074748 0.972496
Si Si6 0.283714 0.075620 0.405559
Si Si7 0.325935 0.079191 0.774124
O O1 0.840354 0.250000 0.949134
O O2 0.130945 0.054274 0.823317
O O3 0.868233 0.036428 0.002928
O O4 0.772033 0.977137 0.950947
O O5 0.680758 0.750000 0.810823
O O6 0.496999 0.914575 0.823649
O O7 0.853919 0.966108 0.687504
O O8 0.603701 0.028159 0.864701
O O9 0.763787 0.250000 0.109732
O O10 0.724599 0.533646 0.148960
O O11 0.016783 0.250000 0.424508
O O12 0.202944 0.026301 0.385949
O O13 0.853683 0.990508 0.494002
O O14 0.447011 0.250000 0.977072
O O15 0.500000 0.000000 0.000000
O O16 0.291340 0.250000 0.408501
O O17 0.500507 0.015106 0.322039
O O18 0.387664 0.250000 0.748223
#
# Coordination Sequence:
#
# PCOD8070072 Si02
#       7
#     4   4   4   4   4   4   4
#     4   9  20  35  48  66  95 128 162 201 241 286
#     4   9  17  32  51  71  99 130 161 201 246 287
#     4   9  16  29  45  64  95 130 162 198 239 279
#     4   9  17  31  47  66  94 131 168 204 244 280
#     4  11  22  36  55  77  98 123 157 199 247 295
#     4  10  19  30  44  65  96 133 170 207 241 277
#     4  11  20  29  44  67  96 132 168 200 238 283
#
# _framework density 16.639614999999999
#
# number of rings (size 3 to 8) (size 9 to 14) (size 15 to 20)
#    0.000    2.286    1.429    3.429    0.000    4.571 
#    0.000    0.000    0.000    0.000    0.000    1.000 
#    0.000    0.000    0.000    0.000    0.000    0.000 
#
# Total GULP energy -347154.679151 kJ/mol
# GULP energy per Si atom -12398.381398 kJ/mol
# Density = 1.660174 g / cm^3
# Si number density = 16.639615 Si / 1000 Ang^3
#
#
#
# Elastic Constant Matrix: (Units=GPa)
#
#
# Indices 1 2 3 4 5 6 
#
# 1 57.6754 41.1973 46.1272 0.0000 2.3600 0.0000
# 2 41.1973 93.0974 55.0914 0.0000 -2.3089 0.0000
# 3 46.1272 55.0914 121.3666 0.0000 -15.1452 0.0000
# 4 0.0000 0.0000 0.0000 30.7593 0.0000 0.2089
# 5 2.3600 -2.3089 -15.1452 0.0000 14.7987 0.0000
# 6 0.0000 0.0000 0.0000 0.2089 0.0000 22.7558
#
#
#
# Elastic Compliance Matrix: (Units=1/GPa)
#
#
# Indices 1 2 3 4 5 6 
#
# 1 0.032795 -0.008578 -0.010765 0.000000 -0.017585 0.000000
# 2 -0.008578 0.017287 -0.004677 0.000000 -0.000721 0.000000
# 3 -0.010765 -0.004677 0.016711 0.000000 0.018089 0.000000
# 4 0.000000 0.000000 0.000000 0.032512 0.000000 -0.000298
# 5 -0.017585 -0.000721 0.018089 0.000000 0.088778 0.000000
# 6 0.000000 0.000000 0.000000 -0.000298 0.000000 0.043948
#
#
# Mechanical properties :
#
#
# Convention : Reuss Voigt Hill
#
# Bulk Modulus (GPa) = 53.32339 61.88568 57.60453
# Shear Modulus (GPa) = 17.46290 22.31100 19.88695
#
# Velocity S-wave (km/s) = 3.24308 3.66572 3.46085
# Velocity P-wave (km/s) = 6.79257 7.42894 7.11787
#
# Compressibility (1/GPa) = 0.01875350
#
# Stress axis : x y z
#
# Youngs Moduli (GPa) = 30.49279 57.84660 59.84093
#
# Poissons Ratio (x) = 0.49622 0.64416
# Poissons Ratio (y) = 0.26158 0.27986
# Poissons Ratio (z) = 0.32824 0.27053
#
# Static dielectric constant tensor:
#      x y z
#    x 2.766020 0.000000 -0.115580 
#    y 0.000000 3.140290 0.000000 
#    z -0.115580 0.000000 3.345730 
# 
# 
# High freq. dielectric constant tensor:
#      x y z
#    x 1.590320 0.000000 -0.011270 
#    y 0.000000 1.646160 0.000000 
#    z -0.011270 0.000000 1.646030 
# 
# From -- ./inp_files/73269.got.cif
#   From: 2010.06.25/outbox.cif.g09.slc.cpg/sg11_37_cif.got.tgz:73269.got - 2010.06.27 23:14:04.
