data_PCOD8070387
_publ_section_title
;
Structure prediction by ZEFSAII (Michael W. Deem and Ramdas Pophale) SiO2 
 PCOD8070387
Probable space group: P 21/M
;
_chemical_formula_sum "Si O2"
_cell_formula_units_Z 32
_cell_length_a 21.179597
_cell_length_b 9.348045
_cell_length_c 23.607488
_cell_angle_alpha 90.000000
_cell_angle_beta 156.829416
_cell_angle_gamma 90.000000
_cell_volume 1839.076751
_symmetry_space_group_name_H-M "P 21/M"
_symmetry_group_IT_number 11
_symmetry_cell_setting 'monoclinic'
loop_
_space_group_symop_operation_xyz
x,y,z
-x,1/2+y,-z
-x,-y,-z
x,1/2-y,z
loop_
_atom_site_type_symbol
_atom_site_label
_atom_site_fract_x
_atom_site_fract_y
_atom_site_fract_z
Si Si1 0.007144 0.917620 0.064465
Si Si2 0.165158 0.914714 0.766004
Si Si3 0.290290 0.583918 0.166164
Si Si4 0.287945 0.915795 0.746517
Si Si5 0.185610 0.412387 0.559641
Si Si6 0.635968 0.414954 0.645492
Si Si7 0.479934 0.914600 0.212949
Si Si8 0.366728 0.416838 0.016816
O O1 0.970468 0.750000 0.026065
O O2 0.187914 0.938451 0.238387
O O3 0.864712 0.991751 0.983185
O O4 0.000000 0.000000 0.000000
O O5 0.213834 0.750000 0.816935
O O6 0.245010 0.970922 0.773660
O O7 0.974696 0.935200 0.608076
O O8 0.220775 0.012641 0.863233
O O9 0.238445 0.750000 0.125759
O O10 0.354737 0.534952 0.281027
O O11 0.432160 0.555931 0.238416
O O12 0.245943 0.750000 0.706555
O O13 0.473133 0.949434 0.886848
O O14 0.177493 0.994290 0.609636
O O15 0.202736 0.250000 0.594541
O O16 0.333172 0.455600 0.640496
O O17 0.500000 0.500000 0.500000
O O18 0.585948 0.250000 0.601441
O O19 0.447771 0.750000 0.169994
O O20 0.373962 0.013116 0.084619
O O21 0.334578 0.250000 0.997820
#
# Coordination Sequence:
#
# PCOD8070387 Si02
#       8
#     4   4   4   4   4   4   4   4
#     4   9  17  30  49  74 102 129 160 196 231 271
#     4  10  19  31  47  69  96 125 159 199 246 297
#     4   9  18  33  53  74  95 126 167 201 233 281
#     4   9  18  31  47  68  94 124 159 199 244 297
#     4   9  18  31  49  71  94 123 159 200 245 293
#     4   9  18  31  48  74 105 131 156 191 234 278
#     4   9  18  35  54  69  91 125 163 201 240 285
#     4  10  20  32  47  69  95 123 158 201 246 290
#
# _framework density 17.400036
#
# number of rings (size 3 to 8) (size 9 to 14) (size 15 to 20)
#    0.000    2.750    0.000    2.250    0.000    4.500 
#    0.000    1.250    0.000    3.000    0.000    0.000 
#    0.000    0.000    0.000    0.000    0.000    0.000 
#
# Total GULP energy -396708.727192 kJ/mol
# GULP energy per Si atom -12397.147725 kJ/mol
# Density = 1.736043 g / cm^3
# Si number density = 17.400036 Si / 1000 Ang^3
#
#
#
# Elastic Constant Matrix: (Units=GPa)
#
#
# Indices 1 2 3 4 5 6 
#
# 1 90.6215 36.6315 47.4109 0.0000 -1.0592 0.0000
# 2 36.6315 73.9559 53.0766 0.0000 -4.7559 0.0000
# 3 47.4109 53.0766 102.3276 0.0000 -7.2584 0.0000
# 4 0.0000 0.0000 0.0000 32.6070 0.0000 -2.2127
# 5 -1.0592 -4.7559 -7.2584 0.0000 17.1095 0.0000
# 6 0.0000 0.0000 0.0000 -2.2127 0.0000 24.2793
#
#
#
# Elastic Compliance Matrix: (Units=1/GPa)
#
#
# Indices 1 2 3 4 5 6 
#
# 1 0.015352 -0.004032 -0.005190 0.000000 -0.002372 0.000000
# 2 -0.004032 0.022626 -0.009732 0.000000 0.001911 0.000000
# 3 -0.005190 -0.009732 0.017538 0.000000 0.004414 0.000000
# 4 0.000000 0.000000 0.000000 0.030859 0.000000 0.002812
# 5 -0.002372 0.001911 0.004414 0.000000 0.060704 0.000000
# 6 0.000000 0.000000 0.000000 0.002812 0.000000 0.041444
#
#
# Mechanical properties :
#
#
# Convention : Reuss Voigt Hill
#
# Bulk Modulus (GPa) = 56.79186 60.12702 58.45944
# Shear Modulus (GPa) = 21.52371 23.45156 22.48763
#
# Velocity S-wave (km/s) = 3.52091 3.67521 3.59888
# Velocity P-wave (km/s) = 7.01704 7.25536 7.13719
#
# Compressibility (1/GPa) = 0.01760816
#
# Stress axis : x y z
#
# Youngs Moduli (GPa) = 65.13682 44.19624 57.01773
#
# Poissons Ratio (x) = 0.17820 0.29592
# Poissons Ratio (y) = 0.26263 0.55492
# Poissons Ratio (z) = 0.33806 0.43014
#
# Static dielectric constant tensor:
#      x y z
#    x 3.276680 0.000000 0.297380 
#    y 0.000000 3.354660 0.000000 
#    z 0.297380 0.000000 3.338350 
# 
# 
# High freq. dielectric constant tensor:
#      x y z
#    x 1.653480 0.000000 0.012550 
#    y 0.000000 1.674410 0.000000 
#    z 0.012550 0.000000 1.667640 
# 
# From -- ./inp_files/72291.got.cif
#   From: 2010.06.25/outbox.cif.g09.slc.cpg/sg11_37_cif.got.tgz:72291.got - 2010.06.27 23:14:04.
