data_PCOD8070855
_publ_section_title
;
Structure prediction by ZEFSAII (Michael W. Deem and Ramdas Pophale) SiO2 
 PCOD8070855
Probable space group: P 21/M
;
_chemical_formula_sum "Si O2"
_cell_formula_units_Z 32
_cell_length_a 23.034044
_cell_length_b 9.122284
_cell_length_c 14.819192
_cell_angle_alpha 90.000000
_cell_angle_beta 39.275794
_cell_angle_gamma 90.000000
_cell_volume 1971.237655
_symmetry_space_group_name_H-M "P 21/M"
_symmetry_group_IT_number 11
_symmetry_cell_setting 'monoclinic'
loop_
_space_group_symop_operation_xyz
x,y,z
-x,1/2+y,-z
-x,-y,-z
x,1/2-y,z
loop_
_atom_site_type_symbol
_atom_site_label
_atom_site_fract_x
_atom_site_fract_y
_atom_site_fract_z
Si Si1 0.714996 0.922137 0.197768
Si Si2 0.622896 0.579369 0.496838
Si Si3 0.895422 0.421341 0.028320
Si Si4 0.734706 0.079260 0.516373
Si Si5 0.633613 0.579627 0.787309
Si Si6 0.585400 0.080751 0.219527
Si Si7 0.923632 0.081686 0.200183
Si Si8 0.431191 0.582051 0.968164
O O1 0.729581 0.750000 0.171717
O O2 0.662212 0.964675 0.352559
O O3 0.813411 0.998834 0.075621
O O4 0.656919 0.977610 0.183301
O O5 0.637972 0.750000 0.501951
O O6 0.673484 0.485712 0.510815
O O7 0.516048 0.539197 0.625335
O O8 0.888439 0.250000 0.017372
O O9 0.888540 0.459729 0.142465
O O10 0.991437 0.480391 0.873217
O O11 0.711933 0.250000 0.550642
O O12 0.841674 0.051484 0.368097
O O13 0.713561 0.002277 0.636756
O O14 0.657136 0.750000 0.762334
O O15 0.538544 0.546267 0.850535
O O16 0.629983 0.519279 0.893530
O O17 0.606563 0.250000 0.216100
O O18 0.596727 0.048286 0.100149
O O19 0.956089 0.250000 0.162892
O O20 0.412604 0.750000 0.017005
#
# Coordination Sequence:
#
# PCOD8070855 Si02
#       8
#     4   4   4   4   4   4   4   4
#     4  11  22  33  49  72 100 134 172 210 247 291
#     4  10  20  34  48  68 100 136 172 208 243 284
#     4  10  19  33  51  71  96 130 167 204 249 295
#     4  11  20  31  50  75 102 132 165 202 247 300
#     4  10  19  32  50  72 100 129 163 205 250 298
#     4  10  20  35  51  68  98 135 173 211 245 288
#     4   9  19  33  49  72  99 127 163 206 249 293
#     4   9  18  33  50  70  96 130 167 207 250 289
#
# _framework density 16.233454999999999
#
# number of rings (size 3 to 8) (size 9 to 14) (size 15 to 20)
#    0.000    2.000    2.500    1.875    0.000    3.500 
#    0.000    0.000    0.000    0.000    0.000    0.875 
#    0.000    0.000    0.000    0.000    0.000    0.000 
#
# Total GULP energy -396938.782255 kJ/mol
# GULP energy per Si atom -12404.336945 kJ/mol
# Density = 1.619651 g / cm^3
# Si number density = 16.233455 Si / 1000 Ang^3
#
#
#
# Elastic Constant Matrix: (Units=GPa)
#
#
# Indices 1 2 3 4 5 6 
#
# 1 71.8915 45.4160 48.8233 0.0000 -7.1796 0.0000
# 2 45.4160 85.8564 58.7505 0.0000 -4.4695 0.0000
# 3 48.8233 58.7505 100.7571 0.0000 -0.4532 0.0000
# 4 0.0000 0.0000 0.0000 26.0774 0.0000 -1.4579
# 5 -7.1796 -4.4695 -0.4532 0.0000 21.0609 0.0000
# 6 0.0000 0.0000 0.0000 -1.4579 0.0000 29.7110
#
#
#
# Elastic Compliance Matrix: (Units=1/GPa)
#
#
# Indices 1 2 3 4 5 6 
#
# 1 0.024293 -0.007446 -0.007400 0.000000 0.006542 0.000000
# 2 -0.007446 0.021983 -0.009201 0.000000 0.001929 0.000000
# 3 -0.007400 -0.009201 0.018858 0.000000 -0.004070 0.000000
# 4 0.000000 0.000000 0.000000 0.038453 0.000000 0.001887
# 5 0.006542 0.001929 -0.004070 0.000000 0.050033 0.000000
# 6 0.000000 0.000000 0.000000 0.001887 0.000000 0.033750
#
#
# Mechanical properties :
#
#
# Convention : Reuss Voigt Hill
#
# Bulk Modulus (GPa) = 58.69142 62.72050 60.70596
# Shear Modulus (GPa) = 20.73454 22.40421 21.56937
#
# Velocity S-wave (km/s) = 3.57777 3.71903 3.64909
# Velocity P-wave (km/s) = 7.30071 7.56056 7.43177
#
# Compressibility (1/GPa) = 0.01703827
#
# Stress axis : x y z
#
# Youngs Moduli (GPa) = 41.16476 45.49039 53.02865
#
# Poissons Ratio (x) = 0.33870 0.39244
# Poissons Ratio (y) = 0.30650 0.48793
# Poissons Ratio (z) = 0.30464 0.41857
#
# Static dielectric constant tensor:
#      x y z
#    x 2.825630 0.000000 0.033410 
#    y 0.000000 3.134360 0.000000 
#    z 0.033410 0.000000 3.164200 
# 
# 
# High freq. dielectric constant tensor:
#      x y z
#    x 1.596760 0.000000 0.001320 
#    y 0.000000 1.635620 0.000000 
#    z 0.001320 0.000000 1.620730 
# 
# From -- ./inp_files/51193.got.cif
#   From: 2010.06.25/outbox.cif.g09.slc.cpg/sg11_26_cif.got.tgz:51193.got - 2010.06.27 23:14:04.
