data_PCOD8070776
_publ_section_title
;
Structure prediction by ZEFSAII (Michael W. Deem and Ramdas Pophale) SiO2 
 PCOD8070776
Probable space group: P 21/M
;
_chemical_formula_sum "Si O2"
_cell_formula_units_Z 32
_cell_length_a 25.962858
_cell_length_b 8.981191
_cell_length_c 14.364866
_cell_angle_alpha 90.000000
_cell_angle_beta 143.866607
_cell_angle_gamma 90.000000
_cell_volume 1975.126688
_symmetry_space_group_name_H-M "P 21/M"
_symmetry_group_IT_number 11
_symmetry_cell_setting 'monoclinic'
loop_
_space_group_symop_operation_xyz
x,y,z
-x,1/2+y,-z
-x,-y,-z
x,1/2-y,z
loop_
_atom_site_type_symbol
_atom_site_label
_atom_site_fract_x
_atom_site_fract_y
_atom_site_fract_z
Si Si1 0.585499 0.076956 0.584170
Si Si2 0.102154 0.076302 0.560875
Si Si3 0.909291 0.073831 0.260124
Si Si4 0.743360 0.083212 0.928800
Si Si5 0.528171 0.080142 0.301463
Si Si6 0.282885 0.076252 0.746057
Si Si7 0.579693 0.076110 0.170837
Si Si8 0.643489 0.083140 0.971859
O O1 0.579584 0.250000 0.604772
O O2 0.673578 0.002800 0.758343
O O3 0.593084 0.057245 0.483793
O O4 0.500000 0.000000 0.500000
O O5 0.104416 0.250000 0.588885
O O6 0.179785 0.035806 0.602195
O O7 0.008968 0.031368 0.378598
O O8 0.116166 0.990247 0.676894
O O9 0.896993 0.250000 0.250084
O O10 0.841542 0.012360 0.081361
O O11 0.752636 0.250000 0.903766
O O12 0.711314 0.079814 0.987796
O O13 0.493470 0.250000 0.248767
O O14 0.576548 0.041072 0.275966
O O15 0.449243 0.967633 0.203523
O O16 0.298014 0.250000 0.750972
O O17 0.326952 0.986739 0.726133
O O18 0.329856 0.032562 0.910145
O O19 0.574206 0.250000 0.141696
O O20 0.500000 0.000000 0.000000
O O21 0.636319 0.250000 0.003161
#
# Coordination Sequence:
#
# PCOD8070776 Si02
#       8
#     4   4   4   4   4   4   4   4
#     4  10  19  32  47  67  92 121 152 188 226 271
#     4   9  18  29  44  66  93 121 151 187 228 272
#     4   9  16  29  46  66  92 121 151 186 226 273
#     4   9  17  28  45  69  93 120 155 186 221 270
#     4  10  21  34  47  64  92 122 154 195 233 267
#     4  11  21  32  45  67  95 126 158 190 229 275
#     4  11  22  34  48  68  90 122 159 195 233 274
#     4  11  19  28  46  69  93 124 158 190 222 267
#
# _framework density 16.201491999999998
#
# number of rings (size 3 to 8) (size 9 to 14) (size 15 to 20)
#    0.000    2.000    3.750    1.125    0.000    1.000 
#    0.000    0.625    0.000    0.000    0.000    0.875 
#    0.000    0.000    0.000    0.000    0.000    0.000 
#
# Total GULP energy -396572.694600 kJ/mol
# GULP energy per Si atom -12392.896706 kJ/mol
# Density = 1.616462 g / cm^3
# Si number density = 16.201492 Si / 1000 Ang^3
#
#
#
# Elastic Constant Matrix: (Units=GPa)
#
#
# Indices 1 2 3 4 5 6 
#
# 1 77.7019 29.2355 54.1969 0.0000 6.8149 0.0000
# 2 29.2355 47.4382 28.3908 0.0000 6.0266 0.0000
# 3 54.1969 28.3908 145.8880 0.0000 13.1269 0.0000
# 4 0.0000 0.0000 0.0000 16.2697 0.0000 2.1947
# 5 6.8149 6.0266 13.1269 0.0000 27.6900 0.0000
# 6 0.0000 0.0000 0.0000 2.1947 0.0000 21.0454
#
#
#
# Elastic Compliance Matrix: (Units=1/GPa)
#
#
# Indices 1 2 3 4 5 6 
#
# 1 0.020313 -0.009032 -0.005761 0.000000 -0.000302 0.000000
# 2 -0.009032 0.028137 -0.001848 0.000000 -0.003025 0.000000
# 3 -0.005761 -0.001848 0.009600 0.000000 -0.002731 0.000000
# 4 0.000000 0.000000 0.000000 0.062341 0.000000 -0.006501
# 5 -0.000302 -0.003025 -0.002731 0.000000 0.038142 0.000000
# 6 0.000000 0.000000 0.000000 -0.006501 0.000000 0.048194
#
#
# Mechanical properties :
#
#
# Convention : Reuss Voigt Hill
#
# Bulk Modulus (GPa) = 40.37631 54.96386 47.67008
# Shear Modulus (GPa) = 20.13971 23.61467 21.87719
#
# Velocity S-wave (km/s) = 3.52956 3.82194 3.67866
# Velocity P-wave (km/s) = 6.44871 7.31267 6.89424
#
# Compressibility (1/GPa) = 0.02476700
#
# Stress axis : x y z
#
# Youngs Moduli (GPa) = 49.22924 35.54067 104.16392
#
# Poissons Ratio (x) = 0.32101 0.60012
# Poissons Ratio (y) = 0.44465 0.19249
# Poissons Ratio (z) = 0.28363 0.06568
#
# Static dielectric constant tensor:
#      x y z
#    x 3.054260 0.000000 0.181850 
#    y 0.000000 3.064710 0.000000 
#    z 0.181850 0.000000 3.355230 
# 
# 
# High freq. dielectric constant tensor:
#      x y z
#    x 1.598340 0.000000 0.012810 
#    y 0.000000 1.617940 0.000000 
#    z 0.012810 0.000000 1.619150 
# 
# From -- ./inp_files/56477.got.cif
#   From: 2010.06.25/outbox.cif.g09.slc.cpg/sg11_29_cif.got.tgz:56477.got - 2010.06.27 23:14:04.
