data_PCOD8070491
_publ_section_title
;
Structure prediction by ZEFSAII (Michael W. Deem and Ramdas Pophale) SiO2 
 PCOD8070491
Probable space group: P 21/M
;
_chemical_formula_sum "Si O2"
_cell_formula_units_Z 32
_cell_length_a 24.973838
_cell_length_b 9.131068
_cell_length_c 16.023997
_cell_angle_alpha 90.000000
_cell_angle_beta 26.899629
_cell_angle_gamma 90.000000
_cell_volume 1653.210269
_symmetry_space_group_name_H-M "P 21/M"
_symmetry_group_IT_number 11
_symmetry_cell_setting 'monoclinic'
loop_
_space_group_symop_operation_xyz
x,y,z
-x,1/2+y,-z
-x,-y,-z
x,1/2-y,z
loop_
_atom_site_type_symbol
_atom_site_label
_atom_site_fract_x
_atom_site_fract_y
_atom_site_fract_z
Si Si1 0.753537 0.088649 0.986133
Si Si2 0.104720 0.077964 0.903049
Si Si3 0.937956 0.579526 0.846293
Si Si4 0.292128 0.579280 0.540364
Si Si5 0.789642 0.079368 0.529696
Si Si6 0.888524 0.410741 0.629879
Si Si7 0.434954 0.421673 0.847381
Si Si8 0.700493 0.577390 0.799749
O O1 0.723777 0.250000 0.065249
O O2 0.633666 0.997240 0.134790
O O3 0.806618 0.111782 0.822116
O O4 0.847223 0.007615 0.914318
O O5 0.095898 0.250000 0.898422
O O6 0.230377 0.016426 0.697538
O O7 0.094136 0.040519 0.014671
O O8 0.000000 0.000000 0.000000
O O9 0.919143 0.750000 0.854259
O O10 0.074283 0.534776 0.638596
O O11 0.274893 0.750000 0.584741
O O12 0.232945 0.539018 0.534780
O O13 0.429133 0.535072 0.349565
O O14 0.767301 0.250000 0.576240
O O15 0.687734 0.994213 0.725365
O O16 0.921040 0.250000 0.547058
O O17 0.827500 0.510444 0.645849
O O18 0.000000 0.500000 0.500000
O O19 0.411297 0.250000 0.871189
O O20 0.394097 0.470522 0.998046
O O21 0.706444 0.750000 0.782231
#
# Coordination Sequence:
#
# PCOD8070491 Si02
#       8
#     4   4   4   4   4   4   4   4
#     4  10  21  35  54  81 111 144 189 237 278 327
#     4  11  22  39  62  89 117 148 184 230 285 343
#     4  10  21  37  57  83 116 149 183 225 285 345
#     4  10  21  40  62  85 112 149 192 234 286 342
#     4  10  20  35  55  82 116 151 186 233 287 338
#     4  10  19  31  48  73 105 144 186 233 283 331
#     4   9  20  39  60  79 112 156 193 232 281 336
#     4  10  20  33  50  78 111 149 193 232 273 330
#
# _framework density 19.356280000000002
#
# number of rings (size 3 to 8) (size 9 to 14) (size 15 to 20)
#    0.000    2.000    1.250    2.250    0.000    7.000 
#    0.000    0.625    0.000    0.000    0.000    0.000 
#    0.000    0.000    0.000    0.000    0.000    0.000 
#
# Total GULP energy -396621.045361 kJ/mol
# GULP energy per Si atom -12394.407668 kJ/mol
# Density = 1.931222 g / cm^3
# Si number density = 19.356280 Si / 1000 Ang^3
#
#
#
# Elastic Constant Matrix: (Units=GPa)
#
#
# Indices 1 2 3 4 5 6 
#
# 1 84.0393 41.4061 37.1854 0.0000 -3.6497 0.0000
# 2 41.4061 72.2561 39.4314 0.0000 -0.0361 0.0000
# 3 37.1854 39.4314 99.6721 0.0000 -5.5311 0.0000
# 4 0.0000 0.0000 0.0000 29.6813 0.0000 3.9260
# 5 -3.6497 -0.0361 -5.5311 0.0000 29.3436 0.0000
# 6 0.0000 0.0000 0.0000 3.9260 0.0000 29.9877
#
#
#
# Elastic Compliance Matrix: (Units=1/GPa)
#
#
# Indices 1 2 3 4 5 6 
#
# 1 0.017435 -0.008275 -0.003144 0.000000 0.001566 0.000000
# 2 -0.008275 0.021627 -0.005583 0.000000 -0.002055 0.000000
# 3 -0.003144 -0.005583 0.013534 0.000000 0.002153 0.000000
# 4 0.000000 0.000000 0.000000 0.034285 0.000000 -0.004489
# 5 0.001566 -0.002055 0.002153 0.000000 0.034677 0.000000
# 6 0.000000 0.000000 0.000000 -0.004489 0.000000 0.033935
#
#
# Mechanical properties :
#
#
# Convention : Reuss Voigt Hill
#
# Bulk Modulus (GPa) = 53.78386 54.66812 54.22599
# Shear Modulus (GPa) = 25.55004 26.99882 26.27443
#
# Velocity S-wave (km/s) = 3.63710 3.73880 3.68830
# Velocity P-wave (km/s) = 6.74423 6.85147 6.79806
#
# Compressibility (1/GPa) = 0.01859294
#
# Stress axis : x y z
#
# Youngs Moduli (GPa) = 57.35472 46.23850 73.88738
#
# Poissons Ratio (x) = 0.38260 0.23233
# Poissons Ratio (y) = 0.47459 0.41250
# Poissons Ratio (z) = 0.18034 0.25814
#
# Static dielectric constant tensor:
#      x y z
#    x 3.565080 0.000000 0.123400 
#    y 0.000000 3.689130 0.000000 
#    z 0.123400 0.000000 3.525700 
# 
# 
# High freq. dielectric constant tensor:
#      x y z
#    x 1.752090 0.000000 0.003320 
#    y 0.000000 1.755720 0.000000 
#    z 0.003320 0.000000 1.747070 
# 
# From -- ./inp_files/55520.got.cif
#   From: 2010.06.25/outbox.cif.g09.slc.cpg/sg11_28_cif.got.tgz:55520.got - 2010.06.27 23:14:04.
