data_PCOD8070070
_publ_section_title
;
Structure prediction by ZEFSAII (Michael W. Deem and Ramdas Pophale) SiO2 
 PCOD8070070
Probable space group: P 21/M
;
_chemical_formula_sum "Si O2"
_cell_formula_units_Z 32
_cell_length_a 26.771248
_cell_length_b 9.931353
_cell_length_c 12.709848
_cell_angle_alpha 90.000000
_cell_angle_beta 148.212695
_cell_angle_gamma 90.000000
_cell_volume 1780.066972
_symmetry_space_group_name_H-M "P 21/M"
_symmetry_group_IT_number 11
_symmetry_cell_setting 'monoclinic'
loop_
_space_group_symop_operation_xyz
x,y,z
-x,1/2+y,-z
-x,-y,-z
x,1/2-y,z
loop_
_atom_site_type_symbol
_atom_site_label
_atom_site_fract_x
_atom_site_fract_y
_atom_site_fract_z
Si Si1 0.711031 0.599199 0.772905
Si Si2 0.864919 0.395657 0.284038
Si Si3 0.512187 0.596493 0.336539
Si Si4 0.875842 0.400570 0.059521
Si Si5 0.322715 0.470726 0.054241
Si Si6 0.716385 0.897944 0.243076
Si Si7 0.443362 0.591981 0.979567
Si Si8 0.078603 0.095490 0.443742
O O1 0.729442 0.750000 0.763679
O O2 0.614740 0.537107 0.551380
O O3 0.703232 0.607272 0.885343
O O4 0.796436 0.506775 0.882131
O O5 0.893766 0.250000 0.381025
O O6 0.894474 0.409130 0.216757
O O7 0.919147 0.508392 0.446339
O O8 0.750178 0.405047 0.087493
O O9 0.507472 0.750000 0.365644
O O10 0.431173 0.518547 0.255287
O O11 0.499024 0.583267 0.188412
O O12 0.842870 0.250000 0.966863
O O13 0.981630 0.434793 0.203464
O O14 0.307797 0.379865 0.924116
O O15 0.693050 0.750000 0.251818
O O16 0.827853 0.933156 0.459290
O O17 0.659310 0.021081 0.193294
O O18 0.432527 0.750000 0.925287
O O19 0.500000 0.500000 0.000000
O O20 0.078343 0.250000 0.480598
#
# Coordination Sequence:
#
# PCOD8070070 Si02
#       8
#     4   4   4   4   4   4   4   4
#     4  10  19  30  44  65  92 126 165 197 222 257
#     4   9  16  24  38  59  84 117 159 199 232 265
#     4   9  18  31  47  68  94 122 153 188 229 273
#     4   9  18  30  40  56  85 123 161 195 230 265
#     4   9  16  27  43  64  94 129 158 189 224 266
#     4   9  17  29  46  70  96 122 153 188 226 270
#     4  10  20  35  54  74  96 119 143 180 229 281
#     4   9  17  28  42  60  87 120 154 192 232 271
#
# _framework density 17.976852000000001
#
# number of rings (size 3 to 8) (size 9 to 14) (size 15 to 20)
#    0.000    2.750    0.000    1.875    0.000    7.000 
#    0.000    3.750    0.000    0.000    0.000    0.875 
#    0.000    0.000    0.000    0.000    0.000    0.000 
#
# Total GULP energy -396502.857796 kJ/mol
# GULP energy per Si atom -12390.714306 kJ/mol
# Density = 1.793594 g / cm^3
# Si number density = 17.976852 Si / 1000 Ang^3
#
#
#
# Elastic Constant Matrix: (Units=GPa)
#
#
# Indices 1 2 3 4 5 6 
#
# 1 43.9762 26.4521 23.8983 0.0000 19.2304 0.0000
# 2 26.4521 98.7631 45.3077 0.0000 23.1664 0.0000
# 3 23.8983 45.3077 111.6446 0.0000 41.7063 0.0000
# 4 0.0000 0.0000 0.0000 24.6895 0.0000 4.1414
# 5 19.2304 23.1664 41.7063 0.0000 26.0014 0.0000
# 6 0.0000 0.0000 0.0000 4.1414 0.0000 17.5091
#
#
#
# Elastic Compliance Matrix: (Units=1/GPa)
#
#
# Indices 1 2 3 4 5 6 
#
# 1 0.036747 -0.005075 0.006629 0.000000 -0.033290 0.000000
# 2 -0.005075 0.013749 -0.003292 0.000000 -0.003217 0.000000
# 3 0.006629 -0.003292 0.023976 0.000000 -0.040428 0.000000
# 4 0.000000 0.000000 0.000000 0.042176 0.000000 -0.009976
# 5 -0.033290 -0.003217 -0.040428 0.000000 0.130793 0.000000
# 6 0.000000 0.000000 0.000000 -0.009976 0.000000 0.059473
#
#
# Mechanical properties :
#
#
# Convention : Reuss Voigt Hill
#
# Bulk Modulus (GPa) = 14.08491 49.52223 31.80357
# Shear Modulus (GPa) = 14.96763 24.22171 19.59467
#
# Velocity S-wave (km/s) = 2.88862 3.67465 3.30509
# Velocity P-wave (km/s) = 4.35632 6.75364 5.68284
#
# Compressibility (1/GPa) = 0.07099796
#
# Stress axis : x y z
#
# Youngs Moduli (GPa) = 27.21334 72.73242 41.70805
#
# Poissons Ratio (x) = 0.36909 -0.27649
# Poissons Ratio (y) = 0.13810 0.13729
# Poissons Ratio (z) = -0.18040 0.23941
#
# Static dielectric constant tensor:
#      x y z
#    x 3.041920 0.000000 0.397200 
#    y 0.000000 3.360170 0.000000 
#    z 0.397200 0.000000 3.423450 
# 
# 
# High freq. dielectric constant tensor:
#      x y z
#    x 1.652320 0.000000 0.038460 
#    y 0.000000 1.699330 0.000000 
#    z 0.038460 0.000000 1.688130 
# 
# From -- ./inp_files/51211.got.cif
#   From: 2010.06.25/outbox.cif.g09.slc.cpg/sg11_26_cif.got.tgz:51211.got - 2010.06.27 23:14:04.
