data_PCOD8070269
_publ_section_title
;
Structure prediction by ZEFSAII (Michael W. Deem and Ramdas Pophale) SiO2 
 PCOD8070269
Probable space group: P 21/M
;
_chemical_formula_sum "Si O2"
_cell_formula_units_Z 32
_cell_length_a 12.235694
_cell_length_b 8.863929
_cell_length_c 28.634444
_cell_angle_alpha 90.000000
_cell_angle_beta 144.460867
_cell_angle_gamma 90.000000
_cell_volume 1805.149674
_symmetry_space_group_name_H-M "P 21/M"
_symmetry_group_IT_number 11
_symmetry_cell_setting 'monoclinic'
loop_
_space_group_symop_operation_xyz
x,y,z
-x,1/2+y,-z
-x,-y,-z
x,1/2-y,z
loop_
_atom_site_type_symbol
_atom_site_label
_atom_site_fract_x
_atom_site_fract_y
_atom_site_fract_z
Si Si1 0.565782 0.428431 0.372229
Si Si2 0.836254 0.928233 0.729007
Si Si3 0.284129 0.073599 0.664810
Si Si4 0.889060 0.570425 0.545602
Si Si5 0.668630 0.922083 0.214131
Si Si6 0.049800 0.426984 0.330491
Si Si7 0.458481 0.923255 0.052570
Si Si8 0.799874 0.574492 0.105137
O O1 0.597797 0.250000 0.387410
O O2 0.360112 0.478758 0.317241
O O3 0.587500 0.482834 0.326704
O O4 0.711966 0.515577 0.455309
O O5 0.857806 0.750000 0.736633
O O6 0.845027 0.992685 0.678710
O O7 0.003324 0.993207 0.818267
O O8 0.277629 0.250000 0.649647
O O9 0.379102 0.044989 0.748442
O O10 0.073677 0.009054 0.589269
O O11 0.913592 0.750000 0.549782
O O12 0.858484 0.517169 0.588849
O O13 0.738613 0.750000 0.232624
O O14 0.487008 0.951152 0.118084
O O15 0.832882 0.028348 0.253053
O O16 0.062042 0.250000 0.333015
O O17 0.411196 0.750000 0.024950
O O18 0.652106 0.970321 0.094108
O O19 0.285119 0.023207 0.974347
O O20 0.840853 0.750000 0.117934
#
# Coordination Sequence:
#
# PCOD8070269 Si02
#       8
#     4   4   4   4   4   4   4   4
#     4  11  23  37  52  72 100 137 176 210 252 303
#     4  10  21  36  52  71 103 141 171 205 251 303
#     4  10  20  35  56  78 101 130 169 216 258 296
#     4  10  20  35  55  78 102 128 165 215 261 301
#     4   9  17  31  52  78 104 131 164 206 255 300
#     4   9  18  32  51  75 102 132 166 205 253 303
#     4   9  17  30  49  76 108 135 162 199 249 302
#     4  10  19  30  49  77 106 136 168 203 243 297
#
# _framework density 17.727062
#
# number of rings (size 3 to 8) (size 9 to 14) (size 15 to 20)
#    0.000    2.250    1.250    1.875    0.000    3.500 
#    0.000    0.000    0.000    0.750    0.000    0.000 
#    0.000    0.000    0.000    0.000    0.000    0.000 
#
# Total GULP energy -396758.248076 kJ/mol
# GULP energy per Si atom -12398.695252 kJ/mol
# Density = 1.768671 g / cm^3
# Si number density = 17.727062 Si / 1000 Ang^3
#
#
#
# Elastic Constant Matrix: (Units=GPa)
#
#
# Indices 1 2 3 4 5 6 
#
# 1 112.3145 19.4551 60.2650 0.0000 -4.4815 0.0000
# 2 19.4551 20.5549 11.4956 0.0000 -1.2535 0.0000
# 3 60.2650 11.4956 66.5991 0.0000 -21.5873 0.0000
# 4 0.0000 0.0000 0.0000 26.4725 0.0000 0.4968
# 5 -4.4815 -1.2535 -21.5873 0.0000 23.1999 0.0000
# 6 0.0000 0.0000 0.0000 0.4968 0.0000 19.7672
#
#
#
# Elastic Compliance Matrix: (Units=1/GPa)
#
#
# Indices 1 2 3 4 5 6 
#
# 1 0.024220 -0.008994 -0.027213 0.000000 -0.021129 0.000000
# 2 -0.008994 0.058305 -0.002102 0.000000 -0.000543 0.000000
# 3 -0.027213 -0.002102 0.054786 0.000000 0.045608 0.000000
# 4 0.000000 0.000000 0.000000 0.037793 0.000000 -0.000950
# 5 -0.021129 -0.000543 0.045608 0.000000 0.081431 0.000000
# 6 0.000000 0.000000 0.000000 -0.000950 0.000000 0.050613
#
#
# Mechanical properties :
#
#
# Convention : Reuss Voigt Hill
#
# Bulk Modulus (GPa) = 16.47587 42.43331 29.45459
# Shear Modulus (GPa) = 12.37642 21.10477 16.74060
#
# Velocity S-wave (km/s) = 2.64515 3.45416 3.07637
# Velocity P-wave (km/s) = 4.31781 6.31643 5.41021
#
# Compressibility (1/GPa) = 0.06069481
#
# Stress axis : x y z
#
# Youngs Moduli (GPa) = 41.28818 17.15126 18.25291
#
# Poissons Ratio (x) = 0.15425 0.49671
# Poissons Ratio (y) = 0.37133 0.03836
# Poissons Ratio (z) = 1.12357 0.03604
#
# Static dielectric constant tensor:
#      x y z
#    x 3.502040 0.000000 -0.299610 
#    y 0.000000 3.307950 0.000000 
#    z -0.299610 0.000000 3.246710 
# 
# 
# High freq. dielectric constant tensor:
#      x y z
#    x 1.671380 0.000000 -0.025770 
#    y 0.000000 1.690040 0.000000 
#    z -0.025770 0.000000 1.679230 
# 
# From -- ./inp_files/42869.got.cif
#   From: 2010.06.25/outbox.cif.g09.slc.cpg/sg11_22_cif.got.tgz:42869.got - 2010.06.27 23:14:04.
