data_PCOD8070635
_publ_section_title
;
Structure prediction by ZEFSAII (Michael W. Deem and Ramdas Pophale) SiO2 
 PCOD8070635
Probable space group: P 21/M
;
_chemical_formula_sum "Si O2"
_cell_formula_units_Z 32
_cell_length_a 22.815617
_cell_length_b 13.999862
_cell_length_c 17.175308
_cell_angle_alpha 90.000000
_cell_angle_beta 162.515211
_cell_angle_gamma 90.000000
_cell_volume 1648.300782
_symmetry_space_group_name_H-M "P 21/M"
_symmetry_group_IT_number 11
_symmetry_cell_setting 'monoclinic'
loop_
_space_group_symop_operation_xyz
x,y,z
-x,1/2+y,-z
-x,-y,-z
x,1/2-y,z
loop_
_atom_site_type_symbol
_atom_site_label
_atom_site_fract_x
_atom_site_fract_y
_atom_site_fract_z
Si Si1 0.231147 0.537813 0.226332
Si Si2 0.271278 0.498805 0.617091
Si Si3 0.991994 0.141962 0.514007
Si Si4 0.800645 0.532819 0.646583
Si Si5 0.917343 0.472631 0.273593
Si Si6 0.451338 0.143363 0.461671
Si Si7 0.418267 0.641427 0.927576
Si Si8 0.559779 0.145229 0.771243
O O1 0.227266 0.538455 0.315582
O O2 0.399879 0.611733 0.417277
O O3 0.274230 0.431870 0.245536
O O4 0.023260 0.570767 0.928475
O O5 0.254396 0.520076 0.503766
O O6 0.368524 0.589267 0.783172
O O7 0.052475 0.478146 0.369173
O O8 0.401756 0.405792 0.799317
O O9 0.071057 0.250000 0.617691
O O10 0.025663 0.098182 0.471282
O O11 0.763350 0.135493 0.243992
O O12 0.112728 0.078212 0.728324
O O13 0.659257 0.623695 0.477760
O O14 0.703774 0.435699 0.983691
O O15 0.369762 0.250000 0.339429
O O16 0.573764 0.144815 0.696132
O O17 0.472354 0.750000 0.975649
O O18 0.619259 0.250000 0.878945
#
# Coordination Sequence:
#
# PCOD8070635 Si02
#       8
#     4   4   4   4   4   4   4   4
#     4   9  19  36  57  81 112 143 175 221 266 314
#     4  10  20  33  52  78 105 138 178 218 267 324
#     4   9  18  33  51  70  98 140 182 222 273 325
#     4  10  20  35  54  78 111 146 177 214 266 319
#     4  10  19  31  50  75 105 138 178 228 273 317
#     4   9  18  35  59  82 105 138 177 218 266 315
#     4   9  19  36  54  73 101 136 175 221 270 319
#     4  10  20  33  52  78 107 139 177 221 268 317
#
# _framework density 19.413933
#
# number of rings (size 3 to 8) (size 9 to 14) (size 15 to 20)
#    0.000    2.500    0.000    1.875    0.000    4.000 
#    0.000    3.125    0.000   15.000    0.000    0.000 
#    0.000    0.000    0.000    0.000    0.000    0.000 
#
# Total GULP energy -396767.697418 kJ/mol
# GULP energy per Si atom -12398.990544 kJ/mol
# Density = 1.936975 g / cm^3
# Si number density = 19.413933 Si / 1000 Ang^3
#
#
#
# Elastic Constant Matrix: (Units=GPa)
#
#
# Indices 1 2 3 4 5 6 
#
# 1 108.9593 29.9107 32.7970 0.0000 -10.6423 0.0000
# 2 29.9107 134.4015 40.9809 0.0000 2.0102 0.0000
# 3 32.7970 40.9809 94.7395 0.0000 2.5211 0.0000
# 4 0.0000 0.0000 0.0000 24.5170 0.0000 2.5514
# 5 -10.6423 2.0102 2.5211 0.0000 26.8962 0.0000
# 6 0.0000 0.0000 0.0000 2.5514 0.0000 17.3647
#
#
#
# Elastic Compliance Matrix: (Units=1/GPa)
#
#
# Indices 1 2 3 4 5 6 
#
# 1 0.011058 -0.001528 -0.003295 0.000000 0.004798 0.000000
# 2 -0.001528 0.008784 -0.003245 0.000000 -0.000957 0.000000
# 3 -0.003295 -0.003245 0.013161 0.000000 -0.002295 0.000000
# 4 0.000000 0.000000 0.000000 0.041421 0.000000 -0.006086
# 5 0.004798 -0.000957 -0.002295 0.000000 0.039365 0.000000
# 6 0.000000 0.000000 0.000000 -0.006086 0.000000 0.058482
#
#
# Mechanical properties :
#
#
# Convention : Reuss Voigt Hill
#
# Bulk Modulus (GPa) = 59.28891 60.60860 59.94876
# Shear Modulus (GPa) = 25.76925 29.38301 27.57613
#
# Velocity S-wave (km/s) = 3.64725 3.89459 3.77295
# Velocity P-wave (km/s) = 6.95286 7.17710 7.06587
#
# Compressibility (1/GPa) = 0.01686656
#
# Stress axis : x y z
#
# Youngs Moduli (GPa) = 90.43593 113.83929 75.98391
#
# Poissons Ratio (x) = 0.17395 0.25034
# Poissons Ratio (y) = 0.13819 0.24659
# Poissons Ratio (z) = 0.29795 0.36945
#
# Static dielectric constant tensor:
#      x y z
#    x 3.651430 0.000000 0.028690 
#    y 0.000000 3.569030 0.000000 
#    z 0.028690 0.000000 3.359860 
# 
# 
# High freq. dielectric constant tensor:
#      x y z
#    x 1.765570 0.000000 0.004190 
#    y 0.000000 1.741460 0.000000 
#    z 0.004190 0.000000 1.740520 
# 
# From -- ./inp_files/55049.got.cif
#   From: 2010.06.25/outbox.cif.g09.slc.cpg/sg11_28_cif.got.tgz:55049.got - 2010.06.27 23:14:04.
