data_PCOD8070244
_publ_section_title
;
Structure prediction by ZEFSAII (Michael W. Deem and Ramdas Pophale) SiO2 
 PCOD8070244
Probable space group: P 21/M
;
_chemical_formula_sum "Si O2"
_cell_formula_units_Z 28
_cell_length_a 12.292244
_cell_length_b 10.154534
_cell_length_c 14.120796
_cell_angle_alpha 90.000000
_cell_angle_beta 118.962400
_cell_angle_gamma 90.000000
_cell_volume 1542.153009
_symmetry_space_group_name_H-M "P 21/M"
_symmetry_group_IT_number 11
_symmetry_cell_setting 'monoclinic'
loop_
_space_group_symop_operation_xyz
x,y,z
-x,1/2+y,-z
-x,-y,-z
x,1/2-y,z
loop_
_atom_site_type_symbol
_atom_site_label
_atom_site_fract_x
_atom_site_fract_y
_atom_site_fract_z
Si Si1 0.378029 0.900800 0.758098
Si Si2 0.596513 0.397046 0.886635
Si Si3 0.810055 0.999957 0.856136
Si Si4 0.661314 0.602468 0.624467
Si Si5 0.622519 0.399181 0.454660
Si Si6 0.066903 0.395283 0.909372
Si Si7 0.221435 0.899225 0.869165
O O1 0.425878 0.750000 0.789258
O O2 0.328869 0.925289 0.631069
O O3 0.262267 0.927986 0.778763
O O4 0.490575 0.995991 0.829999
O O5 0.539282 0.250000 0.856972
O O6 0.699836 0.407775 0.848081
O O7 0.658297 0.421857 0.014662
O O8 0.920372 0.091653 0.864960
O O9 0.760252 0.910005 0.750162
O O10 0.859492 0.907239 0.960865
O O11 0.669584 0.750000 0.586192
O O12 0.692625 0.499130 0.554342
O O13 0.524818 0.573503 0.608203
O O14 0.652034 0.250000 0.499882
O O15 0.093342 0.250000 0.879503
O O16 0.110807 0.502895 0.851288
O O17 0.171325 0.750000 0.860100
#
# Coordination Sequence:
#
# PCOD8070244 Si02
#       7
#     4   4   4   4   4   4   4
#     4  10  19  34  52  72 103 140 172 207 257 312
#     4  10  19  30  48  77 105 133 170 211 256 305
#     4  10  20  34  53  77 108 139 169 211 262 310
#     4  10  19  33  52  76 103 136 172 210 257 311
#     4   9  19  33  50  75 104 135 171 210 258 309
#     4  10  21  35  54  79 105 138 178 215 253 304
#     4   9  20  35  50  71 104 140 174 212 254 304
#
# _framework density 18.156434000000001
#
# number of rings (size 3 to 8) (size 9 to 14) (size 15 to 20)
#    0.000    2.286    1.429    1.286    0.000    8.571 
#    0.000    0.000    0.000    0.857    0.000    0.000 
#    0.000    0.000    0.000    0.000    0.000    0.000 
#
# Total GULP energy -347216.673859 kJ/mol
# GULP energy per Si atom -12400.595495 kJ/mol
# Density = 1.811511 g / cm^3
# Si number density = 18.156434 Si / 1000 Ang^3
#
#
#
# Elastic Constant Matrix: (Units=GPa)
#
#
# Indices 1 2 3 4 5 6 
#
# 1 84.6627 52.3761 33.0656 0.0000 -21.2309 0.0000
# 2 52.3761 118.1640 38.0950 0.0000 -15.9205 0.0000
# 3 33.0656 38.0950 68.9967 0.0000 -19.7250 0.0000
# 4 0.0000 0.0000 0.0000 17.7020 0.0000 1.0622
# 5 -21.2309 -15.9205 -19.7250 0.0000 27.5134 0.0000
# 6 0.0000 0.0000 0.0000 1.0622 0.0000 14.4505
#
#
#
# Elastic Compliance Matrix: (Units=1/GPa)
#
#
# Indices 1 2 3 4 5 6 
#
# 1 0.019159 -0.006271 -0.003183 0.000000 0.008874 0.000000
# 2 -0.006271 0.012472 -0.004026 0.000000 -0.000509 0.000000
# 3 -0.003183 -0.004026 0.021223 0.000000 0.010430 0.000000
# 4 0.000000 0.000000 0.000000 0.056741 0.000000 -0.004171
# 5 0.008874 -0.000509 0.010430 0.000000 0.050377 0.000000
# 6 0.000000 0.000000 0.000000 -0.004171 0.000000 0.069509
#
#
# Mechanical properties :
#
#
# Convention : Reuss Voigt Hill
#
# Bulk Modulus (GPa) = 38.61697 57.65521 48.13609
# Shear Modulus (GPa) = 18.86282 21.81895 20.34088
#
# Velocity S-wave (km/s) = 3.22670 3.47034 3.35074
# Velocity P-wave (km/s) = 5.93274 6.91964 6.44510
#
# Compressibility (1/GPa) = 0.02589535
#
# Stress axis : x y z
#
# Youngs Moduli (GPa) = 52.19416 80.18088 47.11775
#
# Poissons Ratio (x) = 0.50279 0.14996
# Poissons Ratio (y) = 0.32729 0.18971
# Poissons Ratio (z) = 0.16611 0.32283
#
# Static dielectric constant tensor:
#      x y z
#    x 3.225820 0.000000 -0.223880 
#    y 0.000000 3.383610 0.000000 
#    z -0.223880 0.000000 3.214540 
# 
# 
# High freq. dielectric constant tensor:
#      x y z
#    x 1.683070 0.000000 -0.017000 
#    y 0.000000 1.711650 0.000000 
#    z -0.017000 0.000000 1.682220 
# 
# From -- ./inp_files/49496.got.cif
#   From: 2010.06.25/outbox.cif.g09.slc.cpg/sg11_25_cif.got.tgz:49496.got - 2010.06.27 23:14:04.
