data_PCOD8070482
_publ_section_title
;
Structure prediction by ZEFSAII (Michael W. Deem and Ramdas Pophale) SiO2 
 PCOD8070482
Probable space group: P 21/M
;
_chemical_formula_sum "Si O2"
_cell_formula_units_Z 32
_cell_length_a 24.275512
_cell_length_b 8.795884
_cell_length_c 19.813194
_cell_angle_alpha 90.000000
_cell_angle_beta 155.674264
_cell_angle_gamma 90.000000
_cell_volume 1742.686082
_symmetry_space_group_name_H-M "P 21/M"
_symmetry_group_IT_number 11
_symmetry_cell_setting 'monoclinic'
loop_
_space_group_symop_operation_xyz
x,y,z
-x,1/2+y,-z
-x,-y,-z
x,1/2-y,z
loop_
_atom_site_type_symbol
_atom_site_label
_atom_site_fract_x
_atom_site_fract_y
_atom_site_fract_z
Si Si1 0.905992 0.430314 0.246200
Si Si2 0.690905 0.421111 0.754279
Si Si3 0.287940 0.430576 0.860979
Si Si4 0.561074 0.929734 0.207749
Si Si5 0.465561 0.573490 0.680189
Si Si6 0.195690 0.429909 0.612552
Si Si7 0.386159 0.078828 0.460395
Si Si8 0.766459 0.573439 0.970532
O O1 0.897996 0.250000 0.241360
O O2 0.797196 0.500496 0.173990
O O3 0.051665 0.493528 0.429368
O O4 0.875453 0.484066 0.136263
O O5 0.746140 0.250000 0.810668
O O6 0.708687 0.502732 0.701881
O O7 0.536777 0.420732 0.602455
O O8 0.775830 0.511828 0.904793
O O9 0.284036 0.250000 0.862436
O O10 0.229656 0.491222 0.725092
O O11 0.439355 0.485235 0.036120
O O12 0.538742 0.750000 0.177446
O O13 0.693502 0.985270 0.316749
O O14 0.577672 0.976452 0.303754
O O15 0.437743 0.750000 0.662386
O O16 0.375621 0.518131 0.517133
O O17 0.620894 0.542499 0.839232
O O18 0.191976 0.250000 0.610026
O O19 0.336420 0.250000 0.418501
O O20 0.801915 0.750000 0.009791
#
# Coordination Sequence:
#
# PCOD8070482 Si02
#       8
#     4   4   4   4   4   4   4   4
#     4  11  21  36  56  78 104 138 178 218 265 317
#     4   9  16  26  42  67 100 136 173 211 258 308
#     4  11  21  37  57  79 106 135 172 219 269 319
#     4  11  21  36  56  78 104 138 178 218 265 317
#     4  10  19  31  48  72 104 137 173 216 262 309
#     4   9  22  39  55  77 106 137 174 221 267 317
#     4   9  16  26  42  67 100 136 173 211 258 308
#     4  10  19  31  48  72 104 137 173 216 262 309
#
# _framework density 18.362458
#
# number of rings (size 3 to 8) (size 9 to 14) (size 15 to 20)
#    0.000    2.000    1.250    3.375    0.000    4.000 
#    0.000    6.250    0.000    0.000    0.000    0.875 
#    0.000    0.000    0.000    0.000    0.000    0.000 
#
# Total GULP energy -396877.021288 kJ/mol
# GULP energy per Si atom -12402.406915 kJ/mol
# Density = 1.832066 g / cm^3
# Si number density = 18.362458 Si / 1000 Ang^3
#
#
#
# Elastic Constant Matrix: (Units=GPa)
#
#
# Indices 1 2 3 4 5 6 
#
# 1 54.2698 25.3105 55.3797 0.0000 -29.3519 0.0000
# 2 25.3105 86.7533 34.2574 0.0000 -11.3785 0.0000
# 3 55.3797 34.2574 87.0974 0.0000 -23.2858 0.0000
# 4 0.0000 0.0000 0.0000 23.7042 0.0000 -13.2028
# 5 -29.3519 -11.3785 -23.2858 0.0000 35.4614 0.0000
# 6 0.0000 0.0000 0.0000 -13.2028 0.0000 20.5157
#
#
#
# Elastic Compliance Matrix: (Units=1/GPa)
#
#
# Indices 1 2 3 4 5 6 
#
# 1 0.085180 -0.002824 -0.041777 0.000000 0.042166 0.000000
# 2 -0.002824 0.013772 -0.003717 0.000000 -0.000360 0.000000
# 3 -0.041777 -0.003717 0.036319 0.000000 -0.011923 0.000000
# 4 0.000000 0.000000 0.000000 0.065757 0.000000 0.042318
# 5 0.042166 -0.000360 -0.011923 0.000000 0.055156 0.000000
# 6 0.000000 0.000000 0.000000 0.042318 0.000000 0.075977
#
#
# Mechanical properties :
#
#
# Convention : Reuss Voigt Hill
#
# Bulk Modulus (GPa) = 25.88345 50.89065 38.38705
# Shear Modulus (GPa) = 11.32055 23.48110 17.40083
#
# Velocity S-wave (km/s) = 2.48565 3.57985 3.08170
# Velocity P-wave (km/s) = 4.72910 6.69789 5.79768
#
# Compressibility (1/GPa) = 0.03863472
#
# Stress axis : x y z
#
# Youngs Moduli (GPa) = 11.73984 72.61348 27.53386
#
# Poissons Ratio (x) = 0.20507 1.15027
# Poissons Ratio (y) = 0.03316 0.10235
# Poissons Ratio (z) = 0.49045 0.26991
#
# Static dielectric constant tensor:
#      x y z
#    x 3.345600 0.000000 -0.304130 
#    y 0.000000 3.421920 0.000000 
#    z -0.304130 0.000000 3.420060 
# 
# 
# High freq. dielectric constant tensor:
#      x y z
#    x 1.699160 0.000000 -0.036320 
#    y 0.000000 1.718570 0.000000 
#    z -0.036320 0.000000 1.695480 
# 
# From -- ./inp_files/67252.got.cif
#   From: 2010.06.25/outbox.cif.g09.slc.cpg/sg11_34_cif.got.tgz:67252.got - 2010.06.27 23:14:04.
