data_PCOD8070040
_publ_section_title
;
Structure prediction by ZEFSAII (Michael W. Deem and Ramdas Pophale) SiO2 
 PCOD8070040
Probable space group: P 21/M
;
_chemical_formula_sum "Si O2"
_cell_formula_units_Z 32
_cell_length_a 15.065666
_cell_length_b 9.009901
_cell_length_c 30.704140
_cell_angle_alpha 90.000000
_cell_angle_beta 28.683049
_cell_angle_gamma 90.000000
_cell_volume 2000.386572
_symmetry_space_group_name_H-M "P 21/M"
_symmetry_group_IT_number 11
_symmetry_cell_setting 'monoclinic'
loop_
_space_group_symop_operation_xyz
x,y,z
-x,1/2+y,-z
-x,-y,-z
x,1/2-y,z
loop_
_atom_site_type_symbol
_atom_site_label
_atom_site_fract_x
_atom_site_fract_y
_atom_site_fract_z
Si Si1 0.783113 0.578324 0.554668
Si Si2 0.544812 0.575576 0.579030
Si Si3 0.234774 0.078134 0.098016
Si Si4 0.839742 0.577983 0.627171
Si Si5 0.856815 0.574112 0.379554
Si Si6 0.249176 0.574677 0.249368
Si Si7 0.832398 0.424751 0.297489
Si Si8 0.532975 0.576906 0.917499
O O1 0.839500 0.750000 0.522055
O O2 0.603974 0.534146 0.602970
O O3 0.736654 0.551162 0.625335
O O4 0.951037 0.477932 0.466368
O O5 0.540677 0.750000 0.574773
O O6 0.695405 0.511541 0.480317
O O7 0.339957 0.514212 0.656878
O O8 0.269819 0.250000 0.071985
O O9 0.316652 0.039063 0.110187
O O10 0.018765 0.036160 0.191019
O O11 0.332097 0.979779 0.019206
O O12 0.842681 0.750000 0.638661
O O13 0.727716 0.488031 0.711826
O O14 0.850868 0.750000 0.377743
O O15 0.827063 0.504756 0.345614
O O16 0.051876 0.522402 0.315499
O O17 0.269635 0.750000 0.241667
O O18 0.411966 0.507918 0.149985
O O19 0.821996 0.250000 0.310895
O O20 0.521791 0.750000 0.912216
#
# Coordination Sequence:
#
# PCOD8070040 Si02
#       8
#     4   4   4   4   4   4   4   4
#     4   9  17  32  48  66  93 124 157 192 233 278
#     4   9  17  31  48  66  91 127 162 190 227 271
#     4   9  18  31  45  67  93 120 153 191 233 275
#     4  10  19  29  47  70  93 121 156 196 233 274
#     4  10  19  30  44  64  94 129 161 188 222 270
#     4  11  20  31  48  68  95 128 155 188 233 280
#     4  10  19  31  48  67  92 124 160 197 225 264
#     4  10  19  31  48  68  92 120 154 194 232 277
#
# _framework density 15.996909
#
# number of rings (size 3 to 8) (size 9 to 14) (size 15 to 20)
#    0.000    2.250    2.500    1.500    0.000    2.000 
#    0.000    0.625    0.000    0.000    0.000    0.875 
#    0.000    0.000    0.000    0.000    0.000    0.000 
#
# Total GULP energy -396800.200869 kJ/mol
# GULP energy per Si atom -12400.006277 kJ/mol
# Density = 1.596050 g / cm^3
# Si number density = 15.996909 Si / 1000 Ang^3
#
#
#
# Elastic Constant Matrix: (Units=GPa)
#
#
# Indices 1 2 3 4 5 6 
#
# 1 103.7133 35.9184 58.7454 0.0000 8.8421 0.0000
# 2 35.9184 49.7827 36.8827 0.0000 10.2148 0.0000
# 3 58.7454 36.8827 106.8652 0.0000 9.6160 0.0000
# 4 0.0000 0.0000 0.0000 24.6811 0.0000 7.7845
# 5 8.8421 10.2148 9.6160 0.0000 24.0009 0.0000
# 6 0.0000 0.0000 0.0000 7.7845 0.0000 19.4230
#
#
#
# Elastic Compliance Matrix: (Units=1/GPa)
#
#
# Indices 1 2 3 4 5 6 
#
# 1 0.015433 -0.006431 -0.006223 0.000000 -0.000455 0.000000
# 2 -0.006431 0.031253 -0.006502 0.000000 -0.008327 0.000000
# 3 -0.006223 -0.006502 0.015112 0.000000 -0.000995 0.000000
# 4 0.000000 0.000000 0.000000 0.046380 0.000000 -0.018588
# 5 -0.000455 -0.008327 -0.000995 0.000000 0.045775 0.000000
# 6 0.000000 0.000000 0.000000 -0.018588 0.000000 0.058935
#
#
# Mechanical properties :
#
#
# Convention : Reuss Voigt Hill
#
# Bulk Modulus (GPa) = 42.57882 58.16159 50.37021
# Shear Modulus (GPa) = 19.30284 22.20865 20.75574
#
# Velocity S-wave (km/s) = 3.47747 3.73004 3.60597
# Velocity P-wave (km/s) = 6.54205 7.41538 6.99237
#
# Compressibility (1/GPa) = 0.02348585
#
# Stress axis : x y z
#
# Youngs Moduli (GPa) = 64.79668 31.99698 66.17188
#
# Poissons Ratio (x) = 0.20577 0.41180
# Poissons Ratio (y) = 0.41670 0.43025
# Poissons Ratio (z) = 0.40325 0.20804
#
# Static dielectric constant tensor:
#      x y z
#    x 3.119390 0.000000 -0.028340 
#    y 0.000000 2.972130 0.000000 
#    z -0.028340 0.000000 3.054060 
# 
# 
# High freq. dielectric constant tensor:
#      x y z
#    x 1.598410 0.000000 0.010550 
#    y 0.000000 1.611190 0.000000 
#    z 0.010550 0.000000 1.602600 
# 
# From -- ./inp_files/51213.got.cif
#   From: 2010.06.25/outbox.cif.g09.slc.cpg/sg11_26_cif.got.tgz:51213.got - 2010.06.27 23:14:04.
