data_PCOD8070732
_publ_section_title
;
Structure prediction by ZEFSAII (Michael W. Deem and Ramdas Pophale) SiO2 
 PCOD8070732
Probable space group: P 21/M
;
_chemical_formula_sum "Si O2"
_cell_formula_units_Z 28
_cell_length_a 18.485197
_cell_length_b 13.257065
_cell_length_c 15.855665
_cell_angle_alpha 90.000000
_cell_angle_beta 22.232127
_cell_angle_gamma 90.000000
_cell_volume 1470.147850
_symmetry_space_group_name_H-M "P 21/M"
_symmetry_group_IT_number 11
_symmetry_cell_setting 'monoclinic'
loop_
_space_group_symop_operation_xyz
x,y,z
-x,1/2+y,-z
-x,-y,-z
x,1/2-y,z
loop_
_atom_site_type_symbol
_atom_site_label
_atom_site_fract_x
_atom_site_fract_y
_atom_site_fract_z
Si Si1 0.443244 0.510177 0.315582
Si Si2 0.746792 0.365443 0.935935
Si Si3 0.525781 0.370087 0.879800
Si Si4 0.776151 0.477442 0.736546
Si Si5 0.990442 0.637213 0.064165
Si Si6 0.114881 0.362857 0.636212
Si Si7 0.320903 0.522032 0.634770
O O1 0.479280 0.605019 0.214958
O O2 0.281937 0.442504 0.445235
O O3 0.385986 0.548718 0.469701
O O4 0.628056 0.438546 0.126127
O O5 0.680834 0.250000 0.019951
O O6 0.711776 0.399507 0.878358
O O7 0.970401 0.378476 0.714967
O O8 0.524825 0.250000 0.892885
O O9 0.716143 0.420916 0.714929
O O10 0.339155 0.417456 0.127177
O O11 0.000000 0.500000 0.500000
O O12 0.934958 0.750000 0.100555
O O13 0.002730 0.619225 0.150867
O O14 0.819328 0.573369 0.208606
O O15 0.199458 0.615811 0.800378
O O16 0.202427 0.250000 0.540280
O O17 0.500000 0.500000 0.500000
#
# Coordination Sequence:
#
# PCOD8070732 Si02
#       7
#     4   4   4   4   4   4   4
#     4  10  20  34  52  74 106 140 173 214 266 316
#     4  10  19  31  52  80 103 128 169 214 257 311
#     4  10  22  38  55  79 110 142 178 219 264 319
#     4  10  21  38  58  79 106 140 177 218 263 313
#     4   9  19  34  51  75 105 136 174 218 263 313
#     4   9  17  31  52  77 105 134 166 211 264 312
#     4  10  20  34  54  77 104 140 180 222 265 312
#
# _framework density 19.045703
#
# number of rings (size 3 to 8) (size 9 to 14) (size 15 to 20)
#    0.000    2.286    0.000    2.571    0.000    2.857 
#    0.000    3.571    0.000    0.000    0.000    0.000 
#    0.000    0.000    0.000    0.000    0.000    0.000 
#
# Total GULP energy -347190.681848 kJ/mol
# GULP energy per Si atom -12399.667209 kJ/mol
# Density = 1.900235 g / cm^3
# Si number density = 19.045703 Si / 1000 Ang^3
#
#
#
# Elastic Constant Matrix: (Units=GPa)
#
#
# Indices 1 2 3 4 5 6 
#
# 1 80.3529 30.4141 24.4826 0.0000 -10.6105 0.0000
# 2 30.4141 102.6437 31.8102 0.0000 -5.0181 0.0000
# 3 24.4826 31.8102 83.8596 0.0000 -11.1226 0.0000
# 4 0.0000 0.0000 0.0000 20.5248 0.0000 -0.7132
# 5 -10.6105 -5.0181 -11.1226 0.0000 31.0329 0.0000
# 6 0.0000 0.0000 0.0000 -0.7132 0.0000 20.2551
#
#
#
# Elastic Compliance Matrix: (Units=1/GPa)
#
#
# Indices 1 2 3 4 5 6 
#
# 1 0.015030 -0.003474 -0.002586 0.000000 0.003650 0.000000
# 2 -0.003474 0.011846 -0.003552 0.000000 -0.000545 0.000000
# 3 -0.002586 -0.003552 0.014524 0.000000 0.003747 0.000000
# 4 0.000000 0.000000 0.000000 0.048781 0.000000 0.001718
# 5 0.003650 -0.000545 0.003747 0.000000 0.034727 0.000000
# 6 0.000000 0.000000 0.000000 0.001718 0.000000 0.049431
#
#
# Mechanical properties :
#
#
# Convention : Reuss Voigt Hill
#
# Bulk Modulus (GPa) = 45.09205 48.91889 47.00547
# Shear Modulus (GPa) = 24.88140 26.37249 25.62695
#
# Velocity S-wave (km/s) = 3.61834 3.72519 3.67215
# Velocity P-wave (km/s) = 6.41745 6.65157 6.53556
#
# Compressibility (1/GPa) = 0.02217686
#
# Stress axis : x y z
#
# Youngs Moduli (GPa) = 66.53424 84.41881 68.85192
#
# Poissons Ratio (x) = 0.29323 0.17806
# Poissons Ratio (y) = 0.23111 0.24453
# Poissons Ratio (z) = 0.17207 0.29982
#
# Static dielectric constant tensor:
#      x y z
#    x 3.453850 0.000000 0.008100 
#    y 0.000000 3.403910 0.000000 
#    z 0.008100 0.000000 3.531690 
# 
# 
# High freq. dielectric constant tensor:
#      x y z
#    x 1.743200 0.000000 -0.001780 
#    y 0.000000 1.730250 0.000000 
#    z -0.001780 0.000000 1.741720 
# 
# From -- ./inp_files/61472.got.cif
#   From: 2010.06.25/outbox.cif.g09.slc.cpg/sg11_31_cif.got.tgz:61472.got - 2010.06.27 23:14:04.
