data_PCOD8070806
_publ_section_title
;
Structure prediction by ZEFSAII (Michael W. Deem and Ramdas Pophale) SiO2 
 PCOD8070806
Probable space group: P 21/M
;
_chemical_formula_sum "Si O2"
_cell_formula_units_Z 28
_cell_length_a 19.131049
_cell_length_b 8.807209
_cell_length_c 15.059514
_cell_angle_alpha 90.000000
_cell_angle_beta 37.291548
_cell_angle_gamma 90.000000
_cell_volume 1537.334041
_symmetry_space_group_name_H-M "P 21/M"
_symmetry_group_IT_number 11
_symmetry_cell_setting 'monoclinic'
loop_
_space_group_symop_operation_xyz
x,y,z
-x,1/2+y,-z
-x,-y,-z
x,1/2-y,z
loop_
_atom_site_type_symbol
_atom_site_label
_atom_site_fract_x
_atom_site_fract_y
_atom_site_fract_z
Si Si1 0.462831 0.927804 0.946127
Si Si2 0.372488 0.422842 0.381355
Si Si3 0.171054 0.571310 0.671486
Si Si4 0.413492 0.575238 0.727847
Si Si5 0.914840 0.570851 0.901677
Si Si6 0.717788 0.573233 0.982202
Si Si7 0.248752 0.070194 0.775058
O O1 0.458411 0.750000 0.962189
O O2 0.553380 0.976721 0.778464
O O3 0.333797 0.982948 0.049831
O O4 0.500000 0.000000 0.000000
O O5 0.331171 0.250000 0.409806
O O6 0.261295 0.530795 0.502273
O O7 0.448703 0.435740 0.395207
O O8 0.171165 0.750000 0.690359
O O9 0.206510 0.479509 0.722154
O O10 0.045512 0.510101 0.768194
O O11 0.374198 0.750000 0.782424
O O12 0.356605 0.462719 0.856033
O O13 0.371079 0.512904 0.674975
O O14 0.915729 0.750000 0.907798
O O15 0.849126 0.524002 0.876123
O O16 0.846671 0.511069 0.057474
O O17 0.709999 0.750000 0.967319
O O18 0.267448 0.250000 0.757918
#
# Coordination Sequence:
#
# PCOD8070806 Si02
#       7
#     4   4   4   4   4   4   4
#     4  10  20  35  57  83 106 126 155 196 242 295
#     4   9  20  36  50  70 101 131 159 196 247 300
#     4  11  21  32  48  70  98 133 172 209 244 288
#     4   9  17  31  49  69  96 128 166 210 250 293
#     4   8  17  32  49  71  98 131 170 209 246 284
#     4   9  16  30  52  76 102 129 159 198 246 293
#     4  10  19  32  49  69  96 130 171 215 256 292
#
# _framework density 18.213346999999999
#
# number of rings (size 3 to 8) (size 9 to 14) (size 15 to 20)
#    0.000    2.571    0.000    4.286    0.000    4.000 
#    0.000    7.857    0.000    0.857    0.000    0.000 
#    0.000    0.000    0.000    0.000    0.000    0.000 
#
# Total GULP energy -347008.198442 kJ/mol
# GULP energy per Si atom -12393.149944 kJ/mol
# Density = 1.817189 g / cm^3
# Si number density = 18.213347 Si / 1000 Ang^3
#
#
#
# Elastic Constant Matrix: (Units=GPa)
#
#
# Indices 1 2 3 4 5 6 
#
# 1 137.6257 41.2859 47.5105 0.0000 -4.6617 0.0000
# 2 41.2859 64.9877 32.7428 0.0000 -4.7834 0.0000
# 3 47.5105 32.7428 65.9058 0.0000 -13.7517 0.0000
# 4 0.0000 0.0000 0.0000 23.4051 0.0000 0.8633
# 5 -4.6617 -4.7834 -13.7517 0.0000 21.1420 0.0000
# 6 0.0000 0.0000 0.0000 0.8633 0.0000 31.1562
#
#
#
# Elastic Compliance Matrix: (Units=1/GPa)
#
#
# Indices 1 2 3 4 5 6 
#
# 1 0.010434 -0.003678 -0.006234 0.000000 -0.002586 0.000000
# 2 -0.003678 0.021919 -0.008530 0.000000 -0.001400 0.000000
# 3 -0.006234 -0.008530 0.026861 0.000000 0.014167 0.000000
# 4 0.000000 0.000000 0.000000 0.042770 0.000000 -0.001185
# 5 -0.002586 -0.001400 0.014167 0.000000 0.055627 0.000000
# 6 0.000000 0.000000 0.000000 -0.001185 0.000000 0.032129
#
#
# Mechanical properties :
#
#
# Convention : Reuss Voigt Hill
#
# Bulk Modulus (GPa) = 44.78423 56.84418 50.81420
# Shear Modulus (GPa) = 21.36135 24.93932 23.15033
#
# Velocity S-wave (km/s) = 3.42839 3.70440 3.56907
# Velocity P-wave (km/s) = 6.34932 7.04093 6.70405
#
# Compressibility (1/GPa) = 0.02232929
#
# Stress axis : x y z
#
# Youngs Moduli (GPa) = 95.84115 45.62278 37.22835
#
# Poissons Ratio (x) = 0.16780 0.23208
# Poissons Ratio (y) = 0.35251 0.31757
# Poissons Ratio (z) = 0.59748 0.38918
#
# Static dielectric constant tensor:
#      x y z
#    x 3.743480 0.000000 -0.407660 
#    y 0.000000 3.318030 0.000000 
#    z -0.407660 0.000000 3.330350 
# 
# 
# High freq. dielectric constant tensor:
#      x y z
#    x 1.709010 0.000000 -0.020240 
#    y 0.000000 1.705500 0.000000 
#    z -0.020240 0.000000 1.669050 
# 
# From -- ./inp_files/40389.got.cif
#   From: 2010.06.25/outbox.cif.g09.slc.cpg/sg11_21_cif.got.tgz:40389.got - 2010.06.27 23:14:04.
