data_PCOD8070645
_publ_section_title
;
Structure prediction by ZEFSAII (Michael W. Deem and Ramdas Pophale) SiO2 
 PCOD8070645
Probable space group: P 21/M
;
_chemical_formula_sum "Si O2"
_cell_formula_units_Z 32
_cell_length_a 20.433560
_cell_length_b 9.021690
_cell_length_c 20.602436
_cell_angle_alpha 90.000000
_cell_angle_beta 28.151018
_cell_angle_gamma 90.000000
_cell_volume 1791.867288
_symmetry_space_group_name_H-M "P 21/M"
_symmetry_group_IT_number 11
_symmetry_cell_setting 'monoclinic'
loop_
_space_group_symop_operation_xyz
x,y,z
-x,1/2+y,-z
-x,-y,-z
x,1/2-y,z
loop_
_atom_site_type_symbol
_atom_site_label
_atom_site_fract_x
_atom_site_fract_y
_atom_site_fract_z
Si Si1 0.252488 0.924730 0.043774
Si Si2 0.632373 0.416601 0.806193
Si Si3 0.091208 0.921698 0.866853
Si Si4 0.635353 0.923454 0.408402
Si Si5 0.564201 0.577061 0.740788
Si Si6 0.998711 0.920690 0.802378
Si Si7 0.271536 0.421580 0.530138
Si Si8 0.309855 0.082985 0.121223
O O1 0.233881 0.750000 0.065553
O O2 0.402529 0.968405 0.883433
O O3 0.231026 0.993338 0.133935
O O4 0.138688 0.990026 0.095251
O O5 0.690317 0.250000 0.751980
O O6 0.651314 0.492584 0.719784
O O7 0.720204 0.505331 0.783432
O O8 0.472406 0.417877 0.965437
O O9 0.113011 0.750000 0.865133
O O10 0.017501 0.942044 0.862401
O O11 0.237855 0.002999 0.740138
O O12 0.000000 0.000000 0.000000
O O13 0.632323 0.750000 0.395386
O O14 0.646325 0.954835 0.475510
O O15 0.500000 0.000000 0.500000
O O16 0.580553 0.750000 0.740885
O O17 0.626315 0.531287 0.617131
O O18 0.980520 0.750000 0.798849
O O19 0.131330 0.983676 0.647976
O O20 0.228752 0.250000 0.563098
O O21 0.251745 0.250000 0.174258
#
# Coordination Sequence:
#
# PCOD8070645 Si02
#       8
#     4   4   4   4   4   4   4   4
#     4  10  19  31  50  76 104 134 169 210 253 298
#     4   9  16  26  43  69  99 130 164 204 252 301
#     4  10  21  37  56  78 104 135 172 214 259 309
#     4  10  20  35  55  79 106 137 173 213 257 306
#     4   9  18  32  50  74 101 130 168 210 250 295
#     4  10  21  36  53  75 103 135 170 207 251 303
#     4   9  19  36  55  74 100 136 173 206 247 302
#     4   9  16  27  44  67  98 133 167 207 251 295
#
# _framework density 17.858464999999999
#
# number of rings (size 3 to 8) (size 9 to 14) (size 15 to 20)
#    0.000    2.500    0.000    2.250    0.000    7.000 
#    0.000    1.250    0.000    0.750    0.000    0.000 
#    0.000    0.000    0.000    0.000    0.000    0.000 
#
# Total GULP energy -396867.872351 kJ/mol
# GULP energy per Si atom -12402.121011 kJ/mol
# Density = 1.781782 g / cm^3
# Si number density = 17.858465 Si / 1000 Ang^3
#
#
#
# Elastic Constant Matrix: (Units=GPa)
#
#
# Indices 1 2 3 4 5 6 
#
# 1 89.3745 63.2148 69.0269 0.0000 5.4367 0.0000
# 2 63.2148 127.0105 63.8676 0.0000 3.3329 0.0000
# 3 69.0269 63.8676 103.7628 0.0000 11.6312 0.0000
# 4 0.0000 0.0000 0.0000 26.9425 0.0000 -1.1243
# 5 5.4367 3.3329 11.6312 0.0000 21.7044 0.0000
# 6 0.0000 0.0000 0.0000 -1.1243 0.0000 37.3061
#
#
#
# Elastic Compliance Matrix: (Units=1/GPa)
#
#
# Indices 1 2 3 4 5 6 
#
# 1 0.026001 -0.006067 -0.013764 0.000000 0.001794 0.000000
# 2 -0.006067 0.012912 -0.004107 0.000000 0.001738 0.000000
# 3 -0.013764 -0.004107 0.022197 0.000000 -0.007817 0.000000
# 4 0.000000 0.000000 0.000000 0.037163 0.000000 0.001120
# 5 0.001794 0.001738 -0.007817 0.000000 0.049546 0.000000
# 6 0.000000 0.000000 0.000000 0.001120 0.000000 0.026839
#
#
# Mechanical properties :
#
#
# Convention : Reuss Voigt Hill
#
# Bulk Modulus (GPa) = 75.54966 79.15184 77.35075
# Shear Modulus (GPa) = 22.03169 25.45984 23.74576
#
# Velocity S-wave (km/s) = 3.51619 3.77987 3.65041
# Velocity P-wave (km/s) = 7.67342 7.96667 7.82142
#
# Compressibility (1/GPa) = 0.01323633
#
# Stress axis : x y z
#
# Youngs Moduli (GPa) = 38.45982 77.44494 45.05032
#
# Poissons Ratio (x) = 0.46986 0.62006
# Poissons Ratio (y) = 0.23334 0.18500
# Poissons Ratio (z) = 0.52935 0.31803
#
# Static dielectric constant tensor:
#      x y z
#    x 3.336300 0.000000 0.106990 
#    y 0.000000 3.297960 0.000000 
#    z 0.106990 0.000000 3.104420 
# 
# 
# High freq. dielectric constant tensor:
#      x y z
#    x 1.693630 0.000000 0.009550 
#    y 0.000000 1.706490 0.000000 
#    z 0.009550 0.000000 1.664020 
# 
# From -- ./inp_files/66409.got.cif
#   From: 2010.06.25/outbox.cif.g09.slc.cpg/sg11_34_cif.got.tgz:66409.got - 2010.06.27 23:14:04.
