data_PCOD8070339
_publ_section_title
;
Structure prediction by ZEFSAII (Michael W. Deem and Ramdas Pophale) SiO2 
 PCOD8070339
Probable space group: P 21/M
;
_chemical_formula_sum "Si O2"
_cell_formula_units_Z 32
_cell_length_a 18.719863
_cell_length_b 9.306953
_cell_length_c 11.963481
_cell_angle_alpha 90.000000
_cell_angle_beta 109.029725
_cell_angle_gamma 90.000000
_cell_volume 1970.426184
_symmetry_space_group_name_H-M "P 21/M"
_symmetry_group_IT_number 11
_symmetry_cell_setting 'monoclinic'
loop_
_space_group_symop_operation_xyz
x,y,z
-x,1/2+y,-z
-x,-y,-z
x,1/2-y,z
loop_
_atom_site_type_symbol
_atom_site_label
_atom_site_fract_x
_atom_site_fract_y
_atom_site_fract_z
Si Si1 0.680302 0.917567 0.268587
Si Si2 0.149835 0.917911 0.016069
Si Si3 0.034976 0.082372 0.814310
Si Si4 0.430538 0.912979 0.916360
Si Si5 0.137651 0.917998 0.262154
Si Si6 0.796544 0.915412 0.506289
Si Si7 0.069483 0.417134 0.585657
Si Si8 0.728980 0.087898 0.099828
O O1 0.666532 0.750000 0.236855
O O2 0.713442 0.940721 0.410099
O O3 0.601751 0.006319 0.212105
O O4 0.742267 0.978464 0.210297
O O5 0.132520 0.750000 0.997487
O O6 0.164138 0.961258 0.151475
O O7 0.224308 0.963651 0.984384
O O8 0.075841 0.998675 0.934531
O O9 0.037737 0.250000 0.845127
O O10 0.077994 0.044634 0.721057
O O11 0.948229 0.030231 0.761454
O O12 0.455112 0.750000 0.898944
O O13 0.361827 0.912949 0.972329
O O14 0.500000 0.000000 0.000000
O O15 0.144971 0.750000 0.287748
O O16 0.194505 0.994196 0.376809
O O17 0.808601 0.750000 0.543857
O O18 0.856074 0.964395 0.442415
O O19 0.051866 0.250000 0.563200
O O20 0.000000 0.500000 0.500000
O O21 0.753697 0.250000 0.146989
#
# Coordination Sequence:
#
# PCOD8070339 Si02
#       8
#     4   4   4   4   4   4   4   4
#     4   9  17  30  49  72  98 126 153 186 229 279
#     4  10  20  34  49  67  90 123 164 203 241 284
#     4  10  20  33  47  67  90 119 160 207 252 290
#     4   9  17  30  49  76 105 130 151 181 225 278
#     4  10  21  34  48  64  89 125 166 207 244 281
#     4  10  20  32  46  66  93 123 158 197 239 284
#     4  10  19  31  46  65  89 118 155 198 244 289
#     4   8  17  31  47  70  98 124 154 187 231 282
#
# _framework density 16.240141999999999
#
# number of rings (size 3 to 8) (size 9 to 14) (size 15 to 20)
#    0.750    1.750    1.250    1.500    0.000    4.000 
#    0.000    0.000    0.000    0.000    0.000    0.875 
#    0.000    0.000    0.000    0.000    0.000    0.000 
#
# Total GULP energy -396571.086604 kJ/mol
# GULP energy per Si atom -12392.846456 kJ/mol
# Density = 1.620318 g / cm^3
# Si number density = 16.240142 Si / 1000 Ang^3
#
#
#
# Elastic Constant Matrix: (Units=GPa)
#
#
# Indices 1 2 3 4 5 6 
#
# 1 35.5230 23.1785 36.5442 0.0000 9.4136 0.0000
# 2 23.1785 73.1043 57.1960 0.0000 10.1392 0.0000
# 3 36.5442 57.1960 118.6708 0.0000 9.6184 0.0000
# 4 0.0000 0.0000 0.0000 31.4512 0.0000 4.6834
# 5 9.4136 10.1392 9.6184 0.0000 24.8389 0.0000
# 6 0.0000 0.0000 0.0000 4.6834 0.0000 19.4778
#
#
#
# Elastic Compliance Matrix: (Units=1/GPa)
#
#
# Indices 1 2 3 4 5 6 
#
# 1 0.045123 -0.004167 -0.010983 0.000000 -0.011147 0.000000
# 2 -0.004167 0.022969 -0.009452 0.000000 -0.004137 0.000000
# 3 -0.010983 -0.009452 0.016224 0.000000 0.001739 0.000000
# 4 0.000000 0.000000 0.000000 0.032976 0.000000 -0.007929
# 5 -0.011147 -0.004137 0.001739 0.000000 0.045499 0.000000
# 6 0.000000 0.000000 0.000000 -0.007929 0.000000 0.053247
#
#
# Mechanical properties :
#
#
# Convention : Reuss Voigt Hill
#
# Bulk Modulus (GPa) = 28.48155 51.23727 39.85941
# Shear Modulus (GPa) = 18.05396 22.51219 20.28307
#
# Velocity S-wave (km/s) = 3.33781 3.72722 3.53788
# Velocity P-wave (km/s) = 5.69478 7.08104 6.42540
#
# Compressibility (1/GPa) = 0.03511044
#
# Stress axis : x y z
#
# Youngs Moduli (GPa) = 22.16155 43.53662 61.63854
#
# Poissons Ratio (x) = 0.18144 0.67700
# Poissons Ratio (y) = 0.09236 0.58260
# Poissons Ratio (z) = 0.24341 0.41150
#
# Static dielectric constant tensor:
#      x y z
#    x 2.721230 0.000000 -0.264820 
#    y 0.000000 3.018220 0.000000 
#    z -0.264820 0.000000 2.721520 
# 
# 
# High freq. dielectric constant tensor:
#      x y z
#    x 1.594090 0.000000 0.006310 
#    y 0.000000 1.630410 0.000000 
#    z 0.006310 0.000000 1.613820 
# 
# From -- ./inp_files/43672.got.cif
#   From: 2010.06.25/outbox.cif.g09.slc.cpg/sg11_22_cif.got.tgz:43672.got - 2010.06.27 23:14:04.
