data_PCOD8070227
_publ_section_title
;
Structure prediction by ZEFSAII (Michael W. Deem and Ramdas Pophale) SiO2 
 PCOD8070227
Probable space group: P 21/M
;
_chemical_formula_sum "Si O2"
_cell_formula_units_Z 32
_cell_length_a 21.462903
_cell_length_b 9.207665
_cell_length_c 20.558013
_cell_angle_alpha 90.000000
_cell_angle_beta 153.974953
_cell_angle_gamma 90.000000
_cell_volume 1782.584440
_symmetry_space_group_name_H-M "P 21/M"
_symmetry_group_IT_number 11
_symmetry_cell_setting 'monoclinic'
loop_
_space_group_symop_operation_xyz
x,y,z
-x,1/2+y,-z
-x,-y,-z
x,1/2-y,z
loop_
_atom_site_type_symbol
_atom_site_label
_atom_site_fract_x
_atom_site_fract_y
_atom_site_fract_z
Si Si1 0.921482 0.582772 0.628969
Si Si2 0.131942 0.580979 0.154761
Si Si3 0.494448 0.919250 0.062600
Si Si4 0.336793 0.920063 0.669720
Si Si5 0.404412 0.418116 0.176530
Si Si6 0.759056 0.414683 0.083183
Si Si7 0.050688 0.081432 0.195013
Si Si8 0.738262 0.415712 0.853242
O O1 0.874581 0.750000 0.575558
O O2 0.818587 0.476625 0.493488
O O3 0.918827 0.540304 0.702237
O O4 0.077567 0.555614 0.745528
O O5 0.096070 0.750000 0.129530
O O6 0.160306 0.509708 0.252134
O O7 0.261671 0.559962 0.225143
O O8 0.000000 0.500000 0.000000
O O9 0.532212 0.750000 0.089427
O O10 0.609292 0.991964 0.217483
O O11 0.336047 0.940732 0.942250
O O12 0.500000 0.000000 0.000000
O O13 0.331855 0.750000 0.682494
O O14 0.438805 0.950659 0.703813
O O15 0.374422 0.250000 0.155424
O O16 0.386216 0.489532 0.230615
O O17 0.286698 0.480661 0.017547
O O18 0.741433 0.250000 0.040668
O O19 0.077101 0.250000 0.205763
O O20 0.889514 0.038696 0.026117
O O21 0.705049 0.250000 0.839060
#
# Coordination Sequence:
#
# PCOD8070227 Si02
#       8
#     4   4   4   4   4   4   4   4
#     4  10  19  34  54  77 105 137 173 212 257 309
#     4   9  17  27  40  63  96 131 168 212 260 309
#     4  10  20  37  62  85 108 140 171 206 250 297
#     4  10  22  37  52  78 111 138 171 212 253 303
#     4  10  19  30  48  74 102 132 170 217 261 302
#     4   9  18  34  55  78 105 136 171 209 252 302
#     4   9  17  29  46  69  99 131 166 212 261 309
#     4   9  16  28  45  67  97 131 169 216 261 308
#
# _framework density 17.951463
#
# number of rings (size 3 to 8) (size 9 to 14) (size 15 to 20)
#    0.000    2.500    1.250    2.250    0.000    5.500 
#    0.000    0.625    0.000    0.750    0.000    0.000 
#    0.000    0.000    0.000    0.000    0.000    0.000 
#
# Total GULP energy -396726.878808 kJ/mol
# GULP energy per Si atom -12397.714963 kJ/mol
# Density = 1.791060 g / cm^3
# Si number density = 17.951463 Si / 1000 Ang^3
#
#
#
# Elastic Constant Matrix: (Units=GPa)
#
#
# Indices 1 2 3 4 5 6 
#
# 1 114.6877 58.0224 39.0390 0.0000 0.2557 0.0000
# 2 58.0224 92.8568 38.5390 0.0000 1.8023 0.0000
# 3 39.0390 38.5390 75.2358 0.0000 1.6191 0.0000
# 4 0.0000 0.0000 0.0000 25.4411 0.0000 -2.0392
# 5 0.2557 1.8023 1.6191 0.0000 16.8448 0.0000
# 6 0.0000 0.0000 0.0000 -2.0392 0.0000 35.5725
#
#
#
# Elastic Compliance Matrix: (Units=1/GPa)
#
#
# Indices 1 2 3 4 5 6 
#
# 1 0.013408 -0.006984 -0.003398 0.000000 0.000870 0.000000
# 2 -0.006984 0.017326 -0.005224 0.000000 -0.001246 0.000000
# 3 -0.003398 -0.005224 0.017754 0.000000 -0.001096 0.000000
# 4 0.000000 0.000000 0.000000 0.039488 0.000000 0.002264
# 5 0.000870 -0.001246 -0.001096 0.000000 0.059591 0.000000
# 6 0.000000 0.000000 0.000000 0.002264 0.000000 0.028241
#
#
# Mechanical properties :
#
#
# Convention : Reuss Voigt Hill
#
# Bulk Modulus (GPa) = 57.88827 61.55344 59.72086
# Shear Modulus (GPa) = 23.49849 25.38367 24.44108
#
# Velocity S-wave (km/s) = 3.62194 3.76442 3.69387
# Velocity P-wave (km/s) = 7.05750 7.29779 7.17865
#
# Compressibility (1/GPa) = 0.01727466
#
# Stress axis : x y z
#
# Youngs Moduli (GPa) = 74.58454 57.71691 56.32411
#
# Poissons Ratio (x) = 0.40312 0.19139
# Poissons Ratio (y) = 0.52093 0.29425
# Poissons Ratio (z) = 0.25344 0.30152
#
# Static dielectric constant tensor:
#      x y z
#    x 3.629890 0.000000 0.114920 
#    y 0.000000 3.430980 0.000000 
#    z 0.114920 0.000000 2.969260 
# 
# 
# High freq. dielectric constant tensor:
#      x y z
#    x 1.701340 0.000000 0.008740 
#    y 0.000000 1.702760 0.000000 
#    z 0.008740 0.000000 1.652380 
# 
# From -- ./inp_files/70026.got.cif
#   From: 2010.06.25/outbox.cif.g09.slc.cpg/sg11_36_cif.got.tgz:70026.got - 2010.06.27 23:14:04.
