data_PCOD8070286
_publ_section_title
;
Structure prediction by ZEFSAII (Michael W. Deem and Ramdas Pophale) SiO2 
 PCOD8070286
Probable space group: P 21/M
;
_chemical_formula_sum "Si O2"
_cell_formula_units_Z 32
_cell_length_a 19.999015
_cell_length_b 9.081583
_cell_length_c 25.771268
_cell_angle_alpha 90.000000
_cell_angle_beta 158.204809
_cell_angle_gamma 90.000000
_cell_volume 1737.877217
_symmetry_space_group_name_H-M "P 21/M"
_symmetry_group_IT_number 11
_symmetry_cell_setting 'monoclinic'
loop_
_space_group_symop_operation_xyz
x,y,z
-x,1/2+y,-z
-x,-y,-z
x,1/2-y,z
loop_
_atom_site_type_symbol
_atom_site_label
_atom_site_fract_x
_atom_site_fract_y
_atom_site_fract_z
Si Si1 0.187695 0.923634 0.645878
Si Si2 0.314963 0.576184 0.851726
Si Si3 0.612876 0.579756 0.400948
Si Si4 0.283015 0.079180 0.201044
Si Si5 0.010481 0.579183 0.930370
Si Si6 0.009823 0.925497 0.710643
Si Si7 0.866785 0.423524 0.090493
Si Si8 0.531557 0.578910 0.223148
O O1 0.160821 0.750000 0.622546
O O2 0.260905 0.970050 0.754875
O O3 0.325355 0.977394 0.701908
O O4 0.000000 0.000000 0.500000
O O5 0.340744 0.750000 0.875853
O O6 0.158458 0.517307 0.777122
O O7 0.500000 0.500000 0.000000
O O8 0.608078 0.750000 0.412935
O O9 0.478068 0.496522 0.342856
O O10 0.548480 0.553062 0.296314
O O11 0.813786 0.515308 0.552721
O O12 0.308757 0.250000 0.208305
O O13 0.186086 0.050772 0.186657
O O14 0.161530 0.014106 0.067930
O O15 0.067700 0.750000 0.977132
O O16 0.007658 0.531062 0.867911
O O17 0.009605 0.750000 0.710280
O O18 0.055069 0.991812 0.800151
O O19 0.863671 0.250000 0.094203
O O20 0.663674 0.478266 0.935116
O O21 0.564818 0.750000 0.232974
#
# Coordination Sequence:
#
# PCOD8070286 Si02
#       8
#     4   4   4   4   4   4   4   4
#     4  11  23  37  54  79 110 141 176 222 271 321
#     4  10  21  38  58  80 106 138 179 222 269 322
#     4  10  19  34  54  76 105 140 177 214 257 311
#     4  10  19  30  50  78 107 137 171 215 262 307
#     4   9  17  32  52  76 105 137 174 213 257 309
#     4   9  18  32  53  77 101 134 175 214 252 308
#     4   9  16  30  53  78 100 130 174 217 254 302
#     4  10  19  33  55  77 101 136 176 220 265 313
#
# _framework density 18.413269
#
# number of rings (size 3 to 8) (size 9 to 14) (size 15 to 20)
#    0.000    2.250    1.250    2.250    0.000    5.000 
#    0.000    1.250    0.000    1.500    0.000    0.000 
#    0.000    0.000    0.000    0.000    0.000    0.000 
#
# Total GULP energy -396806.688470 kJ/mol
# GULP energy per Si atom -12400.209015 kJ/mol
# Density = 1.837136 g / cm^3
# Si number density = 18.413269 Si / 1000 Ang^3
#
#
#
# Elastic Constant Matrix: (Units=GPa)
#
#
# Indices 1 2 3 4 5 6 
#
# 1 83.3500 36.7203 36.9540 0.0000 27.3723 0.0000
# 2 36.7203 48.9536 39.3845 0.0000 7.6614 0.0000
# 3 36.9540 39.3845 124.5151 0.0000 18.7350 0.0000
# 4 0.0000 0.0000 0.0000 25.1751 0.0000 9.9483
# 5 27.3723 7.6614 18.7350 0.0000 32.7186 0.0000
# 6 0.0000 0.0000 0.0000 9.9483 0.0000 22.8852
#
#
#
# Elastic Compliance Matrix: (Units=1/GPa)
#
#
# Indices 1 2 3 4 5 6 
#
# 1 0.024419 -0.015945 0.000337 0.000000 -0.016888 0.000000
# 2 -0.015945 0.037888 -0.008671 0.000000 0.009433 0.000000
# 3 0.000337 -0.008671 0.011392 0.000000 -0.004775 0.000000
# 4 0.000000 0.000000 0.000000 0.047961 0.000000 -0.020849
# 5 -0.016888 0.009433 -0.004775 0.000000 0.045218 0.000000
# 6 0.000000 0.000000 0.000000 -0.020849 0.000000 0.052759
#
#
# Mechanical properties :
#
#
# Convention : Reuss Voigt Hill
#
# Bulk Modulus (GPa) = 39.77510 53.65957 46.71734
# Shear Modulus (GPa) = 18.07830 25.73977 21.90904
#
# Velocity S-wave (km/s) = 3.13678 3.74290 3.45316
# Velocity P-wave (km/s) = 5.89639 6.91983 6.42851
#
# Compressibility (1/GPa) = 0.02514136
#
# Stress axis : x y z
#
# Youngs Moduli (GPa) = 40.95203 26.39367 87.77935
#
# Poissons Ratio (x) = 0.42085 -0.02962
# Poissons Ratio (y) = 0.65298 0.76115
# Poissons Ratio (z) = -0.01382 0.22886
#
# Static dielectric constant tensor:
#      x y z
#    x 3.606840 0.000000 -0.021600 
#    y 0.000000 3.153550 0.000000 
#    z -0.021600 0.000000 3.485750 
# 
# 
# High freq. dielectric constant tensor:
#      x y z
#    x 1.727610 0.000000 0.009790 
#    y 0.000000 1.684800 0.000000 
#    z 0.009790 0.000000 1.712940 
# 
# From -- ./inp_files/72135.got.cif
#   From: 2010.06.25/outbox.cif.g09.slc.cpg/sg11_37_cif.got.tgz:72135.got - 2010.06.27 23:14:04.
