data_PCOD8070222
_publ_section_title
;
Structure prediction by ZEFSAII (Michael W. Deem and Ramdas Pophale) SiO2 
 PCOD8070222
Probable space group: P 21/M
;
_chemical_formula_sum "Si O2"
_cell_formula_units_Z 32
_cell_length_a 14.172047
_cell_length_b 13.167364
_cell_length_c 13.823997
_cell_angle_alpha 90.000000
_cell_angle_beta 42.175493
_cell_angle_gamma 90.000000
_cell_volume 1732.003495
_symmetry_space_group_name_H-M "P 21/M"
_symmetry_group_IT_number 11
_symmetry_cell_setting 'monoclinic'
loop_
_space_group_symop_operation_xyz
x,y,z
-x,1/2+y,-z
-x,-y,-z
x,1/2-y,z
loop_
_atom_site_type_symbol
_atom_site_label
_atom_site_fract_x
_atom_site_fract_y
_atom_site_fract_z
Si Si1 0.979982 0.366007 0.770132
Si Si2 0.352237 0.517245 0.459949
Si Si3 0.302178 0.974645 0.009794
Si Si4 0.578896 0.861466 0.758210
Si Si5 0.092177 0.966736 0.549637
Si Si6 0.373517 0.133522 0.791935
Si Si7 0.802647 0.936983 0.717557
Si Si8 0.750115 0.864307 0.314187
O O1 0.956423 0.250000 0.756420
O O2 0.835216 0.413364 0.919728
O O3 0.037807 0.424143 0.631647
O O4 0.088641 0.375181 0.776337
O O5 0.370196 0.431792 0.365924
O O6 0.207403 0.576404 0.538947
O O7 0.478399 0.596807 0.366319
O O8 0.341152 0.455131 0.568502
O O9 0.287257 0.012346 0.129906
O O10 0.326596 0.068826 0.919393
O O11 0.434356 0.900576 0.912552
O O12 0.554240 0.750000 0.734440
O O13 0.701059 0.853643 0.747043
O O14 0.952568 0.894735 0.646258
O O15 0.160105 0.978145 0.391895
O O16 0.389341 0.250000 0.813432
O O17 0.258042 0.121602 0.795236
O O18 0.694540 0.750000 0.383686
#
# Coordination Sequence:
#
# PCOD8070222 Si02
#       8
#     4   4   4   4   4   4   4   4
#     4   9  17  31  53  77  98 121 154 201 250 288
#     4   9  17  32  53  73  96 123 156 204 251 283
#     4  10  20  33  48  68 100 134 163 194 232 286
#     4  10  19  30  48  73  97 123 159 201 244 287
#     4   8  16  30  50  71  94 120 155 199 242 287
#     4  10  21  34  48  69  98 134 169 196 230 285
#     4   9  17  31  47  66  94 126 155 192 236 280
#     4   9  17  31  53  78  99 121 156 200 246 292
#
# _framework density 18.475714
#
# number of rings (size 3 to 8) (size 9 to 14) (size 15 to 20)
#    0.000    2.750    0.000    1.500    0.000    4.000 
#    0.000    0.625    0.000   30.000    0.000    0.000 
#    0.000    0.000    0.000    0.000    0.000    0.000 
#
# Total GULP energy -396528.047626 kJ/mol
# GULP energy per Si atom -12391.501488 kJ/mol
# Density = 1.843366 g / cm^3
# Si number density = 18.475714 Si / 1000 Ang^3
#
#
#
# Elastic Constant Matrix: (Units=GPa)
#
#
# Indices 1 2 3 4 5 6 
#
# 1 91.2800 35.6906 32.1434 0.0000 -6.5434 0.0000
# 2 35.6906 75.3386 29.6511 0.0000 -4.9735 0.0000
# 3 32.1434 29.6511 72.0350 0.0000 -15.3914 0.0000
# 4 0.0000 0.0000 0.0000 14.7013 0.0000 -3.0816
# 5 -6.5434 -4.9735 -15.3914 0.0000 18.7388 0.0000
# 6 0.0000 0.0000 0.0000 -3.0816 0.0000 20.9582
#
#
#
# Elastic Compliance Matrix: (Units=1/GPa)
#
#
# Indices 1 2 3 4 5 6 
#
# 1 0.014504 -0.005163 -0.004315 0.000000 0.000150 0.000000
# 2 -0.005163 0.017708 -0.005295 0.000000 -0.001452 0.000000
# 3 -0.004315 -0.005295 0.021061 0.000000 0.014387 0.000000
# 4 0.000000 0.000000 0.000000 0.070185 0.000000 0.010320
# 5 0.000150 -0.001452 0.014387 0.000000 0.064849 0.000000
# 6 0.000000 0.000000 0.000000 0.010320 0.000000 0.049231
#
#
# Mechanical properties :
#
#
# Convention : Reuss Voigt Hill
#
# Bulk Modulus (GPa) = 42.14658 48.18041 45.16349
# Shear Modulus (GPa) = 18.18231 20.29089 19.23660
#
# Velocity S-wave (km/s) = 3.14047 3.31758 3.23024
# Velocity P-wave (km/s) = 6.00096 6.38822 6.19761
#
# Compressibility (1/GPa) = 0.02372672
#
# Stress axis : x y z
#
# Youngs Moduli (GPa) = 68.94534 56.47317 47.48105
#
# Poissons Ratio (x) = 0.29158 0.20487
# Poissons Ratio (y) = 0.35597 0.25142
# Poissons Ratio (z) = 0.29748 0.29904
#
# Static dielectric constant tensor:
#      x y z
#    x 3.699740 0.000000 -0.282760 
#    y 0.000000 3.175270 0.000000 
#    z -0.282760 0.000000 3.417200 
# 
# 
# High freq. dielectric constant tensor:
#      x y z
#    x 1.729970 0.000000 -0.012190 
#    y 0.000000 1.685300 0.000000 
#    z -0.012190 0.000000 1.712810 
# 
# From -- ./inp_files/52294.got.cif
#   From: 2010.06.25/outbox.cif.g09.slc.cpg/sg11_27_cif.got.tgz:52294.got - 2010.06.27 23:14:04.
