data_PCOD8070091
_publ_section_title
;
Structure prediction by ZEFSAII (Michael W. Deem and Ramdas Pophale) SiO2 
 PCOD8070091
Probable space group: P 21/M
;
_chemical_formula_sum "Si O2"
_cell_formula_units_Z 32
_cell_length_a 25.575489
_cell_length_b 9.358037
_cell_length_c 11.583005
_cell_angle_alpha 90.000000
_cell_angle_beta 41.386877
_cell_angle_gamma 90.000000
_cell_volume 1832.835169
_symmetry_space_group_name_H-M "P 21/M"
_symmetry_group_IT_number 11
_symmetry_cell_setting 'monoclinic'
loop_
_space_group_symop_operation_xyz
x,y,z
-x,1/2+y,-z
-x,-y,-z
x,1/2-y,z
loop_
_atom_site_type_symbol
_atom_site_label
_atom_site_fract_x
_atom_site_fract_y
_atom_site_fract_z
Si Si1 0.756215 0.082701 0.307605
Si Si2 0.892774 0.417793 0.906591
Si Si3 0.393731 0.583531 0.592760
Si Si4 0.778876 0.579948 0.504105
Si Si5 0.301971 0.082237 0.135644
Si Si6 0.930867 0.918228 0.384293
Si Si7 0.432360 0.416563 0.752821
Si Si8 0.150275 0.081379 0.251902
O O1 0.752769 0.250000 0.341425
O O2 0.679509 0.033407 0.363021
O O3 0.755074 0.995664 0.426561
O O4 0.834835 0.042030 0.106874
O O5 0.890160 0.250000 0.883617
O O6 0.866918 0.499062 0.835952
O O7 0.981117 0.467873 0.796758
O O8 0.387788 0.750000 0.632701
O O9 0.391677 0.499583 0.715615
O O10 0.474816 0.547737 0.389472
O O11 0.776376 0.750000 0.489695
O O12 0.715898 0.525353 0.705706
O O13 0.865985 0.524981 0.400132
O O14 0.292761 0.250000 0.160760
O O15 0.236548 0.030864 0.152040
O O16 0.388570 0.036921 0.944561
O O17 0.922249 0.750000 0.397012
O O18 0.912100 0.968019 0.546241
O O19 0.418357 0.250000 0.751416
O O20 0.145655 0.250000 0.235017
#
# Coordination Sequence:
#
# PCOD8070091 Si02
#       8
#     4   4   4   4   4   4   4   4
#     4  10  21  34  45  63  94 125 150 181 224 266
#     4  10  19  30  45  65  92 123 149 177 222 276
#     4   9  18  31  46  68  99 125 142 174 224 267
#     4   9  18  34  52  65  83 116 157 194 223 257
#     4   8  15  29  49  70  89 114 149 188 227 261
#     4   8  16  31  48  66  89 117 147 185 230 264
#     4   9  16  29  51  73  92 117 149 180 215 267
#     4   9  16  28  47  70  94 114 141 185 228 266
#
# _framework density 17.459289999999999
#
# number of rings (size 3 to 8) (size 9 to 14) (size 15 to 20)
#    0.000    3.000    0.000    2.625    0.000    1.500 
#    0.000    4.375    0.000    0.000    0.000    0.000 
#    0.000    0.000    0.000    0.000    0.000    0.000 
#
# Total GULP energy -396622.699351 kJ/mol
# GULP energy per Si atom -12394.459355 kJ/mol
# Density = 1.741955 g / cm^3
# Si number density = 17.459290 Si / 1000 Ang^3
#
#
#
# Elastic Constant Matrix: (Units=GPa)
#
#
# Indices 1 2 3 4 5 6 
#
# 1 61.7782 28.0706 62.8349 0.0000 8.0947 0.0000
# 2 28.0706 29.8805 34.7342 0.0000 5.4595 0.0000
# 3 62.8349 34.7342 142.0020 0.0000 -5.5048 0.0000
# 4 0.0000 0.0000 0.0000 19.5794 0.0000 7.7962
# 5 8.0947 5.4595 -5.5048 0.0000 25.3712 0.0000
# 6 0.0000 0.0000 0.0000 7.7962 0.0000 25.6183
#
#
#
# Elastic Compliance Matrix: (Units=1/GPa)
#
#
# Indices 1 2 3 4 5 6 
#
# 1 0.040651 -0.020493 -0.013420 0.000000 -0.011472 0.000000
# 2 -0.020493 0.061500 -0.006288 0.000000 -0.008060 0.000000
# 3 -0.013420 -0.006288 0.014862 0.000000 0.008859 0.000000
# 4 0.000000 0.000000 0.000000 0.058116 0.000000 -0.017686
# 5 -0.011472 -0.008060 0.008859 0.000000 0.046731 0.000000
# 6 0.000000 0.000000 0.000000 -0.017686 0.000000 0.044417
#
#
# Mechanical properties :
#
#
# Convention : Reuss Voigt Hill
#
# Bulk Modulus (GPa) = 27.31356 53.88224 40.59790
# Shear Modulus (GPa) = 13.93218 21.31517 17.62367
#
# Velocity S-wave (km/s) = 2.82792 3.49786 3.18058
# Velocity P-wave (km/s) = 5.13234 6.87328 6.06560
#
# Compressibility (1/GPa) = 0.03661185
#
# Stress axis : x y z
#
# Youngs Moduli (GPa) = 24.59967 16.26020 67.28696
#
# Poissons Ratio (x) = 0.33322 0.90298
# Poissons Ratio (y) = 0.50412 0.42307
# Poissons Ratio (z) = 0.33012 0.10224
#
# Static dielectric constant tensor:
#      x y z
#    x 3.252870 0.000000 -0.277420 
#    y 0.000000 2.905110 0.000000 
#    z -0.277420 0.000000 3.617650 
# 
# 
# High freq. dielectric constant tensor:
#      x y z
#    x 1.664920 0.000000 -0.010400 
#    y 0.000000 1.645690 0.000000 
#    z -0.010400 0.000000 1.686570 
# 
# From -- ./inp_files/26570.got.cif
#   From: 2010.06.25/outbox.cif.g09.slc.cpg/sg11_14_cif.got.tgz:26570.got - 2010.06.27 23:14:04.
