data_PCOD8070643
_publ_section_title
;
Structure prediction by ZEFSAII (Michael W. Deem and Ramdas Pophale) SiO2 
 PCOD8070643
Probable space group: P 21/M
;
_chemical_formula_sum "Si O2"
_cell_formula_units_Z 28
_cell_length_a 9.576846
_cell_length_b 9.015482
_cell_length_c 18.799383
_cell_angle_alpha 90.000000
_cell_angle_beta 86.321204
_cell_angle_gamma 90.000000
_cell_volume 1619.791940
_symmetry_space_group_name_H-M "P 21/M"
_symmetry_group_IT_number 11
_symmetry_cell_setting 'monoclinic'
loop_
_space_group_symop_operation_xyz
x,y,z
-x,1/2+y,-z
-x,-y,-z
x,1/2-y,z
loop_
_atom_site_type_symbol
_atom_site_label
_atom_site_fract_x
_atom_site_fract_y
_atom_site_fract_z
Si Si1 0.317831 0.425264 0.315741
Si Si2 0.627503 0.422787 0.910018
Si Si3 0.583378 0.917090 0.284274
Si Si4 0.541214 0.418057 0.569854
Si Si5 0.344980 0.576036 0.928372
Si Si6 0.167151 0.075609 0.821991
Si Si7 0.859570 0.075562 0.789041
O O1 0.310446 0.250000 0.322488
O O2 0.454125 0.476973 0.264753
O O3 0.330013 0.497206 0.394651
O O4 0.180545 0.487823 0.281309
O O5 0.592751 0.250000 0.905479
O O6 0.487729 0.508972 0.891242
O O7 0.755668 0.469430 0.855976
O O8 0.670736 0.467037 0.988592
O O9 0.547186 0.750000 0.259319
O O10 0.591261 0.920272 0.370772
O O11 0.728725 0.970643 0.245767
O O12 0.500000 0.500000 0.500000
O O13 0.586666 0.250000 0.550508
O O14 0.346408 0.750000 0.915855
O O15 0.212585 0.506367 0.892408
O O16 0.168639 0.250000 0.836459
O O17 0.013374 0.021340 0.805919
O O18 0.855526 0.250000 0.773052
#
# Coordination Sequence:
#
# PCOD8070643 Si02
#       7
#     4   4   4   4   4   4   4
#     4  10  19  31  50  76 103 131 163 203 246 291
#     4   9  19  35  52  70  96 130 168 210 256 300
#     4   8  17  32  50  72  99 129 161 201 244 291
#     4   9  17  31  53  80 106 129 161 203 243 287
#     4  10  20  33  50  73  98 127 166 213 257 298
#     4  10  20  34  51  71  98 134 169 203 251 303
#     4  10  20  34  51  70  97 134 172 207 246 298
#
# _framework density 17.286171
#
# number of rings (size 3 to 8) (size 9 to 14) (size 15 to 20)
#    0.857    1.714    0.000    2.571    0.000    6.286 
#    0.000    0.000    0.000    0.857    0.000    0.000 
#    0.000    0.000    0.000    0.000    0.000    0.000 
#
# Total GULP energy -347056.922644 kJ/mol
# GULP energy per Si atom -12394.890094 kJ/mol
# Density = 1.724683 g / cm^3
# Si number density = 17.286171 Si / 1000 Ang^3
#
#
#
# Elastic Constant Matrix: (Units=GPa)
#
#
# Indices 1 2 3 4 5 6 
#
# 1 110.7176 43.8857 45.9476 0.0000 29.3183 0.0000
# 2 43.8857 85.4330 38.4889 0.0000 21.9215 0.0000
# 3 45.9476 38.4889 81.1874 0.0000 27.9303 0.0000
# 4 0.0000 0.0000 0.0000 28.0304 0.0000 10.1688
# 5 29.3183 21.9215 27.9303 0.0000 25.2445 0.0000
# 6 0.0000 0.0000 0.0000 10.1688 0.0000 21.7598
#
#
#
# Elastic Compliance Matrix: (Units=1/GPa)
#
#
# Indices 1 2 3 4 5 6 
#
# 1 0.014364 -0.003363 -0.002907 0.000000 -0.010545 0.000000
# 2 -0.003363 0.016821 -0.003858 0.000000 -0.006433 0.000000
# 3 -0.002907 -0.003858 0.021760 0.000000 -0.017348 0.000000
# 4 0.000000 0.000000 0.000000 0.042958 0.000000 -0.020075
# 5 -0.010545 -0.006433 -0.017348 0.000000 0.076639 0.000000
# 6 0.000000 0.000000 0.000000 -0.020075 0.000000 0.055338
#
#
# Mechanical properties :
#
#
# Convention : Reuss Voigt Hill
#
# Bulk Modulus (GPa) = 30.59233 59.33139 44.96186
# Shear Modulus (GPa) = 19.30259 24.94133 22.12196
#
# Velocity S-wave (km/s) = 3.34526 3.80261 3.58124
# Velocity P-wave (km/s) = 5.71463 7.32648 6.57017
#
# Compressibility (1/GPa) = 0.03268793
#
# Stress axis : x y z
#
# Youngs Moduli (GPa) = 69.61955 59.44803 45.95657
#
# Poissons Ratio (x) = 0.19993 0.13360
# Poissons Ratio (y) = 0.23413 0.17732
# Poissons Ratio (z) = 0.20239 0.22937
#
# Static dielectric constant tensor:
#      x y z
#    x 3.107350 0.000000 0.046580 
#    y 0.000000 3.142460 0.000000 
#    z 0.046580 0.000000 3.164820 
# 
# 
# High freq. dielectric constant tensor:
#      x y z
#    x 1.642440 0.000000 0.011540 
#    y 0.000000 1.667440 0.000000 
#    z 0.011540 0.000000 1.663370 
# 
# From -- ./inp_files/63066.got.cif
#   From: 2010.06.25/outbox.cif.g09.slc.cpg/sg11_32_cif.got.tgz:63066.got - 2010.06.27 23:14:04.
