data_PCOD8070484
_publ_section_title
;
Structure prediction by ZEFSAII (Michael W. Deem and Ramdas Pophale) SiO2 
 PCOD8070484
Probable space group: P 21/M
;
_chemical_formula_sum "Si O2"
_cell_formula_units_Z 32
_cell_length_a 20.646451
_cell_length_b 10.174131
_cell_length_c 27.168367
_cell_angle_alpha 90.000000
_cell_angle_beta 160.476085
_cell_angle_gamma 90.000000
_cell_volume 1907.273987
_symmetry_space_group_name_H-M "P 21/M"
_symmetry_group_IT_number 11
_symmetry_cell_setting 'monoclinic'
loop_
_space_group_symop_operation_xyz
x,y,z
-x,1/2+y,-z
-x,-y,-z
x,1/2-y,z
loop_
_atom_site_type_symbol
_atom_site_label
_atom_site_fract_x
_atom_site_fract_y
_atom_site_fract_z
Si Si1 0.350558 0.396004 0.375359
Si Si2 0.195395 0.605103 0.086593
Si Si3 0.757598 0.891897 0.809073
Si Si4 0.272832 0.600385 0.689521
Si Si5 0.709705 0.599711 0.018591
Si Si6 0.077379 0.900851 0.895844
Si Si7 0.665830 0.599037 0.101524
Si Si8 0.084423 0.100730 0.628468
O O1 0.500000 0.500000 0.500000
O O2 0.404840 0.250000 0.432808
O O3 0.371510 0.402341 0.331687
O O4 0.140858 0.434614 0.245517
O O5 0.277470 0.750000 0.157138
O O6 0.315935 0.498722 0.204004
O O7 0.211276 0.577086 0.039878
O O8 0.976039 0.592052 0.947193
O O9 0.730881 0.750000 0.815473
O O10 0.244320 0.750000 0.688506
O O11 0.499880 0.574840 0.843225
O O12 0.207795 0.500488 0.684942
O O13 0.145320 0.578132 0.548146
O O14 0.775481 0.750000 0.056340
O O15 0.860560 0.500275 0.102217
O O16 0.714205 0.567811 0.079754
O O17 0.096826 0.750000 0.891553
O O18 0.591834 0.750000 0.053486
O O19 0.859551 0.578095 0.274008
O O20 0.500000 0.500000 0.000000
O O21 0.141045 0.250000 0.653757
#
# Coordination Sequence:
#
# PCOD8070484 Si02
#       8
#     4   4   4   4   4   4   4   4
#     4   9  18  32  50  73  99 128 163 202 242 289
#     4   8  14  26  44  66  90 115 145 183 228 275
#     4   8  14  25  43  68  93 113 142 185 231 275
#     4   9  17  30  47  70  98 124 156 202 248 292
#     4  10  20  32  48  71  99 131 169 210 248 295
#     4   9  19  34  50  70  98 130 161 198 243 293
#     4  10  19  31  48  73 100 128 167 211 252 295
#     4   9  17  29  48  71  95 125 159 199 251 298
#
# _framework density 16.777871999999999
#
# number of rings (size 3 to 8) (size 9 to 14) (size 15 to 20)
#    0.000    3.000    1.250    1.500    0.000    2.500 
#    0.000    2.500    2.750    0.000    0.000    0.000 
#    0.000    0.000    0.000    0.000    0.000    0.000 
#
# Total GULP energy -396485.278219 kJ/mol
# GULP energy per Si atom -12390.164944 kJ/mol
# Density = 1.673969 g / cm^3
# Si number density = 16.777872 Si / 1000 Ang^3
#
#
#
# Elastic Constant Matrix: (Units=GPa)
#
#
# Indices 1 2 3 4 5 6 
#
# 1 82.7286 65.0338 35.3541 0.0000 -11.6485 0.0000
# 2 65.0338 113.3293 43.0265 0.0000 -6.7968 0.0000
# 3 35.3541 43.0265 74.0012 0.0000 -14.3777 0.0000
# 4 0.0000 0.0000 0.0000 26.9790 0.0000 -1.6342
# 5 -11.6485 -6.7968 -14.3777 0.0000 18.1075 0.0000
# 6 0.0000 0.0000 0.0000 -1.6342 0.0000 32.2753
#
#
#
# Elastic Compliance Matrix: (Units=1/GPa)
#
#
# Indices 1 2 3 4 5 6 
#
# 1 0.024149 -0.012318 -0.002666 0.000000 0.008794 0.000000
# 2 -0.012318 0.017627 -0.005460 0.000000 -0.005643 0.000000
# 3 -0.002666 -0.005460 0.020374 0.000000 0.012412 0.000000
# 4 0.000000 0.000000 0.000000 0.037180 0.000000 0.001883
# 5 0.008794 -0.005643 0.012412 0.000000 0.068620 0.000000
# 6 0.000000 0.000000 0.000000 0.001883 0.000000 0.031079
#
#
# Mechanical properties :
#
#
# Convention : Reuss Voigt Hill
#
# Bulk Modulus (GPa) = 47.03735 61.87642 54.45689
# Shear Modulus (GPa) = 20.24255 23.91535 22.07895
#
# Velocity S-wave (km/s) = 3.47724 3.77956 3.63155
# Velocity P-wave (km/s) = 6.64965 7.48375 7.07900
#
# Compressibility (1/GPa) = 0.02125970
#
# Stress axis : x y z
#
# Youngs Moduli (GPa) = 41.41016 56.73076 49.08308
#
# Poissons Ratio (x) = 0.69880 0.13088
# Poissons Ratio (y) = 0.51009 0.26802
# Poissons Ratio (z) = 0.11042 0.30978
#
# Static dielectric constant tensor:
#      x y z
#    x 3.097870 0.000000 -0.485660 
#    y 0.000000 3.421660 0.000000 
#    z -0.485660 0.000000 3.308010 
# 
# 
# High freq. dielectric constant tensor:
#      x y z
#    x 1.616630 0.000000 -0.027380 
#    y 0.000000 1.662280 0.000000 
#    z -0.027380 0.000000 1.629350 
# 
# From -- ./inp_files/72172.got.cif
#   From: 2010.06.25/outbox.cif.g09.slc.cpg/sg11_37_cif.got.tgz:72172.got - 2010.06.27 23:14:04.
