data_PCOD8070396
_publ_section_title
;
Structure prediction by ZEFSAII (Michael W. Deem and Ramdas Pophale) SiO2 
 PCOD8070396
Probable space group: P 21/M
;
_chemical_formula_sum "Si O2"
_cell_formula_units_Z 32
_cell_length_a 28.790258
_cell_length_b 8.809797
_cell_length_c 20.994976
_cell_angle_alpha 90.000000
_cell_angle_beta 20.288852
_cell_angle_gamma 90.000000
_cell_volume 1846.491313
_symmetry_space_group_name_H-M "P 21/M"
_symmetry_group_IT_number 11
_symmetry_cell_setting 'monoclinic'
loop_
_space_group_symop_operation_xyz
x,y,z
-x,1/2+y,-z
-x,-y,-z
x,1/2-y,z
loop_
_atom_site_type_symbol
_atom_site_label
_atom_site_fract_x
_atom_site_fract_y
_atom_site_fract_z
Si Si1 0.874958 0.426653 0.481998
Si Si2 0.689966 0.427524 0.242413
Si Si3 0.362003 0.572291 0.875283
Si Si4 0.472120 0.575380 0.435088
Si Si5 0.379385 0.426398 0.988504
Si Si6 0.140727 0.427954 0.070054
Si Si7 0.423390 0.572084 0.157382
Si Si8 0.893331 0.925932 0.591846
O O1 0.871960 0.250000 0.503072
O O2 0.730823 0.482089 0.641597
O O3 0.915204 0.514918 0.493140
O O4 0.986920 0.462635 0.285145
O O5 0.666057 0.250000 0.256977
O O6 0.587285 0.535173 0.337209
O O7 0.669269 0.454226 0.345430
O O8 0.833256 0.483551 0.030723
O O9 0.338192 0.750000 0.899269
O O10 0.503631 0.525978 0.659116
O O11 0.371351 0.528810 0.936648
O O12 0.238693 0.486774 0.000098
O O13 0.483470 0.750000 0.399852
O O14 0.380895 0.250000 0.966469
O O15 0.254847 0.465020 0.193871
O O16 0.510459 0.473406 0.860255
O O17 0.165639 0.250000 0.029146
O O18 0.435886 0.750000 0.131114
O O19 0.500000 0.500000 0.000000
O O20 0.922435 0.750000 0.554473
O O21 0.000000 0.000000 0.500000
#
# Coordination Sequence:
#
# PCOD8070396 Si02
#       8
#     4   4   4   4   4   4   4   4
#     4  10  21  35  52  73  97 126 162 203 246 291
#     4   9  16  26  43  68  96 129 165 196 231 281
#     4  11  21  31  47  72 100 131 165 201 239 285
#     4   9  16  27  44  66  96 131 162 195 237 284
#     4  10  21  36  51  69  95 127 161 199 248 295
#     4  10  19  31  47  70 102 135 161 194 242 291
#     4  10  20  37  57  74  93 121 162 210 251 292
#     4  11  22  34  50  72  97 129 163 196 242 293
#
# _framework density 17.330165999999998
#
# number of rings (size 3 to 8) (size 9 to 14) (size 15 to 20)
#    0.000    2.000    1.250    4.875    0.000    7.000 
#    0.000    0.000    0.000    0.000    0.000    0.875 
#    0.000    0.000    0.000    0.000    0.000    0.000 
#
# Total GULP energy -396640.779547 kJ/mol
# GULP energy per Si atom -12395.024361 kJ/mol
# Density = 1.729072 g / cm^3
# Si number density = 17.330166 Si / 1000 Ang^3
#
#
#
# Elastic Constant Matrix: (Units=GPa)
#
#
# Indices 1 2 3 4 5 6 
#
# 1 20.8367 19.6662 33.4205 0.0000 -10.8389 0.0000
# 2 19.6662 60.3019 43.1741 0.0000 4.5121 0.0000
# 3 33.4205 43.1741 119.5331 0.0000 4.6320 0.0000
# 4 0.0000 0.0000 0.0000 26.2324 0.0000 8.7165
# 5 -10.8389 4.5121 4.6320 0.0000 27.3750 0.0000
# 6 0.0000 0.0000 0.0000 8.7165 0.0000 23.4114
#
#
#
# Elastic Compliance Matrix: (Units=1/GPa)
#
#
# Indices 1 2 3 4 5 6 
#
# 1 0.231995 -0.046292 -0.052342 0.000000 0.108343 0.000000
# 2 -0.046292 0.031754 0.002403 0.000000 -0.023969 0.000000
# 3 -0.052342 0.002403 0.023102 0.000000 -0.025029 0.000000
# 4 0.000000 0.000000 0.000000 0.043503 0.000000 -0.016197
# 5 0.108343 -0.023969 -0.025029 0.000000 0.087613 0.000000
# 6 0.000000 0.000000 0.000000 -0.016197 0.000000 0.048745
#
#
# Mechanical properties :
#
#
# Convention : Reuss Voigt Hill
#
# Bulk Modulus (GPa) = 10.59456 43.68813 27.14135
# Shear Modulus (GPa) = 7.23970 22.36450 14.80210
#
# Velocity S-wave (km/s) = 2.04611 3.59624 2.92571
# Velocity P-wave (km/s) = 3.42180 6.51982 5.20657
#
# Compressibility (1/GPa) = 0.09438803
#
# Stress axis : x y z
#
# Youngs Moduli (GPa) = 4.31044 31.49233 43.28556
#
# Poissons Ratio (x) = 1.45784 2.26565
# Poissons Ratio (y) = 0.19954 -0.10400
# Poissons Ratio (z) = 0.22562 -0.07566
#
# Static dielectric constant tensor:
#      x y z
#    x 3.060530 0.000000 0.262640 
#    y 0.000000 3.276070 0.000000 
#    z 0.262640 0.000000 3.761760 
# 
# 
# High freq. dielectric constant tensor:
#      x y z
#    x 1.633010 0.000000 0.026260 
#    y 0.000000 1.678870 0.000000 
#    z 0.026260 0.000000 1.674430 
# 
# From -- ./inp_files/67396.got.cif
#   From: 2010.06.25/outbox.cif.g09.slc.cpg/sg11_34_cif.got.tgz:67396.got - 2010.06.27 23:14:04.
