data_PCOD8070335
_publ_section_title
;
Structure prediction by ZEFSAII (Michael W. Deem and Ramdas Pophale) SiO2 
 PCOD8070335
Probable space group: P 21/M
;
_chemical_formula_sum "Si O2"
_cell_formula_units_Z 28
_cell_length_a 32.608778
_cell_length_b 8.501779
_cell_length_c 31.760180
_cell_angle_alpha 90.000000
_cell_angle_beta 9.190743
_cell_angle_gamma 90.000000
_cell_volume 1406.342856
_symmetry_space_group_name_H-M "P 21/M"
_symmetry_group_IT_number 11
_symmetry_cell_setting 'monoclinic'
loop_
_space_group_symop_operation_xyz
x,y,z
-x,1/2+y,-z
-x,-y,-z
x,1/2-y,z
loop_
_atom_site_type_symbol
_atom_site_label
_atom_site_fract_x
_atom_site_fract_y
_atom_site_fract_z
Si Si1 0.404780 0.937641 0.785659
Si Si2 0.261280 0.563569 0.216159
Si Si3 0.309189 0.937213 0.072332
Si Si4 0.452448 0.937272 0.642643
Si Si5 0.166987 0.062320 0.499133
Si Si6 0.976526 0.936712 0.070401
Si Si7 0.119183 0.437577 0.642447
O O1 0.404851 0.750000 0.785430
O O2 0.428619 0.003178 0.714127
O O3 0.642775 0.002182 0.571643
O O4 0.142818 0.002185 0.071603
O O5 0.260519 0.750000 0.218443
O O6 0.000000 0.500000 0.500000
O O7 0.500000 0.500000 0.000000
O O8 0.285285 0.501219 0.144148
O O9 0.309683 0.750000 0.070825
O O10 0.571296 0.003159 0.786512
O O11 0.070739 0.003164 0.287084
O O12 0.452102 0.750000 0.643712
O O13 0.714795 0.001490 0.356315
O O14 0.214072 0.001482 0.857040
O O15 0.167005 0.250000 0.499047
O O16 0.143064 0.997855 0.570821
O O17 0.976988 0.750000 0.069005
O O18 0.000000 0.000000 0.000000
O O19 0.119215 0.250000 0.642348
#
# Coordination Sequence:
#
# PCOD8070335 Si02
#       7
#     4   4   4   4   4   4   4
#     4   9  15  23  34  52  78 111 147 179 212 263
#     4  11  22  37  56  79 106 141 181 222 267 316
#     4   9  17  28  43  62  89 125 163 197 239 294
#     4   9  17  28  42  59  83 115 149 179 218 271
#     4   9  15  24  37  57  85 120 158 192 227 280
#     4  10  19  31  46  64  85 114 148 183 221 264
#     4   9  15  21  33  53  80 114 150 182 217 264
#
# _framework density 19.909796
#
# number of rings (size 3 to 8) (size 9 to 14) (size 15 to 20)
#    0.000    2.571    0.000    3.429    0.000    9.143 
#    0.000    0.000    0.000    0.000    0.000    0.000 
#    0.000    0.000    0.000   90.000    0.000  100.000 
#
# Total GULP energy -347206.358062 kJ/mol
# GULP energy per Si atom -12400.227074 kJ/mol
# Density = 1.986448 g / cm^3
# Si number density = 19.909796 Si / 1000 Ang^3
#
#
#
# Elastic Constant Matrix: (Units=GPa)
#
#
# Indices 1 2 3 4 5 6 
#
# 1 236.0762 12.6086 133.4888 0.0000 -0.1309 0.0000
# 2 12.6086 12.5850 11.4217 0.0000 0.2122 0.0000
# 3 133.4888 11.4217 238.3038 0.0000 -0.2671 0.0000
# 4 0.0000 0.0000 0.0000 10.5980 0.0000 1.4285
# 5 -0.1309 0.2122 -0.2671 0.0000 51.6836 0.0000
# 6 0.0000 0.0000 0.0000 1.4285 0.0000 18.5739
#
#
#
# Elastic Compliance Matrix: (Units=1/GPa)
#
#
# Indices 1 2 3 4 5 6 
#
# 1 0.006325 -0.003264 -0.003387 0.000000 0.000012 0.000000
# 2 -0.003264 0.084764 -0.002235 0.000000 -0.000368 0.000000
# 3 -0.003387 -0.002235 0.006201 0.000000 0.000033 0.000000
# 4 0.000000 0.000000 0.000000 0.095345 0.000000 -0.007333
# 5 0.000012 -0.000368 0.000033 0.000000 0.019350 0.000000
# 6 0.000000 0.000000 0.000000 -0.007333 0.000000 0.054403
#
#
# Mechanical properties :
#
#
# Convention : Reuss Voigt Hill
#
# Bulk Modulus (GPa) = 12.57560 89.11149 50.84354
# Shear Modulus (GPa) = 16.09450 38.13418 27.11434
#
# Velocity S-wave (km/s) = 2.84627 4.38122 3.69434
# Velocity P-wave (km/s) = 4.13904 8.39334 6.61740
#
# Compressibility (1/GPa) = 0.07951906
#
# Stress axis : x y z
#
# Youngs Moduli (GPa) = 158.09641 11.79749 161.27477
#
# Poissons Ratio (x) = 0.03850 0.54619
# Poissons Ratio (y) = 0.51597 0.36044
# Poissons Ratio (z) = 0.53543 0.02637
#
# Static dielectric constant tensor:
#      x y z
#    x 3.911310 0.000000 -0.005760 
#    y 0.000000 2.838780 0.000000 
#    z -0.005760 0.000000 3.943470 
# 
# 
# High freq. dielectric constant tensor:
#      x y z
#    x 1.798340 0.000000 -0.000200 
#    y 0.000000 1.695110 0.000000 
#    z -0.000200 0.000000 1.799480 
# 
# From -- ./inp_files/9614.got.cif
#   From: 2010.06.25/outbox.cif.g09.slc.cpg/sg11_5_cif.got.tgz:9614.got - 2010.06.27 23:14:04.
