data_PCOD8070790
_publ_section_title
;
Structure prediction by ZEFSAII (Michael W. Deem and Ramdas Pophale) SiO2 
 PCOD8070790
Probable space group: P 21/M
;
_chemical_formula_sum "Si O2"
_cell_formula_units_Z 28
_cell_length_a 26.806862
_cell_length_b 8.610753
_cell_length_c 9.608669
_cell_angle_alpha 90.000000
_cell_angle_beta 140.326601
_cell_angle_gamma 90.000000
_cell_volume 1415.958056
_symmetry_space_group_name_H-M "P 21/M"
_symmetry_group_IT_number 11
_symmetry_cell_setting 'monoclinic'
loop_
_space_group_symop_operation_xyz
x,y,z
-x,1/2+y,-z
-x,-y,-z
x,1/2-y,z
loop_
_atom_site_type_symbol
_atom_site_label
_atom_site_fract_x
_atom_site_fract_y
_atom_site_fract_z
Si Si1 0.216134 0.067835 0.796471
Si Si2 0.516081 0.931872 0.387471
Si Si3 0.747197 0.434155 0.424833
Si Si4 0.571352 0.068130 0.065470
Si Si5 0.315275 0.068884 0.265033
Si Si6 0.915623 0.065359 0.286835
Si Si7 0.822345 0.935030 0.845711
O O1 0.203469 0.250000 0.742788
O O2 0.229542 0.982463 0.680123
O O3 0.141452 0.002391 0.717806
O O4 0.292239 0.034894 0.055261
O O5 0.525960 0.750000 0.425457
O O6 0.599710 0.001227 0.516737
O O7 0.500000 0.000000 0.500000
O O8 0.447551 0.976052 0.134804
O O9 0.748837 0.250000 0.437693
O O10 0.659516 0.496197 0.279906
O O11 0.813232 0.506295 0.667796
O O12 0.569372 0.250000 0.086705
O O13 0.500000 0.000000 0.000000
O O14 0.312694 0.250000 0.289332
O O15 0.253368 0.994973 0.237646
O O16 0.914342 0.250000 0.290267
O O17 0.000000 0.000000 0.500000
O O18 0.894983 0.008321 0.085360
O O19 0.830758 0.750000 0.866574
#
# Coordination Sequence:
#
# PCOD8070790 Si02
#       7
#     4   4   4   4   4   4   4
#     4  10  20  36  58  85 114 152 195 235 282 340
#     4  10  19  32  48  71 101 137 181 233 283 330
#     4  11  22  36  53  81 117 153 194 244 294 342
#     4  10  22  36  52  76 110 150 195 242 293 344
#     4   8  16  31  52  74 100 136 185 233 277 331
#     4  11  22  40  65  93 122 150 181 224 273 332
#     4  10  20  37  60  84 109 146 190 231 277 337
#
# _framework density 19.774597
#
# number of rings (size 3 to 8) (size 9 to 14) (size 15 to 20)
#    0.000    2.000    0.000    5.143    0.000    2.857 
#    0.000    4.286    0.000    0.000    0.000    0.000 
#    0.000    0.000    0.000    0.000    0.000    0.000 
#
# Total GULP energy -347022.049398 kJ/mol
# GULP energy per Si atom -12393.644621 kJ/mol
# Density = 1.972959 g / cm^3
# Si number density = 19.774597 Si / 1000 Ang^3
#
#
#
# Elastic Constant Matrix: (Units=GPa)
#
#
# Indices 1 2 3 4 5 6 
#
# 1 53.1455 16.8775 24.6786 0.0000 -0.9965 0.0000
# 2 16.8775 62.7586 40.9761 0.0000 -0.1023 0.0000
# 3 24.6786 40.9761 117.4766 0.0000 7.7206 0.0000
# 4 0.0000 0.0000 0.0000 28.3255 0.0000 -4.2427
# 5 -0.9965 -0.1023 7.7206 0.0000 33.8914 0.0000
# 6 0.0000 0.0000 0.0000 -4.2427 0.0000 33.4236
#
#
#
# Elastic Compliance Matrix: (Units=1/GPa)
#
#
# Indices 1 2 3 4 5 6 
#
# 1 0.021546 -0.003596 -0.003363 0.000000 0.001389 0.000000
# 2 -0.003596 0.021333 -0.006785 0.000000 0.001504 0.000000
# 3 -0.003363 -0.006785 0.011769 0.000000 -0.002800 0.000000
# 4 0.000000 0.000000 0.000000 0.035988 0.000000 0.004568
# 5 0.001389 0.001504 -0.002800 0.000000 0.030189 0.000000
# 6 0.000000 0.000000 0.000000 0.004568 0.000000 0.030499
#
#
# Mechanical properties :
#
#
# Convention : Reuss Voigt Hill
#
# Bulk Modulus (GPa) = 36.81744 44.27167 40.54456
# Shear Modulus (GPa) = 26.61464 29.18467 27.89965
#
# Velocity S-wave (km/s) = 3.67263 3.84587 3.76025
# Velocity P-wave (km/s) = 6.05337 6.49290 6.27698
#
# Compressibility (1/GPa) = 0.02716104
#
# Stress axis : x y z
#
# Youngs Moduli (GPa) = 46.41218 46.87490 84.96653
#
# Poissons Ratio (x) = 0.16857 0.28575
# Poissons Ratio (y) = 0.16691 0.57646
# Poissons Ratio (z) = 0.15609 0.31802
#
# Static dielectric constant tensor:
#      x y z
#    x 3.122890 0.000000 0.059060 
#    y 0.000000 3.459360 0.000000 
#    z 0.059060 0.000000 3.956320 
# 
# 
# High freq. dielectric constant tensor:
#      x y z
#    x 1.760680 0.000000 -0.006720 
#    y 0.000000 1.762730 0.000000 
#    z -0.006720 0.000000 1.783300 
# 
# From -- ./inp_files/28591.got.cif
#   From: 2010.06.25/outbox.cif.g09.slc.cpg/sg11_15_cif.got.tgz:28591.got - 2010.06.27 23:14:04.
