data_PCOD8070088
_publ_section_title
;
Structure prediction by ZEFSAII (Michael W. Deem and Ramdas Pophale) SiO2 
 PCOD8070088
Probable space group: P 21/M
;
_chemical_formula_sum "Si O2"
_cell_formula_units_Z 32
_cell_length_a 20.989530
_cell_length_b 9.117396
_cell_length_c 28.088017
_cell_angle_alpha 90.000000
_cell_angle_beta 20.991397
_cell_angle_gamma 90.000000
_cell_volume 1925.545823
_symmetry_space_group_name_H-M "P 21/M"
_symmetry_group_IT_number 11
_symmetry_cell_setting 'monoclinic'
loop_
_space_group_symop_operation_xyz
x,y,z
-x,1/2+y,-z
-x,-y,-z
x,1/2-y,z
loop_
_atom_site_type_symbol
_atom_site_label
_atom_site_fract_x
_atom_site_fract_y
_atom_site_fract_z
Si Si1 0.243786 0.578509 0.300104
Si Si2 0.237409 0.419873 0.500397
Si Si3 0.111107 0.587257 0.726620
Si Si4 0.549941 0.923782 0.014019
Si Si5 0.854717 0.577451 0.540380
Si Si6 0.543405 0.084694 0.580207
Si Si7 0.637847 0.078371 0.369722
Si Si8 0.901380 0.080671 0.801144
O O1 0.246929 0.750000 0.308119
O O2 0.403912 0.529680 0.154640
O O3 0.265861 0.497862 0.335220
O O4 0.060321 0.530329 0.402829
O O5 0.289478 0.250000 0.465949
O O6 0.211941 0.476661 0.464471
O O7 0.400156 0.509916 0.409571
O O8 0.053471 0.446836 0.656246
O O9 0.027092 0.750000 0.780856
O O10 0.290094 0.580000 0.571106
O O11 0.165800 0.555571 0.743669
O O12 0.970405 0.468975 0.805261
O O13 0.554841 0.750000 0.002910
O O14 0.500000 0.000000 0.000000
O O15 0.738404 0.979872 0.900421
O O16 0.833150 0.750000 0.560501
O O17 0.480167 0.250000 0.634496
O O18 0.378967 0.995690 0.670768
O O19 0.590505 0.250000 0.399068
O O20 0.500000 0.000000 0.500000
O O21 0.843602 0.250000 0.843727
#
# Coordination Sequence:
#
# PCOD8070088 Si02
#       8
#     4   4   4   4   4   4   4   4
#     4   9  19  34  49  67  89 113 143 181 224 264
#     4   9  17  29  44  63  90 121 150 183 223 263
#     4   8  15  26  38  55  81 114 150 183 217 259
#     4  11  22  35  50  67  91 119 148 183 221 263
#     4   9  17  31  50  68  87 113 146 182 220 264
#     4   9  16  24  36  57  84 114 149 184 218 261
#     4   9  15  23  36  54  79 112 148 183 219 261
#     4  10  19  30  45  65  90 119 151 185 221 263
#
# _framework density 16.618663999999999
#
# number of rings (size 3 to 8) (size 9 to 14) (size 15 to 20)
#    0.000    2.750    0.000    3.000    0.000    7.500 
#    0.000    2.500    0.000    0.000    0.000    0.000 
#    0.000    1.000    0.000    3.250    0.000    4.875 
#
# Total GULP energy -396680.910446 kJ/mol
# GULP energy per Si atom -12396.278451 kJ/mol
# Density = 1.658084 g / cm^3
# Si number density = 16.618664 Si / 1000 Ang^3
#
#
#
# Elastic Constant Matrix: (Units=GPa)
#
#
# Indices 1 2 3 4 5 6 
#
# 1 157.3743 66.6364 45.0052 0.0000 -14.5114 0.0000
# 2 66.6364 87.4881 33.5499 0.0000 -5.6250 0.0000
# 3 45.0052 33.5499 40.4477 0.0000 -2.6964 0.0000
# 4 0.0000 0.0000 0.0000 20.3628 0.0000 -4.9493
# 5 -14.5114 -5.6250 -2.6964 0.0000 19.3727 0.0000
# 6 0.0000 0.0000 0.0000 -4.9493 0.0000 33.8397
#
#
#
# Elastic Compliance Matrix: (Units=1/GPa)
#
#
# Indices 1 2 3 4 5 6 
#
# 1 0.011390 -0.005260 -0.007917 0.000000 0.005903 0.000000
# 2 -0.005260 0.019360 -0.010189 0.000000 0.000263 0.000000
# 3 -0.007917 -0.010189 0.041779 0.000000 -0.003074 0.000000
# 4 0.000000 0.000000 0.000000 0.050919 0.000000 0.007447
# 5 0.005903 0.000263 -0.003074 0.000000 0.055689 0.000000
# 6 0.000000 0.000000 0.000000 0.007447 0.000000 0.030640
#
#
# Mechanical properties :
#
#
# Convention : Reuss Voigt Hill
#
# Bulk Modulus (GPa) = 38.76287 63.96590 51.36439
# Shear Modulus (GPa) = 18.86029 24.05627 21.45828
#
# Velocity S-wave (km/s) = 3.37246 3.80879 3.59725
# Velocity P-wave (km/s) = 6.20808 7.61029 6.94466
#
# Compressibility (1/GPa) = 0.02579788
#
# Stress axis : x y z
#
# Youngs Moduli (GPa) = 87.79917 51.65197 23.93572
#
# Poissons Ratio (x) = 0.27167 0.18950
# Poissons Ratio (y) = 0.46179 0.24388
# Poissons Ratio (z) = 0.69509 0.52628
#
# Static dielectric constant tensor:
#      x y z
#    x 3.719590 0.000000 -0.358650 
#    y 0.000000 3.227380 0.000000 
#    z -0.358650 0.000000 2.811490 
# 
# 
# High freq. dielectric constant tensor:
#      x y z
#    x 1.650320 0.000000 -0.024540 
#    y 0.000000 1.649960 0.000000 
#    z -0.024540 0.000000 1.581770 
# 
# From -- ./inp_files/64234.got.cif
#   From: 2010.06.25/outbox.cif.g09.slc.cpg/sg11_33_cif.got.tgz:64234.got - 2010.06.27 23:14:04.
