data_PCOD8070469
_publ_section_title
;
Structure prediction by ZEFSAII (Michael W. Deem and Ramdas Pophale) SiO2 
 PCOD8070469
Probable space group: P 21/M
;
_chemical_formula_sum "Si O2"
_cell_formula_units_Z 28
_cell_length_a 14.529188
_cell_length_b 9.691544
_cell_length_c 11.684176
_cell_angle_alpha 90.000000
_cell_angle_beta 71.603483
_cell_angle_gamma 90.000000
_cell_volume 1561.171643
_symmetry_space_group_name_H-M "P 21/M"
_symmetry_group_IT_number 11
_symmetry_cell_setting 'monoclinic'
loop_
_space_group_symop_operation_xyz
x,y,z
-x,1/2+y,-z
-x,-y,-z
x,1/2-y,z
loop_
_atom_site_type_symbol
_atom_site_label
_atom_site_fract_x
_atom_site_fract_y
_atom_site_fract_z
Si Si1 0.259912 0.591865 0.283177
Si Si2 0.176065 0.091337 0.124413
Si Si3 0.046341 0.909303 0.784933
Si Si4 0.084262 0.907172 0.514652
Si Si5 0.412090 0.591572 0.403730
Si Si6 0.371086 0.089963 0.630186
Si Si7 0.807419 0.908898 0.143661
O O1 0.250192 0.750000 0.247145
O O2 0.245421 0.496946 0.178828
O O3 0.183075 0.555533 0.412259
O O4 0.365000 0.561872 0.298015
O O5 0.184736 0.250000 0.158882
O O6 0.065010 0.041479 0.180337
O O7 0.213937 0.068417 0.981362
O O8 0.050642 0.750000 0.822230
O O9 0.099423 0.934278 0.643278
O O10 0.100107 0.000319 0.858312
O O11 0.052545 0.750000 0.505918
O O12 0.000000 0.000000 0.500000
O O13 0.392884 0.750000 0.447128
O O14 0.526108 0.558965 0.349314
O O15 0.360840 0.497396 0.518897
O O16 0.361385 0.250000 0.600926
O O17 0.287967 0.043559 0.750717
O O18 0.833466 0.750000 0.158757
#
# Coordination Sequence:
#
# PCOD8070469 Si02
#       7
#     4   4   4   4   4   4   4
#     4  10  20  33  51  75 102 134 169 206 252 300
#     4  10  21  36  51  70 102 139 173 210 248 295
#     4  10  20  34  52  74 100 134 172 210 253 297
#     4  10  19  31  48  72 100 127 160 202 247 293
#     4   9  18  34  56  79 104 131 162 206 255 304
#     4   9  18  34  55  79 104 130 164 207 255 303
#     4  10  21  35  52  75 101 133 172 211 253 297
#
# _framework density 17.935248000000001
#
# number of rings (size 3 to 8) (size 9 to 14) (size 15 to 20)
#    0.000    2.286    1.429    1.286    0.000    4.000 
#    0.000    0.714    0.000    0.000    0.000    0.000 
#    0.000    0.000    0.000    0.000    0.000    0.000 
#
# Total GULP energy -347278.787787 kJ/mol
# GULP energy per Si atom -12402.813850 kJ/mol
# Density = 1.789443 g / cm^3
# Si number density = 17.935248 Si / 1000 Ang^3
#
#
#
# Elastic Constant Matrix: (Units=GPa)
#
#
# Indices 1 2 3 4 5 6 
#
# 1 96.3736 50.2640 37.7733 0.0000 17.5974 0.0000
# 2 50.2640 64.8796 37.6591 0.0000 13.7116 0.0000
# 3 37.7733 37.6591 77.7616 0.0000 8.0998 0.0000
# 4 0.0000 0.0000 0.0000 29.0030 0.0000 7.7077
# 5 17.5974 13.7116 8.0998 0.0000 23.9012 0.0000
# 6 0.0000 0.0000 0.0000 7.7077 0.0000 28.9179
#
#
#
# Elastic Compliance Matrix: (Units=1/GPa)
#
#
# Indices 1 2 3 4 5 6 
#
# 1 0.018584 -0.011448 -0.002843 0.000000 -0.006152 0.000000
# 2 -0.011448 0.030589 -0.008607 0.000000 -0.006203 0.000000
# 3 -0.002843 -0.008607 0.018323 0.000000 0.000821 0.000000
# 4 0.000000 0.000000 0.000000 0.037108 0.000000 -0.009891
# 5 -0.006152 -0.006203 0.000821 0.000000 0.049649 0.000000
# 6 0.000000 0.000000 0.000000 -0.009891 0.000000 0.037217
#
#
# Mechanical properties :
#
#
# Convention : Reuss Voigt Hill
#
# Bulk Modulus (GPa) = 46.07857 54.48974 50.28415
# Shear Modulus (GPa) = 20.45003 23.91898 22.18451
#
# Velocity S-wave (km/s) = 3.38037 3.65585 3.52081
# Velocity P-wave (km/s) = 6.40182 6.94749 6.68023
#
# Compressibility (1/GPa) = 0.02170206
#
# Stress axis : x y z
#
# Youngs Moduli (GPa) = 53.80859 32.69184 54.57493
#
# Poissons Ratio (x) = 0.37424 0.15514
# Poissons Ratio (y) = 0.61598 0.46972
# Poissons Ratio (z) = 0.15297 0.28138
#
# Static dielectric constant tensor:
#      x y z
#    x 3.638520 0.000000 -0.101220 
#    y 0.000000 3.359660 0.000000 
#    z -0.101220 0.000000 3.288590 
# 
# 
# High freq. dielectric constant tensor:
#      x y z
#    x 1.691590 0.000000 0.001210 
#    y 0.000000 1.693020 0.000000 
#    z 0.001210 0.000000 1.686940 
# 
# From -- ./inp_files/37392.got.cif
#   From: 2010.06.25/outbox.cif.g09.slc.cpg/sg11_19_cif.got.tgz:37392.got - 2010.06.27 23:14:04.
