data_PCOD8070071
_publ_section_title
;
Structure prediction by ZEFSAII (Michael W. Deem and Ramdas Pophale) SiO2 
 PCOD8070071
Probable space group: P 21/M
;
_chemical_formula_sum "Si O2"
_cell_formula_units_Z 28
_cell_length_a 18.698996
_cell_length_b 9.472430
_cell_length_c 14.757817
_cell_angle_alpha 90.000000
_cell_angle_beta 141.664936
_cell_angle_gamma 90.000000
_cell_volume 1621.343438
_symmetry_space_group_name_H-M "P 21/M"
_symmetry_group_IT_number 11
_symmetry_cell_setting 'monoclinic'
loop_
_space_group_symop_operation_xyz
x,y,z
-x,1/2+y,-z
-x,-y,-z
x,1/2-y,z
loop_
_atom_site_type_symbol
_atom_site_label
_atom_site_fract_x
_atom_site_fract_y
_atom_site_fract_z
Si Si1 0.575336 0.415038 0.867883
Si Si2 0.026265 0.415950 0.936156
Si Si3 0.277018 0.912517 0.808590
Si Si4 0.893597 0.416860 0.630106
Si Si5 0.352262 0.584145 0.685268
Si Si6 0.244760 0.094229 0.043365
Si Si7 0.904499 0.593454 0.285273
O O1 0.558335 0.250000 0.832634
O O2 0.453452 0.492668 0.743031
O O3 0.632717 0.445161 0.022168
O O4 0.653742 0.479144 0.865168
O O5 0.008282 0.250000 0.935212
O O6 0.938358 0.473509 0.771417
O O7 0.158183 0.448580 0.038261
O O8 0.000000 0.500000 0.000000
O O9 0.241429 0.750000 0.770277
O O10 0.336797 0.958543 0.774709
O O11 0.156746 0.995287 0.701227
O O12 0.911860 0.250000 0.647196
O O13 0.761659 0.459403 0.483736
O O14 0.972480 0.472591 0.624339
O O15 0.380205 0.750000 0.703283
O O16 0.298001 0.250000 0.115003
O O17 0.173492 0.100815 0.880838
O O18 0.918191 0.750000 0.341031
#
# Coordination Sequence:
#
# PCOD8070071 Si02
#       7
#     4   4   4   4   4   4   4
#     4  10  19  30  44  65  93 121 156 200 232 254
#     4   9  17  31  53  78  98 115 141 180 225 275
#     4   9  18  29  42  64  91 120 157 198 233 261
#     4   8  16  31  48  67  92 122 153 182 221 276
#     4  10  19  31  46  62  88 128 163 188 221 269
#     4   8  15  29  48  68  90 119 151 179 217 273
#     4   8  14  27  46  64  86 118 153 188 224 266
#
# _framework density 17.269628999999998
#
# number of rings (size 3 to 8) (size 9 to 14) (size 15 to 20)
#    0.000    3.143    0.000    2.571    0.000    2.286 
#    0.000    3.571    0.000    0.857    0.000    0.000 
#    0.000    0.000    0.000    0.000    0.000    0.000 
#
# Total GULP energy -347071.378697 kJ/mol
# GULP energy per Si atom -12395.406382 kJ/mol
# Density = 1.723032 g / cm^3
# Si number density = 17.269629 Si / 1000 Ang^3
#
#
#
# Elastic Constant Matrix: (Units=GPa)
#
#
# Indices 1 2 3 4 5 6 
#
# 1 122.5754 64.9328 51.7076 0.0000 25.5071 0.0000
# 2 64.9328 76.1825 41.0729 0.0000 17.4485 0.0000
# 3 51.7076 41.0729 69.0128 0.0000 19.8455 0.0000
# 4 0.0000 0.0000 0.0000 16.1918 0.0000 3.5867
# 5 25.5071 17.4485 19.8455 0.0000 16.3735 0.0000
# 6 0.0000 0.0000 0.0000 3.5867 0.0000 34.1242
#
#
#
# Elastic Compliance Matrix: (Units=1/GPa)
#
#
# Indices 1 2 3 4 5 6 
#
# 1 0.017692 -0.010355 -0.003593 0.000000 -0.012172 0.000000
# 2 -0.010355 0.026569 -0.006986 0.000000 -0.003716 0.000000
# 3 -0.003593 -0.006986 0.027000 0.000000 -0.019683 0.000000
# 4 0.000000 0.000000 0.000000 0.063232 0.000000 -0.006646
# 5 -0.012172 -0.003716 -0.019683 0.000000 0.107853 0.000000
# 6 0.000000 0.000000 0.000000 -0.006646 0.000000 0.030003
#
#
# Mechanical properties :
#
#
# Convention : Reuss Voigt Hill
#
# Bulk Modulus (GPa) = 34.02040 64.79970 49.41005
# Shear Modulus (GPa) = 15.43138 20.67506 18.05322
#
# Velocity S-wave (km/s) = 2.99248 3.46380 3.23673
# Velocity P-wave (km/s) = 5.62870 7.32127 6.53006
#
# Compressibility (1/GPa) = 0.02939413
#
# Stress axis : x y z
#
# Youngs Moduli (GPa) = 56.52268 37.63720 37.03680
#
# Poissons Ratio (x) = 0.38972 0.13307
# Poissons Ratio (y) = 0.58527 0.25875
# Poissons Ratio (z) = 0.20309 0.26294
#
# Static dielectric constant tensor:
#      x y z
#    x 3.271390 0.000000 0.185130 
#    y 0.000000 3.204230 0.000000 
#    z 0.185130 0.000000 3.105860 
# 
# 
# High freq. dielectric constant tensor:
#      x y z
#    x 1.662950 0.000000 0.019150 
#    y 0.000000 1.651950 0.000000 
#    z 0.019150 0.000000 1.640950 
# 
# From -- ./inp_files/42346.got.cif
#   From: 2010.06.25/outbox.cif.g09.slc.cpg/sg11_22_cif.got.tgz:42346.got - 2010.06.27 23:14:04.
