data_PCOD8070428
_publ_section_title
;
Structure prediction by ZEFSAII (Michael W. Deem and Ramdas Pophale) SiO2 
 PCOD8070428
Probable space group: P 21/M
;
_chemical_formula_sum "Si O2"
_cell_formula_units_Z 32
_cell_length_a 10.573401
_cell_length_b 9.648356
_cell_length_c 16.160179
_cell_angle_alpha 90.000000
_cell_angle_beta 88.554781
_cell_angle_gamma 90.000000
_cell_volume 1648.071378
_symmetry_space_group_name_H-M "P 21/M"
_symmetry_group_IT_number 11
_symmetry_cell_setting 'monoclinic'
loop_
_space_group_symop_operation_xyz
x,y,z
-x,1/2+y,-z
-x,-y,-z
x,1/2-y,z
loop_
_atom_site_type_symbol
_atom_site_label
_atom_site_fract_x
_atom_site_fract_y
_atom_site_fract_z
Si Si1 0.488799 0.086803 0.582706
Si Si2 0.597405 0.596840 0.849526
Si Si3 0.315757 0.595649 0.023440
Si Si4 0.310213 0.901487 0.838541
Si Si5 0.038586 0.906689 0.077934
Si Si6 0.707206 0.411399 0.708020
Si Si7 0.016996 0.589412 0.262549
Si Si8 0.251328 0.089704 0.693397
O O1 0.482061 0.250000 0.562623
O O2 0.613736 0.050712 0.634024
O O3 0.357161 0.034475 0.627690
O O4 0.500000 0.000000 0.500000
O O5 0.659505 0.750000 0.857101
O O6 0.591323 0.518654 0.938195
O O7 0.457748 0.612195 0.817943
O O8 0.675388 0.502763 0.786700
O O9 0.379353 0.750000 0.019368
O O10 0.189999 0.599665 0.080118
O O11 0.280233 0.548810 0.931591
O O12 0.247898 0.750000 0.822184
O O13 0.257635 0.019002 0.781564
O O14 0.984346 0.750000 0.066063
O O15 0.000917 0.974312 0.168932
O O16 0.000000 0.000000 0.000000
O O17 0.688627 0.250000 0.730577
O O18 0.855098 0.450473 0.688466
O O19 0.025065 0.750000 0.241619
O O20 0.896999 0.559909 0.326572
O O21 0.280071 0.250000 0.706468
#
# Coordination Sequence:
#
# PCOD8070428 Si02
#       8
#     4   4   4   4   4   4   4   4
#     4  10  22  39  64  91 114 144 178 221 279 344
#     4  11  21  32  50  79 110 144 189 241 286 323
#     4  10  20  34  49  69 105 152 197 236 284 336
#     4  10  21  34  50  77 113 150 187 238 290 326
#     4  10  19  31  48  70 101 147 193 237 280 319
#     4  10  19  38  62  83 110 149 188 224 281 347
#     4   9  18  34  57  81 109 146 190 235 275 322
#     4  10  20  36  59  86 111 143 188 230 275 333
#
# _framework density 19.416633999999998
#
# number of rings (size 3 to 8) (size 9 to 14) (size 15 to 20)
#    0.000    2.000    2.500    1.500    0.000    2.500 
#    0.000    1.250    0.000    0.000    0.000    0.000 
#    0.000    0.000    0.000    0.000    0.000    0.000 
#
# Total GULP energy -396432.494336 kJ/mol
# GULP energy per Si atom -12388.515448 kJ/mol
# Density = 1.937244 g / cm^3
# Si number density = 19.416634 Si / 1000 Ang^3
#
#
#
# Elastic Constant Matrix: (Units=GPa)
#
#
# Indices 1 2 3 4 5 6 
#
# 1 116.3239 25.2606 56.6194 0.0000 -7.9041 0.0000
# 2 25.2606 67.6167 43.7102 0.0000 3.0306 0.0000
# 3 56.6194 43.7102 101.7100 0.0000 -3.6197 0.0000
# 4 0.0000 0.0000 0.0000 28.8291 0.0000 -1.5179
# 5 -7.9041 3.0306 -3.6197 0.0000 20.9911 0.0000
# 6 0.0000 0.0000 0.0000 -1.5179 0.0000 6.7455
#
#
#
# Elastic Compliance Matrix: (Units=1/GPa)
#
#
# Indices 1 2 3 4 5 6 
#
# 1 0.012042 -0.000560 -0.006338 0.000000 0.003522 0.000000
# 2 -0.000560 0.020936 -0.008855 0.000000 -0.004760 0.000000
# 3 -0.006338 -0.008855 0.017232 0.000000 0.001863 0.000000
# 4 0.000000 0.000000 0.000000 0.035103 0.000000 0.007899
# 5 0.003522 -0.004760 0.001863 0.000000 0.049974 0.000000
# 6 0.000000 0.000000 0.000000 0.007899 0.000000 0.150024
#
#
# Mechanical properties :
#
#
# Convention : Reuss Voigt Hill
#
# Bulk Modulus (GPa) = 53.46193 59.64790 56.55491
# Shear Modulus (GPa) = 15.47738 21.98382 18.73060
#
# Velocity S-wave (km/s) = 2.82639 3.36849 3.10928
# Velocity P-wave (km/s) = 6.18427 6.77611 6.48694
#
# Compressibility (1/GPa) = 0.01870490
#
# Stress axis : x y z
#
# Youngs Moduli (GPa) = 83.03957 47.76443 58.03216
#
# Poissons Ratio (x) = 0.02674 0.36780
# Poissons Ratio (y) = 0.04648 0.51388
# Poissons Ratio (z) = 0.52629 0.42296
#
# Static dielectric constant tensor:
#      x y z
#    x 3.996980 0.000000 -0.076980 
#    y 0.000000 3.656550 0.000000 
#    z -0.076980 0.000000 3.224410 
# 
# 
# High freq. dielectric constant tensor:
#      x y z
#    x 1.765580 0.000000 -0.008010 
#    y 0.000000 1.744100 0.000000 
#    z -0.008010 0.000000 1.724610 
# 
# From -- ./inp_files/49373.got.cif
#   From: 2010.06.25/outbox.cif.g09.slc.cpg/sg11_25_cif.got.tgz:49373.got - 2010.06.27 23:14:04.
