data_PCOD8070081
_publ_section_title
;
Structure prediction by ZEFSAII (Michael W. Deem and Ramdas Pophale) SiO2 
 PCOD8070081
Probable space group: P 21/M
;
_chemical_formula_sum "Si O2"
_cell_formula_units_Z 32
_cell_length_a 30.622753
_cell_length_b 9.693591
_cell_length_c 14.900046
_cell_angle_alpha 90.000000
_cell_angle_beta 151.489632
_cell_angle_gamma 90.000000
_cell_volume 2111.174559
_symmetry_space_group_name_H-M "P 21/M"
_symmetry_group_IT_number 11
_symmetry_cell_setting 'monoclinic'
loop_
_space_group_symop_operation_xyz
x,y,z
-x,1/2+y,-z
-x,-y,-z
x,1/2-y,z
loop_
_atom_site_type_symbol
_atom_site_label
_atom_site_fract_x
_atom_site_fract_y
_atom_site_fract_z
Si Si1 0.127965 0.090658 0.185337
Si Si2 0.111580 0.413717 0.834739
Si Si3 0.570591 0.909342 0.513218
Si Si4 0.074814 0.907164 0.244865
Si Si5 0.090061 0.911494 0.479325
Si Si6 0.200794 0.088507 0.811529
Si Si7 0.758732 0.586350 0.776194
Si Si8 0.595239 0.592836 0.765290
O O1 0.140281 0.250000 0.233598
O O2 0.207091 0.039383 0.260263
O O3 0.135414 0.003131 0.289729
O O4 0.032402 0.064334 0.962442
O O5 0.116613 0.250000 0.849833
O O6 0.146651 0.464528 0.801505
O O7 0.008203 0.464522 0.663060
O O8 0.176412 0.477999 0.029235
O O9 0.546963 0.750000 0.453648
O O10 0.653917 0.960613 0.600742
O O11 0.602362 0.935670 0.672322
O O12 0.481098 0.996870 0.326783
O O13 0.098570 0.750000 0.263888
O O14 0.099796 0.941885 0.391717
O O15 0.103456 0.750000 0.524489
O O16 0.168052 0.000001 0.668051
O O17 0.182418 0.250000 0.761384
O O18 0.307872 0.058119 0.015951
O O19 0.765739 0.750000 0.797212
O O20 0.566748 0.750000 0.732061
#
# Coordination Sequence:
#
# PCOD8070081 Si02
#       8
#     4   4   4   4   4   4   4   4
#     4   9  16  27  46  66  85 112 147 182 214 257
#     4   9  15  27  44  62  88 121 153 179 208 252
#     4   9  16  27  46  66  85 112 147 182 214 257
#     4   9  17  29  43  62  88 117 145 178 221 260
#     4  10  19  30  45  63  87 121 155 184 214 251
#     4  10  19  30  45  63  87 121 155 184 214 251
#     4   9  14  25  46  68  87 115 150 177 211 262
#     4   9  17  29  43  62  88 117 145 178 221 260
#
# _framework density 15.157439999999999
#
# number of rings (size 3 to 8) (size 9 to 14) (size 15 to 20)
#    0.000    2.750    2.500    0.375    0.000    1.000 
#    0.000    0.625    0.000    1.500    0.000    0.875 
#    0.000    0.000    0.000    0.000    0.000    0.000 
#
# Total GULP energy -396768.396750 kJ/mol
# GULP energy per Si atom -12399.012398 kJ/mol
# Density = 1.512294 g / cm^3
# Si number density = 15.157440 Si / 1000 Ang^3
#
#
#
# Elastic Constant Matrix: (Units=GPa)
#
#
# Indices 1 2 3 4 5 6 
#
# 1 114.9073 52.4961 60.4017 0.0000 8.1740 0.0000
# 2 52.4961 54.6386 48.1785 0.0000 2.1933 0.0000
# 3 60.4017 48.1785 89.4206 0.0000 4.7689 0.0000
# 4 0.0000 0.0000 0.0000 24.3566 0.0000 -1.0127
# 5 8.1740 2.1933 4.7689 0.0000 20.9376 0.0000
# 6 0.0000 0.0000 0.0000 -1.0127 0.0000 22.3646
#
#
#
# Elastic Compliance Matrix: (Units=1/GPa)
#
#
# Indices 1 2 3 4 5 6 
#
# 1 0.016975 -0.011865 -0.004845 0.000000 -0.004280 0.000000
# 2 -0.011865 0.043168 -0.015437 0.000000 0.003626 0.000000
# 3 -0.004845 -0.015437 0.022864 0.000000 -0.001699 0.000000
# 4 0.000000 0.000000 0.000000 0.041134 0.000000 0.001863
# 5 -0.004280 0.003626 -0.001699 0.000000 0.049439 0.000000
# 6 0.000000 0.000000 0.000000 0.001863 0.000000 0.044798
#
#
# Mechanical properties :
#
#
# Convention : Reuss Voigt Hill
#
# Bulk Modulus (GPa) = 53.44121 64.56878 59.00500
# Shear Modulus (GPa) = 17.30643 20.05777 18.68210
#
# Velocity S-wave (km/s) = 3.38269 3.64166 3.51456
# Velocity P-wave (km/s) = 7.11272 7.77004 7.44863
#
# Compressibility (1/GPa) = 0.01871215
#
# Stress axis : x y z
#
# Youngs Moduli (GPa) = 58.91187 23.16507 43.73725
#
# Poissons Ratio (x) = 0.27485 0.21191
# Poissons Ratio (y) = 0.69899 0.67519
# Poissons Ratio (z) = 0.28543 0.35761
#
# Static dielectric constant tensor:
#      x y z
#    x 2.982800 0.000000 0.110620 
#    y 0.000000 2.723710 0.000000 
#    z 0.110620 0.000000 2.765050 
# 
# 
# High freq. dielectric constant tensor:
#      x y z
#    x 1.575300 0.000000 0.007260 
#    y 0.000000 1.558830 0.000000 
#    z 0.007260 0.000000 1.561000 
# 
# From -- ./inp_files/51207.got.cif
#   From: 2010.06.25/outbox.cif.g09.slc.cpg/sg11_26_cif.got.tgz:51207.got - 2010.06.27 23:14:04.
