data_PCOD8070438
_publ_section_title
;
Structure prediction by ZEFSAII (Michael W. Deem and Ramdas Pophale) SiO2 
 PCOD8070438
Probable space group: P 21/M
;
_chemical_formula_sum "Si O2"
_cell_formula_units_Z 28
_cell_length_a 19.655446
_cell_length_b 8.926041
_cell_length_c 24.662062
_cell_angle_alpha 90.000000
_cell_angle_beta 158.753213
_cell_angle_gamma 90.000000
_cell_volume 1567.986448
_symmetry_space_group_name_H-M "P 21/M"
_symmetry_group_IT_number 11
_symmetry_cell_setting 'monoclinic'
loop_
_space_group_symop_operation_xyz
x,y,z
-x,1/2+y,-z
-x,-y,-z
x,1/2-y,z
loop_
_atom_site_type_symbol
_atom_site_label
_atom_site_fract_x
_atom_site_fract_y
_atom_site_fract_z
Si Si1 0.719020 0.922886 0.322885
Si Si2 0.801023 0.574473 0.861036
Si Si3 0.339519 0.427988 0.036366
Si Si4 0.077923 0.424384 0.934609
Si Si5 0.336158 0.929365 0.341875
Si Si6 0.656278 0.920668 0.081058
Si Si7 0.060736 0.080737 0.619067
O O1 0.670597 0.750000 0.294115
O O2 0.779444 0.962776 0.306157
O O3 0.539370 0.017872 0.206919
O O4 0.887757 0.967542 0.488153
O O5 0.803206 0.750000 0.847972
O O6 0.648310 0.491109 0.708941
O O7 0.773642 0.549147 0.905442
O O8 0.000000 0.500000 0.000000
O O9 0.333188 0.250000 0.033290
O O10 0.174286 0.493581 0.952208
O O11 0.314369 0.491875 0.956673
O O12 0.046173 0.250000 0.902838
O O13 0.866983 0.488861 0.787010
O O14 0.354265 0.750000 0.355150
O O15 0.500000 0.000000 0.500000
O O16 0.590636 0.750000 0.026451
O O17 0.855400 0.933919 0.258820
O O18 0.500000 0.000000 0.000000
O O19 0.991761 0.250000 0.555654
#
# Coordination Sequence:
#
# PCOD8070438 Si02
#       7
#     4   4   4   4   4   4   4
#     4  10  19  31  48  70  96 125 161 208 257 300
#     4   9  16  30  52  76 102 132 169 210 249 298
#     4  10  19  33  53  74  98 132 170 208 256 310
#     4   8  17  33  52  75 102 133 170 208 249 303
#     4  10  19  33  54  80 109 139 172 211 252 303
#     4  10  19  31  50  73  97 127 167 212 255 302
#     4   9  18  32  47  67  95 125 163 207 251 302
#
# _framework density 17.857296999999999
#
# number of rings (size 3 to 8) (size 9 to 14) (size 15 to 20)
#    0.000    2.571    1.429    2.143    0.000    1.143 
#    0.000    5.714    0.000    5.143    0.000    0.000 
#    0.000    0.000    0.000    0.000    0.000    0.000 
#
# Total GULP energy -346982.582282 kJ/mol
# GULP energy per Si atom -12392.235081 kJ/mol
# Density = 1.781665 g / cm^3
# Si number density = 17.857297 Si / 1000 Ang^3
#
#
#
# Elastic Constant Matrix: (Units=GPa)
#
#
# Indices 1 2 3 4 5 6 
#
# 1 118.2199 33.2687 56.8347 0.0000 -5.6740 0.0000
# 2 33.2687 48.9860 30.3926 0.0000 -7.9174 0.0000
# 3 56.8347 30.3926 100.2520 0.0000 -11.9087 0.0000
# 4 0.0000 0.0000 0.0000 29.5990 0.0000 -3.4009
# 5 -5.6740 -7.9174 -11.9087 0.0000 26.3640 0.0000
# 6 0.0000 0.0000 0.0000 -3.4009 0.0000 19.0190
#
#
#
# Elastic Compliance Matrix: (Units=1/GPa)
#
#
# Indices 1 2 3 4 5 6 
#
# 1 0.012625 -0.005248 -0.005739 0.000000 -0.001451 0.000000
# 2 -0.005248 0.027804 -0.004857 0.000000 0.005027 0.000000
# 3 -0.005739 -0.004857 0.015196 0.000000 0.004171 0.000000
# 4 0.000000 0.000000 0.000000 0.034494 0.000000 0.006168
# 5 -0.001451 0.005027 0.004171 0.000000 0.041012 0.000000
# 6 0.000000 0.000000 0.000000 0.006168 0.000000 0.053682
#
#
# Mechanical properties :
#
#
# Convention : Reuss Voigt Hill
#
# Bulk Modulus (GPa) = 41.77497 56.49441 49.13469
# Shear Modulus (GPa) = 22.27384 24.79386 23.53385
#
# Velocity S-wave (km/s) = 3.53558 3.73023 3.63421
# Velocity P-wave (km/s) = 6.33338 7.08929 6.72197
#
# Compressibility (1/GPa) = 0.02393778
#
# Stress axis : x y z
#
# Youngs Moduli (GPa) = 79.20805 35.96597 65.80705
#
# Poissons Ratio (x) = 0.18876 0.37764
# Poissons Ratio (y) = 0.41571 0.31960
# Poissons Ratio (z) = 0.45454 0.17467
#
# Static dielectric constant tensor:
#      x y z
#    x 3.707630 0.000000 -0.249210 
#    y 0.000000 3.292190 0.000000 
#    z -0.249210 0.000000 3.310940 
# 
# 
# High freq. dielectric constant tensor:
#      x y z
#    x 1.678220 0.000000 -0.018700 
#    y 0.000000 1.681560 0.000000 
#    z -0.018700 0.000000 1.681060 
# 
# From -- ./inp_files/71953.got.cif
#   From: 2010.06.25/outbox.cif.g09.slc.cpg/sg11_36_cif.got.tgz:71953.got - 2010.06.27 23:14:04.
