data_PCOD8070131
_publ_section_title
;
Structure prediction by ZEFSAII (Michael W. Deem and Ramdas Pophale) SiO2 
 PCOD8070131
Probable space group: P 21/M
;
_chemical_formula_sum "Si O2"
_cell_formula_units_Z 24
_cell_length_a 12.532029
_cell_length_b 9.084818
_cell_length_c 27.229103
_cell_angle_alpha 90.000000
_cell_angle_beta 152.633266
_cell_angle_gamma 90.000000
_cell_volume 1425.051541
_symmetry_space_group_name_H-M "P 21/M"
_symmetry_group_IT_number 11
_symmetry_cell_setting 'monoclinic'
loop_
_space_group_symop_operation_xyz
x,y,z
-x,1/2+y,-z
-x,-y,-z
x,1/2-y,z
loop_
_atom_site_type_symbol
_atom_site_label
_atom_site_fract_x
_atom_site_fract_y
_atom_site_fract_z
Si Si1 0.879984 0.417599 0.241434
Si Si2 0.986302 0.424305 0.609184
Si Si3 0.968620 0.922962 0.806861
Si Si4 0.196318 0.578149 0.611323
Si Si5 0.471052 0.920547 0.632757
Si Si6 0.400899 0.080155 0.006365
O O1 0.948046 0.250000 0.282139
O O2 0.999074 0.527110 0.328495
O O3 0.978659 0.459564 0.228285
O O4 0.598898 0.436029 0.129156
O O5 0.010873 0.250000 0.614615
O O6 0.742433 0.483718 0.487023
O O7 0.199472 0.500148 0.665958
O O8 0.985620 0.750000 0.824431
O O9 0.716677 0.990795 0.717448
O O10 0.155903 0.002915 0.919225
O O11 0.140823 0.750000 0.595076
O O12 0.431157 0.555180 0.675175
O O13 0.000000 0.500000 0.500000
O O14 0.484114 0.750000 0.625190
O O15 0.356690 0.250000 0.975808
O O16 0.500000 0.000000 0.000000
#
# Coordination Sequence:
#
# PCOD8070131 Si02
#       6
#     4   4   4   4   4   4
#     4   9  18  30  45  66  93 122 149 184 228 270
#     4  10  19  30  46  68  94 123 156 190 224 268
#     4   9  17  31  49  68  93 122 151 184 227 276
#     4   9  16  29  48  67  90 120 155 190 225 268
#     4   8  16  30  47  68  93 121 149 183 229 274
#     4   9  17  30  47  67  90 118 154 191 226 266
#
# _framework density 16.841497
#
# number of rings (size 3 to 8) (size 9 to 14) (size 15 to 20)
#    0.000    3.000    0.000    3.500    0.000    4.000 
#    0.000    5.000    0.000    1.000    0.000    0.000 
#    0.000    0.000    0.000    0.000    0.000    0.000 
#
# Total GULP energy -297359.767665 kJ/mol
# GULP energy per Si atom -12389.990319 kJ/mol
# Density = 1.680317 g / cm^3
# Si number density = 16.841497 Si / 1000 Ang^3
#
#
#
# Elastic Constant Matrix: (Units=GPa)
#
#
# Indices 1 2 3 4 5 6 
#
# 1 78.3378 31.8227 43.5696 0.0000 22.1048 0.0000
# 2 31.8227 72.0707 30.8328 0.0000 10.3074 0.0000
# 3 43.5696 30.8328 79.0038 0.0000 25.9276 0.0000
# 4 0.0000 0.0000 0.0000 26.9688 0.0000 -4.1592
# 5 22.1048 10.3074 25.9276 0.0000 16.3964 0.0000
# 6 0.0000 0.0000 0.0000 -4.1592 0.0000 24.4734
#
#
#
# Elastic Compliance Matrix: (Units=1/GPa)
#
#
# Indices 1 2 3 4 5 6 
#
# 1 0.023246 -0.005666 -0.003103 0.000000 -0.022871 0.000000
# 2 -0.005666 0.018038 -0.005614 0.000000 0.005176 0.000000
# 3 -0.003103 -0.005614 0.029163 0.000000 -0.038403 0.000000
# 4 0.000000 0.000000 0.000000 0.038078 0.000000 0.006471
# 5 -0.022871 0.005176 -0.038403 0.000000 0.149296 0.000000
# 6 0.000000 0.000000 0.000000 0.006471 0.000000 0.041961
#
#
# Mechanical properties :
#
#
# Convention : Reuss Voigt Hill
#
# Bulk Modulus (GPa) = 23.99103 49.09581 36.54342
# Shear Modulus (GPa) = 14.60104 21.78018 18.19061
#
# Velocity S-wave (km/s) = 2.94763 3.60007 3.29006
# Velocity P-wave (km/s) = 5.08535 6.81877 6.01483
#
# Compressibility (1/GPa) = 0.04168224
#
# Stress axis : x y z
#
# Youngs Moduli (GPa) = 43.01783 55.43712 34.29000
#
# Poissons Ratio (x) = 0.31410 0.10640
# Poissons Ratio (y) = 0.24373 0.19250
# Poissons Ratio (z) = 0.13348 0.31122
#
# Static dielectric constant tensor:
#      x y z
#    x 3.212870 0.000000 0.342670 
#    y 0.000000 3.193450 0.000000 
#    z 0.342670 0.000000 3.148800 
# 
# 
# High freq. dielectric constant tensor:
#      x y z
#    x 1.633500 0.000000 0.009420 
#    y 0.000000 1.645570 0.000000 
#    z 0.009420 0.000000 1.630550 
# 
# From -- ./inp_files/33767.got.cif
#   From: 2010.06.25/outbox.cif.g09.slc.cpg/sg11_17_cif.got.tgz:33767.got - 2010.06.27 23:14:04.
