data_PCOD8070527
_publ_section_title
;
Structure prediction by ZEFSAII (Michael W. Deem and Ramdas Pophale) SiO2 
 PCOD8070527
Probable space group: P 21/M
;
_chemical_formula_sum "Si O2"
_cell_formula_units_Z 28
_cell_length_a 20.500218
_cell_length_b 9.149843
_cell_length_c 18.084655
_cell_angle_alpha 90.000000
_cell_angle_beta 152.069775
_cell_angle_gamma 90.000000
_cell_volume 1588.896062
_symmetry_space_group_name_H-M "P 21/M"
_symmetry_group_IT_number 11
_symmetry_cell_setting 'monoclinic'
loop_
_space_group_symop_operation_xyz
x,y,z
-x,1/2+y,-z
-x,-y,-z
x,1/2-y,z
loop_
_atom_site_type_symbol
_atom_site_label
_atom_site_fract_x
_atom_site_fract_y
_atom_site_fract_z
Si Si1 0.649945 0.923719 0.345272
Si Si2 0.843383 0.916964 0.272254
Si Si3 0.834310 0.080738 0.409905
Si Si4 0.354044 0.579478 0.359110
Si Si5 0.332148 0.088257 0.474376
Si Si6 0.663644 0.088530 0.817866
Si Si7 0.359459 0.079794 0.064490
O O1 0.635757 0.750000 0.322396
O O2 0.714561 0.964533 0.490598
O O3 0.752063 0.987710 0.387106
O O4 0.497662 0.991977 0.182217
O O5 0.821155 0.750000 0.275838
O O6 0.003396 0.945031 0.411840
O O7 0.794042 0.022871 0.288390
O O8 0.754015 0.954567 0.111079
O O9 0.791644 0.250000 0.372710
O O10 0.500000 0.500000 0.500000
O O11 0.379978 0.750000 0.397374
O O12 0.272703 0.516290 0.349612
O O13 0.271810 0.550788 0.198958
O O14 0.274169 0.250000 0.400000
O O15 0.498450 0.088914 0.642011
O O16 0.713495 0.250000 0.892958
O O17 0.706656 0.972406 0.923467
O O18 0.395691 0.250000 0.106480
#
# Coordination Sequence:
#
# PCOD8070527 Si02
#       7
#     4   4   4   4   4   4   4
#     4  10  20  33  48  70 101 129 155 194 238 278
#     4   9  20  37  53  72  97 121 153 197 237 278
#     4  10  20  35  55  74  92 121 159 194 233 283
#     4   9  15  22  35  56  85 120 154 188 226 268
#     4   8  15  26  39  58  87 121 153 187 228 271
#     4   8  15  26  38  59  92 124 153 189 232 275
#     4  10  19  31  49  72  97 126 158 193 235 280
#
# _framework density 17.622299000000002
#
# number of rings (size 3 to 8) (size 9 to 14) (size 15 to 20)
#    0.000    2.857    0.000    3.429    0.000    8.571 
#    0.000    0.000    0.000    0.000    0.000    1.000 
#    0.000    0.000    0.000    0.000    0.000    0.000 
#
# Total GULP energy -347006.667156 kJ/mol
# GULP energy per Si atom -12393.095256 kJ/mol
# Density = 1.758219 g / cm^3
# Si number density = 17.622299 Si / 1000 Ang^3
#
#
#
# Elastic Constant Matrix: (Units=GPa)
#
#
# Indices 1 2 3 4 5 6 
#
# 1 98.0113 72.8541 76.1671 0.0000 -40.7518 0.0000
# 2 72.8541 115.7697 52.1848 0.0000 -23.6055 0.0000
# 3 76.1671 52.1848 49.6275 0.0000 -18.2792 0.0000
# 4 0.0000 0.0000 0.0000 19.2402 0.0000 -9.9534
# 5 -40.7518 -23.6055 -18.2792 0.0000 19.9066 0.0000
# 6 0.0000 0.0000 0.0000 -9.9534 0.0000 34.5851
#
#
#
# Elastic Compliance Matrix: (Units=1/GPa)
#
#
# Indices 1 2 3 4 5 6 
#
# 1 -0.029996 -0.005785 0.040763 0.000000 -0.030837 0.000000
# 2 -0.005785 0.015709 -0.007767 0.000000 -0.000348 0.000000
# 3 0.040763 -0.007767 -0.010428 0.000000 0.064663 0.000000
# 4 0.000000 0.000000 0.000000 0.061066 0.000000 0.017574
# 5 -0.030837 -0.000348 0.064663 0.000000 0.046071 0.000000
# 6 0.000000 0.000000 0.000000 0.017574 0.000000 0.033972
#
#
# Mechanical properties :
#
#
# Convention : Reuss Voigt Hill
#
# Bulk Modulus (GPa) = 33.66331 73.98006 53.82169
# Shear Modulus (GPa) = 69.56680 18.89322 44.23001
#
# Velocity S-wave (km/s) = 6.28986 3.27788 5.01531
# Velocity P-wave (km/s) = 8.47902 7.50986 8.00912
#
# Compressibility (1/GPa) = 0.02970593
#
# Stress axis : x y z
#
# Youngs Moduli (GPa) = -33.33731 63.65877 -95.89444
#
# Poissons Ratio (x) = 0.36830 3.90898
# Poissons Ratio (y) = -0.19287 -0.74482
# Poissons Ratio (z) = 1.35894 0.49444
#
# Static dielectric constant tensor:
#      x y z
#    x 3.768670 0.000000 -0.530360 
#    y 0.000000 3.544300 0.000000 
#    z -0.530360 0.000000 3.017460 
# 
# 
# High freq. dielectric constant tensor:
#      x y z
#    x 1.683770 0.000000 -0.036700 
#    y 0.000000 1.692700 0.000000 
#    z -0.036700 0.000000 1.636520 
# 
# From -- ./inp_files/61285.got.cif
#   From: 2010.06.25/outbox.cif.g09.slc.cpg/sg11_31_cif.got.tgz:61285.got - 2010.06.27 23:14:04.
