data_PCOD8070005
_publ_section_title
;
Structure prediction by ZEFSAII (Michael W. Deem and Ramdas Pophale) SiO2 
 PCOD8070005
Probable space group: P 21/M
;
_chemical_formula_sum "Si O2"
_cell_formula_units_Z 28
_cell_length_a 13.661410
_cell_length_b 8.711551
_cell_length_c 14.511733
_cell_angle_alpha 90.000000
_cell_angle_beta 103.095238
_cell_angle_gamma 90.000000
_cell_volume 1682.158549
_symmetry_space_group_name_H-M "P 21/M"
_symmetry_group_IT_number 11
_symmetry_cell_setting 'monoclinic'
loop_
_space_group_symop_operation_xyz
x,y,z
-x,1/2+y,-z
-x,-y,-z
x,1/2-y,z
loop_
_atom_site_type_symbol
_atom_site_label
_atom_site_fract_x
_atom_site_fract_y
_atom_site_fract_z
Si Si1 0.220993 0.569137 0.072879
Si Si2 0.881445 0.074163 0.399340
Si Si3 0.769627 0.426124 0.202007
Si Si4 0.080784 0.428858 0.899763
Si Si5 0.913376 0.071855 0.608403
Si Si6 0.876743 0.929878 0.787777
Si Si7 0.608115 0.072254 0.029068
O O1 0.224195 0.750000 0.089600
O O2 0.219332 0.482283 0.171337
O O3 0.119904 0.524820 0.995707
O O4 0.317922 0.510655 0.035728
O O5 0.919555 0.250000 0.402883
O O6 0.780982 0.052059 0.315130
O O7 0.856616 0.031652 0.499992
O O8 0.969535 0.969484 0.377110
O O9 0.795446 0.250000 0.178898
O O10 0.849371 0.538582 0.172974
O O11 0.658033 0.464773 0.140055
O O12 0.082955 0.250000 0.925016
O O13 0.969638 0.478226 0.849634
O O14 0.904793 0.250000 0.632125
O O15 0.859997 0.975281 0.677601
O O16 0.895078 0.750000 0.799024
O O17 0.592083 0.250000 0.011291
O O18 0.500000 0.000000 0.000000
#
# Coordination Sequence:
#
# PCOD8070005 Si02
#       7
#     4   4   4   4   4   4   4
#     4  10  21  36  50  67  92 124 159 197 236 285
#     4   9  17  30  47  66  94 129 165 201 237 276
#     4   9  17  31  49  70  96 129 162 196 236 281
#     4  11  20  30  45  68  95 127 162 197 232 278
#     4  10  19  29  44  68  95 128 167 202 235 274
#     4  12  22  32  45  65  95 132 164 196 235 279
#     4   9  19  34  53  74  97 121 151 192 241 289
#
# _framework density 16.64528
#
# number of rings (size 3 to 8) (size 9 to 14) (size 15 to 20)
#    0.000    2.000    1.429    4.714    0.000    3.429 
#    0.000    0.000    0.000    0.000    0.000    1.000 
#    0.000    0.000    0.000    0.000    0.000    0.000 
#
# Total GULP energy -347078.634991 kJ/mol
# GULP energy per Si atom -12395.665535 kJ/mol
# Density = 1.660740 g / cm^3
# Si number density = 16.645280 Si / 1000 Ang^3
#
#
#
# Elastic Constant Matrix: (Units=GPa)
#
#
# Indices 1 2 3 4 5 6 
#
# 1 69.6502 22.7416 52.6289 0.0000 4.8038 0.0000
# 2 22.7416 56.4820 28.5614 0.0000 -2.4863 0.0000
# 3 52.6289 28.5614 135.4974 0.0000 -4.1441 0.0000
# 4 0.0000 0.0000 0.0000 25.4011 0.0000 -2.3073
# 5 4.8038 -2.4863 -4.1441 0.0000 18.4943 0.0000
# 6 0.0000 0.0000 0.0000 -2.3073 0.0000 23.3350
#
#
#
# Elastic Compliance Matrix: (Units=1/GPa)
#
#
# Indices 1 2 3 4 5 6 
#
# 1 0.022724 -0.005514 -0.007921 0.000000 -0.008419 0.000000
# 2 -0.005514 0.021211 -0.002213 0.000000 0.003788 0.000000
# 3 -0.007921 -0.002213 0.011053 0.000000 0.004237 0.000000
# 4 0.000000 0.000000 0.000000 0.039725 0.000000 0.003928
# 5 -0.008419 0.003788 0.004237 0.000000 0.057716 0.000000
# 6 0.000000 0.000000 0.000000 0.003928 0.000000 0.043242
#
#
# Mechanical properties :
#
#
# Convention : Reuss Voigt Hill
#
# Bulk Modulus (GPa) = 42.21212 52.16594 47.18903
# Shear Modulus (GPa) = 21.28863 23.95926 22.62395
#
# Velocity S-wave (km/s) = 3.58013 3.79806 3.69071
# Velocity P-wave (km/s) = 6.51956 7.11629 6.82445
#
# Compressibility (1/GPa) = 0.02368988
#
# Stress axis : x y z
#
# Youngs Moduli (GPa) = 44.00584 47.14527 90.47203
#
# Poissons Ratio (x) = 0.25998 0.71667
# Poissons Ratio (y) = 0.24267 0.20024
# Poissons Ratio (z) = 0.34859 0.10435
#
# Static dielectric constant tensor:
#      x y z
#    x 2.962410 0.000000 -0.107880 
#    y 0.000000 3.239850 0.000000 
#    z -0.107880 0.000000 3.486980 
# 
# 
# High freq. dielectric constant tensor:
#      x y z
#    x 1.585060 0.000000 -0.008130 
#    y 0.000000 1.649750 0.000000 
#    z -0.008130 0.000000 1.650090 
# 
# From -- ./inp_files/51000.got.cif
#   From: 2010.06.25/outbox.cif.g09.slc.cpg/sg11_26_cif.got.tgz:51000.got - 2010.06.27 23:14:04.
