data_PCOD8070443
_publ_section_title
;
Structure prediction by ZEFSAII (Michael W. Deem and Ramdas Pophale) SiO2 
 PCOD8070443
Probable space group: P 21/M
;
_chemical_formula_sum "Si O2"
_cell_formula_units_Z 20
_cell_length_a 10.011094
_cell_length_b 8.948543
_cell_length_c 16.571404
_cell_angle_alpha 90.000000
_cell_angle_beta 123.771916
_cell_angle_gamma 90.000000
_cell_volume 1234.037938
_symmetry_space_group_name_H-M "P 21/M"
_symmetry_group_IT_number 11
_symmetry_cell_setting 'monoclinic'
loop_
_space_group_symop_operation_xyz
x,y,z
-x,1/2+y,-z
-x,-y,-z
x,1/2-y,z
loop_
_atom_site_type_symbol
_atom_site_label
_atom_site_fract_x
_atom_site_fract_y
_atom_site_fract_z
Si Si1 0.771462 0.581235 0.704549
Si Si2 0.435415 0.926350 0.247705
Si Si3 0.899141 0.575440 0.576503
Si Si4 0.138883 0.418952 0.094525
Si Si5 0.240169 0.575782 0.621537
O O1 0.707474 0.750000 0.669983
O O2 0.619947 0.477692 0.680192
O O3 0.855359 0.521290 0.651888
O O4 0.900348 0.578766 0.822112
O O5 0.435519 0.750000 0.240453
O O6 0.611786 0.989129 0.288413
O O7 0.310085 0.995723 0.140083
O O8 0.863753 0.750000 0.550839
O O9 0.789387 0.482315 0.478781
O O10 0.086355 0.540379 0.625391
O O11 0.154963 0.250000 0.067592
O O12 0.000000 0.500000 0.000000
O O13 0.280253 0.750000 0.631464
#
# Coordination Sequence:
#
# PCOD8070443 Si02
#       5
#     4   4   4   4   4
#     4   8  17  32  49  70  94 122 157 197 236 277
#     4  10  19  31  48  71  96 126 160 195 232 276
#     4   9  18  33  50  68  94 129 162 193 234 281
#     4   9  17  31  51  73  96 120 152 194 240 284
#     4  10  19  31  48  70  97 128 160 195 234 278
#
# _framework density 16.206956999999999
#
# number of rings (size 3 to 8) (size 9 to 14) (size 15 to 20)
#    1.200    1.600    0.000    2.400    0.000    2.400 
#    0.000    0.000    0.000    1.200    0.000    0.000 
#    0.000    0.000    0.000    0.000    0.000    0.000 
#
# Total GULP energy -247818.161318 kJ/mol
# GULP energy per Si atom -12390.908066 kJ/mol
# Density = 1.617007 g / cm^3
# Si number density = 16.206957 Si / 1000 Ang^3
#
#
#
# Elastic Constant Matrix: (Units=GPa)
#
#
# Indices 1 2 3 4 5 6 
#
# 1 39.8211 22.0796 17.7661 0.0000 15.2156 0.0000
# 2 22.0796 108.5480 41.1387 0.0000 22.5811 0.0000
# 3 17.7661 41.1387 68.4145 0.0000 29.0710 0.0000
# 4 0.0000 0.0000 0.0000 32.1984 0.0000 6.2670
# 5 15.2156 22.5811 29.0710 0.0000 26.2179 0.0000
# 6 0.0000 0.0000 0.0000 6.2670 0.0000 21.6130
#
#
#
# Elastic Compliance Matrix: (Units=1/GPa)
#
#
# Indices 1 2 3 4 5 6 
#
# 1 0.033255 -0.003481 0.000727 0.000000 -0.017107 0.000000
# 2 -0.003481 0.012569 -0.005507 0.000000 -0.002699 0.000000
# 3 0.000727 -0.005507 0.030072 0.000000 -0.029023 0.000000
# 4 0.000000 0.000000 0.000000 0.032915 0.000000 -0.009544
# 5 -0.017107 -0.002699 -0.029023 0.000000 0.082576 0.000000
# 6 0.000000 0.000000 0.000000 -0.009544 0.000000 0.049036
#
#
# Mechanical properties :
#
#
# Convention : Reuss Voigt Hill
#
# Bulk Modulus (GPa) = 16.84256 42.08359 29.46307
# Shear Modulus (GPa) = 18.06763 25.05913 21.56338
#
# Velocity S-wave (km/s) = 3.34250 3.93644 3.65156
# Velocity P-wave (km/s) = 5.03101 6.83253 5.99977
#
# Compressibility (1/GPa) = 0.05937338
#
# Stress axis : x y z
#
# Youngs Moduli (GPa) = 30.07086 79.55938 33.25312
#
# Poissons Ratio (x) = 0.27694 -0.02416
# Poissons Ratio (y) = 0.10467 0.18313
# Poissons Ratio (z) = -0.02185 0.43816
#
# Static dielectric constant tensor:
#      x y z
#    x 2.944990 0.000000 0.051460 
#    y 0.000000 3.098750 0.000000 
#    z 0.051460 0.000000 2.872850 
# 
# 
# High freq. dielectric constant tensor:
#      x y z
#    x 1.600740 0.000000 0.012550 
#    y 0.000000 1.634550 0.000000 
#    z 0.012550 0.000000 1.605090 
# 
# From -- ./inp_files/20226.got.cif
#   From: 2010.06.25/outbox.cif.g09.slc.cpg/sg11_11_cif.got.tgz:20226.got - 2010.06.27 23:14:04.
