data_PCOD8070236
_publ_section_title
;
Structure prediction by ZEFSAII (Michael W. Deem and Ramdas Pophale) SiO2 
 PCOD8070236
Probable space group: P 21/M
;
_chemical_formula_sum "Si O2"
_cell_formula_units_Z 28
_cell_length_a 18.818541
_cell_length_b 9.252068
_cell_length_c 15.336344
_cell_angle_alpha 90.000000
_cell_angle_beta 37.845305
_cell_angle_gamma 90.000000
_cell_volume 1638.262844
_symmetry_space_group_name_H-M "P 21/M"
_symmetry_group_IT_number 11
_symmetry_cell_setting 'monoclinic'
loop_
_space_group_symop_operation_xyz
x,y,z
-x,1/2+y,-z
-x,-y,-z
x,1/2-y,z
loop_
_atom_site_type_symbol
_atom_site_label
_atom_site_fract_x
_atom_site_fract_y
_atom_site_fract_z
Si Si1 0.247321 0.916122 0.118143
Si Si2 0.098101 0.918580 0.098939
Si Si3 0.270308 0.083955 0.410472
Si Si4 0.880271 0.916955 0.611147
Si Si5 0.115704 0.585713 0.893507
Si Si6 0.495460 0.084140 0.093934
Si Si7 0.855151 0.419579 0.322538
O O1 0.215530 0.750000 0.170788
O O2 0.183231 0.969251 0.093013
O O3 0.210804 0.015731 0.233683
O O4 0.384488 0.933716 0.970167
O O5 0.065230 0.750000 0.141028
O O6 0.168581 0.945875 0.938753
O O7 0.980265 0.009321 0.218494
O O8 0.281912 0.250000 0.428579
O O9 0.168856 0.065764 0.438168
O O10 0.391772 0.024864 0.254708
O O11 0.241328 0.988399 0.522352
O O12 0.900054 0.750000 0.615926
O O13 0.000000 0.000000 0.500000
O O14 0.076997 0.750000 0.925543
O O15 0.189711 0.550359 0.734270
O O16 0.000000 0.500000 0.000000
O O17 0.469186 0.250000 0.095703
O O18 0.500000 0.000000 0.000000
O O19 0.865374 0.250000 0.332797
#
# Coordination Sequence:
#
# PCOD8070236 Si02
#       7
#     4   4   4   4   4   4   4
#     4  10  20  33  52  74  95 123 162 202 241 287
#     4   9  17  31  50  73 101 130 155 191 244 295
#     4  10  21  35  49  67  95 130 162 196 241 289
#     4  11  22  34  48  69  99 131 159 193 241 290
#     4   8  15  28  46  69  98 127 157 191 234 286
#     4  10  20  36  54  71  92 123 167 208 241 284
#     4  10  19  30  48  75 100 127 162 199 236 282
#
# _framework density 17.091273999999999
#
# number of rings (size 3 to 8) (size 9 to 14) (size 15 to 20)
#    0.000    2.286    1.429    1.714    0.000    6.286 
#    0.000    0.000    0.000    0.857    0.000    0.000 
#    0.000    0.000    0.000    0.000    0.000    0.714 
#
# Total GULP energy -347017.388557 kJ/mol
# GULP energy per Si atom -12393.478163 kJ/mol
# Density = 1.705237 g / cm^3
# Si number density = 17.091274 Si / 1000 Ang^3
#
#
#
# Elastic Constant Matrix: (Units=GPa)
#
#
# Indices 1 2 3 4 5 6 
#
# 1 45.4157 23.1066 40.9020 0.0000 14.4552 0.0000
# 2 23.1066 65.1972 48.5646 0.0000 10.2238 0.0000
# 3 40.9020 48.5646 127.1781 0.0000 13.6192 0.0000
# 4 0.0000 0.0000 0.0000 27.8612 0.0000 3.2085
# 5 14.4552 10.2238 13.6192 0.0000 32.7237 0.0000
# 6 0.0000 0.0000 0.0000 3.2085 0.0000 19.0915
#
#
#
# Elastic Compliance Matrix: (Units=1/GPa)
#
#
# Indices 1 2 3 4 5 6 
#
# 1 0.035382 -0.004529 -0.008507 0.000000 -0.010674 0.000000
# 2 -0.004529 0.022392 -0.006865 0.000000 -0.002138 0.000000
# 3 -0.008507 -0.006865 0.013175 0.000000 0.000419 0.000000
# 4 0.000000 0.000000 0.000000 0.036601 0.000000 -0.006151
# 5 -0.010674 -0.002138 0.000419 0.000000 0.035768 0.000000
# 6 0.000000 0.000000 0.000000 -0.006151 0.000000 0.053413
#
#
# Mechanical properties :
#
#
# Convention : Reuss Voigt Hill
#
# Bulk Modulus (GPa) = 32.10540 51.43748 41.77144
# Shear Modulus (GPa) = 20.24985 24.28315 22.26650
#
# Velocity S-wave (km/s) = 3.44584 3.77343 3.61335
# Velocity P-wave (km/s) = 5.88703 7.01043 6.47315
#
# Compressibility (1/GPa) = 0.03114741
#
# Stress axis : x y z
#
# Youngs Moduli (GPa) = 28.26309 44.65800 75.89865
#
# Poissons Ratio (x) = 0.20228 0.64564
# Poissons Ratio (y) = 0.12802 0.52105
# Poissons Ratio (z) = 0.24042 0.30658
#
# Static dielectric constant tensor:
#      x y z
#    x 3.468970 0.000000 0.353570 
#    y 0.000000 3.233780 0.000000 
#    z 0.353570 0.000000 3.394140 
# 
# 
# High freq. dielectric constant tensor:
#      x y z
#    x 1.648070 0.000000 0.019690 
#    y 0.000000 1.664500 0.000000 
#    z 0.019690 0.000000 1.653260 
# 
# From -- ./inp_files/37156.got.cif
#   From: 2010.06.25/outbox.cif.g09.slc.cpg/sg11_19_cif.got.tgz:37156.got - 2010.06.27 23:14:04.
