data_PCOD8070113
_publ_section_title
;
Structure prediction by ZEFSAII (Michael W. Deem and Ramdas Pophale) SiO2 
 PCOD8070113
Probable space group: P 21/M
;
_chemical_formula_sum "Si O2"
_cell_formula_units_Z 28
_cell_length_a 16.370597
_cell_length_b 8.991301
_cell_length_c 18.236415
_cell_angle_alpha 90.000000
_cell_angle_beta 143.101419
_cell_angle_gamma 90.000000
_cell_volume 1611.638035
_symmetry_space_group_name_H-M "P 21/M"
_symmetry_group_IT_number 11
_symmetry_cell_setting 'monoclinic'
loop_
_space_group_symop_operation_xyz
x,y,z
-x,1/2+y,-z
-x,-y,-z
x,1/2-y,z
loop_
_atom_site_type_symbol
_atom_site_label
_atom_site_fract_x
_atom_site_fract_y
_atom_site_fract_z
Si Si1 0.805350 0.582222 0.901898
Si Si2 0.973629 0.577050 0.746955
Si Si3 0.277142 0.923495 0.016977
Si Si4 0.498694 0.923673 0.920865
Si Si5 0.113663 0.917548 0.176600
Si Si6 0.194850 0.920309 0.664771
Si Si7 0.022488 0.922841 0.400642
O O1 0.748693 0.750000 0.856215
O O2 0.717277 0.490404 0.897332
O O3 0.790346 0.504174 0.812010
O O4 0.961206 0.582871 0.037532
O O5 0.939319 0.750000 0.723597
O O6 0.879842 0.499300 0.740692
O O7 0.933557 0.510148 0.640092
O O8 0.131882 0.546549 0.875731
O O9 0.310914 0.750000 0.045568
O O10 0.387341 0.005348 0.047556
O O11 0.528455 0.750000 0.952096
O O12 0.354471 0.952973 0.778580
O O13 0.500000 0.000000 0.000000
O O14 0.168387 0.750000 0.224763
O O15 0.163134 0.750000 0.663408
O O16 0.138291 0.957361 0.543649
O O17 0.123311 0.021975 0.674515
O O18 0.010047 0.750000 0.372830
#
# Coordination Sequence:
#
# PCOD8070113 Si02
#       7
#     4   4   4   4   4   4   4
#     4   9  16  27  43  64  92 125 158 191 231 277
#     4  10  19  30  45  68  98 127 155 192 236 277
#     4  10  20  32  46  67  96 128 160 193 231 276
#     4  11  22  35  50  69  95 125 157 193 233 277
#     4   9  16  26  42  65  93 124 157 192 230 275
#     4   9  20  36  50  67  93 123 154 192 237 279
#     4  10  19  32  51  71  91 119 156 195 234 278
#
# _framework density 17.373628
#
# number of rings (size 3 to 8) (size 9 to 14) (size 15 to 20)
#    0.000    2.286    0.000    3.429    0.000   10.286 
#    0.000    0.000    0.000    0.000    0.000    1.000 
#    0.000    0.000    0.000    0.000    0.000    0.000 
#
# Total GULP energy -347272.632657 kJ/mol
# GULP energy per Si atom -12402.594023 kJ/mol
# Density = 1.733408 g / cm^3
# Si number density = 17.373628 Si / 1000 Ang^3
#
#
#
# Elastic Constant Matrix: (Units=GPa)
#
#
# Indices 1 2 3 4 5 6 
#
# 1 144.4194 75.9698 43.7425 0.0000 -25.9588 0.0000
# 2 75.9698 132.6880 42.2791 0.0000 -14.5351 0.0000
# 3 43.7425 42.2791 45.8036 0.0000 -12.2457 0.0000
# 4 0.0000 0.0000 0.0000 21.5307 0.0000 -6.0088
# 5 -25.9588 -14.5351 -12.2457 0.0000 24.8589 0.0000
# 6 0.0000 0.0000 0.0000 -6.0088 0.0000 40.7451
#
#
#
# Elastic Compliance Matrix: (Units=1/GPa)
#
#
# Indices 1 2 3 4 5 6 
#
# 1 0.012314 -0.004422 -0.005680 0.000000 0.007476 0.000000
# 2 -0.004422 0.012320 -0.007437 0.000000 -0.001078 0.000000
# 3 -0.005680 -0.007437 0.036132 0.000000 0.007519 0.000000
# 4 0.000000 0.000000 0.000000 0.048439 0.000000 0.007143
# 5 0.007476 -0.001078 0.007519 0.000000 0.051108 0.000000
# 6 0.000000 0.000000 0.000000 0.007143 0.000000 0.025596
#
#
# Mechanical properties :
#
#
# Convention : Reuss Voigt Hill
#
# Bulk Modulus (GPa) = 38.92842 71.87710 55.40276
# Shear Modulus (GPa) = 21.78178 28.15492 24.96835
#
# Velocity S-wave (km/s) = 3.54464 4.02998 3.79508
# Velocity P-wave (km/s) = 6.26162 7.94453 7.15274
#
# Compressibility (1/GPa) = 0.02568817
#
# Stress axis : x y z
#
# Youngs Moduli (GPa) = 81.20533 81.17007 27.67635
#
# Poissons Ratio (x) = 0.35891 0.15721
# Poissons Ratio (y) = 0.35907 0.20583
# Poissons Ratio (z) = 0.46126 0.60367
#
# Static dielectric constant tensor:
#      x y z
#    x 3.241850 0.000000 -0.196830 
#    y 0.000000 3.399120 0.000000 
#    z -0.196830 0.000000 2.967780 
# 
# 
# High freq. dielectric constant tensor:
#      x y z
#    x 1.675690 0.000000 -0.023060 
#    y 0.000000 1.691560 0.000000 
#    z -0.023060 0.000000 1.626160 
# 
# From -- ./inp_files/42326.got.cif
#   From: 2010.06.25/outbox.cif.g09.slc.cpg/sg11_22_cif.got.tgz:42326.got - 2010.06.27 23:14:04.
