data_PCOD8070984
_publ_section_title
;
Structure prediction by ZEFSAII (Michael W. Deem and Ramdas Pophale) SiO2 
 PCOD8070984
Probable space group: P 21/M
;
_chemical_formula_sum "Si O2"
_cell_formula_units_Z 32
_cell_length_a 25.322318
_cell_length_b 9.173917
_cell_length_c 20.672151
_cell_angle_alpha 90.000000
_cell_angle_beta 22.236748
_cell_angle_gamma 90.000000
_cell_volume 1817.333780
_symmetry_space_group_name_H-M "P 21/M"
_symmetry_group_IT_number 11
_symmetry_cell_setting 'monoclinic'
loop_
_space_group_symop_operation_xyz
x,y,z
-x,1/2+y,-z
-x,-y,-z
x,1/2-y,z
loop_
_atom_site_type_symbol
_atom_site_label
_atom_site_fract_x
_atom_site_fract_y
_atom_site_fract_z
Si Si1 0.851200 0.417591 0.103395
Si Si2 0.159586 0.080075 0.754177
Si Si3 0.559247 0.919407 0.118067
Si Si4 0.860629 0.917674 0.729642
Si Si5 0.137135 0.080902 0.424176
Si Si6 0.594160 0.077243 0.839998
Si Si7 0.440194 0.420879 0.376103
Si Si8 0.571592 0.081113 0.359854
O O1 0.855707 0.250000 0.119462
O O2 0.802929 0.504928 0.220925
O O3 0.739163 0.443559 0.173558
O O4 0.005365 0.467188 0.904240
O O5 0.168160 0.250000 0.758958
O O6 0.275955 0.038064 0.569083
O O7 0.547651 0.750000 0.146038
O O8 0.469369 0.960635 0.157443
O O9 0.500062 0.003845 0.245686
O O10 0.720226 0.964405 0.925498
O O11 0.900846 0.750000 0.697354
O O12 0.832874 0.941540 0.685366
O O13 0.984282 0.020087 0.615370
O O14 0.146008 0.250000 0.434174
O O15 0.250502 0.988398 0.335132
O O16 0.596687 0.250000 0.850502
O O17 0.500000 0.000000 0.000000
O O18 0.463647 0.250000 0.341224
O O19 0.520512 0.479505 0.348782
O O20 0.531211 0.250000 0.412129
O O21 0.500000 0.000000 0.500000
#
# Coordination Sequence:
#
# PCOD8070984 Si02
#       8
#     4   4   4   4   4   4   4   4
#     4   9  17  29  50  76 100 131 170 214 262 308
#     4   9  17  31  49  73 105 135 166 212 262 308
#     4  10  22  39  56  77 110 147 182 220 268 326
#     4   9  18  35  54  78 111 144 179 222 270 321
#     4  10  19  33  55  85 112 139 179 225 274 325
#     4  11  21  36  57  83 111 142 182 231 275 323
#     4  10  21  35  51  74 107 143 177 217 266 319
#     4  10  19  32  51  77 105 133 173 220 262 311
#
# _framework density 17.608212999999999
#
# number of rings (size 3 to 8) (size 9 to 14) (size 15 to 20)
#    0.000    2.250    2.500    0.750    0.000    3.000 
#    0.000    1.250    0.000    1.500    0.000    0.000 
#    0.000    0.000    0.000    0.000    0.000    0.000 
#
# Total GULP energy -396766.094299 kJ/mol
# GULP energy per Si atom -12398.940447 kJ/mol
# Density = 1.756814 g / cm^3
# Si number density = 17.608213 Si / 1000 Ang^3
#
#
#
# Elastic Constant Matrix: (Units=GPa)
#
#
# Indices 1 2 3 4 5 6 
#
# 1 108.3155 54.5004 78.5962 0.0000 -3.8996 0.0000
# 2 54.5004 68.0869 57.8570 0.0000 -0.9021 0.0000
# 3 78.5962 57.8570 146.4094 0.0000 -0.2360 0.0000
# 4 0.0000 0.0000 0.0000 32.0592 0.0000 1.2577
# 5 -3.8996 -0.9021 -0.2360 0.0000 28.1675 0.0000
# 6 0.0000 0.0000 0.0000 1.2577 0.0000 27.9706
#
#
#
# Elastic Compliance Matrix: (Units=1/GPa)
#
#
# Indices 1 2 3 4 5 6 
#
# 1 0.018666 -0.009636 -0.006209 0.000000 0.002224 0.000000
# 2 -0.009636 0.027098 -0.005536 0.000000 -0.000513 0.000000
# 3 -0.006209 -0.005536 0.012350 0.000000 -0.000933 0.000000
# 4 0.000000 0.000000 0.000000 0.031247 0.000000 -0.001405
# 5 0.002224 -0.000513 -0.000933 0.000000 0.035786 0.000000
# 6 0.000000 0.000000 0.000000 -0.001405 0.000000 0.035815
#
#
# Mechanical properties :
#
#
# Convention : Reuss Voigt Hill
#
# Bulk Modulus (GPa) = 65.14161 78.30210 71.72186
# Shear Modulus (GPa) = 23.94161 26.43000 25.18580
#
# Velocity S-wave (km/s) = 3.69139 3.87848 3.78609
# Velocity P-wave (km/s) = 7.43262 8.03881 7.74165
#
# Compressibility (1/GPa) = 0.01535117
#
# Stress axis : x y z
#
# Youngs Moduli (GPa) = 53.57291 36.90320 80.97357
#
# Poissons Ratio (x) = 0.35559 0.50277
# Poissons Ratio (y) = 0.51622 0.44831
# Poissons Ratio (z) = 0.33264 0.20431
#
# Static dielectric constant tensor:
#      x y z
#    x 3.394630 0.000000 -0.413150 
#    y 0.000000 3.273940 0.000000 
#    z -0.413150 0.000000 3.515990 
# 
# 
# High freq. dielectric constant tensor:
#      x y z
#    x 1.662680 0.000000 -0.024690 
#    y 0.000000 1.681150 0.000000 
#    z -0.024690 0.000000 1.687320 
# 
# From -- ./inp_files/67014.got.cif
#   From: 2010.06.25/outbox.cif.g09.slc.cpg/sg11_34_cif.got.tgz:67014.got - 2010.06.27 23:14:04.
