data_PCOD8070434
_publ_section_title
;
Structure prediction by ZEFSAII (Michael W. Deem and Ramdas Pophale) SiO2 
 PCOD8070434
Probable space group: P 21/M
;
_chemical_formula_sum "Si O2"
_cell_formula_units_Z 32
_cell_length_a 21.143582
_cell_length_b 8.921771
_cell_length_c 20.374203
_cell_angle_alpha 90.000000
_cell_angle_beta 151.763342
_cell_angle_gamma 90.000000
_cell_volume 1818.346102
_symmetry_space_group_name_H-M "P 21/M"
_symmetry_group_IT_number 11
_symmetry_cell_setting 'monoclinic'
loop_
_space_group_symop_operation_xyz
x,y,z
-x,1/2+y,-z
-x,-y,-z
x,1/2-y,z
loop_
_atom_site_type_symbol
_atom_site_label
_atom_site_fract_x
_atom_site_fract_y
_atom_site_fract_z
Si Si1 0.128135 0.075557 0.585272
Si Si2 0.145898 0.082724 0.204442
Si Si3 0.633587 0.925388 0.096706
Si Si4 0.121417 0.584323 0.307816
Si Si5 0.787584 0.428527 0.123772
Si Si6 0.828194 0.418471 0.900104
Si Si7 0.195650 0.417972 0.993703
Si Si8 0.072651 0.928494 0.405566
O O1 0.098380 0.250000 0.547055
O O2 0.254784 0.048303 0.746416
O O3 0.159059 0.995975 0.543911
O O4 0.000000 0.000000 0.500000
O O5 0.201044 0.250000 0.248538
O O6 0.189711 0.021575 0.316045
O O7 0.213183 0.987090 0.207917
O O8 0.987032 0.077497 0.053006
O O9 0.612716 0.750000 0.062936
O O10 0.672077 0.010834 0.065356
O O11 0.500000 0.000000 0.000000
O O12 0.180630 0.750000 0.351258
O O13 0.149144 0.528928 0.407659
O O14 0.963263 0.587560 0.154075
O O15 0.796817 0.250000 0.134882
O O16 0.749900 0.480186 0.015741
O O17 0.926262 0.499403 0.274511
O O18 0.773675 0.250000 0.853234
O O19 0.758889 0.511310 0.895381
O O20 0.254497 0.250000 0.041744
O O21 0.055154 0.750000 0.395971
#
# Coordination Sequence:
#
# PCOD8070434 Si02
#       8
#     4   4   4   4   4   4   4   4
#     4  11  22  35  55  78 102 130 165 206 252 301
#     4   9  15  21  31  47  71 106 146 187 230 279
#     4  11  24  40  56  76 102 132 167 207 253 305
#     4   8  15  25  36  53  79 112 147 189 235 280
#     4  11  20  31  49  70  94 125 160 200 248 297
#     4   9  15  22  32  48  72 105 147 189 230 280
#     4   9  16  26  39  56  81 111 149 195 238 282
#     4  10  19  31  48  70  96 124 161 204 246 291
#
# _framework density 17.598410000000001
#
# number of rings (size 3 to 8) (size 9 to 14) (size 15 to 20)
#    0.000    2.250    1.250    4.125    0.000    8.000 
#    0.000    0.000    0.000    0.000    0.000    0.000 
#    0.000    0.000    0.000    1.125    0.000   15.750 
#
# Total GULP energy -396736.899020 kJ/mol
# GULP energy per Si atom -12398.028094 kJ/mol
# Density = 1.755836 g / cm^3
# Si number density = 17.598410 Si / 1000 Ang^3
#
#
#
# Elastic Constant Matrix: (Units=GPa)
#
#
# Indices 1 2 3 4 5 6 
#
# 1 131.8808 71.3030 38.9869 0.0000 -35.0698 0.0000
# 2 71.3030 147.1690 35.1850 0.0000 -16.7426 0.0000
# 3 38.9869 35.1850 34.8784 0.0000 -7.8175 0.0000
# 4 0.0000 0.0000 0.0000 17.6855 0.0000 -8.2846
# 5 -35.0698 -16.7426 -7.8175 0.0000 24.4592 0.0000
# 6 0.0000 0.0000 0.0000 -8.2846 0.0000 37.3865
#
#
#
# Elastic Compliance Matrix: (Units=1/GPa)
#
#
# Indices 1 2 3 4 5 6 
#
# 1 0.018722 -0.003755 -0.012602 0.000000 0.020245 0.000000
# 2 -0.003755 0.009993 -0.005987 0.000000 -0.000456 0.000000
# 3 -0.012602 -0.005987 0.047210 0.000000 -0.007077 0.000000
# 4 0.000000 0.000000 0.000000 0.063093 0.000000 0.013981
# 5 0.020245 -0.000456 -0.007077 0.000000 0.067338 0.000000
# 6 0.000000 0.000000 0.000000 0.013981 0.000000 0.029846
#
#
# Mechanical properties :
#
#
# Convention : Reuss Voigt Hill
#
# Bulk Modulus (GPa) = 32.01086 67.20866 49.60976
# Shear Modulus (GPa) = 17.16441 27.13647 22.15044
#
# Velocity S-wave (km/s) = 3.12643 3.93107 3.55161
# Velocity P-wave (km/s) = 5.59123 7.67317 6.71340
#
# Compressibility (1/GPa) = 0.03123940
#
# Stress axis : x y z
#
# Youngs Moduli (GPa) = 53.41438 100.06647 21.18191
#
# Poissons Ratio (x) = 0.37570 0.26693
# Poissons Ratio (y) = 0.20055 0.12681
# Poissons Ratio (z) = 0.67311 0.59906
#
# Static dielectric constant tensor:
#      x y z
#    x 3.487410 0.000000 -0.057620 
#    y 0.000000 3.492700 0.000000 
#    z -0.057620 0.000000 -0.953380 
# 
# 
# High freq. dielectric constant tensor:
#      x y z
#    x 1.689640 0.000000 -0.040800 
#    y 0.000000 1.699570 0.000000 
#    z -0.040800 0.000000 1.605090 
# 
# From -- ./inp_files/66455.got.cif
#   From: 2010.06.25/outbox.cif.g09.slc.cpg/sg11_34_cif.got.tgz:66455.got - 2010.06.27 23:14:04.
