data_PCOD8070816
_publ_section_title
;
Structure prediction by ZEFSAII (Michael W. Deem and Ramdas Pophale) SiO2 
 PCOD8070816
Probable space group: P 21/M
;
_chemical_formula_sum "Si O2"
_cell_formula_units_Z 32
_cell_length_a 28.007084
_cell_length_b 9.098226
_cell_length_c 9.353461
_cell_angle_alpha 90.000000
_cell_angle_beta 132.448874
_cell_angle_gamma 90.000000
_cell_volume 1758.662993
_symmetry_space_group_name_H-M "P 21/M"
_symmetry_group_IT_number 11
_symmetry_cell_setting 'monoclinic'
loop_
_space_group_symop_operation_xyz
x,y,z
-x,1/2+y,-z
-x,-y,-z
x,1/2-y,z
loop_
_atom_site_type_symbol
_atom_site_label
_atom_site_fract_x
_atom_site_fract_y
_atom_site_fract_z
Si Si1 0.500116 0.077507 0.847028
Si Si2 0.128437 0.917954 0.800957
Si Si3 0.757832 0.077564 0.765841
Si Si4 0.553071 0.920681 0.700913
Si Si5 0.103481 0.580148 0.428751
Si Si6 0.631135 0.584047 0.591701
Si Si7 0.958501 0.578254 0.170452
Si Si8 0.155141 0.422293 0.271576
O O1 0.515335 0.250000 0.895083
O O2 0.431906 0.050011 0.631172
O O3 0.556329 0.002531 0.861588
O O4 0.500000 0.000000 0.000000
O O5 0.113907 0.750000 0.809444
O O6 0.135329 0.943087 0.647166
O O7 0.067107 0.007484 0.735125
O O8 0.195331 0.969362 0.008972
O O9 0.758243 0.250000 0.738643
O O10 0.685670 0.029337 0.655964
O O11 0.782420 0.997596 0.672632
O O12 0.534996 0.750000 0.688217
O O13 0.618074 0.934519 0.736243
O O14 0.500000 0.000000 0.500000
O O15 0.105270 0.750000 0.384407
O O16 0.147727 0.483514 0.415308
O O17 0.029900 0.519453 0.277732
O O18 0.654629 0.750000 0.608920
O O19 0.961856 0.750000 0.205997
O O20 0.910264 0.535421 0.945080
O O21 0.167446 0.250000 0.300184
#
# Coordination Sequence:
#
# PCOD8070816 Si02
#       8
#     4   4   4   4   4   4   4   4
#     4  10  20  34  54  82 114 142 169 206 253 300
#     4   9  19  33  49  71  98 126 160 206 253 298
#     4  10  20  35  54  73  95 130 172 209 248 296
#     4   9  17  31  52  78 107 137 170 208 250 295
#     4  10  19  32  49  71  99 127 160 206 257 306
#     4   9  19  35  55  78 103 134 171 209 246 291
#     4   9  18  31  49  72  96 126 163 203 251 307
#     4  10  20  33  49  71  99 130 166 207 251 303
#
# _framework density 18.195640999999998
#
# number of rings (size 3 to 8) (size 9 to 14) (size 15 to 20)
#    0.000    2.500    0.000    3.000    0.000    5.000 
#    0.000    1.250    0.000    3.000    0.000    0.000 
#    0.000    0.000    0.000    0.000    0.000    0.000 
#
# Total GULP energy -396765.818305 kJ/mol
# GULP energy per Si atom -12398.931822 kJ/mol
# Density = 1.815423 g / cm^3
# Si number density = 18.195641 Si / 1000 Ang^3
#
#
#
# Elastic Constant Matrix: (Units=GPa)
#
#
# Indices 1 2 3 4 5 6 
#
# 1 126.8057 65.1139 47.0281 0.0000 -16.3461 0.0000
# 2 65.1139 96.7441 36.4331 0.0000 -14.2055 0.0000
# 3 47.0281 36.4331 53.1489 0.0000 -16.7459 0.0000
# 4 0.0000 0.0000 0.0000 25.4300 0.0000 -4.9662
# 5 -16.3461 -14.2055 -16.7459 0.0000 27.7085 0.0000
# 6 0.0000 0.0000 0.0000 -4.9662 0.0000 37.9071
#
#
#
# Elastic Compliance Matrix: (Units=1/GPa)
#
#
# Indices 1 2 3 4 5 6 
#
# 1 0.014259 -0.006525 -0.008088 0.000000 0.000179 0.000000
# 2 -0.006525 0.016984 -0.005358 0.000000 0.001619 0.000000
# 3 -0.008088 -0.005358 0.033691 0.000000 0.012843 0.000000
# 4 0.000000 0.000000 0.000000 0.040356 0.000000 0.005287
# 5 0.000179 0.001619 0.012843 0.000000 0.044788 0.000000
# 6 0.000000 0.000000 0.000000 0.005287 0.000000 0.027073
#
#
# Mechanical properties :
#
#
# Convention : Reuss Voigt Hill
#
# Bulk Modulus (GPa) = 40.01345 63.76099 51.88722
# Shear Modulus (GPa) = 22.18033 26.75069 24.46551
#
# Velocity S-wave (km/s) = 3.49519 3.83844 3.67083
# Velocity P-wave (km/s) = 6.19087 7.40019 6.82238
#
# Compressibility (1/GPa) = 0.02499159
#
# Stress axis : x y z
#
# Youngs Moduli (GPa) = 70.12972 58.87868 29.68130
#
# Poissons Ratio (x) = 0.38419 0.24006
# Poissons Ratio (y) = 0.45761 0.15905
# Poissons Ratio (z) = 0.56720 0.31550
#
# Static dielectric constant tensor:
#      x y z
#    x 3.428630 0.000000 -0.143860 
#    y 0.000000 3.417500 0.000000 
#    z -0.143860 0.000000 3.184120 
# 
# 
# High freq. dielectric constant tensor:
#      x y z
#    x 1.705150 0.000000 -0.016680 
#    y 0.000000 1.712890 0.000000 
#    z -0.016680 0.000000 1.682150 
# 
# From -- ./inp_files/27417.got.cif
#   From: 2010.06.25/outbox.cif.g09.slc.cpg/sg11_14_cif.got.tgz:27417.got - 2010.06.27 23:14:04.
