data_PCOD8070895
_publ_section_title
;
Structure prediction by ZEFSAII (Michael W. Deem and Ramdas Pophale) SiO2 
 PCOD8070895
Probable space group: P 21/M
;
_chemical_formula_sum "Si O2"
_cell_formula_units_Z 24
_cell_length_a 21.691826
_cell_length_b 9.120124
_cell_length_c 9.554594
_cell_angle_alpha 90.000000
_cell_angle_beta 44.915912
_cell_angle_gamma 90.000000
_cell_volume 1334.614327
_symmetry_space_group_name_H-M "P 21/M"
_symmetry_group_IT_number 11
_symmetry_cell_setting 'monoclinic'
loop_
_space_group_symop_operation_xyz
x,y,z
-x,1/2+y,-z
-x,-y,-z
x,1/2-y,z
loop_
_atom_site_type_symbol
_atom_site_label
_atom_site_fract_x
_atom_site_fract_y
_atom_site_fract_z
Si Si1 0.092126 0.577995 0.353293
Si Si2 0.779686 0.082667 0.608218
Si Si3 0.470299 0.420918 0.186666
Si Si4 0.765520 0.923264 0.058111
Si Si5 0.642108 0.080541 0.060121
Si Si6 0.722185 0.921998 0.439707
O O1 0.082247 0.750000 0.337421
O O2 0.134604 0.551106 0.437030
O O3 0.151809 0.506869 0.137839
O O4 0.000000 0.500000 0.500000
O O5 0.775710 0.250000 0.567012
O O6 0.693951 0.040204 0.834856
O O7 0.783739 0.987797 0.461092
O O8 0.466230 0.250000 0.158097
O O9 0.376983 0.482078 0.387957
O O10 0.500000 0.500000 0.000000
O O11 0.539980 0.450483 0.198863
O O12 0.775288 0.750000 0.018779
O O13 0.675700 0.977575 0.130986
O O14 0.761500 0.966023 0.227197
O O15 0.661165 0.250000 0.068661
O O16 0.722045 0.750000 0.459592
#
# Coordination Sequence:
#
# PCOD8070895 Si02
#       6
#     4   4   4   4   4   4
#     4  10  21  39  62  86 107 133 172 216 263 322
#     4   9  18  33  54  79 106 137 175 216 263 318
#     4  10  19  32  50  75 107 142 186 231 266 307
#     4  10  21  36  53  78 111 143 177 219 267 318
#     4   9  18  33  51  74 105 143 186 229 267 310
#     4  10  21  34  51  78 111 144 180 223 267 312
#
# _framework density 17.982723
#
# number of rings (size 3 to 8) (size 9 to 14) (size 15 to 20)
#    0.000    2.333    1.667    2.000    0.000    6.000 
#    0.000    0.833    0.000    0.000    0.000    0.000 
#    0.000    0.000    0.000    0.000    0.000    0.000 
#
# Total GULP energy -297621.537101 kJ/mol
# GULP energy per Si atom -12400.897379 kJ/mol
# Density = 1.794179 g / cm^3
# Si number density = 17.982723 Si / 1000 Ang^3
#
#
#
# Elastic Constant Matrix: (Units=GPa)
#
#
# Indices 1 2 3 4 5 6 
#
# 1 111.8515 54.1571 69.5132 0.0000 5.8087 0.0000
# 2 54.1571 73.3739 58.9624 0.0000 8.6381 0.0000
# 3 69.5132 58.9624 98.7389 0.0000 10.9123 0.0000
# 4 0.0000 0.0000 0.0000 26.6902 0.0000 3.4462
# 5 5.8087 8.6381 10.9123 0.0000 32.1523 0.0000
# 6 0.0000 0.0000 0.0000 3.4462 0.0000 36.3544
#
#
#
# Elastic Compliance Matrix: (Units=1/GPa)
#
#
# Indices 1 2 3 4 5 6 
#
# 1 0.017092 -0.005743 -0.008761 0.000000 0.001429 0.000000
# 2 -0.005743 0.028233 -0.012564 0.000000 -0.002283 0.000000
# 3 -0.008761 -0.012564 0.024156 0.000000 -0.003240 0.000000
# 4 0.000000 0.000000 0.000000 0.037931 0.000000 -0.003596
# 5 0.001429 -0.002283 -0.003240 0.000000 0.032557 0.000000
# 6 0.000000 0.000000 0.000000 -0.003596 0.000000 0.027848
#
#
# Mechanical properties :
#
#
# Convention : Reuss Voigt Hill
#
# Bulk Modulus (GPa) = 65.16898 72.13664 68.65281
# Shear Modulus (GPa) = 22.01984 25.79483 23.90734
#
# Velocity S-wave (km/s) = 3.50308 3.79149 3.65013
# Velocity P-wave (km/s) = 7.25814 7.70511 7.48496
#
# Compressibility (1/GPa) = 0.01534472
#
# Stress axis : x y z
#
# Youngs Moduli (GPa) = 58.50719 35.41979 41.39741
#
# Poissons Ratio (x) = 0.20343 0.36269
# Poissons Ratio (y) = 0.33603 0.52010
# Poissons Ratio (z) = 0.51259 0.44500
#
# Static dielectric constant tensor:
#      x y z
#    x 3.425900 0.000000 -0.051250 
#    y 0.000000 3.156320 0.000000 
#    z -0.051250 0.000000 3.202650 
# 
# 
# High freq. dielectric constant tensor:
#      x y z
#    x 1.699340 0.000000 0.000660 
#    y 0.000000 1.698480 0.000000 
#    z 0.000660 0.000000 1.679240 
# 
# From -- ./inp_files/23714.got.cif
#   From: 2010.06.25/outbox.cif.g09.slc.cpg/sg11_12_cif.got.tgz:23714.got - 2010.06.27 23:14:04.
