data_PCOD8070018
_publ_section_title
;
Structure prediction by ZEFSAII (Michael W. Deem and Ramdas Pophale) SiO2 
 PCOD8070018
Probable space group: P 21/M
;
_chemical_formula_sum "Si O2"
_cell_formula_units_Z 32
_cell_length_a 29.277623
_cell_length_b 9.232963
_cell_length_c 16.011379
_cell_angle_alpha 90.000000
_cell_angle_beta 153.890644
_cell_angle_gamma 90.000000
_cell_volume 1904.772043
_symmetry_space_group_name_H-M "P 21/M"
_symmetry_group_IT_number 11
_symmetry_cell_setting 'monoclinic'
loop_
_space_group_symop_operation_xyz
x,y,z
-x,1/2+y,-z
-x,-y,-z
x,1/2-y,z
loop_
_atom_site_type_symbol
_atom_site_label
_atom_site_fract_x
_atom_site_fract_y
_atom_site_fract_z
Si Si1 0.394060 0.915069 0.828541
Si Si2 0.978094 0.920224 0.834937
Si Si3 0.065847 0.416531 0.418428
Si Si4 0.086509 0.918810 0.694248
Si Si5 0.857090 0.584199 0.800979
Si Si6 0.767858 0.577482 0.174007
Si Si7 0.357600 0.083257 0.617410
Si Si8 0.589963 0.415084 0.959747
O O1 0.411574 0.750000 0.830393
O O2 0.322128 0.992387 0.641285
O O3 0.353425 0.925718 0.856702
O O4 0.500000 0.000000 0.000000
O O5 0.995281 0.750000 0.853893
O O6 0.937521 0.986768 0.679916
O O7 0.896955 0.960975 0.774109
O O8 0.090144 0.988019 0.041118
O O9 0.095091 0.250000 0.456356
O O10 0.156628 0.480320 0.627189
O O11 0.950863 0.434763 0.270906
O O12 0.094106 0.750000 0.681304
O O13 0.194400 0.001205 0.850589
O O14 0.000000 0.000000 0.500000
O O15 0.886687 0.750000 0.867178
O O16 0.732581 0.560438 0.599367
O O17 0.770045 0.750000 0.166742
O O18 0.651009 0.522799 0.998691
O O19 0.364999 0.250000 0.657908
O O20 0.469314 0.033779 0.764648
O O21 0.596092 0.250000 0.936791
#
# Coordination Sequence:
#
# PCOD8070018 Si02
#       8
#     4   4   4   4   4   4   4   4
#     4   9  17  28  41  59  85 115 151 188 221 261
#     4   9  17  31  48  66  89 116 152 191 223 266
#     4   8  16  29  46  67  88 118 152 179 218 272
#     4   9  16  29  46  65  93 121 150 184 223 271
#     4   9  18  31  47  66  90 120 152 189 231 266
#     4  10  19  29  45  68  93 121 154 184 222 272
#     4   9  18  31  46  62  87 122 155 187 228 273
#     4   9  18  30  41  61  90 119 151 185 221 264
#
# _framework density 16.799911999999999
#
# number of rings (size 3 to 8) (size 9 to 14) (size 15 to 20)
#    0.000    3.000    0.000    2.625    1.750    3.000 
#    0.000    3.750    0.000    0.000    0.000    0.875 
#    0.000    0.000    0.000    0.000    0.000    0.000 
#
# Total GULP energy -396469.446033 kJ/mol
# GULP energy per Si atom -12389.670189 kJ/mol
# Density = 1.676167 g / cm^3
# Si number density = 16.799912 Si / 1000 Ang^3
#
#
#
# Elastic Constant Matrix: (Units=GPa)
#
#
# Indices 1 2 3 4 5 6 
#
# 1 57.0795 20.7517 19.6829 0.0000 11.0041 0.0000
# 2 20.7517 59.8361 14.7726 0.0000 10.2439 0.0000
# 3 19.6829 14.7726 61.9210 0.0000 10.9014 0.0000
# 4 0.0000 0.0000 0.0000 22.4719 0.0000 2.6392
# 5 11.0041 10.2439 10.9014 0.0000 23.0089 0.0000
# 6 0.0000 0.0000 0.0000 2.6392 0.0000 24.4788
#
#
#
# Elastic Compliance Matrix: (Units=1/GPa)
#
#
# Indices 1 2 3 4 5 6 
#
# 1 0.022315 -0.005553 -0.004719 0.000000 -0.005964 0.000000
# 2 -0.005553 0.020059 -0.002090 0.000000 -0.005285 0.000000
# 3 -0.004719 -0.002090 0.019187 0.000000 -0.005904 0.000000
# 4 0.000000 0.000000 0.000000 0.045071 0.000000 -0.004859
# 5 -0.005964 -0.005285 -0.005904 0.000000 0.051464 0.000000
# 6 0.000000 0.000000 0.000000 -0.004859 0.000000 0.041376
#
#
# Mechanical properties :
#
#
# Convention : Reuss Voigt Hill
#
# Bulk Modulus (GPa) = 27.14556 32.13902 29.64229
# Shear Modulus (GPa) = 21.14395 22.23389 21.68892
#
# Velocity S-wave (km/s) = 3.55149 3.64188 3.59697
# Velocity P-wave (km/s) = 5.74549 6.07094 5.91046
#
# Compressibility (1/GPa) = 0.03683844
#
# Stress axis : x y z
#
# Youngs Moduli (GPa) = 44.81239 49.85323 52.11738
#
# Poissons Ratio (x) = 0.27684 0.24592
# Poissons Ratio (y) = 0.24885 0.10892
# Poissons Ratio (z) = 0.21145 0.10419
#
# Static dielectric constant tensor:
#      x y z
#    x 3.346700 0.000000 0.188880 
#    y 0.000000 3.254440 0.000000 
#    z 0.188880 0.000000 2.903620 
# 
# 
# High freq. dielectric constant tensor:
#      x y z
#    x 1.627950 0.000000 0.016140 
#    y 0.000000 1.644600 0.000000 
#    z 0.016140 0.000000 1.617110 
# 
# From -- ./inp_files/56173.got.cif
#   From: 2010.06.25/outbox.cif.g09.slc.cpg/sg11_29_cif.got.tgz:56173.got - 2010.06.27 23:14:04.
