data_PCOD8070525
_publ_section_title
;
Structure prediction by ZEFSAII (Michael W. Deem and Ramdas Pophale) SiO2 
 PCOD8070525
Probable space group: P 21/M
;
_chemical_formula_sum "Si O2"
_cell_formula_units_Z 32
_cell_length_a 16.543632
_cell_length_b 8.867375
_cell_length_c 16.628423
_cell_angle_alpha 90.000000
_cell_angle_beta 51.383928
_cell_angle_gamma 90.000000
_cell_volume 1905.987642
_symmetry_space_group_name_H-M "P 21/M"
_symmetry_group_IT_number 11
_symmetry_cell_setting 'monoclinic'
loop_
_space_group_symop_operation_xyz
x,y,z
-x,1/2+y,-z
-x,-y,-z
x,1/2-y,z
loop_
_atom_site_type_symbol
_atom_site_label
_atom_site_fract_x
_atom_site_fract_y
_atom_site_fract_z
Si Si1 0.653657 0.073122 0.942198
Si Si2 0.976916 0.071776 0.100564
Si Si3 0.561985 0.925563 0.852391
Si Si4 0.661915 0.917297 0.186300
Si Si5 0.186799 0.422956 0.047980
Si Si6 0.769449 0.579128 0.287617
Si Si7 0.405467 0.928219 0.509109
Si Si8 0.543186 0.576869 0.685027
O O1 0.657848 0.250000 0.934586
O O2 0.643897 0.010271 0.857824
O O3 0.761323 0.018343 0.913343
O O4 0.555378 0.016185 0.056373
O O5 0.967438 0.250000 0.093337
O O6 0.067774 0.032123 0.107589
O O7 0.874698 0.007654 0.204688
O O8 0.000000 0.000000 0.000000
O O9 0.567067 0.750000 0.869619
O O10 0.594966 0.956847 0.739588
O O11 0.617299 0.750000 0.193469
O O12 0.697368 0.919263 0.255329
O O13 0.578142 0.047309 0.226775
O O14 0.758408 0.957087 0.070703
O O15 0.197764 0.250000 0.066419
O O16 0.793874 0.750000 0.300475
O O17 0.705590 0.491647 0.395479
O O18 0.410124 0.750000 0.518922
O O19 0.500000 0.000000 0.500000
O O20 0.413082 0.966322 0.409920
O O21 0.559444 0.750000 0.648735
#
# Coordination Sequence:
#
# PCOD8070525 Si02
#       8
#     4   4   4   4   4   4   4   4
#     4  10  19  31  49  75 102 134 173 213 257 306
#     4  11  22  36  53  76 105 141 180 219 262 310
#     4   9  19  33  48  72 104 137 170 209 259 311
#     4  10  19  31  49  72 103 140 175 214 256 303
#     4  10  20  34  50  72 104 141 176 211 258 307
#     4  11  22  38  54  75 104 138 179 222 264 305
#     4  12  24  37  53  76 104 139 178 217 261 309
#     4  11  21  34  52  76 104 138 178 216 257 308
#
# _framework density 16.789197000000001
#
# number of rings (size 3 to 8) (size 9 to 14) (size 15 to 20)
#    0.000    1.500    3.750    2.625    0.000    3.000 
#    0.000    0.000    0.000    0.000    0.000    0.875 
#    0.000    0.000    0.000    0.000    0.000    0.000 
#
# Total GULP energy -396809.098120 kJ/mol
# GULP energy per Si atom -12400.284316 kJ/mol
# Density = 1.675098 g / cm^3
# Si number density = 16.789197 Si / 1000 Ang^3
#
#
#
# Elastic Constant Matrix: (Units=GPa)
#
#
# Indices 1 2 3 4 5 6 
#
# 1 86.2337 51.3445 40.5901 0.0000 6.5817 0.0000
# 2 51.3445 94.9675 42.9027 0.0000 3.3500 0.0000
# 3 40.5901 42.9027 85.0676 0.0000 0.2150 0.0000
# 4 0.0000 0.0000 0.0000 28.4935 0.0000 0.3371
# 5 6.5817 3.3500 0.2150 0.0000 25.6484 0.0000
# 6 0.0000 0.0000 0.0000 0.3371 0.0000 26.9169
#
#
#
# Elastic Compliance Matrix: (Units=1/GPa)
#
#
# Indices 1 2 3 4 5 6 
#
# 1 0.018924 -0.007800 -0.005086 0.000000 -0.003795 0.000000
# 2 -0.007800 0.016928 -0.004815 0.000000 -0.000169 0.000000
# 3 -0.005086 -0.004815 0.016606 0.000000 0.001795 0.000000
# 4 0.000000 0.000000 0.000000 0.035101 0.000000 -0.000440
# 5 -0.003795 -0.000169 0.001795 0.000000 0.039970 0.000000
# 6 0.000000 0.000000 0.000000 -0.000440 0.000000 0.037157
#
#
# Mechanical properties :
#
#
# Convention : Reuss Voigt Hill
#
# Bulk Modulus (GPa) = 58.63154 59.54929 59.09042
# Shear Modulus (GPa) = 24.29838 24.97386 24.63612
#
# Velocity S-wave (km/s) = 3.80842 3.86099 3.83479
# Velocity P-wave (km/s) = 7.37134 7.44461 7.40807
#
# Compressibility (1/GPa) = 0.01705567
#
# Stress axis : x y z
#
# Youngs Moduli (GPa) = 52.84219 59.07265 60.21759
#
# Poissons Ratio (x) = 0.46075 0.30629
# Poissons Ratio (y) = 0.41216 0.28998
# Poissons Ratio (z) = 0.26878 0.28446
#
# Static dielectric constant tensor:
#      x y z
#    x 3.083260 0.000000 0.048950 
#    y 0.000000 3.270010 0.000000 
#    z 0.048950 0.000000 3.110160 
# 
# 
# High freq. dielectric constant tensor:
#      x y z
#    x 1.629690 0.000000 0.009730 
#    y 0.000000 1.659750 0.000000 
#    z 0.009730 0.000000 1.628810 
# 
# From -- ./inp_files/51672.got.cif
#   From: 2010.06.25/outbox.cif.g09.slc.cpg/sg11_26_cif.got.tgz:51672.got - 2010.06.27 23:14:04.
