data_PCOD8070436
_publ_section_title
;
Structure prediction by ZEFSAII (Michael W. Deem and Ramdas Pophale) SiO2 
 PCOD8070436
Probable space group: P 21/M
;
_chemical_formula_sum "Si O2"
_cell_formula_units_Z 24
_cell_length_a 24.378549
_cell_length_b 8.955832
_cell_length_c 17.751413
_cell_angle_alpha 90.000000
_cell_angle_beta 20.517533
_cell_angle_gamma 90.000000
_cell_volume 1358.398836
_symmetry_space_group_name_H-M "P 21/M"
_symmetry_group_IT_number 11
_symmetry_cell_setting 'monoclinic'
loop_
_space_group_symop_operation_xyz
x,y,z
-x,1/2+y,-z
-x,-y,-z
x,1/2-y,z
loop_
_atom_site_type_symbol
_atom_site_label
_atom_site_fract_x
_atom_site_fract_y
_atom_site_fract_z
Si Si1 0.558056 0.077794 0.702579
Si Si2 0.025141 0.920508 0.088002
Si Si3 0.209650 0.921585 0.715951
Si Si4 0.216925 0.075052 0.171639
Si Si5 0.159256 0.926172 0.556688
Si Si6 0.077483 0.423880 0.511714
O O1 0.536769 0.250000 0.749837
O O2 0.614534 0.053555 0.542916
O O3 0.689853 0.015019 0.590535
O O4 0.388019 0.004417 0.933886
O O5 0.006475 0.750000 0.137985
O O6 0.192833 0.945652 0.828538
O O7 0.898036 0.959403 0.187983
O O8 0.999047 0.022522 0.195302
O O9 0.158787 0.750000 0.761168
O O10 0.205319 0.250000 0.167928
O O11 0.179820 0.042119 0.306341
O O12 0.095391 0.991534 0.274051
O O13 0.155546 0.750000 0.552932
O O14 0.168025 0.999195 0.463722
O O15 0.061119 0.250000 0.548918
#
# Coordination Sequence:
#
# PCOD8070436 Si02
#       6
#     4   4   4   4   4   4
#     4   8  15  29  49  72  95 121 155 190 227 274
#     4   9  15  24  41  66  95 124 153 187 226 269
#     4   8  14  25  42  65  94 125 153 184 225 273
#     4   9  18  34  53  69  90 123 157 189 230 280
#     4  10  19  31  48  70  96 125 156 192 233 274
#     4  10  20  33  49  70  94 121 156 194 231 276
#
# _framework density 17.667859
#
# number of rings (size 3 to 8) (size 9 to 14) (size 15 to 20)
#    0.000    3.000    0.000    2.500    0.000    2.000 
#    0.000    4.167    0.000    1.000    0.000    0.000 
#    0.000    0.000    0.000    0.000    0.000    0.000 
#
# Total GULP energy -297347.396715 kJ/mol
# GULP energy per Si atom -12389.474863 kJ/mol
# Density = 1.762765 g / cm^3
# Si number density = 17.667859 Si / 1000 Ang^3
#
#
#
# Elastic Constant Matrix: (Units=GPa)
#
#
# Indices 1 2 3 4 5 6 
#
# 1 25.6235 14.7227 35.8860 0.0000 1.7340 0.0000
# 2 14.7227 51.9292 29.2584 0.0000 1.6912 0.0000
# 3 35.8860 29.2584 133.7341 0.0000 7.4969 0.0000
# 4 0.0000 0.0000 0.0000 18.9680 0.0000 4.3932
# 5 1.7340 1.6912 7.4969 0.0000 15.6427 0.0000
# 6 0.0000 0.0000 0.0000 4.3932 0.0000 28.0657
#
#
#
# Elastic Compliance Matrix: (Units=1/GPa)
#
#
# Indices 1 2 3 4 5 6 
#
# 1 0.066883 -0.010096 -0.015809 0.000000 0.001254 0.000000
# 2 -0.010096 0.023489 -0.002415 0.000000 -0.000263 0.000000
# 3 -0.015809 -0.002415 0.012470 0.000000 -0.003963 0.000000
# 4 0.000000 0.000000 0.000000 0.054704 0.000000 -0.008563
# 5 0.001254 -0.000263 -0.003963 0.000000 0.065716 0.000000
# 6 0.000000 0.000000 0.000000 -0.008563 0.000000 0.036971
#
#
# Mechanical properties :
#
#
# Convention : Reuss Voigt Hill
#
# Bulk Modulus (GPa) = 21.64399 41.22456 31.43427
# Shear Modulus (GPa) = 15.04785 21.29659 18.17222
#
# Velocity S-wave (km/s) = 2.92157 3.47563 3.21058
# Velocity P-wave (km/s) = 4.86393 6.28414 5.61909
#
# Compressibility (1/GPa) = 0.04620221
#
# Stress axis : x y z
#
# Youngs Moduli (GPa) = 14.95144 42.57381 80.19174
#
# Poissons Ratio (x) = 0.42983 1.26773
# Poissons Ratio (y) = 0.15095 0.19366
# Poissons Ratio (z) = 0.23636 0.10281
#
# Static dielectric constant tensor:
#      x y z
#    x 3.120740 0.000000 0.340340 
#    y 0.000000 3.183000 0.000000 
#    z 0.340340 0.000000 3.599980 
# 
# 
# High freq. dielectric constant tensor:
#      x y z
#    x 1.653650 0.000000 0.035750 
#    y 0.000000 1.675610 0.000000 
#    z 0.035750 0.000000 1.679130 
# 
# From -- ./inp_files/40810.got.cif
#   From: 2010.06.25/outbox.cif.g09.slc.cpg/sg11_21_cif.got.tgz:40810.got - 2010.06.27 23:14:04.
