data_PCOD8070795
_publ_section_title
;
Structure prediction by ZEFSAII (Michael W. Deem and Ramdas Pophale) SiO2 
 PCOD8070795
Probable space group: P 21/M
;
_chemical_formula_sum "Si O2"
_cell_formula_units_Z 32
_cell_length_a 27.625578
_cell_length_b 8.793950
_cell_length_c 11.374824
_cell_angle_alpha 90.000000
_cell_angle_beta 136.031797
_cell_angle_gamma 90.000000
_cell_volume 1918.499123
_symmetry_space_group_name_H-M "P 21/M"
_symmetry_group_IT_number 11
_symmetry_cell_setting 'monoclinic'
loop_
_space_group_symop_operation_xyz
x,y,z
-x,1/2+y,-z
-x,-y,-z
x,1/2-y,z
loop_
_atom_site_type_symbol
_atom_site_label
_atom_site_fract_x
_atom_site_fract_y
_atom_site_fract_z
Si Si1 0.651824 0.918299 0.378607
Si Si2 0.798728 0.567551 0.590299
Si Si3 0.225358 0.570959 0.701030
Si Si4 0.104744 0.426235 0.619572
Si Si5 0.495654 0.432233 0.864011
Si Si6 0.025911 0.426345 0.715659
Si Si7 0.632305 0.920058 0.066047
Si Si8 0.936814 0.571461 0.959268
O O1 0.660078 0.750000 0.443752
O O2 0.727398 0.998802 0.528081
O O3 0.581844 0.986475 0.318997
O O4 0.637467 0.916133 0.214748
O O5 0.794730 0.750000 0.574278
O O6 0.805052 0.503731 0.470322
O O7 0.863922 0.509482 0.780149
O O8 0.227916 0.750000 0.689054
O O9 0.173526 0.524606 0.715358
O O10 0.302167 0.512505 0.870469
O O11 0.121470 0.250000 0.627895
O O12 0.082901 0.460572 0.715333
O O13 0.042798 0.473720 0.423478
O O14 0.500176 0.250000 0.876626
O O15 0.500000 0.500000 0.000000
O O16 0.559606 0.498886 0.899071
O O17 0.003466 0.250000 0.674531
O O18 0.059864 0.474194 0.898465
O O19 0.633126 0.750000 0.015120
O O20 0.941232 0.750000 0.949261
O O21 0.000000 0.500000 0.000000
#
# Coordination Sequence:
#
# PCOD8070795 Si02
#       8
#     4   4   4   4   4   4   4   4
#     4   7  12  22  36  53  76 107 141 173 204 247
#     4   9  17  30  45  62  86 117 149 178 215 261
#     4  11  20  29  43  64  89 115 146 182 218 259
#     4  10  19  32  49  65  85 114 145 180 222 263
#     4   9  14  21  34  53  78 110 145 179 214 253
#     4   9  19  34  49  67  88 111 145 184 218 256
#     4   9  16  26  38  55  81 112 145 178 214 259
#     4  10  20  32  47  66  89 116 145 179 216 256
#
# _framework density 16.679704999999998
#
# number of rings (size 3 to 8) (size 9 to 14) (size 15 to 20)
#    0.000    2.750    0.000    4.500    0.000    3.500 
#    0.000    0.625    0.000    0.000    0.000    0.000 
#    0.000    1.000    0.000    1.750    0.000    3.750 
#
# Total GULP energy -396468.658063 kJ/mol
# GULP energy per Si atom -12389.645564 kJ/mol
# Density = 1.664174 g / cm^3
# Si number density = 16.679705 Si / 1000 Ang^3
#
#
#
# Elastic Constant Matrix: (Units=GPa)
#
#
# Indices 1 2 3 4 5 6 
#
# 1 102.3064 34.0085 66.2082 0.0000 31.9154 0.0000
# 2 34.0085 61.5779 26.0854 0.0000 13.1540 0.0000
# 3 66.2082 26.0854 90.0191 0.0000 29.5065 0.0000
# 4 0.0000 0.0000 0.0000 18.1760 0.0000 7.8017
# 5 31.9154 13.1540 29.5065 0.0000 33.0673 0.0000
# 6 0.0000 0.0000 0.0000 7.8017 0.0000 25.1782
#
#
#
# Elastic Compliance Matrix: (Units=1/GPa)
#
#
# Indices 1 2 3 4 5 6 
#
# 1 0.021710 -0.005237 -0.011681 0.000000 -0.008447 0.000000
# 2 -0.005237 0.020091 -0.001423 0.000000 -0.001667 0.000000
# 3 -0.011681 -0.001423 0.022942 0.000000 -0.008631 0.000000
# 4 0.000000 0.000000 0.000000 0.063457 0.000000 -0.019663
# 5 -0.008447 -0.001667 -0.008631 0.000000 0.046759 0.000000
# 6 0.000000 0.000000 0.000000 -0.019663 0.000000 0.045810
#
#
# Mechanical properties :
#
#
# Convention : Reuss Voigt Hill
#
# Bulk Modulus (GPa) = 35.63922 56.27862 45.95892
# Shear Modulus (GPa) = 18.74020 23.79106 21.26563
#
# Velocity S-wave (km/s) = 3.35555 3.78080 3.57450
# Velocity P-wave (km/s) = 6.03541 7.27140 6.68204
#
# Compressibility (1/GPa) = 0.02805898
#
# Stress axis : x y z
#
# Youngs Moduli (GPa) = 46.06098 49.77283 43.58896
#
# Poissons Ratio (x) = 0.26068 0.50917
# Poissons Ratio (y) = 0.24124 0.06205
# Poissons Ratio (z) = 0.53805 0.07085
#
# Static dielectric constant tensor:
#      x y z
#    x 3.454490 0.000000 0.462670 
#    y 0.000000 3.151610 0.000000 
#    z 0.462670 0.000000 3.202650 
# 
# 
# High freq. dielectric constant tensor:
#      x y z
#    x 1.632050 0.000000 0.046540 
#    y 0.000000 1.637500 0.000000 
#    z 0.046540 0.000000 1.611580 
# 
# From -- ./inp_files/43822.got.cif
#   From: 2010.06.25/outbox.cif.g09.slc.cpg/sg11_22_cif.got.tgz:43822.got - 2010.06.27 23:14:04.
