data_PCOD8070252
_publ_section_title
;
Structure prediction by ZEFSAII (Michael W. Deem and Ramdas Pophale) SiO2 
 PCOD8070252
Probable space group: P 21/M
;
_chemical_formula_sum "Si O2"
_cell_formula_units_Z 32
_cell_length_a 14.380604
_cell_length_b 8.816346
_cell_length_c 16.470608
_cell_angle_alpha 90.000000
_cell_angle_beta 65.137336
_cell_angle_gamma 90.000000
_cell_volume 1894.676197
_symmetry_space_group_name_H-M "P 21/M"
_symmetry_group_IT_number 11
_symmetry_cell_setting 'monoclinic'
loop_
_space_group_symop_operation_xyz
x,y,z
-x,1/2+y,-z
-x,-y,-z
x,1/2-y,z
loop_
_atom_site_type_symbol
_atom_site_label
_atom_site_fract_x
_atom_site_fract_y
_atom_site_fract_z
Si Si1 0.002261 0.570997 0.588923
Si Si2 0.792895 0.572930 0.451414
Si Si3 0.444917 0.927179 0.905168
Si Si4 0.187093 0.921427 0.256415
Si Si5 0.458256 0.073981 0.732886
Si Si6 0.656600 0.572220 0.909665
Si Si7 0.690127 0.080241 0.630085
Si Si8 0.598829 0.572476 0.422316
O O1 0.002563 0.750000 0.577722
O O2 0.102380 0.517978 0.602105
O O3 0.000000 0.500000 0.500000
O O4 0.907190 0.521133 0.678491
O O5 0.814659 0.750000 0.432095
O O6 0.757511 0.540228 0.556261
O O7 0.704265 0.512483 0.423460
O O8 0.425772 0.750000 0.923995
O O9 0.561342 0.971524 0.886047
O O10 0.420001 0.973766 0.822023
O O11 0.366089 0.016432 0.991206
O O12 0.149684 0.750000 0.252539
O O13 0.276650 0.923419 0.289480
O O14 0.238521 0.992340 0.157516
O O15 0.451065 0.250000 0.760398
O O16 0.573363 0.028678 0.667243
O O17 0.392285 0.035760 0.676898
O O18 0.675930 0.750000 0.902974
O O19 0.705271 0.250000 0.588195
O O20 0.500000 0.500000 0.500000
O O21 0.587268 0.750000 0.441695
#
# Coordination Sequence:
#
# PCOD8070252 Si02
#       8
#     4   4   4   4   4   4   4   4
#     4  12  24  37  53  74 101 136 176 216 260 308
#     4  11  22  35  51  73 103 137 177 220 258 301
#     4  10  20  32  49  74 103 135 173 213 254 302
#     4  11  21  34  52  76 104 136 173 213 256 305
#     4  10  19  33  50  72 103 139 175 210 254 305
#     4  10  20  33  50  73 104 138 171 209 256 307
#     4  10  19  30  49  72 102 139 174 209 254 304
#     4  10  21  34  51  75 103 138 177 216 257 305
#
# _framework density 16.889427999999999
#
# number of rings (size 3 to 8) (size 9 to 14) (size 15 to 20)
#    0.000    1.500    3.750    2.625    0.000    3.000 
#    0.000    0.000    0.000    0.000    0.000    0.875 
#    0.000    0.000    0.000    0.000    0.000    0.000 
#
# Total GULP energy -396852.332349 kJ/mol
# GULP energy per Si atom -12401.635386 kJ/mol
# Density = 1.685099 g / cm^3
# Si number density = 16.889428 Si / 1000 Ang^3
#
#
#
# Elastic Constant Matrix: (Units=GPa)
#
#
# Indices 1 2 3 4 5 6 
#
# 1 88.1451 37.8315 37.9875 0.0000 -7.2759 0.0000
# 2 37.8315 84.5193 39.4572 0.0000 -7.5406 0.0000
# 3 37.9875 39.4572 97.0599 0.0000 -7.9146 0.0000
# 4 0.0000 0.0000 0.0000 30.6695 0.0000 -4.0675
# 5 -7.2759 -7.5406 -7.9146 0.0000 24.0962 0.0000
# 6 0.0000 0.0000 0.0000 -4.0675 0.0000 23.3411
#
#
#
# Elastic Compliance Matrix: (Units=1/GPa)
#
#
# Indices 1 2 3 4 5 6 
#
# 1 0.015237 -0.004867 -0.003837 0.000000 0.001818 0.000000
# 2 -0.004867 0.016330 -0.004559 0.000000 0.002143 0.000000
# 3 -0.003837 -0.004559 0.013817 0.000000 0.001953 0.000000
# 4 0.000000 0.000000 0.000000 0.033377 0.000000 0.005816
# 5 0.001818 0.002143 0.001953 0.000000 0.043361 0.000000
# 6 0.000000 0.000000 0.000000 0.005816 0.000000 0.043857
#
#
# Mechanical properties :
#
#
# Convention : Reuss Voigt Hill
#
# Bulk Modulus (GPa) = 53.02556 55.58632 54.30594
# Shear Modulus (GPa) = 25.15209 25.91789 25.53499
#
# Velocity S-wave (km/s) = 3.86323 3.92160 3.89252
# Velocity P-wave (km/s) = 7.16682 7.31359 7.24058
#
# Compressibility (1/GPa) = 0.01885883
#
# Stress axis : x y z
#
# Youngs Moduli (GPa) = 65.62783 61.23874 72.37406
#
# Poissons Ratio (x) = 0.29805 0.27769
# Poissons Ratio (y) = 0.31941 0.32993
# Poissons Ratio (z) = 0.25181 0.27917
#
# Static dielectric constant tensor:
#      x y z
#    x 3.175230 0.000000 0.020720 
#    y 0.000000 3.224930 0.000000 
#    z 0.020720 0.000000 3.078500 
# 
# 
# High freq. dielectric constant tensor:
#      x y z
#    x 1.627080 0.000000 -0.003970 
#    y 0.000000 1.661110 0.000000 
#    z -0.003970 0.000000 1.639260 
# 
# From -- ./inp_files/51692.got.cif
#   From: 2010.06.25/outbox.cif.g09.slc.cpg/sg11_26_cif.got.tgz:51692.got - 2010.06.27 23:14:04.
