data_PCOD8070956
_publ_section_title
;
Structure prediction by ZEFSAII (Michael W. Deem and Ramdas Pophale) SiO2 
 PCOD8070956
Probable space group: P 21/M
;
_chemical_formula_sum "Si O2"
_cell_formula_units_Z 24
_cell_length_a 18.717948
_cell_length_b 8.642101
_cell_length_c 9.579071
_cell_angle_alpha 90.000000
_cell_angle_beta 55.869373
_cell_angle_gamma 90.000000
_cell_volume 1282.642663
_symmetry_space_group_name_H-M "P 21/M"
_symmetry_group_IT_number 11
_symmetry_cell_setting 'monoclinic'
loop_
_space_group_symop_operation_xyz
x,y,z
-x,1/2+y,-z
-x,-y,-z
x,1/2-y,z
loop_
_atom_site_type_symbol
_atom_site_label
_atom_site_fract_x
_atom_site_fract_y
_atom_site_fract_z
Si Si1 0.747448 0.429678 0.072356
Si Si2 0.099033 0.569342 0.774085
Si Si3 0.917257 0.573042 0.910016
Si Si4 0.417013 0.929454 0.269129
Si Si5 0.404439 0.930320 0.964099
Si Si6 0.269814 0.430395 0.606773
O O1 0.740425 0.250000 0.115404
O O2 0.845035 0.469128 0.911330
O O3 0.725806 0.523614 0.235624
O O4 0.681592 0.478580 0.023643
O O5 0.099321 0.750000 0.817380
O O6 0.088481 0.459239 0.919042
O O7 0.192193 0.521094 0.609301
O O8 0.017833 0.537784 0.757597
O O9 0.893974 0.750000 0.904655
O O10 0.403195 0.750000 0.316543
O O11 0.389786 0.973222 0.141562
O O12 0.359893 0.027745 0.437453
O O13 0.516551 0.972902 0.186127
O O14 0.426371 0.750000 0.923388
O O15 0.252823 0.250000 0.611871
#
# Coordination Sequence:
#
# PCOD8070956 Si02
#       6
#     4   4   4   4   4   4
#     4  10  19  32  51  75 103 131 161 201 246 290
#     4   9  16  27  44  67  97 131 164 199 240 285
#     4   9  16  26  43  69  99 129 162 199 239 287
#     4  10  20  36  56  74  96 128 164 203 247 294
#     4   9  20  37  55  75  97 126 165 203 243 295
#     4  11  21  32  49  75 104 131 164 204 243 288
#
# _framework density 18.711368
#
# number of rings (size 3 to 8) (size 9 to 14) (size 15 to 20)
#    0.000    2.333    0.000    5.500    0.000    4.667 
#    0.000    0.000    0.000    1.000    0.000    0.000 
#    0.000    0.000    0.000    0.000    0.000    0.000 
#
# Total GULP energy -297458.098114 kJ/mol
# GULP energy per Si atom -12394.087421 kJ/mol
# Density = 1.866878 g / cm^3
# Si number density = 18.711368 Si / 1000 Ang^3
#
#
#
# Elastic Constant Matrix: (Units=GPa)
#
#
# Indices 1 2 3 4 5 6 
#
# 1 141.2517 32.7024 29.9012 0.0000 -27.9432 0.0000
# 2 32.7024 68.8235 13.3697 0.0000 -6.3520 0.0000
# 3 29.9012 13.3697 15.8667 0.0000 -6.8597 0.0000
# 4 0.0000 0.0000 0.0000 26.1606 0.0000 -10.7211
# 5 -27.9432 -6.3520 -6.8597 0.0000 18.9348 0.0000
# 6 0.0000 0.0000 0.0000 -10.7211 0.0000 26.3560
#
#
#
# Elastic Compliance Matrix: (Units=1/GPa)
#
#
# Indices 1 2 3 4 5 6 
#
# 1 0.014298 -0.001732 -0.019700 0.000000 0.013383 0.000000
# 2 -0.001732 0.017590 -0.011990 0.000000 -0.000999 0.000000
# 3 -0.019700 -0.011990 0.113764 0.000000 0.008119 0.000000
# 4 0.000000 0.000000 0.000000 0.045873 0.000000 0.018660
# 5 0.013383 -0.000999 0.008119 0.000000 0.075169 0.000000
# 6 0.000000 0.000000 0.000000 0.018660 0.000000 0.045533
#
#
# Mechanical properties :
#
#
# Convention : Reuss Voigt Hill
#
# Bulk Modulus (GPa) = 12.68905 41.98763 27.33834
# Shear Modulus (GPa) = 12.33536 24.28818 18.31177
#
# Velocity S-wave (km/s) = 2.57036 3.60675 3.13172
# Velocity P-wave (km/s) = 3.95034 6.31135 5.26490
#
# Compressibility (1/GPa) = 0.07880811
#
# Stress axis : x y z
#
# Youngs Moduli (GPa) = 69.93838 56.85123 8.79015
#
# Poissons Ratio (x) = 0.09846 0.17317
# Poissons Ratio (y) = 0.12112 0.10539
# Poissons Ratio (z) = 1.37781 0.68162
#
# Static dielectric constant tensor:
#      x y z
#    x 3.704620 0.000000 -0.543900 
#    y 0.000000 3.427310 0.000000 
#    z -0.543900 0.000000 3.333930 
# 
# 
# High freq. dielectric constant tensor:
#      x y z
#    x 1.722980 0.000000 -0.042040 
#    y 0.000000 1.737090 0.000000 
#    z -0.042040 0.000000 1.692860 
# 
# From -- ./inp_files/40498.got.cif
#   From: 2010.06.25/outbox.cif.g09.slc.cpg/sg11_21_cif.got.tgz:40498.got - 2010.06.27 23:14:04.
