data_PCOD8070189
_publ_section_title
;
Structure prediction by ZEFSAII (Michael W. Deem and Ramdas Pophale) SiO2 
 PCOD8070189
Probable space group: P 21/M
;
_chemical_formula_sum "Si O2"
_cell_formula_units_Z 32
_cell_length_a 20.602838
_cell_length_b 9.142212
_cell_length_c 23.117657
_cell_angle_alpha 90.000000
_cell_angle_beta 156.073729
_cell_angle_gamma 90.000000
_cell_volume 1765.948614
_symmetry_space_group_name_H-M "P 21/M"
_symmetry_group_IT_number 11
_symmetry_cell_setting 'monoclinic'
loop_
_space_group_symop_operation_xyz
x,y,z
-x,1/2+y,-z
-x,-y,-z
x,1/2-y,z
loop_
_atom_site_type_symbol
_atom_site_label
_atom_site_fract_x
_atom_site_fract_y
_atom_site_fract_z
Si Si1 0.411930 0.079233 0.843843
Si Si2 0.290622 0.418997 0.870416
Si Si3 0.202995 0.081843 0.128713
Si Si4 0.009977 0.923767 0.810339
Si Si5 0.049234 0.920817 0.354876
Si Si6 0.327215 0.079945 0.111532
Si Si7 0.103543 0.419918 0.164288
Si Si8 0.339979 0.577941 0.672610
O O1 0.427057 0.250000 0.844241
O O2 0.312662 0.044017 0.820908
O O3 0.316349 0.004252 0.713906
O O4 0.590132 0.013605 0.993238
O O5 0.329438 0.250000 0.914657
O O6 0.111534 0.460992 0.741697
O O7 0.146916 0.250000 0.079950
O O8 0.340802 0.055260 0.192851
O O9 0.244856 0.044925 0.231420
O O10 0.057949 0.981449 0.993097
O O11 0.024986 0.750000 0.815975
O O12 0.882958 0.973624 0.757956
O O13 0.938831 0.989780 0.694303
O O14 0.185598 0.987712 0.967088
O O15 0.057293 0.750000 0.346528
O O16 0.196616 0.970802 0.514331
O O17 0.294974 0.250000 0.071025
O O18 0.494283 0.027120 0.221417
O O19 0.077117 0.250000 0.148051
O O20 0.335883 0.750000 0.680951
#
# Coordination Sequence:
#
# PCOD8070189 Si02
#       8
#     4   4   4   4   4   4   4   4
#     4  10  20  34  54  78  99 121 153 193 236 281
#     4   9  19  36  55  74  97 125 157 192 230 276
#     4   8  13  23  41  64  89 118 151 187 229 276
#     4  10  19  30  47  72  98 123 155 197 241 281
#     4  10  21  36  51  67  93 130 165 194 228 275
#     4   9  17  30  49  71  94 123 159 195 232 279
#     4   8  14  24  39  63  93 119 146 187 236 278
#     4  10  21  35  50  70  97 128 160 195 234 275
#
# _framework density 18.120571999999999
#
# number of rings (size 3 to 8) (size 9 to 14) (size 15 to 20)
#    0.000    2.750    0.000    1.500    0.000    6.000 
#    0.000    0.000    0.000    0.750    0.000    0.000 
#    0.000    0.000    0.000    0.000    0.000    0.875 
#
# Total GULP energy -396426.912836 kJ/mol
# GULP energy per Si atom -12388.341026 kJ/mol
# Density = 1.807933 g / cm^3
# Si number density = 18.120572 Si / 1000 Ang^3
#
#
#
# Elastic Constant Matrix: (Units=GPa)
#
#
# Indices 1 2 3 4 5 6 
#
# 1 108.4182 35.2602 60.4826 0.0000 -34.5684 0.0000
# 2 35.2602 28.5526 44.8637 0.0000 -17.8391 0.0000
# 3 60.4826 44.8637 101.7004 0.0000 -26.2311 0.0000
# 4 0.0000 0.0000 0.0000 19.1277 0.0000 -6.6694
# 5 -34.5684 -17.8391 -26.2311 0.0000 18.6914 0.0000
# 6 0.0000 0.0000 0.0000 -6.6694 0.0000 23.8088
#
#
#
# Elastic Compliance Matrix: (Units=1/GPa)
#
#
# Indices 1 2 3 4 5 6 
#
# 1 0.023852 0.006063 -0.006253 0.000000 0.041124 0.000000
# 2 0.006063 0.184435 -0.057478 0.000000 0.106574 0.000000
# 3 -0.006253 -0.057478 0.034129 0.000000 -0.018526 0.000000
# 4 0.000000 0.000000 0.000000 0.057939 0.000000 0.016230
# 5 0.041124 0.106574 -0.018526 0.000000 0.205272 0.000000
# 6 0.000000 0.000000 0.000000 0.016230 0.000000 0.046548
#
#
# Mechanical properties :
#
#
# Convention : Reuss Voigt Hill
#
# Bulk Modulus (GPa) = 7.86911 57.76491 32.81701
# Shear Modulus (GPa) = 7.04353 18.86324 12.95338
#
# Velocity S-wave (km/s) = 1.97370 3.22993 2.67656
# Velocity P-wave (km/s) = 3.08967 6.77180 5.26323
#
# Compressibility (1/GPa) = 0.12707916
#
# Stress axis : x y z
#
# Youngs Moduli (GPa) = 41.92514 5.42196 29.30069
#
# Poissons Ratio (x) = -0.03287 0.18321
# Poissons Ratio (y) = -0.25418 1.68416
# Poissons Ratio (z) = 0.26214 0.31165
#
# Static dielectric constant tensor:
#      x y z
#    x 3.906840 0.000000 -0.295800 
#    y 0.000000 3.351430 0.000000 
#    z -0.295800 0.000000 3.005870 
# 
# 
# High freq. dielectric constant tensor:
#      x y z
#    x 1.728500 0.000000 -0.022410 
#    y 0.000000 1.700020 0.000000 
#    z -0.022410 0.000000 1.657560 
# 
# From -- ./inp_files/66462.got.cif
#   From: 2010.06.25/outbox.cif.g09.slc.cpg/sg11_34_cif.got.tgz:66462.got - 2010.06.27 23:14:04.
