data_PCOD8070943
_publ_section_title
;
Structure prediction by ZEFSAII (Michael W. Deem and Ramdas Pophale) SiO2 
 PCOD8070943
Probable space group: P 21/M
;
_chemical_formula_sum "Si O2"
_cell_formula_units_Z 32
_cell_length_a 14.862548
_cell_length_b 8.887465
_cell_length_c 23.131681
_cell_angle_alpha 90.000000
_cell_angle_beta 39.349095
_cell_angle_gamma 90.000000
_cell_volume 1937.303100
_symmetry_space_group_name_H-M "P 21/M"
_symmetry_group_IT_number 11
_symmetry_cell_setting 'monoclinic'
loop_
_space_group_symop_operation_xyz
x,y,z
-x,1/2+y,-z
-x,-y,-z
x,1/2-y,z
loop_
_atom_site_type_symbol
_atom_site_label
_atom_site_fract_x
_atom_site_fract_y
_atom_site_fract_z
Si Si1 0.279087 0.425279 0.926883
Si Si2 0.297764 0.423579 0.783847
Si Si3 0.297680 0.923931 0.579653
Si Si4 0.014438 0.425671 0.231065
Si Si5 0.713393 0.424561 0.867507
Si Si6 0.536455 0.424868 0.069808
Si Si7 0.526302 0.073725 0.397304
Si Si8 0.995180 0.428403 0.887954
O O1 0.278605 0.250000 0.943697
O O2 0.318802 0.452430 0.840867
O O3 0.397878 0.510810 0.904438
O O4 0.124193 0.492198 0.014626
O O5 0.309462 0.250000 0.761710
O O6 0.423822 0.508780 0.688580
O O7 0.144725 0.484138 0.839265
O O8 0.332628 0.750000 0.552959
O O9 0.362171 0.978467 0.608876
O O10 0.130461 0.956399 0.662312
O O11 0.369770 0.013807 0.491237
O O12 0.031125 0.250000 0.207269
O O13 0.141241 0.481570 0.209149
O O14 0.017862 0.523049 0.171601
O O15 0.743092 0.250000 0.840907
O O16 0.608413 0.486600 0.870741
O O17 0.648341 0.452239 0.963085
O O18 0.500990 0.250000 0.094776
O O19 0.518539 0.250000 0.394907
O O20 0.974352 0.250000 0.902742
#
# Coordination Sequence:
#
# PCOD8070943 Si02
#       8
#     4   4   4   4   4   4   4   4
#     4  11  22  35  51  71  99 137 175 211 251 294
#     4  10  22  36  50  70 100 138 175 211 251 294
#     4   9  19  33  49  72 101 132 165 205 254 301
#     4  11  20  32  51  75 103 135 168 204 250 302
#     4  10  20  33  51  74 101 131 165 206 254 300
#     4  10  20  34  51  73  99 131 168 208 253 296
#     4  10  19  32  51  74  97 130 170 211 253 294
#     4  11  21  33  48  70 101 137 175 211 245 289
#
# _framework density 16.517807000000001
#
# number of rings (size 3 to 8) (size 9 to 14) (size 15 to 20)
#    0.000    1.750    2.500    2.625    0.000    4.000 
#    0.000    0.000    0.000    0.000    0.000    0.875 
#    0.000    0.000    0.000    0.000    0.000    0.000 
#
# Total GULP energy -396947.253144 kJ/mol
# GULP energy per Si atom -12404.601661 kJ/mol
# Density = 1.648021 g / cm^3
# Si number density = 16.517807 Si / 1000 Ang^3
#
#
#
# Elastic Constant Matrix: (Units=GPa)
#
#
# Indices 1 2 3 4 5 6 
#
# 1 74.6110 24.6237 36.1676 0.0000 -9.6652 0.0000
# 2 24.6237 60.6392 43.5533 0.0000 -1.9950 0.0000
# 3 36.1676 43.5533 97.5100 0.0000 -4.2243 0.0000
# 4 0.0000 0.0000 0.0000 26.8131 0.0000 -1.4282
# 5 -9.6652 -1.9950 -4.2243 0.0000 20.8769 0.0000
# 6 0.0000 0.0000 0.0000 -1.4282 0.0000 27.7479
#
#
#
# Elastic Compliance Matrix: (Units=1/GPa)
#
#
# Indices 1 2 3 4 5 6 
#
# 1 0.017761 -0.003634 -0.004664 0.000000 0.006932 0.000000
# 2 -0.003634 0.025024 -0.009885 0.000000 -0.001291 0.000000
# 3 -0.004664 -0.009885 0.016410 0.000000 0.000216 0.000000
# 4 0.000000 0.000000 0.000000 0.037398 0.000000 0.001925
# 5 0.006932 -0.001291 0.000216 0.000000 0.051029 0.000000
# 6 0.000000 0.000000 0.000000 0.001925 0.000000 0.036138
#
#
# Mechanical properties :
#
#
# Convention : Reuss Voigt Hill
#
# Bulk Modulus (GPa) = 43.80564 49.04994 46.42779
# Shear Modulus (GPa) = 21.95516 23.64861 22.80188
#
# Velocity S-wave (km/s) = 3.64975 3.78789 3.71946
# Velocity P-wave (km/s) = 6.65873 6.99217 6.82749
#
# Compressibility (1/GPa) = 0.02282811
#
# Stress axis : x y z
#
# Youngs Moduli (GPa) = 56.30253 39.96153 60.93823
#
# Poissons Ratio (x) = 0.14522 0.28424
# Poissons Ratio (y) = 0.20461 0.60238
# Poissons Ratio (z) = 0.26262 0.39503
#
# Static dielectric constant tensor:
#      x y z
#    x 3.024470 0.000000 -0.144780 
#    y 0.000000 3.198380 0.000000 
#    z -0.144780 0.000000 3.027610 
# 
# 
# High freq. dielectric constant tensor:
#      x y z
#    x 1.619370 0.000000 -0.012410 
#    y 0.000000 1.651630 0.000000 
#    z -0.012410 0.000000 1.619640 
# 
# From -- ./inp_files/51385.got.cif
#   From: 2010.06.25/outbox.cif.g09.slc.cpg/sg11_26_cif.got.tgz:51385.got - 2010.06.27 23:14:04.
