data_PCOD8070343
_publ_section_title
;
Structure prediction by ZEFSAII (Michael W. Deem and Ramdas Pophale) SiO2 
 PCOD8070343
Probable space group: P 21/M
;
_chemical_formula_sum "Si O2"
_cell_formula_units_Z 32
_cell_length_a 11.384395
_cell_length_b 9.031176
_cell_length_c 21.039430
_cell_angle_alpha 90.000000
_cell_angle_beta 116.542593
_cell_angle_gamma 90.000000
_cell_volume 1935.166327
_symmetry_space_group_name_H-M "P 21/M"
_symmetry_group_IT_number 11
_symmetry_cell_setting 'monoclinic'
loop_
_space_group_symop_operation_xyz
x,y,z
-x,1/2+y,-z
-x,-y,-z
x,1/2-y,z
loop_
_atom_site_type_symbol
_atom_site_label
_atom_site_fract_x
_atom_site_fract_y
_atom_site_fract_z
Si Si1 0.514388 0.076593 0.268115
Si Si2 0.637007 0.075153 0.018470
Si Si3 0.302935 0.922639 0.457362
Si Si4 0.269195 0.081091 0.844525
Si Si5 0.462662 0.075157 0.395304
Si Si6 0.434464 0.914394 0.132337
Si Si7 0.016209 0.574210 0.436107
Si Si8 0.804433 0.425819 0.295319
O O1 0.500893 0.250000 0.265788
O O2 0.470553 0.011367 0.325567
O O3 0.664025 0.029893 0.290895
O O4 0.417461 0.019611 0.189085
O O5 0.628894 0.250000 0.031184
O O6 0.746222 0.998326 0.090088
O O7 0.665785 0.046977 0.950008
O O8 0.500000 0.000000 0.000000
O O9 0.314520 0.750000 0.446577
O O10 0.403575 0.972330 0.536809
O O11 0.158784 0.968326 0.444270
O O12 0.337097 0.005540 0.400017
O O13 0.218631 0.250000 0.836652
O O14 0.419752 0.073583 0.860281
O O15 0.182695 0.990014 0.772860
O O16 0.445746 0.250000 0.390841
O O17 0.406740 0.750000 0.150597
O O18 0.997280 0.750000 0.437342
O O19 0.000000 0.500000 0.500000
O O20 0.911936 0.505631 0.363407
O O21 0.826466 0.250000 0.300069
#
# Coordination Sequence:
#
# PCOD8070343 Si02
#       8
#     4   4   4   4   4   4   4   4
#     4   9  17  28  43  63  89 119 148 182 223 264
#     4   9  15  23  35  53  79 113 150 186 223 262
#     4   9  19  34  49  66  88 114 145 183 224 264
#     4   9  16  26  39  57  82 114 151 186 221 263
#     4   9  17  31  49  67  87 112 145 183 222 265
#     4   8  15  24  35  55  83 113 147 183 216 259
#     4  11  22  35  50  68  92 119 149 184 222 264
#     4  10  19  31  46  65  91 121 152 185 223 266
#
# _framework density 16.536045999999999
#
# number of rings (size 3 to 8) (size 9 to 14) (size 15 to 20)
#    0.000    2.750    0.000    3.000    0.000    7.500 
#    0.000    2.500    0.000    0.000    0.000    0.000 
#    0.000    1.000    0.000    3.250    0.000    5.625 
#
# Total GULP energy -396631.179452 kJ/mol
# GULP energy per Si atom -12394.724358 kJ/mol
# Density = 1.649841 g / cm^3
# Si number density = 16.536046 Si / 1000 Ang^3
#
#
#
# Elastic Constant Matrix: (Units=GPa)
#
#
# Indices 1 2 3 4 5 6 
#
# 1 64.7763 40.2476 56.0295 0.0000 -13.0739 0.0000
# 2 40.2476 71.2723 57.1413 0.0000 -6.6635 0.0000
# 3 56.0295 57.1413 156.1660 0.0000 -20.2040 0.0000
# 4 0.0000 0.0000 0.0000 35.5872 0.0000 -2.9191
# 5 -13.0739 -6.6635 -20.2040 0.0000 18.5880 0.0000
# 6 0.0000 0.0000 0.0000 -2.9191 0.0000 19.1223
#
#
#
# Elastic Compliance Matrix: (Units=1/GPa)
#
#
# Indices 1 2 3 4 5 6 
#
# 1 0.028908 -0.011494 -0.004734 0.000000 0.011066 0.000000
# 2 -0.011494 0.024439 -0.005505 0.000000 -0.005307 0.000000
# 3 -0.004734 -0.005505 0.010973 0.000000 0.006624 0.000000
# 4 0.000000 0.000000 0.000000 0.028456 0.000000 0.004344
# 5 0.011066 -0.005307 0.006624 0.000000 0.066879 0.000000
# 6 0.000000 0.000000 0.000000 0.004344 0.000000 0.052958
#
#
# Mechanical properties :
#
#
# Convention : Reuss Voigt Hill
#
# Bulk Modulus (GPa) = 47.95386 66.56127 57.25756
# Shear Modulus (GPa) = 19.00917 23.91256 21.46087
#
# Velocity S-wave (km/s) = 3.39419 3.80687 3.60644
# Velocity P-wave (km/s) = 6.66508 7.72416 7.21408
#
# Compressibility (1/GPa) = 0.02085338
#
# Stress axis : x y z
#
# Youngs Moduli (GPa) = 34.59265 40.91874 91.13108
#
# Poissons Ratio (x) = 0.47032 0.43143
# Poissons Ratio (y) = 0.39761 0.50166
# Poissons Ratio (z) = 0.16377 0.22525
#
# Static dielectric constant tensor:
#      x y z
#    x 2.779560 0.000000 -0.252340 
#    y 0.000000 3.194700 0.000000 
#    z -0.252340 0.000000 3.309040 
# 
# 
# High freq. dielectric constant tensor:
#      x y z
#    x 1.575580 0.000000 -0.018670 
#    y 0.000000 1.645120 0.000000 
#    z -0.018670 0.000000 1.652570 
# 
# From -- ./inp_files/43767.got.cif
#   From: 2010.06.25/outbox.cif.g09.slc.cpg/sg11_22_cif.got.tgz:43767.got - 2010.06.27 23:14:04.
