data_PCOD8070185
_publ_section_title
;
Structure prediction by ZEFSAII (Michael W. Deem and Ramdas Pophale) SiO2 
 PCOD8070185
Probable space group: P 21/M
;
_chemical_formula_sum "Si O2"
_cell_formula_units_Z 28
_cell_length_a 16.303562
_cell_length_b 8.789752
_cell_length_c 18.270409
_cell_angle_alpha 90.000000
_cell_angle_beta 37.384900
_cell_angle_gamma 90.000000
_cell_volume 1589.699948
_symmetry_space_group_name_H-M "P 21/M"
_symmetry_group_IT_number 11
_symmetry_cell_setting 'monoclinic'
loop_
_space_group_symop_operation_xyz
x,y,z
-x,1/2+y,-z
-x,-y,-z
x,1/2-y,z
loop_
_atom_site_type_symbol
_atom_site_label
_atom_site_fract_x
_atom_site_fract_y
_atom_site_fract_z
Si Si1 0.986648 0.574202 0.747412
Si Si2 0.286190 0.574220 0.477604
Si Si3 0.196267 0.421210 0.400520
Si Si4 0.106580 0.921239 0.326637
Si Si5 0.787160 0.926687 0.164370
Si Si6 0.516064 0.428593 0.409573
Si Si7 0.043950 0.573087 0.077109
O O1 0.956655 0.750000 0.784799
O O2 0.142111 0.547452 0.617172
O O3 0.890740 0.518386 0.749673
O O4 0.950512 0.473996 0.842850
O O5 0.328323 0.750000 0.448638
O O6 0.285249 0.516845 0.394662
O O7 0.393051 0.476605 0.445938
O O8 0.253415 0.250000 0.354723
O O9 0.207372 0.500502 0.313328
O O10 0.042433 0.418659 0.534945
O O11 0.156566 0.750000 0.275356
O O12 0.749050 0.750000 0.189034
O O13 0.895595 0.963008 0.150732
O O14 0.655070 0.022971 0.274087
O O15 0.844962 0.976148 0.044976
O O16 0.500000 0.500000 0.500000
O O17 0.514027 0.250000 0.420950
O O18 0.078941 0.750000 0.043661
#
# Coordination Sequence:
#
# PCOD8070185 Si02
#       7
#     4   4   4   4   4   4   4
#     4  10  19  30  47  72 101 132 166 205 248 294
#     4  10  20  33  49  71 100 134 170 205 246 295
#     4   9  16  27  43  65  95 129 164 201 244 294
#     4   9  16  26  42  65  95 129 163 201 245 293
#     4  10  21  37  55  74  98 129 165 204 247 293
#     4  12  24  37  53  74 101 132 167 205 246 292
#     4  10  20  34  53  75  99 128 163 204 248 294
#
# _framework density 17.613385999999998
#
# number of rings (size 3 to 8) (size 9 to 14) (size 15 to 20)
#    0.000    2.000    0.000    4.714    0.000    9.143 
#    0.000    0.000    0.000    0.000    0.000    1.000 
#    0.000    0.000    0.000    0.000    0.000    0.000 
#
# Total GULP energy -347289.877428 kJ/mol
# GULP energy per Si atom -12403.209908 kJ/mol
# Density = 1.757330 g / cm^3
# Si number density = 17.613386 Si / 1000 Ang^3
#
#
#
# Elastic Constant Matrix: (Units=GPa)
#
#
# Indices 1 2 3 4 5 6 
#
# 1 117.2988 47.3418 42.3200 0.0000 21.7019 0.0000
# 2 47.3418 120.1574 34.7708 0.0000 1.5732 0.0000
# 3 42.3200 34.7708 46.5974 0.0000 8.7818 0.0000
# 4 0.0000 0.0000 0.0000 26.6089 0.0000 5.2804
# 5 21.7019 1.5732 8.7818 0.0000 20.2770 0.0000
# 6 0.0000 0.0000 0.0000 5.2804 0.0000 35.6905
#
#
#
# Elastic Compliance Matrix: (Units=1/GPa)
#
#
# Indices 1 2 3 4 5 6 
#
# 1 0.015461 -0.003235 -0.009317 0.000000 -0.012261 0.000000
# 2 -0.003235 0.011443 -0.006627 0.000000 0.005444 0.000000
# 3 -0.009317 -0.006627 0.035814 0.000000 -0.005025 0.000000
# 4 0.000000 0.000000 0.000000 0.038718 0.000000 -0.005728
# 5 -0.012261 0.005444 -0.005025 0.000000 0.064194 0.000000
# 6 0.000000 0.000000 0.000000 -0.005728 0.000000 0.028866
#
#
# Mechanical properties :
#
#
# Convention : Reuss Voigt Hill
#
# Bulk Modulus (GPa) = 41.05005 59.21320 50.13162
# Shear Modulus (GPa) = 20.74906 27.15667 23.95287
#
# Velocity S-wave (km/s) = 3.43596 3.93086 3.69172
# Velocity P-wave (km/s) = 6.25283 7.36841 6.83343
#
# Compressibility (1/GPa) = 0.02436051
#
# Stress axis : x y z
#
# Youngs Moduli (GPa) = 64.67986 87.38644 27.92174
#
# Poissons Ratio (x) = 0.28268 0.26015
# Poissons Ratio (y) = 0.20923 0.18504
# Poissons Ratio (z) = 0.60262 0.57913
#
# Static dielectric constant tensor:
#      x y z
#    x 3.422180 0.000000 0.128200 
#    y 0.000000 3.471620 0.000000 
#    z 0.128200 0.000000 2.974680 
# 
# 
# High freq. dielectric constant tensor:
#      x y z
#    x 1.685500 0.000000 0.021520 
#    y 0.000000 1.703250 0.000000 
#    z 0.021520 0.000000 1.637890 
# 
# From -- ./inp_files/54491.got.cif
#   From: 2010.06.25/outbox.cif.g09.slc.cpg/sg11_28_cif.got.tgz:54491.got - 2010.06.27 23:14:04.
