data_PCOD8070019
_publ_section_title
;
Structure prediction by ZEFSAII (Michael W. Deem and Ramdas Pophale) SiO2 
 PCOD8070019
Probable space group: P 21/M
;
_chemical_formula_sum "Si O2"
_cell_formula_units_Z 32
_cell_length_a 27.482299
_cell_length_b 8.845910
_cell_length_c 20.765399
_cell_angle_alpha 90.000000
_cell_angle_beta 158.389936
_cell_angle_gamma 90.000000
_cell_volume 1859.187809
_symmetry_space_group_name_H-M "P 21/M"
_symmetry_group_IT_number 11
_symmetry_cell_setting 'monoclinic'
loop_
_space_group_symop_operation_xyz
x,y,z
-x,1/2+y,-z
-x,-y,-z
x,1/2-y,z
loop_
_atom_site_type_symbol
_atom_site_label
_atom_site_fract_x
_atom_site_fract_y
_atom_site_fract_z
Si Si1 0.790903 0.425353 0.248985
Si Si2 0.308441 0.075086 0.605748
Si Si3 0.011446 0.077312 0.285757
Si Si4 0.033492 0.074875 0.637103
Si Si5 0.935155 0.918188 0.071131
Si Si6 0.477517 0.071916 0.041302
Si Si7 0.766866 0.420644 0.611582
Si Si8 0.861190 0.572641 0.844988
O O1 0.752235 0.250000 0.197420
O O2 0.855747 0.475331 0.261631
O O3 0.890863 0.458301 0.430525
O O4 0.661983 0.523753 0.101511
O O5 0.349270 0.250000 0.657636
O O6 0.163724 0.048746 0.456693
O O7 0.407499 0.978011 0.769726
O O8 0.317597 0.016260 0.543725
O O9 0.984357 0.250000 0.271163
O O10 0.970125 0.970310 0.293122
O O11 0.921183 0.034928 0.112850
O O12 0.071294 0.250000 0.676521
O O13 0.906898 0.750000 0.062929
O O14 0.081180 0.924757 0.221602
O O15 0.833454 0.956773 0.887320
O O16 0.481376 0.250000 0.037866
O O17 0.500000 0.000000 0.000000
O O18 0.712211 0.250000 0.546778
O O19 0.751182 0.495786 0.663413
O O20 0.867183 0.750000 0.837271
O O21 0.000000 0.500000 0.000000
#
# Coordination Sequence:
#
# PCOD8070019 Si02
#       8
#     4   4   4   4   4   4   4   4
#     4  10  21  37  55  74  95 121 156 196 237 281
#     4  10  20  33  48  68  95 127 163 200 238 282
#     4  10  19  29  45  68  94 125 160 197 236 280
#     4  10  20  34  53  73  95 123 154 192 237 284
#     4   8  15  25  37  56  85 119 154 191 231 277
#     4  12  24  37  53  73  98 127 160 196 237 282
#     4   9  16  26  40  59  85 119 156 193 234 280
#     4   9  15  23  36  55  81 116 155 193 233 278
#
# _framework density 17.211817
#
# number of rings (size 3 to 8) (size 9 to 14) (size 15 to 20)
#    0.000    2.250    0.000    4.875    0.000    8.500 
#    0.000    0.000    0.000    0.000    0.000    0.000 
#    0.000    1.000    0.000    3.750    0.000    6.750 
#
# Total GULP energy -396740.431473 kJ/mol
# GULP energy per Si atom -12398.138484 kJ/mol
# Density = 1.717264 g / cm^3
# Si number density = 17.211817 Si / 1000 Ang^3
#
#
#
# Elastic Constant Matrix: (Units=GPa)
#
#
# Indices 1 2 3 4 5 6 
#
# 1 91.4605 47.2148 43.8489 0.0000 -27.6376 0.0000
# 2 47.2148 114.8225 38.7099 0.0000 -11.3599 0.0000
# 3 43.8489 38.7099 54.6163 0.0000 -18.6132 0.0000
# 4 0.0000 0.0000 0.0000 25.3817 0.0000 -6.6214
# 5 -27.6376 -11.3599 -18.6132 0.0000 24.6738 0.0000
# 6 0.0000 0.0000 0.0000 -6.6214 0.0000 32.1451
#
#
#
# Elastic Compliance Matrix: (Units=1/GPa)
#
#
# Indices 1 2 3 4 5 6 
#
# 1 0.022732 -0.004537 -0.009515 0.000000 0.016195 0.000000
# 2 -0.004537 0.012373 -0.006619 0.000000 -0.004379 0.000000
# 3 -0.009515 -0.006619 0.034956 0.000000 0.012665 0.000000
# 4 0.000000 0.000000 0.000000 0.041636 0.000000 0.008576
# 5 0.016195 -0.004379 0.012665 0.000000 0.066207 0.000000
# 6 0.000000 0.000000 0.000000 0.008576 0.000000 0.032876
#
#
# Mechanical properties :
#
#
# Convention : Reuss Voigt Hill
#
# Bulk Modulus (GPa) = 34.82116 57.82739 46.32427
# Shear Modulus (GPa) = 19.10618 25.18182 22.14400
#
# Velocity S-wave (km/s) = 3.33537 3.82914 3.59075
# Velocity P-wave (km/s) = 5.92519 7.29522 6.64560
#
# Compressibility (1/GPa) = 0.02871817
#
# Stress axis : x y z
#
# Youngs Moduli (GPa) = 43.99152 80.82083 28.60713
#
# Poissons Ratio (x) = 0.36669 0.27220
# Poissons Ratio (y) = 0.19959 0.18936
# Poissons Ratio (z) = 0.41858 0.53497
#
# Static dielectric constant tensor:
#      x y z
#    x 3.289970 0.000000 -0.415650 
#    y 0.000000 3.388690 0.000000 
#    z -0.415650 0.000000 3.083580 
# 
# 
# High freq. dielectric constant tensor:
#      x y z
#    x 1.656080 0.000000 -0.039820 
#    y 0.000000 1.683340 0.000000 
#    z -0.039820 0.000000 1.623820 
# 
# From -- ./inp_files/58685.got.cif
#   From: 2010.06.25/outbox.cif.g09.slc.cpg/sg11_30_cif.got.tgz:58685.got - 2010.06.27 23:14:04.
