data_PCOD8070523
_publ_section_title
;
Structure prediction by ZEFSAII (Michael W. Deem and Ramdas Pophale) SiO2 
 PCOD8070523
Probable space group: P 21/M
;
_chemical_formula_sum "Si O2"
_cell_formula_units_Z 24
_cell_length_a 15.165812
_cell_length_b 8.856826
_cell_length_c 20.247157
_cell_angle_alpha 90.000000
_cell_angle_beta 150.418111
_cell_angle_gamma 90.000000
_cell_volume 1342.585418
_symmetry_space_group_name_H-M "P 21/M"
_symmetry_group_IT_number 11
_symmetry_cell_setting 'monoclinic'
loop_
_space_group_symop_operation_xyz
x,y,z
-x,1/2+y,-z
-x,-y,-z
x,1/2-y,z
loop_
_atom_site_type_symbol
_atom_site_label
_atom_site_fract_x
_atom_site_fract_y
_atom_site_fract_z
Si Si1 0.724191 0.082480 0.325137
Si Si2 0.538341 0.577730 0.314557
Si Si3 0.828099 0.424095 0.857251
Si Si4 0.306641 0.429260 0.363149
Si Si5 0.068853 0.417615 0.641927
Si Si6 0.816520 0.428921 0.589426
O O1 0.645179 0.250000 0.265803
O O2 0.901437 0.083098 0.484049
O O3 0.576440 0.979138 0.264852
O O4 0.773027 0.021672 0.283747
O O5 0.604846 0.750000 0.364949
O O6 0.328192 0.563881 0.190420
O O7 0.639995 0.476500 0.434429
O O8 0.865426 0.250000 0.863130
O O9 0.776867 0.515527 0.758982
O O10 0.000000 0.500000 0.000000
O O11 0.500000 0.500000 0.500000
O O12 0.323833 0.250000 0.374858
O O13 0.175776 0.483788 0.336416
O O14 0.148188 0.250000 0.699983
O O15 0.995771 0.474135 0.665411
O O16 0.806030 0.250000 0.593901
#
# Coordination Sequence:
#
# PCOD8070523 Si02
#       6
#     4   4   4   4   4   4
#     4   9  16  25  41  65  96 133 170 210 258 310
#     4  10  19  31  49  72 101 137 176 216 263 316
#     4  11  24  40  57  79 107 142 182 225 271 319
#     4  12  23  36  56  80 108 142 180 223 268 320
#     4   8  15  26  40  64  98 133 167 208 257 309
#     4  10  19  31  50  75 104 137 175 217 263 314
#
# _framework density 17.875958000000001
#
# number of rings (size 3 to 8) (size 9 to 14) (size 15 to 20)
#    0.000    2.000    1.667    4.500    0.000    6.667 
#    0.000    0.000    0.000    0.000    0.000    1.167 
#    0.000    0.000    0.000    0.000    0.000    0.000 
#
# Total GULP energy -297563.026616 kJ/mol
# GULP energy per Si atom -12398.459442 kJ/mol
# Density = 1.783527 g / cm^3
# Si number density = 17.875958 Si / 1000 Ang^3
#
#
#
# Elastic Constant Matrix: (Units=GPa)
#
#
# Indices 1 2 3 4 5 6 
#
# 1 153.6306 74.8754 38.7703 0.0000 -7.3624 0.0000
# 2 74.8754 141.8797 38.9351 0.0000 -3.3263 0.0000
# 3 38.7703 38.9351 64.0501 0.0000 -4.6181 0.0000
# 4 0.0000 0.0000 0.0000 21.0618 0.0000 -1.6904
# 5 -7.3624 -3.3263 -4.6181 0.0000 13.3296 0.0000
# 6 0.0000 0.0000 0.0000 -1.6904 0.0000 36.7259
#
#
#
# Elastic Compliance Matrix: (Units=1/GPa)
#
#
# Indices 1 2 3 4 5 6 
#
# 1 0.009395 -0.004064 -0.002990 0.000000 0.003139 0.000000
# 2 -0.004064 0.010219 -0.003825 0.000000 -0.001020 0.000000
# 3 -0.002990 -0.003825 0.020061 0.000000 0.004344 0.000000
# 4 0.000000 0.000000 0.000000 0.047655 0.000000 0.002193
# 5 0.003139 -0.001020 0.004344 0.000000 0.078006 0.000000
# 6 0.000000 0.000000 0.000000 0.002193 0.000000 0.027330
#
#
# Mechanical properties :
#
#
# Convention : Reuss Voigt Hill
#
# Bulk Modulus (GPa) = 55.81574 73.85799 64.83687
# Shear Modulus (GPa) = 22.68642 28.02210 25.35426
#
# Velocity S-wave (km/s) = 3.56631 3.96357 3.77018
# Velocity P-wave (km/s) = 6.94621 7.89640 7.43650
#
# Compressibility (1/GPa) = 0.01791609
#
# Stress axis : x y z
#
# Youngs Moduli (GPa) = 106.44282 97.85939 49.84703
#
# Poissons Ratio (x) = 0.39768 0.14905
# Poissons Ratio (y) = 0.43256 0.19069
# Poissons Ratio (z) = 0.31827 0.37436
#
# Static dielectric constant tensor:
#      x y z
#    x 3.872340 0.000000 -0.104930 
#    y 0.000000 3.560320 0.000000 
#    z -0.104930 0.000000 2.816510 
# 
# 
# High freq. dielectric constant tensor:
#      x y z
#    x 1.715510 0.000000 -0.000810 
#    y 0.000000 1.710100 0.000000 
#    z -0.000810 0.000000 1.616960 
# 
# From -- ./inp_files/36998.got.cif
#   From: 2010.06.25/outbox.cif.g09.slc.cpg/sg11_19_cif.got.tgz:36998.got - 2010.06.27 23:14:04.
