data_PCOD8070763
_publ_section_title
;
Structure prediction by ZEFSAII (Michael W. Deem and Ramdas Pophale) SiO2 
 PCOD8070763
Probable space group: P 21/M
;
_chemical_formula_sum "Si O2"
_cell_formula_units_Z 32
_cell_length_a 12.154490
_cell_length_b 8.830850
_cell_length_c 28.608883
_cell_angle_alpha 90.000000
_cell_angle_beta 145.464038
_cell_angle_gamma 90.000000
_cell_volume 1740.862730
_symmetry_space_group_name_H-M "P 21/M"
_symmetry_group_IT_number 11
_symmetry_cell_setting 'monoclinic'
loop_
_space_group_symop_operation_xyz
x,y,z
-x,1/2+y,-z
-x,-y,-z
x,1/2-y,z
loop_
_atom_site_type_symbol
_atom_site_label
_atom_site_fract_x
_atom_site_fract_y
_atom_site_fract_z
Si Si1 0.739269 0.424546 0.632543
Si Si2 0.419163 0.072510 0.273495
Si Si3 0.815548 0.074407 0.458087
Si Si4 0.666982 0.424159 0.503878
Si Si5 0.216835 0.925497 0.122346
Si Si6 0.809595 0.074707 0.992464
Si Si7 0.683756 0.571170 0.039373
Si Si8 0.938519 0.926605 0.784645
O O1 0.768068 0.250000 0.656092
O O2 0.780851 0.453769 0.592101
O O3 0.518785 0.469550 0.566243
O O4 0.891301 0.523623 0.715152
O O5 0.425308 0.250000 0.264625
O O6 0.617878 0.012752 0.365744
O O7 0.246050 0.032686 0.248276
O O8 0.394056 0.980170 0.216501
O O9 0.831628 0.250000 0.453751
O O10 0.812934 0.038954 0.512585
O O11 0.000000 0.000000 0.500000
O O12 0.593649 0.250000 0.475163
O O13 0.166968 0.750000 0.113294
O O14 0.275981 0.954089 0.089186
O O15 0.032571 0.024608 0.072496
O O16 0.801827 0.250000 0.004081
O O17 0.683155 0.980431 0.985033
O O18 0.667821 0.750000 0.036358
O O19 0.878508 0.518431 0.132944
O O20 0.500000 0.500000 0.000000
O O21 0.988703 0.750000 0.803213
#
# Coordination Sequence:
#
# PCOD8070763 Si02
#       8
#     4   4   4   4   4   4   4   4
#     4  10  19  31  55  86 111 143 189 238 281 334
#     4  10  20  35  57  81 113 150 189 235 286 336
#     4  10  21  38  56  79 111 150 187 227 280 336
#     4   9  18  35  54  77 114 151 184 229 289 339
#     4  10  20  33  56  87 116 147 190 238 281 330
#     4  10  20  36  56  83 118 153 187 231 286 336
#     4  12  25  41  61  86 116 151 191 234 284 346
#     4  11  21  37  59  84 116 151 187 234 286 337
#
# _framework density 18.381689999999999
#
# number of rings (size 3 to 8) (size 9 to 14) (size 15 to 20)
#    0.000    1.750    2.500    2.625    0.000    3.500 
#    0.000    1.250    0.000    4.500    0.000    0.000 
#    0.000    0.000    0.000    0.000    0.000    0.000 
#
# Total GULP energy -396881.982399 kJ/mol
# GULP energy per Si atom -12402.561950 kJ/mol
# Density = 1.833985 g / cm^3
# Si number density = 18.381690 Si / 1000 Ang^3
#
#
#
# Elastic Constant Matrix: (Units=GPa)
#
#
# Indices 1 2 3 4 5 6 
#
# 1 137.8226 60.5641 70.9645 0.0000 -6.6460 0.0000
# 2 60.5641 96.2543 50.4102 0.0000 -3.5477 0.0000
# 3 70.9645 50.4102 103.9202 0.0000 -9.0435 0.0000
# 4 0.0000 0.0000 0.0000 33.4764 0.0000 -1.6871
# 5 -6.6460 -3.5477 -9.0435 0.0000 32.7585 0.0000
# 6 0.0000 0.0000 0.0000 -1.6871 0.0000 32.1532
#
#
#
# Elastic Compliance Matrix: (Units=1/GPa)
#
#
# Indices 1 2 3 4 5 6 
#
# 1 0.012527 -0.004564 -0.006314 0.000000 0.000304 0.000000
# 2 -0.004564 0.015595 -0.004489 0.000000 -0.000476 0.000000
# 3 -0.006314 -0.004489 0.016351 0.000000 0.002747 0.000000
# 4 0.000000 0.000000 0.000000 0.029951 0.000000 0.001572
# 5 0.000304 -0.000476 0.002747 0.000000 0.031295 0.000000
# 6 0.000000 0.000000 0.000000 0.001572 0.000000 0.031184
#
#
# Mechanical properties :
#
#
# Convention : Reuss Voigt Hill
#
# Bulk Modulus (GPa) = 72.79196 77.98608 75.38902
# Shear Modulus (GPa) = 29.03321 30.08151 29.55736
#
# Velocity S-wave (km/s) = 3.97856 4.04975 4.01431
# Velocity P-wave (km/s) = 7.79689 8.02405 7.91128
#
# Compressibility (1/GPa) = 0.01373778
#
# Stress axis : x y z
#
# Youngs Moduli (GPa) = 79.82712 64.12471 61.15768
#
# Poissons Ratio (x) = 0.29268 0.38614
# Poissons Ratio (y) = 0.36435 0.27456
# Poissons Ratio (z) = 0.50402 0.28788
#
# Static dielectric constant tensor:
#      x y z
#    x 3.510260 0.000000 -0.273030 
#    y 0.000000 3.457020 0.000000 
#    z -0.273030 0.000000 3.541320 
# 
# 
# High freq. dielectric constant tensor:
#      x y z
#    x 1.708840 0.000000 -0.026130 
#    y 0.000000 1.720730 0.000000 
#    z -0.026130 0.000000 1.701740 
# 
# From -- ./inp_files/73156.got.cif
#   From: 2010.06.25/outbox.cif.g09.slc.cpg/sg11_37_cif.got.tgz:73156.got - 2010.06.27 23:14:04.
