data_PCOD8070680
_publ_section_title
;
Structure prediction by ZEFSAII (Michael W. Deem and Ramdas Pophale) SiO2 
 PCOD8070680
Probable space group: P 21/M
;
_chemical_formula_sum "Si O2"
_cell_formula_units_Z 32
_cell_length_a 27.479057
_cell_length_b 8.688895
_cell_length_c 15.462082
_cell_angle_alpha 90.000000
_cell_angle_beta 28.290259
_cell_angle_gamma 90.000000
_cell_volume 1749.670804
_symmetry_space_group_name_H-M "P 21/M"
_symmetry_group_IT_number 11
_symmetry_cell_setting 'monoclinic'
loop_
_space_group_symop_operation_xyz
x,y,z
-x,1/2+y,-z
-x,-y,-z
x,1/2-y,z
loop_
_atom_site_type_symbol
_atom_site_label
_atom_site_fract_x
_atom_site_fract_y
_atom_site_fract_z
Si Si1 0.881439 0.427794 0.788979
Si Si2 0.146700 0.430103 0.814388
Si Si3 0.226005 0.430102 0.204497
Si Si4 0.042531 0.071535 0.799493
Si Si5 0.416992 0.931253 0.822614
Si Si6 0.317034 0.924980 0.798774
Si Si7 0.641112 0.569603 0.445642
Si Si8 0.079959 0.929989 0.560495
O O1 0.882854 0.250000 0.757298
O O2 0.847503 0.528361 0.760514
O O3 0.992157 0.478107 0.647443
O O4 0.802461 0.451780 0.991524
O O5 0.135404 0.250000 0.854178
O O6 0.120526 0.462932 0.755773
O O7 0.261758 0.493146 0.651948
O O8 0.071915 0.523118 0.994652
O O9 0.221098 0.250000 0.229827
O O10 0.187783 0.519542 0.349705
O O11 0.343459 0.479428 0.003762
O O12 0.041189 0.250000 0.775585
O O13 0.082157 0.972079 0.657694
O O14 0.404192 0.750000 0.859872
O O15 0.385655 0.970412 0.773543
O O16 0.533522 0.993157 0.652979
O O17 0.337043 0.750000 0.739302
O O18 0.348380 0.033147 0.671533
O O19 0.636416 0.750000 0.461904
O O20 0.060935 0.750000 0.579386
#
# Coordination Sequence:
#
# PCOD8070680 Si02
#       8
#     4   4   4   4   4   4   4   4
#     4  10  20  35  52  75 107 139 171 208 251 298
#     4   9  19  35  54  78 106 135 168 208 257 308
#     4  11  22  36  53  74 101 135 173 212 253 297
#     4  10  20  35  54  77 106 136 167 208 256 306
#     4   9  19  35  50  69 101 138 173 211 255 297
#     4   9  18  30  46  71 104 137 167 203 246 296
#     4  10  19  31  51  75 100 133 172 212 253 301
#     4  12  23  35  53  76 102 134 172 211 253 304
#
# _framework density 18.289155000000001
#
# number of rings (size 3 to 8) (size 9 to 14) (size 15 to 20)
#    0.000    2.000    0.000    5.250    0.000    6.000 
#    0.000    0.000    0.000    0.750    0.000    0.000 
#    0.000    0.000    0.000    0.000    0.000    0.000 
#
# Total GULP energy -396868.181662 kJ/mol
# GULP energy per Si atom -12402.130677 kJ/mol
# Density = 1.824753 g / cm^3
# Si number density = 18.289155 Si / 1000 Ang^3
#
#
#
# Elastic Constant Matrix: (Units=GPa)
#
#
# Indices 1 2 3 4 5 6 
#
# 1 68.1386 19.0485 60.0987 0.0000 -7.7171 0.0000
# 2 19.0485 45.8199 28.6163 0.0000 -0.9388 0.0000
# 3 60.0987 28.6163 129.0185 0.0000 -9.4018 0.0000
# 4 0.0000 0.0000 0.0000 30.5535 0.0000 4.6754
# 5 -7.7171 -0.9388 -9.4018 0.0000 28.9776 0.0000
# 6 0.0000 0.0000 0.0000 4.6754 0.0000 24.3780
#
#
#
# Elastic Compliance Matrix: (Units=1/GPa)
#
#
# Indices 1 2 3 4 5 6 
#
# 1 0.025720 -0.003819 -0.010901 0.000000 0.003189 0.000000
# 2 -0.003819 0.025931 -0.004082 0.000000 -0.001501 0.000000
# 3 -0.010901 -0.004082 0.013840 0.000000 0.001455 0.000000
# 4 0.000000 0.000000 0.000000 0.033719 0.000000 -0.006467
# 5 0.003189 -0.001501 0.001455 0.000000 0.035782 0.000000
# 6 0.000000 0.000000 0.000000 -0.006467 0.000000 0.042261
#
#
# Mechanical properties :
#
#
# Convention : Reuss Voigt Hill
#
# Bulk Modulus (GPa) = 35.85950 50.94491 43.40220
# Shear Modulus (GPa) = 22.30629 25.79605 24.05117
#
# Velocity S-wave (km/s) = 3.49613 3.75968 3.63030
# Velocity P-wave (km/s) = 5.99556 6.83832 6.43076
#
# Compressibility (1/GPa) = 0.02788661
#
# Stress axis : x y z
#
# Youngs Moduli (GPa) = 38.88086 38.56428 72.25343
#
# Poissons Ratio (x) = 0.14727 0.78765
# Poissons Ratio (y) = 0.14848 0.29494
# Poissons Ratio (z) = 0.42385 0.15742
#
# Static dielectric constant tensor:
#      x y z
#    x 3.299290 0.000000 -0.152520 
#    y 0.000000 3.311150 0.000000 
#    z -0.152520 0.000000 3.626070 
# 
# 
# High freq. dielectric constant tensor:
#      x y z
#    x 1.684580 0.000000 -0.003380 
#    y 0.000000 1.710290 0.000000 
#    z -0.003380 0.000000 1.714610 
# 
# From -- ./inp_files/51698.got.cif
#   From: 2010.06.25/outbox.cif.g09.slc.cpg/sg11_26_cif.got.tgz:51698.got - 2010.06.27 23:14:04.
