data_PCOD8070654
_publ_section_title
;
Structure prediction by ZEFSAII (Michael W. Deem and Ramdas Pophale) SiO2 
 PCOD8070654
Probable space group: P 21/M
;
_chemical_formula_sum "Si O2"
_cell_formula_units_Z 28
_cell_length_a 14.411421
_cell_length_b 8.920715
_cell_length_c 19.966323
_cell_angle_alpha 90.000000
_cell_angle_beta 33.538987
_cell_angle_gamma 90.000000
_cell_volume 1418.208900
_symmetry_space_group_name_H-M "P 21/M"
_symmetry_group_IT_number 11
_symmetry_cell_setting 'monoclinic'
loop_
_space_group_symop_operation_xyz
x,y,z
-x,1/2+y,-z
-x,-y,-z
x,1/2-y,z
loop_
_atom_site_type_symbol
_atom_site_label
_atom_site_fract_x
_atom_site_fract_y
_atom_site_fract_z
Si Si1 0.078186 0.076049 0.798244
Si Si2 0.364180 0.428930 0.532835
Si Si3 0.260879 0.926461 0.464106
Si Si4 0.719110 0.073016 0.057561
Si Si5 0.605209 0.078442 0.763449
Si Si6 0.823932 0.925114 0.119290
Si Si7 0.957943 0.075196 0.594830
O O1 0.040452 0.250000 0.816201
O O2 0.178359 0.023062 0.672294
O O3 0.206672 0.045309 0.783330
O O4 0.890844 0.004837 0.920725
O O5 0.500000 0.500000 0.500000
O O6 0.387160 0.250000 0.517278
O O7 0.377951 0.498121 0.450343
O O8 0.254443 0.750000 0.480284
O O9 0.335534 0.968009 0.346810
O O10 0.070844 0.994417 0.583604
O O11 0.726075 0.250000 0.058133
O O12 0.553555 0.020857 0.116831
O O13 0.692671 0.005637 0.148732
O O14 0.547516 0.250000 0.797833
O O15 0.756792 0.053564 0.725792
O O16 0.826052 0.750000 0.101141
O O17 0.000000 0.000000 0.000000
O O18 0.004439 0.250000 0.564643
O O19 0.000000 0.000000 0.500000
#
# Coordination Sequence:
#
# PCOD8070654 Si02
#       7
#     4   4   4   4   4   4   4
#     4   8  18  35  51  68  99 138 172 214 265 309
#     4  11  23  39  56  76 104 142 183 222 262 311
#     4  10  21  37  55  78 109 143 178 219 268 314
#     4  10  19  31  50  77 103 134 173 213 262 316
#     4   9  19  33  52  80 112 139 165 211 270 317
#     4   9  16  29  47  68  95 131 168 208 259 307
#     4   9  17  32  54  80 109 141 174 213 267 320
#
# _framework density 19.743212
#
# number of rings (size 3 to 8) (size 9 to 14) (size 15 to 20)
#    0.000    2.571    0.000    3.857    2.000    3.429 
#    0.000    7.857    0.000    0.857    0.000    0.000 
#    0.000    0.000    0.000    0.000    0.000    0.000 
#
# Total GULP energy -346878.093034 kJ/mol
# GULP energy per Si atom -12388.503323 kJ/mol
# Density = 1.969828 g / cm^3
# Si number density = 19.743212 Si / 1000 Ang^3
#
#
#
# Elastic Constant Matrix: (Units=GPa)
#
#
# Indices 1 2 3 4 5 6 
#
# 1 81.0857 31.1580 18.6825 0.0000 -21.8856 0.0000
# 2 31.1580 85.5725 21.9810 0.0000 -11.0762 0.0000
# 3 18.6825 21.9810 58.7513 0.0000 -17.2254 0.0000
# 4 0.0000 0.0000 0.0000 24.0665 0.0000 -8.6265
# 5 -21.8856 -11.0762 -17.2254 0.0000 30.4238 0.0000
# 6 0.0000 0.0000 0.0000 -8.6265 0.0000 34.4639
#
#
#
# Elastic Compliance Matrix: (Units=1/GPa)
#
#
# Indices 1 2 3 4 5 6 
#
# 1 0.017043 -0.004717 -0.000676 0.000000 0.010160 0.000000
# 2 -0.004717 0.014377 -0.004004 0.000000 -0.000426 0.000000
# 3 -0.000676 -0.004004 0.021779 0.000000 0.010387 0.000000
# 4 0.000000 0.000000 0.000000 0.045647 0.000000 0.011426
# 5 0.010160 -0.000426 0.010387 0.000000 0.045904 0.000000
# 6 0.000000 0.000000 0.000000 0.011426 0.000000 0.031876
#
#
# Mechanical properties :
#
#
# Convention : Reuss Voigt Hill
#
# Bulk Modulus (GPa) = 29.06480 41.00585 35.03532
# Shear Modulus (GPa) = 24.16768 28.03004 26.09886
#
# Velocity S-wave (km/s) = 3.50251 3.77202 3.63976
# Velocity P-wave (km/s) = 5.57765 6.30758 5.95381
#
# Compressibility (1/GPa) = 0.03440588
#
# Stress axis : x y z
#
# Youngs Moduli (GPa) = 58.67437 69.55650 45.91527
#
# Poissons Ratio (x) = 0.32809 0.03104
# Poissons Ratio (y) = 0.27676 0.18384
# Poissons Ratio (z) = 0.03966 0.27849
#
# Static dielectric constant tensor:
#      x y z
#    x 4.225480 0.000000 -0.203500 
#    y 0.000000 3.596850 0.000000 
#    z -0.203500 0.000000 3.740260 
# 
# 
# High freq. dielectric constant tensor:
#      x y z
#    x 1.756560 0.000000 -0.029330 
#    y 0.000000 1.765160 0.000000 
#    z -0.029330 0.000000 1.750880 
# 
# From -- ./inp_files/65359.got.cif
#   From: 2010.06.25/outbox.cif.g09.slc.cpg/sg11_33_cif.got.tgz:65359.got - 2010.06.27 23:14:04.
