data_PCOD8070100
_publ_section_title
;
Structure prediction by ZEFSAII (Michael W. Deem and Ramdas Pophale) SiO2 
 PCOD8070100
Probable space group: P 21/M
;
_chemical_formula_sum "Si O2"
_cell_formula_units_Z 24
_cell_length_a 20.712022
_cell_length_b 9.157861
_cell_length_c 11.775594
_cell_angle_alpha 90.000000
_cell_angle_beta 140.934759
_cell_angle_gamma 90.000000
_cell_volume 1407.606107
_symmetry_space_group_name_H-M "P 21/M"
_symmetry_group_IT_number 11
_symmetry_cell_setting 'monoclinic'
loop_
_space_group_symop_operation_xyz
x,y,z
-x,1/2+y,-z
-x,-y,-z
x,1/2-y,z
loop_
_atom_site_type_symbol
_atom_site_label
_atom_site_fract_x
_atom_site_fract_y
_atom_site_fract_z
Si Si1 0.928904 0.583775 0.047399
Si Si2 0.220749 0.083824 0.955091
Si Si3 0.392964 0.078263 0.365035
Si Si4 0.893538 0.077446 0.385647
Si Si5 0.241041 0.423086 0.350039
Si Si6 0.854491 0.077521 0.589802
O O1 0.942068 0.750000 0.028968
O O2 0.879251 0.574962 0.103496
O O3 0.041257 0.512845 0.210468
O O4 0.855678 0.510810 0.853244
O O5 0.236763 0.250000 0.934299
O O6 0.199704 0.977283 0.820877
O O7 0.319642 0.029534 0.160989
O O8 0.409837 0.250000 0.382116
O O9 0.342817 0.035634 0.418051
O O10 0.500000 0.000000 0.500000
O O11 0.909750 0.250000 0.394350
O O12 0.855642 0.035023 0.459626
O O13 0.000000 0.000000 0.500000
O O14 0.234374 0.250000 0.355396
O O15 0.239627 0.499864 0.471890
O O16 0.844507 0.250000 0.590832
#
# Coordination Sequence:
#
# PCOD8070100 Si02
#       6
#     4   4   4   4   4   4
#     4   8  14  28  46  65  97 132 160 196 241 287
#     4   9  17  33  52  72 101 134 166 206 251 293
#     4   9  19  35  57  79 101 127 159 208 263 304
#     4  11  21  32  48  71 102 140 176 207 240 287
#     4   9  18  31  48  71  97 128 164 201 246 298
#     4  10  19  30  45  67 100 137 165 199 243 285
#
# _framework density 17.050224
#
# number of rings (size 3 to 8) (size 9 to 14) (size 15 to 20)
#    0.000    2.667    1.667    3.000    0.000    2.667 
#    0.000    2.500    0.000    1.000    0.000    0.000 
#    0.000    0.000    0.000    0.000    0.000    0.000 
#
# Total GULP energy -297417.839988 kJ/mol
# GULP energy per Si atom -12392.409999 kJ/mol
# Density = 1.701142 g / cm^3
# Si number density = 17.050224 Si / 1000 Ang^3
#
#
#
# Elastic Constant Matrix: (Units=GPa)
#
#
# Indices 1 2 3 4 5 6 
#
# 1 132.0826 53.5357 68.8037 0.0000 -8.6824 0.0000
# 2 53.5357 51.7563 40.4554 0.0000 -5.9432 0.0000
# 3 68.8037 40.4554 78.8448 0.0000 1.5203 0.0000
# 4 0.0000 0.0000 0.0000 27.7935 0.0000 -1.3977
# 5 -8.6824 -5.9432 1.5203 0.0000 24.1879 0.0000
# 6 0.0000 0.0000 0.0000 -1.3977 0.0000 31.6021
#
#
#
# Elastic Compliance Matrix: (Units=1/GPa)
#
#
# Indices 1 2 3 4 5 6 
#
# 1 0.016750 -0.008883 -0.010145 0.000000 0.004468 0.000000
# 2 -0.008883 0.039043 -0.012420 0.000000 0.007185 0.000000
# 3 -0.010145 -0.012420 0.028072 0.000000 -0.008458 0.000000
# 4 0.000000 0.000000 0.000000 0.036060 0.000000 0.001595
# 5 0.004468 0.007185 -0.008458 0.000000 0.045244 0.000000
# 6 0.000000 0.000000 0.000000 0.001595 0.000000 0.031714
#
#
# Mechanical properties :
#
#
# Convention : Reuss Voigt Hill
#
# Bulk Modulus (GPa) = 47.68950 65.36371 56.52660
# Shear Modulus (GPa) = 18.74297 23.37595 21.05946
#
# Velocity S-wave (km/s) = 3.31914 3.70673 3.51827
# Velocity P-wave (km/s) = 6.53602 7.53253 7.05190
#
# Compressibility (1/GPa) = 0.02096898
#
# Stress axis : x y z
#
# Youngs Moduli (GPa) = 59.70251 25.61307 35.62279
#
# Poissons Ratio (x) = 0.22751 0.36139
# Poissons Ratio (y) = 0.53032 0.44243
# Poissons Ratio (z) = 0.60568 0.31811
#
# Static dielectric constant tensor:
#      x y z
#    x 3.182970 0.000000 -0.125910 
#    y 0.000000 2.993420 0.000000 
#    z -0.125910 0.000000 3.196770 
# 
# 
# High freq. dielectric constant tensor:
#      x y z
#    x 1.653430 0.000000 -0.014430 
#    y 0.000000 1.640720 0.000000 
#    z -0.014430 0.000000 1.637710 
# 
# From -- ./inp_files/36972.got.cif
#   From: 2010.06.25/outbox.cif.g09.slc.cpg/sg11_19_cif.got.tgz:36972.got - 2010.06.27 23:14:04.
