data_PCOD8070264
_publ_section_title
;
Structure prediction by ZEFSAII (Michael W. Deem and Ramdas Pophale) SiO2 
 PCOD8070264
Probable space group: P 21/M
;
_chemical_formula_sum "Si O2"
_cell_formula_units_Z 28
_cell_length_a 13.936039
_cell_length_b 22.273338
_cell_length_c 5.222082
_cell_angle_alpha 90.000000
_cell_angle_beta 75.641733
_cell_angle_gamma 90.000000
_cell_volume 1570.313482
_symmetry_space_group_name_H-M "P 21/M"
_symmetry_group_IT_number 11
_symmetry_cell_setting 'monoclinic'
loop_
_space_group_symop_operation_xyz
x,y,z
-x,1/2+y,-z
-x,-y,-z
x,1/2-y,z
loop_
_atom_site_type_symbol
_atom_site_label
_atom_site_fract_x
_atom_site_fract_y
_atom_site_fract_z
Si Si1 0.825181 0.178873 0.749097
Si Si2 0.707943 0.178965 0.323549
Si Si3 0.046782 0.321237 0.609266
Si Si4 0.660962 0.909271 0.105709
Si Si5 0.623732 0.528445 0.621113
Si Si6 0.163762 0.321111 0.032840
Si Si7 0.459675 0.909040 0.460978
O O1 0.832254 0.250000 0.757024
O O2 0.771379 0.158307 0.526175
O O3 0.935937 0.151513 0.680696
O O4 0.764603 0.155513 0.034437
O O5 0.690707 0.250000 0.329679
O O6 0.600352 0.148525 0.403182
O O7 0.040702 0.250000 0.608254
O O8 0.105066 0.343953 0.321047
O O9 0.102484 0.343027 0.826946
O O10 0.690197 0.949111 0.335659
O O11 0.546257 0.887533 0.207555
O O12 0.675395 0.950551 0.846998
O O13 0.728315 0.850560 0.041426
O O14 0.614283 0.456309 0.627795
O O15 0.512638 0.557301 0.667370
O O16 0.179904 0.250000 0.023410
#
# Coordination Sequence:
#
# PCOD8070264 Si02
#       7
#     4   4   4   4   4   4   4
#     4   9  18  32  48  71 101 129 166 200 236 292
#     4  10  20  31  49  77 103 129 155 196 255 298
#     4   9  17  31  49  69  98 133 165 201 235 288
#     4  10  19  33  49  74 100 125 165 206 238 280
#     4   9  20  34  52  70  95 131 176 205 227 271
#     4  10  19  30  49  76 102 130 161 195 252 301
#     4   9  21  33  54  70 104 125 172 200 236 287
#
# _framework density 17.830835
#
# number of rings (size 3 to 8) (size 9 to 14) (size 15 to 20)
#    0.857    1.714    0.000    2.143    2.000    4.000 
#    0.000    0.714    0.000    0.000    0.000   20.000 
#    0.000    0.000    0.000    0.000    0.000    0.000 
#
# Total GULP energy -347064.527736 kJ/mol
# GULP energy per Si atom -12395.161705 kJ/mol
# Density = 1.779025 g / cm^3
# Si number density = 17.830835 Si / 1000 Ang^3
#
#
#
# Elastic Constant Matrix: (Units=GPa)
#
#
# Indices 1 2 3 4 5 6 
#
# 1 56.3284 31.7856 40.0619 0.0000 -9.7197 0.0000
# 2 31.7856 45.1245 25.9019 0.0000 -10.4064 0.0000
# 3 40.0619 25.9019 145.0158 0.0000 3.2656 0.0000
# 4 0.0000 0.0000 0.0000 12.0648 0.0000 1.0029
# 5 -9.7197 -10.4064 3.2656 0.0000 25.6841 0.0000
# 6 0.0000 0.0000 0.0000 1.0029 0.0000 8.1294
#
#
#
# Elastic Compliance Matrix: (Units=1/GPa)
#
#
# Indices 1 2 3 4 5 6 
#
# 1 0.033788 -0.018953 -0.006081 0.000000 0.005880 0.000000
# 2 -0.018953 0.038579 -0.001850 0.000000 0.008694 0.000000
# 3 -0.006081 -0.001850 0.009001 0.000000 -0.004196 0.000000
# 4 0.000000 0.000000 0.000000 0.083744 0.000000 -0.010331
# 5 0.005880 0.008694 -0.004196 0.000000 0.045216 0.000000
# 6 0.000000 0.000000 0.000000 -0.010331 0.000000 0.124285
#
#
# Mechanical properties :
#
#
# Convention : Reuss Voigt Hill
#
# Bulk Modulus (GPa) = 36.23549 49.10750 42.67149
# Shear Modulus (GPa) = 12.57603 19.09029 15.83316
#
# Velocity S-wave (km/s) = 2.65862 3.27560 2.98311
# Velocity P-wave (km/s) = 5.45805 6.47354 5.98736
#
# Compressibility (1/GPa) = 0.02759725
#
# Stress axis : x y z
#
# Youngs Moduli (GPa) = 29.59621 25.92102 111.10110
#
# Poissons Ratio (x) = 0.49129 0.67564
# Poissons Ratio (y) = 0.56095 0.20558
# Poissons Ratio (z) = 0.17998 0.04796
#
# Static dielectric constant tensor:
#      x y z
#    x 3.188440 0.000000 0.023970 
#    y 0.000000 2.845780 0.000000 
#    z 0.023970 0.000000 3.462780 
# 
# 
# High freq. dielectric constant tensor:
#      x y z
#    x 1.677280 0.000000 0.003580 
#    y 0.000000 1.645350 0.000000 
#    z 0.003580 0.000000 1.705030 
# 
# From -- ./inp_files/6964.got.cif
#   From: 2010.06.25/outbox.cif.g09.slc.cpg/sg11_4_cif.got.tgz:6964.got - 2010.06.27 23:14:04.
