data_PCOD8070988
_publ_section_title
;
Structure prediction by ZEFSAII (Michael W. Deem and Ramdas Pophale) SiO2 
 PCOD8070988
Probable space group: P 21/M
;
_chemical_formula_sum "Si O2"
_cell_formula_units_Z 28
_cell_length_a 12.433395
_cell_length_b 9.588048
_cell_length_c 14.251170
_cell_angle_alpha 90.000000
_cell_angle_beta 118.211618
_cell_angle_gamma 90.000000
_cell_volume 1497.092698
_symmetry_space_group_name_H-M "P 21/M"
_symmetry_group_IT_number 11
_symmetry_cell_setting 'monoclinic'
loop_
_space_group_symop_operation_xyz
x,y,z
-x,1/2+y,-z
-x,-y,-z
x,1/2-y,z
loop_
_atom_site_type_symbol
_atom_site_label
_atom_site_fract_x
_atom_site_fract_y
_atom_site_fract_z
Si Si1 0.371093 0.915333 0.739579
Si Si2 0.598149 0.405618 0.892498
Si Si3 0.812582 0.001417 0.861177
Si Si4 0.629779 0.594598 0.640709
Si Si5 0.600981 0.587640 0.419627
Si Si6 0.064497 0.400201 0.906029
Si Si7 0.237343 0.910294 0.871304
O O1 0.386110 0.750000 0.727820
O O2 0.271842 0.946223 0.778815
O O3 0.502163 0.977471 0.822641
O O4 0.325188 0.997357 0.627594
O O5 0.539694 0.250000 0.870470
O O6 0.711895 0.399930 0.867717
O O7 0.647090 0.449048 0.015597
O O8 0.918983 0.089364 0.856057
O O9 0.750224 0.909849 0.753889
O O10 0.872614 0.905831 0.965905
O O11 0.571015 0.750000 0.625685
O O12 0.666739 0.569725 0.547032
O O13 0.535317 0.476033 0.633334
O O14 0.591867 0.750000 0.385577
O O15 0.094848 0.250000 0.875521
O O16 0.115705 0.510252 0.852499
O O17 0.204124 0.750000 0.870292
#
# Coordination Sequence:
#
# PCOD8070988 Si02
#       7
#     4   4   4   4   4   4   4
#     4  11  21  34  52  75 106 143 179 218 265 320
#     4  10  19  32  51  77 106 138 175 218 266 319
#     4  10  20  33  55  81 111 141 173 216 268 317
#     4  10  20  35  54  78 108 141 176 216 266 320
#     4  10  21  34  52  79 108 139 177 221 266 313
#     4  10  21  35  54  82 109 141 182 218 260 317
#     4   9  21  37  51  72 106 143 180 222 266 311
#
# _framework density 18.702916999999999
#
# number of rings (size 3 to 8) (size 9 to 14) (size 15 to 20)
#    0.000    2.000    1.429    2.143    0.000    8.571 
#    0.000    0.000    0.000    0.857    0.000    0.000 
#    0.000    0.000    0.000    0.000    0.000    0.000 
#
# Total GULP energy -347081.765319 kJ/mol
# GULP energy per Si atom -12395.777333 kJ/mol
# Density = 1.866035 g / cm^3
# Si number density = 18.702917 Si / 1000 Ang^3
#
#
#
# Elastic Constant Matrix: (Units=GPa)
#
#
# Indices 1 2 3 4 5 6 
#
# 1 90.6769 44.7483 37.1429 0.0000 -18.3331 0.0000
# 2 44.7483 116.5779 33.2209 0.0000 -15.8663 0.0000
# 3 37.1429 33.2209 84.1615 0.0000 -20.4688 0.0000
# 4 0.0000 0.0000 0.0000 20.7571 0.0000 -6.1533
# 5 -18.3331 -15.8663 -20.4688 0.0000 28.8698 0.0000
# 6 0.0000 0.0000 0.0000 -6.1533 0.0000 22.0567
#
#
#
# Elastic Compliance Matrix: (Units=1/GPa)
#
#
# Indices 1 2 3 4 5 6 
#
# 1 0.015770 -0.004228 -0.004133 0.000000 0.004760 0.000000
# 2 -0.004228 0.011041 -0.002018 0.000000 0.001953 0.000000
# 3 -0.004133 -0.002018 0.016427 0.000000 0.007913 0.000000
# 4 0.000000 0.000000 0.000000 0.052520 0.000000 0.014652
# 5 0.004760 0.001953 0.007913 0.000000 0.044345 0.000000
# 6 0.000000 0.000000 0.000000 0.014652 0.000000 0.049425
#
#
# Mechanical properties :
#
#
# Convention : Reuss Voigt Hill
#
# Bulk Modulus (GPa) = 44.48071 57.96002 51.22037
# Shear Modulus (GPa) = 22.95904 26.09034 24.52469
#
# Velocity S-wave (km/s) = 3.50746 3.73901 3.62508
# Velocity P-wave (km/s) = 6.34330 7.04963 6.70577
#
# Compressibility (1/GPa) = 0.02248166
#
# Stress axis : x y z
#
# Youngs Moduli (GPa) = 63.41188 90.56766 60.87534
#
# Poissons Ratio (x) = 0.38288 0.25161
# Poissons Ratio (y) = 0.26808 0.12282
# Poissons Ratio (z) = 0.26209 0.18273
#
# Static dielectric constant tensor:
#      x y z
#    x 3.279840 0.000000 -0.332990 
#    y 0.000000 3.448370 0.000000 
#    z -0.332990 0.000000 3.587620 
# 
# 
# High freq. dielectric constant tensor:
#      x y z
#    x 1.701620 0.000000 -0.023650 
#    y 0.000000 1.734240 0.000000 
#    z -0.023650 0.000000 1.713600 
# 
# From -- ./inp_files/49497.got.cif
#   From: 2010.06.25/outbox.cif.g09.slc.cpg/sg11_25_cif.got.tgz:49497.got - 2010.06.27 23:14:04.
