data_PCOD8070616
_publ_section_title
;
Structure prediction by ZEFSAII (Michael W. Deem and Ramdas Pophale) SiO2 
 PCOD8070616
Probable space group: P 21/M
;
_chemical_formula_sum "Si O2"
_cell_formula_units_Z 32
_cell_length_a 19.751328
_cell_length_b 20.337579
_cell_length_c 8.380136
_cell_angle_alpha 90.000000
_cell_angle_beta 31.944091
_cell_angle_gamma 90.000000
_cell_volume 1781.055272
_symmetry_space_group_name_H-M "P 21/M"
_symmetry_group_IT_number 11
_symmetry_cell_setting 'monoclinic'
loop_
_space_group_symop_operation_xyz
x,y,z
-x,1/2+y,-z
-x,-y,-z
x,1/2-y,z
loop_
_atom_site_type_symbol
_atom_site_label
_atom_site_fract_x
_atom_site_fract_y
_atom_site_fract_z
Si Si1 0.610044 0.409516 0.258981
Si Si2 0.399011 0.673405 0.013236
Si Si3 0.110045 0.909516 0.300841
Si Si4 0.032513 0.021821 0.676631
Si Si5 0.108654 0.080903 0.843961
Si Si6 0.467488 0.478179 0.806681
Si Si7 0.391346 0.419098 0.278578
Si Si8 0.100989 0.673405 0.609280
O O1 0.517785 0.419188 0.593839
O O2 0.617975 0.473954 0.130476
O O3 0.566671 0.347583 0.237133
O O4 0.750000 0.395856 0.049220
O O5 0.424257 0.750000 0.983939
O O6 0.250000 0.655386 0.349897
O O7 0.496012 0.635262 0.936743
O O8 0.066672 0.847583 0.496181
O O9 0.017786 0.919189 0.335019
O O10 0.117975 0.973954 0.397625
O O11 0.115302 0.053843 0.650698
O O12 0.916498 0.979240 0.984168
O O13 0.250000 0.109993 0.600892
O O14 0.996012 0.135262 0.079209
O O15 0.583504 0.520760 0.650155
O O16 0.384697 0.446158 0.111910
O O17 0.075744 0.750000 0.680964
#
# Coordination Sequence:
#
# PCOD8070616 Si02
#       8
#     4   4   4   4   4   4   4   4
#     4   9  16  29  49  70  96 128 160 197 240 289
#     4   9  19  35  52  70  94 127 166 205 245 289
#     4   9  16  29  49  70  96 128 160 197 240 289
#     4   9  18  29  46  75 103 126 157 196 245 293
#     4  10  19  31  50  74 102 132 161 198 242 291
#     4   9  18  29  46  75 103 126 157 196 245 293
#     4  10  19  31  50  74 102 132 161 198 242 291
#     4   9  19  35  52  70  94 127 166 205 245 289
#
# _framework density 17.966878000000001
#
# number of rings (size 3 to 8) (size 9 to 14) (size 15 to 20)
#    0.000    2.750    0.000    1.500    0.000    7.500 
#    0.000    2.500    0.000    3.000    0.000    0.000 
#    0.000    0.000    0.000    0.000    0.000    0.000 
#
# Total GULP energy -396581.600931 kJ/mol
# GULP energy per Si atom -12393.175029 kJ/mol
# Density = 1.792598 g / cm^3
# Si number density = 17.966878 Si / 1000 Ang^3
#
#
#
# Elastic Constant Matrix: (Units=GPa)
#
#
# Indices 1 2 3 4 5 6 
#
# 1 60.2777 20.2016 35.3668 0.0000 0.8438 0.0000
# 2 20.2016 68.9426 28.8843 0.0000 -7.8271 0.0000
# 3 35.3668 28.8843 76.2363 0.0000 -15.2308 0.0000
# 4 0.0000 0.0000 0.0000 21.9594 0.0000 -0.7943
# 5 0.8438 -7.8271 -15.2308 0.0000 26.4777 0.0000
# 6 0.0000 0.0000 0.0000 -0.7943 0.0000 21.0789
#
#
#
# Elastic Compliance Matrix: (Units=1/GPa)
#
#
# Indices 1 2 3 4 5 6 
#
# 1 0.024858 -0.003223 -0.012043 0.000000 -0.008672 0.000000
# 2 -0.003223 0.017713 -0.004688 0.000000 0.002642 0.000000
# 3 -0.012043 -0.004688 0.022913 0.000000 0.012178 0.000000
# 4 0.000000 0.000000 0.000000 0.045601 0.000000 0.001718
# 5 -0.008672 0.002642 0.012178 0.000000 0.045831 0.000000
# 6 0.000000 0.000000 0.000000 0.001718 0.000000 0.047505
#
#
# Mechanical properties :
#
#
# Convention : Reuss Voigt Hill
#
# Bulk Modulus (GPa) = 39.09956 41.59581 40.34768
# Shear Modulus (GPa) = 19.77420 21.97014 20.87217
#
# Velocity S-wave (km/s) = 3.32112 3.50067 3.41207
# Velocity P-wave (km/s) = 6.04282 6.28818 6.16672
#
# Compressibility (1/GPa) = 0.02557574
#
# Stress axis : x y z
#
# Youngs Moduli (GPa) = 40.22927 56.45475 43.64247
#
# Poissons Ratio (x) = 0.18194 0.52560
# Poissons Ratio (y) = 0.12965 0.20461
# Poissons Ratio (z) = 0.48449 0.26468
#
# Static dielectric constant tensor:
#      x y z
#    x 3.259000 0.000000 0.017040 
#    y 0.000000 3.105030 0.000000 
#    z 0.017040 0.000000 3.240090 
# 
# 
# High freq. dielectric constant tensor:
#      x y z
#    x 1.690910 0.000000 -0.001130 
#    y 0.000000 1.664010 0.000000 
#    z -0.001130 0.000000 1.692170 
# 
# From -- ./inp_files/27107.got.cif
#   From: 2010.06.25/outbox.cif.g09.slc.cpg/sg11_14_cif.got.tgz:27107.got - 2010.06.27 23:14:04.
