data_PCOD8070490
_publ_section_title
;
Structure prediction by ZEFSAII (Michael W. Deem and Ramdas Pophale) SiO2 
 PCOD8070490
Probable space group: P 21/M
;
_chemical_formula_sum "Si O2"
_cell_formula_units_Z 24
_cell_length_a 11.297512
_cell_length_b 8.849733
_cell_length_c 14.036968
_cell_angle_alpha 90.000000
_cell_angle_beta 101.843412
_cell_angle_gamma 90.000000
_cell_volume 1373.539887
_symmetry_space_group_name_H-M "P 21/M"
_symmetry_group_IT_number 11
_symmetry_cell_setting 'monoclinic'
loop_
_space_group_symop_operation_xyz
x,y,z
-x,1/2+y,-z
-x,-y,-z
x,1/2-y,z
loop_
_atom_site_type_symbol
_atom_site_label
_atom_site_fract_x
_atom_site_fract_y
_atom_site_fract_z
Si Si1 0.579082 0.575844 0.641458
Si Si2 0.882482 0.923687 0.018557
Si Si3 0.097703 0.572247 0.585060
Si Si4 0.793717 0.926674 0.810023
Si Si5 0.964428 0.927680 0.227355
Si Si6 0.661458 0.923990 0.444037
O O1 0.539130 0.750000 0.643325
O O2 0.667839 0.525966 0.741127
O O3 0.461102 0.472028 0.629845
O O4 0.649016 0.547712 0.554373
O O5 0.914204 0.750000 0.024160
O O6 0.865564 0.969781 0.127022
O O7 0.778165 0.958339 0.922435
O O8 0.000000 0.000000 0.000000
O O9 0.082894 0.750000 0.576323
O O10 0.076394 0.520552 0.688746
O O11 0.231002 0.526779 0.575327
O O12 0.000000 0.500000 0.500000
O O13 0.821198 0.750000 0.794697
O O14 0.901277 0.024391 0.782544
O O15 0.964715 0.750000 0.251460
O O16 0.689172 0.750000 0.425084
#
# Coordination Sequence:
#
# PCOD8070490 Si02
#       6
#     4   4   4   4   4   4
#     4   9  18  32  51  73  98 129 163 201 243 288
#     4   8  15  27  45  70  99 130 163 203 246 288
#     4  12  24  37  53  73  99 130 164 200 242 293
#     4   9  16  29  50  75 102 132 168 206 246 290
#     4  10  19  31  48  73 104 134 165 202 247 294
#     4  10  20  34  51  73 101 131 163 199 242 290
#
# _framework density 17.473099000000001
#
# number of rings (size 3 to 8) (size 9 to 14) (size 15 to 20)
#    0.000    2.333    0.000    3.500    0.000    3.333 
#    0.000    0.000    0.000    1.000    0.000    0.000 
#    0.000    0.000    0.000    0.000    0.000    0.000 
#
# Total GULP energy -297409.312355 kJ/mol
# GULP energy per Si atom -12392.054681 kJ/mol
# Density = 1.743333 g / cm^3
# Si number density = 17.473099 Si / 1000 Ang^3
#
#
#
# Elastic Constant Matrix: (Units=GPa)
#
#
# Indices 1 2 3 4 5 6 
#
# 1 78.4596 40.7935 65.6555 0.0000 12.8814 0.0000
# 2 40.7935 90.8083 56.3550 0.0000 1.9268 0.0000
# 3 65.6555 56.3550 149.5903 0.0000 25.0292 0.0000
# 4 0.0000 0.0000 0.0000 24.9138 0.0000 -0.7076
# 5 12.8814 1.9268 25.0292 0.0000 29.0841 0.0000
# 6 0.0000 0.0000 0.0000 -0.7076 0.0000 29.1616
#
#
#
# Elastic Compliance Matrix: (Units=1/GPa)
#
#
# Indices 1 2 3 4 5 6 
#
# 1 0.022031 -0.005443 -0.007064 0.000000 -0.003318 0.000000
# 2 -0.005443 0.016200 -0.004600 0.000000 0.005296 0.000000
# 3 -0.007064 -0.004600 0.012785 0.000000 -0.007569 0.000000
# 4 0.000000 0.000000 0.000000 0.040166 0.000000 0.000975
# 5 -0.003318 0.005296 -0.007569 0.000000 0.042015 0.000000
# 6 0.000000 0.000000 0.000000 0.000975 0.000000 0.034315
#
#
# Mechanical properties :
#
#
# Convention : Reuss Voigt Hill
#
# Bulk Modulus (GPa) = 59.51733 71.60734 65.56234
# Shear Modulus (GPa) = 24.11653 27.03553 25.57603
#
# Velocity S-wave (km/s) = 3.71915 3.93780 3.83003
# Velocity P-wave (km/s) = 7.25113 7.85783 7.56057
#
# Compressibility (1/GPa) = 0.01680183
#
# Stress axis : x y z
#
# Youngs Moduli (GPa) = 45.39033 61.72939 78.21821
#
# Poissons Ratio (x) = 0.33598 0.55253
# Poissons Ratio (y) = 0.24705 0.35982
# Poissons Ratio (z) = 0.32063 0.28397
#
# Static dielectric constant tensor:
#      x y z
#    x 3.044160 0.000000 0.324740 
#    y 0.000000 3.345400 0.000000 
#    z 0.324740 0.000000 3.915470 
# 
# 
# High freq. dielectric constant tensor:
#      x y z
#    x 1.642470 0.000000 0.020800 
#    y 0.000000 1.684180 0.000000 
#    z 0.020800 0.000000 1.689030 
# 
# From -- ./inp_files/33821.got.cif
#   From: 2010.06.25/outbox.cif.g09.slc.cpg/sg11_17_cif.got.tgz:33821.got - 2010.06.27 23:14:04.
