data_PCOD8070184
_publ_section_title
;
Structure prediction by ZEFSAII (Michael W. Deem and Ramdas Pophale) SiO2 
 PCOD8070184
Probable space group: P 21/M
;
_chemical_formula_sum "Si O2"
_cell_formula_units_Z 32
_cell_length_a 16.717016
_cell_length_b 8.595544
_cell_length_c 23.964167
_cell_angle_alpha 90.000000
_cell_angle_beta 150.609404
_cell_angle_gamma 90.000000
_cell_volume 1689.912772
_symmetry_space_group_name_H-M "P 21/M"
_symmetry_group_IT_number 11
_symmetry_cell_setting 'monoclinic'
loop_
_space_group_symop_operation_xyz
x,y,z
-x,1/2+y,-z
-x,-y,-z
x,1/2-y,z
loop_
_atom_site_type_symbol
_atom_site_label
_atom_site_fract_x
_atom_site_fract_y
_atom_site_fract_z
Si Si1 0.501842 0.932352 0.720028
Si Si2 0.977356 0.569845 0.122974
Si Si3 0.226899 0.429524 0.198485
Si Si4 0.980060 0.065806 0.242908
Si Si5 0.527710 0.429701 0.575248
Si Si6 0.743552 0.432070 0.521277
Si Si7 0.599326 0.930780 0.896957
Si Si8 0.391583 0.568224 0.982581
O O1 0.536766 0.750000 0.742251
O O2 0.660633 0.002377 0.783235
O O3 0.325078 0.965045 0.583510
O O4 0.499696 0.994745 0.782304
O O5 0.014484 0.750000 0.154228
O O6 0.043275 0.484642 0.219473
O O7 0.058256 0.515222 0.112997
O O8 0.787898 0.533762 0.999901
O O9 0.186653 0.250000 0.163335
O O10 0.335067 0.455594 0.318597
O O11 0.997898 0.250000 0.259796
O O12 0.793739 0.008369 0.135955
O O13 0.072070 0.981078 0.351047
O O14 0.500000 0.500000 0.500000
O O15 0.584181 0.250000 0.609705
O O16 0.358698 0.448935 0.504089
O O17 0.716003 0.250000 0.518688
O O18 0.566556 0.750000 0.887166
O O19 0.536297 0.019187 0.913444
O O20 0.398444 0.750000 0.981645
O O21 0.500000 0.500000 0.000000
#
# Coordination Sequence:
#
# PCOD8070184 Si02
#       8
#     4   4   4   4   4   4   4   4
#     4   8  17  33  51  71  98 137 178 212 251 296
#     4  10  19  30  47  72 100 133 174 217 261 304
#     4  10  19  31  45  64  95 134 176 218 257 297
#     4  10  20  34  52  76 105 134 166 206 254 302
#     4  11  20  30  43  61  89 126 171 219 263 302
#     4  10  19  32  50  72  99 132 170 208 249 299
#     4   9  18  35  56  76 102 135 169 206 251 305
#     4  10  21  37  59  86 110 131 158 198 249 303
#
# _framework density 18.935889
#
# number of rings (size 3 to 8) (size 9 to 14) (size 15 to 20)
#    0.000    2.250    0.000    4.500    0.000    2.500 
#    0.000    3.750    0.000    0.750    0.000    0.000 
#    0.000    0.000    0.000    0.000    0.000    0.000 
#
# Total GULP energy -396419.453883 kJ/mol
# GULP energy per Si atom -12388.107934 kJ/mol
# Density = 1.889279 g / cm^3
# Si number density = 18.935889 Si / 1000 Ang^3
#
#
#
# Elastic Constant Matrix: (Units=GPa)
#
#
# Indices 1 2 3 4 5 6 
#
# 1 97.2824 25.5434 38.7069 0.0000 -15.4586 0.0000
# 2 25.5434 50.2766 24.6271 0.0000 -4.7295 0.0000
# 3 38.7069 24.6271 76.2403 0.0000 -23.0230 0.0000
# 4 0.0000 0.0000 0.0000 25.2589 0.0000 2.2108
# 5 -15.4586 -4.7295 -23.0230 0.0000 28.1069 0.0000
# 6 0.0000 0.0000 0.0000 2.2108 0.0000 25.8835
#
#
#
# Elastic Compliance Matrix: (Units=1/GPa)
#
#
# Indices 1 2 3 4 5 6 
#
# 1 0.013774 -0.004437 -0.004647 0.000000 0.003022 0.000000
# 2 -0.004437 0.025253 -0.007119 0.000000 -0.004023 0.000000
# 3 -0.004647 -0.007119 0.022111 0.000000 0.014358 0.000000
# 4 0.000000 0.000000 0.000000 0.039888 0.000000 -0.003407
# 5 0.003022 -0.004023 0.014358 0.000000 0.048325 0.000000
# 6 0.000000 0.000000 0.000000 -0.003407 0.000000 0.038926
#
#
# Mechanical properties :
#
#
# Convention : Reuss Voigt Hill
#
# Bulk Modulus (GPa) = 34.80529 44.61710 39.71120
# Shear Modulus (GPa) = 21.71458 24.84467 23.27962
#
# Velocity S-wave (km/s) = 3.39003 3.62614 3.51007
# Velocity P-wave (km/s) = 5.80892 6.41445 6.11918
#
# Compressibility (1/GPa) = 0.02873126
#
# Stress axis : x y z
#
# Youngs Moduli (GPa) = 72.60268 39.59894 45.22633
#
# Poissons Ratio (x) = 0.17571 0.21015
# Poissons Ratio (y) = 0.32216 0.32198
# Poissons Ratio (z) = 0.33736 0.28191
#
# Static dielectric constant tensor:
#      x y z
#    x 3.416660 0.000000 -0.205060 
#    y 0.000000 3.542160 0.000000 
#    z -0.205060 0.000000 3.550980 
# 
# 
# High freq. dielectric constant tensor:
#      x y z
#    x 1.709950 0.000000 -0.017630 
#    y 0.000000 1.729840 0.000000 
#    z -0.017630 0.000000 1.730620 
# 
# From -- ./inp_files/43755.got.cif
#   From: 2010.06.25/outbox.cif.g09.slc.cpg/sg11_22_cif.got.tgz:43755.got - 2010.06.27 23:14:04.
