data_PCOD8070596
_publ_section_title
;
Structure prediction by ZEFSAII (Michael W. Deem and Ramdas Pophale) SiO2 
 PCOD8070596
Probable space group: P 21/M
;
_chemical_formula_sum "Si O2"
_cell_formula_units_Z 32
_cell_length_a 21.226111
_cell_length_b 8.957371
_cell_length_c 32.302678
_cell_angle_alpha 90.000000
_cell_angle_beta 15.489132
_cell_angle_gamma 90.000000
_cell_volume 1640.178787
_symmetry_space_group_name_H-M "P 21/M"
_symmetry_group_IT_number 11
_symmetry_cell_setting 'monoclinic'
loop_
_space_group_symop_operation_xyz
x,y,z
-x,1/2+y,-z
-x,-y,-z
x,1/2-y,z
loop_
_atom_site_type_symbol
_atom_site_label
_atom_site_fract_x
_atom_site_fract_y
_atom_site_fract_z
Si Si1 0.282004 0.924197 0.935861
Si Si2 0.225048 0.573451 0.877679
Si Si3 0.420654 0.923063 0.136493
Si Si4 0.065761 0.080340 0.694704
Si Si5 0.841545 0.573092 0.765233
Si Si6 0.923857 0.578784 0.858776
Si Si7 0.222192 0.425602 0.338576
Si Si8 0.698332 0.579649 0.534918
O O1 0.233780 0.750000 0.971587
O O2 0.242336 0.978620 0.914210
O O3 0.548283 0.965694 0.779502
O O4 0.093901 0.008266 0.084374
O O5 0.203042 0.750000 0.887866
O O6 0.454967 0.515737 0.707140
O O7 0.000000 0.500000 0.000000
O O8 0.355294 0.750000 0.175050
O O9 0.682276 0.948343 0.987286
O O10 0.382750 0.998901 0.115610
O O11 0.242586 0.005561 0.280234
O O12 0.981845 0.250000 0.755096
O O13 0.300270 0.075150 0.516819
O O14 0.857566 0.989910 0.802118
O O15 0.116082 0.003842 0.707556
O O16 0.814782 0.750000 0.783459
O O17 0.082047 0.521836 0.588526
O O18 0.995209 0.750000 0.818535
O O19 0.184312 0.250000 0.358841
O O20 0.000000 0.500000 0.500000
O O21 0.737875 0.750000 0.525308
#
# Coordination Sequence:
#
# PCOD8070596 Si02
#       8
#     4   4   4   4   4   4   4   4
#     4   9  20  37  56  78 110 150 184 221 276 336
#     4  10  21  39  62  88 114 143 179 224 278 338
#     4  10  20  33  46  66 103 146 185 230 279 323
#     4   9  18  33  54  76 105 148 185 222 277 333
#     4  10  19  31  49  76 104 137 185 233 271 317
#     4  10  20  34  53  77 107 143 188 236 273 317
#     4  10  20  32  49  74 103 143 189 230 272 324
#     4   8  18  35  54  78 109 143 177 217 276 334
#
# _framework density 19.510068
#
# number of rings (size 3 to 8) (size 9 to 14) (size 15 to 20)
#    0.750    1.750    0.000    2.250    1.750    3.500 
#    0.000    0.000    0.000    0.750    0.000    0.000 
#    0.000    0.000    0.000    0.000    0.000    0.000 
#
# Total GULP energy -396615.320061 kJ/mol
# GULP energy per Si atom -12394.228752 kJ/mol
# Density = 1.946566 g / cm^3
# Si number density = 19.510068 Si / 1000 Ang^3
#
#
#
# Elastic Constant Matrix: (Units=GPa)
#
#
# Indices 1 2 3 4 5 6 
#
# 1 91.1464 37.6471 35.6770 0.0000 24.6357 0.0000
# 2 37.6471 100.1951 21.5787 0.0000 11.5024 0.0000
# 3 35.6770 21.5787 46.4703 0.0000 21.1380 0.0000
# 4 0.0000 0.0000 0.0000 28.0006 0.0000 4.7450
# 5 24.6357 11.5024 21.1380 0.0000 31.1341 0.0000
# 6 0.0000 0.0000 0.0000 4.7450 0.0000 30.4580
#
#
#
# Elastic Compliance Matrix: (Units=1/GPa)
#
#
# Indices 1 2 3 4 5 6 
#
# 1 0.017908 -0.004062 -0.008825 0.000000 -0.006678 0.000000
# 2 -0.004062 0.012027 -0.002760 0.000000 0.000644 0.000000
# 3 -0.008825 -0.002760 0.037524 0.000000 -0.017474 0.000000
# 4 0.000000 0.000000 0.000000 0.036682 0.000000 -0.005715
# 5 -0.006678 0.000644 -0.017474 0.000000 0.049029 0.000000
# 6 0.000000 0.000000 0.000000 -0.005715 0.000000 0.033722
#
#
# Mechanical properties :
#
#
# Convention : Reuss Voigt Hill
#
# Bulk Modulus (GPa) = 27.64941 47.51304 37.58122
# Shear Modulus (GPa) = 21.71634 27.44581 24.58107
#
# Velocity S-wave (km/s) = 3.33991 3.75474 3.55338
# Velocity P-wave (km/s) = 5.39221 6.57293 6.01163
#
# Compressibility (1/GPa) = 0.03616714
#
# Stress axis : x y z
#
# Youngs Moduli (GPa) = 55.83976 83.14634 26.64938
#
# Poissons Ratio (x) = 0.33770 0.23519
# Poissons Ratio (y) = 0.22680 0.07354
# Poissons Ratio (z) = 0.49280 0.22944
#
# Static dielectric constant tensor:
#      x y z
#    x 3.518480 0.000000 0.404870 
#    y 0.000000 3.496270 0.000000 
#    z 0.404870 0.000000 3.510150 
# 
# 
# High freq. dielectric constant tensor:
#      x y z
#    x 1.739660 0.000000 0.032490 
#    y 0.000000 1.762500 0.000000 
#    z 0.032490 0.000000 1.745690 
# 
# From -- ./inp_files/73624.got.cif
#   From: 2010.06.25/outbox.cif.g09.slc.cpg/sg11_37_cif.got.tgz:73624.got - 2010.06.27 23:14:04.
