data_PCOD8070108
_publ_section_title
;
Structure prediction by ZEFSAII (Michael W. Deem and Ramdas Pophale) SiO2 
 PCOD8070108
Probable space group: P 21/M
;
_chemical_formula_sum "Si O2"
_cell_formula_units_Z 28
_cell_length_a 13.663777
_cell_length_b 8.944676
_cell_length_c 14.419678
_cell_angle_alpha 90.000000
_cell_angle_beta 103.917403
_cell_angle_gamma 90.000000
_cell_volume 1710.608710
_symmetry_space_group_name_H-M "P 21/M"
_symmetry_group_IT_number 11
_symmetry_cell_setting 'monoclinic'
loop_
_space_group_symop_operation_xyz
x,y,z
-x,1/2+y,-z
-x,-y,-z
x,1/2-y,z
loop_
_atom_site_type_symbol
_atom_site_label
_atom_site_fract_x
_atom_site_fract_y
_atom_site_fract_z
Si Si1 0.227036 0.426904 0.078623
Si Si2 0.864065 0.425166 0.401768
Si Si3 0.762068 0.925986 0.218476
Si Si4 0.077826 0.426720 0.892062
Si Si5 0.909995 0.925662 0.599118
Si Si6 0.863282 0.072577 0.777962
Si Si7 0.607281 0.925131 0.030175
O O1 0.227739 0.250000 0.095291
O O2 0.227386 0.510968 0.177972
O O3 0.126301 0.480357 0.000139
O O4 0.323875 0.477843 0.040726
O O5 0.853153 0.250000 0.417242
O O6 0.772155 0.483403 0.316727
O O7 0.853873 0.510130 0.496527
O O8 0.971298 0.465132 0.378623
O O9 0.768847 0.750000 0.240813
O O10 0.853868 0.984760 0.176537
O O11 0.658965 0.966067 0.140593
O O12 0.081745 0.250000 0.890746
O O13 0.965310 0.486120 0.851198
O O14 0.891621 0.750000 0.600698
O O15 0.857501 0.003235 0.674865
O O16 0.857380 0.250000 0.768396
O O17 0.592482 0.750000 0.020051
O O18 0.500000 0.000000 0.000000
#
# Coordination Sequence:
#
# PCOD8070108 Si02
#       7
#     4   4   4   4   4   4   4
#     4   9  18  32  46  64  92 126 158 191 235 286
#     4  10  19  30  45  68  93 123 164 204 235 270
#     4   9  16  30  49  68  94 128 158 192 240 286
#     4   8  15  27  43  62  90 125 159 190 224 270
#     4  10  20  31  44  63  93 132 165 196 234 276
#     4  11  19  28  44  67  93 126 162 198 231 268
#     4   9  19  34  53  73  96 124 156 197 243 286
#
# _framework density 16.368442999999999
#
# number of rings (size 3 to 8) (size 9 to 14) (size 15 to 20)
#    0.000    2.571    1.429    3.429    0.000    2.286 
#    0.000    2.857    0.000    0.000    0.000    1.000 
#    0.000    0.000    0.000    0.000    0.000    0.000 
#
# Total GULP energy -347084.004028 kJ/mol
# GULP energy per Si atom -12395.857287 kJ/mol
# Density = 1.633119 g / cm^3
# Si number density = 16.368443 Si / 1000 Ang^3
#
#
#
# Elastic Constant Matrix: (Units=GPa)
#
#
# Indices 1 2 3 4 5 6 
#
# 1 69.3861 32.4927 54.5541 0.0000 1.1930 0.0000
# 2 32.4927 60.9799 51.4174 0.0000 -2.2002 0.0000
# 3 54.5541 51.4174 132.3992 0.0000 -8.9131 0.0000
# 4 0.0000 0.0000 0.0000 30.4496 0.0000 -0.6969
# 5 1.1930 -2.2002 -8.9131 0.0000 18.6544 0.0000
# 6 0.0000 0.0000 0.0000 -0.6969 0.0000 22.8246
#
#
#
# Elastic Compliance Matrix: (Units=1/GPa)
#
#
# Indices 1 2 3 4 5 6 
#
# 1 0.023443 -0.006282 -0.007615 0.000000 -0.005879 0.000000
# 2 -0.006282 0.026119 -0.007564 0.000000 -0.000132 0.000000
# 3 -0.007615 -0.007564 0.014053 0.000000 0.006309 0.000000
# 4 0.000000 0.000000 0.000000 0.032864 0.000000 0.001003
# 5 -0.005879 -0.000132 0.006309 0.000000 0.056982 0.000000
# 6 0.000000 0.000000 0.000000 0.001003 0.000000 0.043843
#
#
# Mechanical properties :
#
#
# Convention : Reuss Voigt Hill
#
# Bulk Modulus (GPa) = 48.32771 59.96594 54.14682
# Shear Modulus (GPa) = 20.23280 22.67245 21.45262
#
# Velocity S-wave (km/s) = 3.51962 3.72577 3.62416
# Velocity P-wave (km/s) = 6.79014 7.43123 7.11790
#
# Compressibility (1/GPa) = 0.02069206
#
# Stress axis : x y z
#
# Youngs Moduli (GPa) = 42.65746 38.28612 71.15942
#
# Poissons Ratio (x) = 0.24052 0.54191
# Poissons Ratio (y) = 0.26798 0.53823
# Poissons Ratio (z) = 0.32486 0.28959
#
# Static dielectric constant tensor:
#      x y z
#    x 2.043500 0.000000 -0.242730 
#    y 0.000000 2.897120 0.000000 
#    z -0.242730 0.000000 3.085130 
# 
# 
# High freq. dielectric constant tensor:
#      x y z
#    x 1.584160 0.000000 -0.007850 
#    y 0.000000 1.625430 0.000000 
#    z -0.007850 0.000000 1.634740 
# 
# From -- ./inp_files/50968.got.cif
#   From: 2010.06.25/outbox.cif.g09.slc.cpg/sg11_26_cif.got.tgz:50968.got - 2010.06.27 23:14:04.
