data_PCOD8070903
_publ_section_title
;
Structure prediction by ZEFSAII (Michael W. Deem and Ramdas Pophale) SiO2 
 PCOD8070903
Probable space group: P 21/M
;
_chemical_formula_sum "Si O2"
_cell_formula_units_Z 32
_cell_length_a 31.185478
_cell_length_b 8.925352
_cell_length_c 12.458241
_cell_angle_alpha 90.000000
_cell_angle_beta 151.181162
_cell_angle_gamma 90.000000
_cell_volume 1671.549160
_symmetry_space_group_name_H-M "P 21/M"
_symmetry_group_IT_number 11
_symmetry_cell_setting 'monoclinic'
loop_
_space_group_symop_operation_xyz
x,y,z
-x,1/2+y,-z
-x,-y,-z
x,1/2-y,z
loop_
_atom_site_type_symbol
_atom_site_label
_atom_site_fract_x
_atom_site_fract_y
_atom_site_fract_z
Si Si1 0.236979 0.926004 0.336916
Si Si2 0.526737 0.925273 0.381290
Si Si3 0.059754 0.923223 0.044049
Si Si4 0.437923 0.571770 0.772819
Si Si5 0.383431 0.079407 0.203637
Si Si6 0.158193 0.081109 0.962938
Si Si7 0.021234 0.580738 0.326887
Si Si8 0.817947 0.577998 0.221879
O O1 0.228178 0.750000 0.309425
O O2 0.162903 0.982935 0.261943
O O3 0.337211 0.973029 0.587085
O O4 0.212799 0.985940 0.167379
O O5 0.525005 0.750000 0.349635
O O6 0.600049 0.964148 0.634321
O O7 0.543313 0.012116 0.306157
O O8 0.433007 0.972960 0.228044
O O9 0.059252 0.750000 0.069110
O O10 0.000000 0.000000 0.000000
O O11 0.011574 0.957419 0.827898
O O12 0.451708 0.750000 0.802433
O O13 0.500000 0.500000 0.000000
O O14 0.416595 0.250000 0.259931
O O15 0.280590 0.063065 0.947413
O O16 0.192641 0.250000 0.053484
O O17 0.183521 0.019393 0.902665
O O18 0.050841 0.073775 0.735808
O O19 0.025449 0.750000 0.288364
O O20 0.119210 0.533684 0.576125
O O21 0.852092 0.750000 0.303110
#
# Coordination Sequence:
#
# PCOD8070903 Si02
#       8
#     4   4   4   4   4   4   4   4
#     4   9  20  37  58  83 109 139 181 227 274 326
#     4  10  20  37  60  83 110 146 186 233 285 337
#     4  10  20  38  60  81 106 141 182 228 275 325
#     4  11  23  40  60  85 115 148 187 237 290 341
#     4   9  19  35  56  82 112 148 189 230 279 339
#     4   9  18  32  53  79 110 145 181 222 269 322
#     4  10  20  33  50  77 110 144 181 222 269 324
#     4  10  19  32  50  77 112 147 181 221 269 321
#
# _framework density 19.143917999999999
#
# number of rings (size 3 to 8) (size 9 to 14) (size 15 to 20)
#    0.000    2.250    0.000    2.625    0.000    4.500 
#    2.250    0.000    0.000    0.000    0.000    0.000 
#    0.000    0.000    0.000    0.000    0.000    0.000 
#
# Total GULP energy -396600.772306 kJ/mol
# GULP energy per Si atom -12393.774135 kJ/mol
# Density = 1.910035 g / cm^3
# Si number density = 19.143918 Si / 1000 Ang^3
#
#
#
# Elastic Constant Matrix: (Units=GPa)
#
#
# Indices 1 2 3 4 5 6 
#
# 1 112.5103 42.7841 50.8952 0.0000 8.3705 0.0000
# 2 42.7841 50.9683 43.1863 0.0000 8.4733 0.0000
# 3 50.8952 43.1863 123.4313 0.0000 17.6896 0.0000
# 4 0.0000 0.0000 0.0000 32.1659 0.0000 -2.1009
# 5 8.3705 8.4733 17.6896 0.0000 19.2500 0.0000
# 6 0.0000 0.0000 0.0000 -2.1009 0.0000 32.4962
#
#
#
# Elastic Compliance Matrix: (Units=1/GPa)
#
#
# Indices 1 2 3 4 5 6 
#
# 1 0.013493 -0.009425 -0.002326 0.000000 0.000419 0.000000
# 2 -0.009425 0.034716 -0.007667 0.000000 -0.004137 0.000000
# 3 -0.002326 -0.007667 0.012801 0.000000 -0.007377 0.000000
# 4 0.000000 0.000000 0.000000 0.031221 0.000000 0.002018
# 5 0.000419 -0.004137 -0.007377 0.000000 0.060365 0.000000
# 6 0.000000 0.000000 0.000000 0.002018 0.000000 0.030903
#
#
# Mechanical properties :
#
#
# Convention : Reuss Voigt Hill
#
# Bulk Modulus (GPa) = 45.10029 62.29344 53.69687
# Shear Modulus (GPa) = 21.76488 26.78537 24.27512
#
# Velocity S-wave (km/s) = 3.37546 3.74459 3.56481
# Velocity P-wave (km/s) = 6.22908 7.16283 6.71221
#
# Compressibility (1/GPa) = 0.02217281
#
# Stress axis : x y z
#
# Youngs Moduli (GPa) = 74.11098 28.80494 78.12128
#
# Poissons Ratio (x) = 0.27150 0.18172
# Poissons Ratio (y) = 0.69852 0.59898
# Poissons Ratio (z) = 0.17239 0.22086
#
# Static dielectric constant tensor:
#      x y z
#    x 3.345860 0.000000 0.300110 
#    y 0.000000 3.507400 0.000000 
#    z 0.300110 0.000000 3.585810 
# 
# 
# High freq. dielectric constant tensor:
#      x y z
#    x 1.742620 0.000000 0.016980 
#    y 0.000000 1.746020 0.000000 
#    z 0.016980 0.000000 1.738420 
# 
# From -- ./inp_files/42874.got.cif
#   From: 2010.06.25/outbox.cif.g09.slc.cpg/sg11_22_cif.got.tgz:42874.got - 2010.06.27 23:14:04.
