data_PCOD8070871
_publ_section_title
;
Structure prediction by ZEFSAII (Michael W. Deem and Ramdas Pophale) SiO2 
 PCOD8070871
Probable space group: P 21/M
;
_chemical_formula_sum "Si O2"
_cell_formula_units_Z 32
_cell_length_a 28.334967
_cell_length_b 9.035393
_cell_length_c 22.922009
_cell_angle_alpha 90.000000
_cell_angle_beta 17.949811
_cell_angle_gamma 90.000000
_cell_volume 1808.557089
_symmetry_space_group_name_H-M "P 21/M"
_symmetry_group_IT_number 11
_symmetry_cell_setting 'monoclinic'
loop_
_space_group_symop_operation_xyz
x,y,z
-x,1/2+y,-z
-x,-y,-z
x,1/2-y,z
loop_
_atom_site_type_symbol
_atom_site_label
_atom_site_fract_x
_atom_site_fract_y
_atom_site_fract_z
Si Si1 0.151148 0.579574 0.301762
Si Si2 0.590238 0.413054 0.232686
Si Si3 0.688974 0.081630 0.998580
Si Si4 0.549983 0.576216 0.000203
Si Si5 0.733773 0.916424 0.450152
Si Si6 0.403033 0.580337 0.289952
Si Si7 0.142450 0.575567 0.801867
Si Si8 0.536785 0.421777 0.516656
O O1 0.147118 0.750000 0.326446
O O2 0.161921 0.566749 0.218102
O O3 0.295571 0.501894 0.161047
O O4 0.000000 0.500000 0.500000
O O5 0.611199 0.250000 0.235738
O O6 0.434600 0.421475 0.378809
O O7 0.588307 0.529077 0.287754
O O8 0.723386 0.446066 0.027571
O O9 0.621534 0.250000 0.071111
O O10 0.569775 0.959086 0.118085
O O11 0.581669 0.750000 0.953746
O O12 0.500000 0.500000 0.000000
O O13 0.412296 0.552073 0.209327
O O14 0.798597 0.750000 0.377449
O O15 0.726810 0.983895 0.524033
O O16 0.845772 0.012522 0.277573
O O17 0.367876 0.750000 0.345911
O O18 0.116882 0.750000 0.828565
O O19 0.293753 0.534850 0.661064
O O20 0.000000 0.500000 0.000000
O O21 0.500000 0.500000 0.500000
O O22 0.517788 0.250000 0.528951
#
# Coordination Sequence:
#
# PCOD8070871 Si02
#       8
#     4   4   4   4   4   4   4   4
#     4  10  19  32  50  73 101 131 164 202 244 292
#     4   8  14  26  44  66  91 119 153 194 235 275
#     4   8  15  27  44  66  92 123 157 194 238 284
#     4  10  20  33  50  73 100 131 165 202 246 293
#     4   9  16  27  45  68  94 124 157 194 237 282
#     4   9  16  26  43  68  95 121 155 200 242 280
#     4  10  20  33  50  73  99 127 160 198 240 286
#     4  10  20  32  48  71  97 126 158 192 233 280
#
# _framework density 17.693663000000001
#
# number of rings (size 3 to 8) (size 9 to 14) (size 15 to 20)
#    0.000    2.750    0.000    3.000    0.000    6.500 
#    0.000    0.000    0.000    1.500    0.000    5.250 
#    0.000    0.000    0.000    0.000    0.000    0.000 
#
# Total GULP energy -396526.183737 kJ/mol
# GULP energy per Si atom -12391.443242 kJ/mol
# Density = 1.765339 g / cm^3
# Si number density = 17.693663 Si / 1000 Ang^3
#
#
#
# Elastic Constant Matrix: (Units=GPa)
#
#
# Indices 1 2 3 4 5 6 
#
# 1 95.5709 61.8112 54.4212 0.0000 35.2543 0.0000
# 2 61.8112 122.8878 59.6099 0.0000 23.6945 0.0000
# 3 54.4212 59.6099 108.2149 0.0000 35.7582 0.0000
# 4 0.0000 0.0000 0.0000 31.0374 0.0000 7.2467
# 5 35.2543 23.6945 35.7582 0.0000 29.8489 0.0000
# 6 0.0000 0.0000 0.0000 7.2467 0.0000 28.0866
#
#
#
# Elastic Compliance Matrix: (Units=1/GPa)
#
#
# Indices 1 2 3 4 5 6 
#
# 1 0.023329 -0.007327 -0.000849 0.000000 -0.020720 0.000000
# 2 -0.007327 0.013516 -0.005090 0.000000 0.004022 0.000000
# 3 -0.000849 -0.005090 0.017885 0.000000 -0.016382 0.000000
# 4 0.000000 0.000000 0.000000 0.034285 0.000000 -0.008846
# 5 -0.020720 0.004022 -0.016382 0.000000 0.074407 0.000000
# 6 0.000000 0.000000 0.000000 -0.008846 0.000000 0.037886
#
#
# Mechanical properties :
#
#
# Convention : Reuss Voigt Hill
#
# Bulk Modulus (GPa) = 35.46337 75.37313 55.41825
# Shear Modulus (GPa) = 21.07565 27.85001 24.46283
#
# Velocity S-wave (km/s) = 3.45504 3.97168 3.72233
# Velocity P-wave (km/s) = 6.00024 7.98272 7.06140
#
# Compressibility (1/GPa) = 0.02819811
#
# Stress axis : x y z
#
# Youngs Moduli (GPa) = 42.86462 73.98431 55.91294
#
# Poissons Ratio (x) = 0.54210 0.04750
# Poissons Ratio (y) = 0.31408 0.28457
# Poissons Ratio (z) = 0.03641 0.37655
#
# Static dielectric constant tensor:
#      x y z
#    x 3.226120 0.000000 0.608180 
#    y 0.000000 3.469020 0.000000 
#    z 0.608180 0.000000 3.332200 
# 
# 
# High freq. dielectric constant tensor:
#      x y z
#    x 1.655680 0.000000 0.052540 
#    y 0.000000 1.700900 0.000000 
#    z 0.052540 0.000000 1.664280 
# 
# From -- ./inp_files/67110.got.cif
#   From: 2010.06.25/outbox.cif.g09.slc.cpg/sg11_34_cif.got.tgz:67110.got - 2010.06.27 23:14:04.
