data_PCOD8070026
_publ_section_title
;
Structure prediction by ZEFSAII (Michael W. Deem and Ramdas Pophale) SiO2 
 PCOD8070026
Probable space group: P 21/M
;
_chemical_formula_sum "Si O2"
_cell_formula_units_Z 32
_cell_length_a 27.669888
_cell_length_b 9.195335
_cell_length_c 15.545007
_cell_angle_alpha 90.000000
_cell_angle_beta 152.587053
_cell_angle_gamma 90.000000
_cell_volume 1820.964849
_symmetry_space_group_name_H-M "P 21/M"
_symmetry_group_IT_number 11
_symmetry_cell_setting 'monoclinic'
loop_
_space_group_symop_operation_xyz
x,y,z
-x,1/2+y,-z
-x,-y,-z
x,1/2-y,z
loop_
_atom_site_type_symbol
_atom_site_label
_atom_site_fract_x
_atom_site_fract_y
_atom_site_fract_z
Si Si1 0.060237 0.077516 0.898797
Si Si2 0.396120 0.914675 0.823931
Si Si3 0.238121 0.413963 0.315746
Si Si4 0.146498 0.917582 0.686514
Si Si5 0.933200 0.916945 0.824655
Si Si6 0.037198 0.581203 0.690476
Si Si7 0.417259 0.580817 0.670719
Si Si8 0.365345 0.918600 0.960115
O O1 0.042645 0.250000 0.866573
O O2 0.083476 0.011376 0.842336
O O3 0.157913 0.035133 0.114491
O O4 0.953154 0.001986 0.766322
O O5 0.432004 0.750000 0.882044
O O6 0.354207 0.949496 0.661699
O O7 0.326112 0.948204 0.798391
O O8 0.500000 0.000000 0.000000
O O9 0.273561 0.250000 0.352549
O O10 0.185604 0.423464 0.328025
O O11 0.342744 0.512291 0.479626
O O12 0.127627 0.750000 0.628934
O O13 0.119662 0.940987 0.743818
O O14 0.267753 0.962951 0.865846
O O15 0.076030 0.020080 0.515432
O O16 0.970631 0.750000 0.874533
O O17 0.000000 0.000000 0.000000
O O18 0.025140 0.750000 0.696616
O O19 0.430808 0.750000 0.672220
O O20 0.533014 0.511183 0.852783
O O21 0.395121 0.750000 0.019748
#
# Coordination Sequence:
#
# PCOD8070026 Si02
#       8
#     4   4   4   4   4   4   4   4
#     4  10  20  34  52  73  99 133 171 209 250 299
#     4   8  15  27  42  63  90 121 156 191 228 271
#     4   9  19  33  48  69  99 135 170 202 241 290
#     4   9  19  35  54  76 100 128 162 201 251 307
#     4   9  17  30  47  69  97 129 166 205 244 286
#     4  10  20  34  53  77 102 126 158 205 256 304
#     4  10  19  29  45  72 103 133 167 205 242 284
#     4   9  17  32  52  70  95 132 168 201 241 293
#
# _framework density 17.573101000000001
#
# number of rings (size 3 to 8) (size 9 to 14) (size 15 to 20)
#    0.000    2.750    0.000    2.250    0.000    5.500 
#    0.000    1.250    0.000    0.750    0.000    0.000 
#    0.000    0.000    0.000    0.000    0.000    0.000 
#
# Total GULP energy -396435.607510 kJ/mol
# GULP energy per Si atom -12388.612735 kJ/mol
# Density = 1.753310 g / cm^3
# Si number density = 17.573101 Si / 1000 Ang^3
#
#
#
# Elastic Constant Matrix: (Units=GPa)
#
#
# Indices 1 2 3 4 5 6 
#
# 1 88.8911 48.3442 49.8452 0.0000 0.5134 0.0000
# 2 48.3442 102.1262 56.2469 0.0000 -0.1007 0.0000
# 3 49.8452 56.2469 87.4169 0.0000 0.8680 0.0000
# 4 0.0000 0.0000 0.0000 27.9782 0.0000 -2.0027
# 5 0.5134 -0.1007 0.8680 0.0000 21.1727 0.0000
# 6 0.0000 0.0000 0.0000 -2.0027 0.0000 26.9365
#
#
#
# Elastic Compliance Matrix: (Units=1/GPa)
#
#
# Indices 1 2 3 4 5 6 
#
# 1 0.017714 -0.004373 -0.007285 0.000000 -0.000152 0.000000
# 2 -0.004373 0.016251 -0.007968 0.000000 0.000510 0.000000
# 3 -0.007285 -0.007968 0.020727 0.000000 -0.000711 0.000000
# 4 0.000000 0.000000 0.000000 0.035933 0.000000 0.002672
# 5 -0.000152 0.000510 -0.000711 0.000000 0.047266 0.000000
# 6 0.000000 0.000000 0.000000 0.002672 0.000000 0.037323
#
#
# Mechanical properties :
#
#
# Convention : Reuss Voigt Hill
#
# Bulk Modulus (GPa) = 64.76771 65.25630 65.01200
# Shear Modulus (GPa) = 22.76728 23.48402 23.12565
#
# Velocity S-wave (km/s) = 3.60332 3.65959 3.63156
# Velocity P-wave (km/s) = 7.36533 7.42103 7.39323
#
# Compressibility (1/GPa) = 0.01543979
#
# Stress axis : x y z
#
# Youngs Moduli (GPa) = 56.45201 61.53542 48.24564
#
# Poissons Ratio (x) = 0.26911 0.35148
# Poissons Ratio (y) = 0.24688 0.38441
# Poissons Ratio (z) = 0.41127 0.49030
#
# Static dielectric constant tensor:
#      x y z
#    x 2.704910 0.000000 -0.026070 
#    y 0.000000 3.367390 0.000000 
#    z -0.026070 0.000000 2.968440 
# 
# 
# High freq. dielectric constant tensor:
#      x y z
#    x 1.665060 0.000000 -0.003390 
#    y 0.000000 1.691330 0.000000 
#    z -0.003390 0.000000 1.655370 
# 
# From -- ./inp_files/56180.got.cif
#   From: 2010.06.25/outbox.cif.g09.slc.cpg/sg11_29_cif.got.tgz:56180.got - 2010.06.27 23:14:04.
