data_PCOD8070235
_publ_section_title
;
Structure prediction by ZEFSAII (Michael W. Deem and Ramdas Pophale) SiO2 
 PCOD8070235
Probable space group: P 21/M
;
_chemical_formula_sum "Si O2"
_cell_formula_units_Z 32
_cell_length_a 14.892044
_cell_length_b 8.845967
_cell_length_c 15.048794
_cell_angle_alpha 90.000000
_cell_angle_beta 101.549057
_cell_angle_gamma 90.000000
_cell_volume 1942.308501
_symmetry_space_group_name_H-M "P 21/M"
_symmetry_group_IT_number 11
_symmetry_cell_setting 'monoclinic'
loop_
_space_group_symop_operation_xyz
x,y,z
-x,1/2+y,-z
-x,-y,-z
x,1/2-y,z
loop_
_atom_site_type_symbol
_atom_site_label
_atom_site_fract_x
_atom_site_fract_y
_atom_site_fract_z
Si Si1 0.070761 0.927892 0.394911
Si Si2 0.592871 0.924217 0.128630
Si Si3 0.916882 0.928504 0.788609
Si Si4 0.609385 0.422598 0.948100
Si Si5 0.870326 0.572142 0.418763
Si Si6 0.196905 0.574690 0.084576
Si Si7 0.246110 0.928455 0.750455
Si Si8 0.116915 0.570913 0.882821
O O1 0.085195 0.750000 0.398931
O O2 0.964744 0.973209 0.388369
O O3 0.105316 0.994244 0.309122
O O4 0.132692 0.000062 0.484204
O O5 0.617735 0.750000 0.148274
O O6 0.484858 0.955896 0.123106
O O7 0.649232 0.023393 0.210481
O O8 0.620001 0.968295 0.033967
O O9 0.918122 0.750000 0.775522
O O10 0.014307 0.988130 0.845098
O O11 0.838049 0.975063 0.841103
O O12 0.610489 0.250000 0.984451
O O13 0.693684 0.449148 0.898202
O O14 0.859340 0.750000 0.425788
O O15 0.786157 0.504904 0.346919
O O16 0.171554 0.750000 0.094953
O O17 0.150595 0.511708 0.985036
O O18 0.238669 0.750000 0.738455
O O19 0.183601 0.991163 0.819013
O O20 0.121913 0.750000 0.882944
#
# Coordination Sequence:
#
# PCOD8070235 Si02
#       8
#     4   4   4   4   4   4   4   4
#     4  10  20  34  51  72  97 131 166 201 247 297
#     4  10  19  30  48  74  99 125 164 210 251 295
#     4  11  21  33  48  71  99 132 170 211 247 282
#     4   9  18  33  50  68  96 132 166 205 253 297
#     4  10  20  33  51  75 100 126 162 208 248 289
#     4  10  19  34  50  67  94 135 175 206 244 293
#     4  11  19  32  51  72 100 136 167 198 247 302
#     4   9  18  31  47  66  96 134 170 201 237 285
#
# _framework density 16.475238999999998
#
# number of rings (size 3 to 8) (size 9 to 14) (size 15 to 20)
#    0.000    2.000    2.500    2.250    0.000    2.000 
#    0.000    0.625    0.000    0.000    0.000    0.875 
#    0.000    0.000    0.000    0.000    0.000    0.000 
#
# Total GULP energy -396903.108346 kJ/mol
# GULP energy per Si atom -12403.222136 kJ/mol
# Density = 1.643774 g / cm^3
# Si number density = 16.475239 Si / 1000 Ang^3
#
#
#
# Elastic Constant Matrix: (Units=GPa)
#
#
# Indices 1 2 3 4 5 6 
#
# 1 89.4183 29.3938 53.5385 0.0000 9.1965 0.0000
# 2 29.3938 62.2097 40.7805 0.0000 4.3827 0.0000
# 3 53.5385 40.7805 122.5782 0.0000 7.1602 0.0000
# 4 0.0000 0.0000 0.0000 29.6051 0.0000 1.6300
# 5 9.1965 4.3827 7.1602 0.0000 20.8431 0.0000
# 6 0.0000 0.0000 0.0000 1.6300 0.0000 23.0851
#
#
#
# Elastic Compliance Matrix: (Units=1/GPa)
#
#
# Indices 1 2 3 4 5 6 
#
# 1 0.016197 -0.003674 -0.005592 0.000000 -0.004453 0.000000
# 2 -0.003674 0.021474 -0.005481 0.000000 -0.001012 0.000000
# 3 -0.005592 -0.005481 0.012463 0.000000 -0.000661 0.000000
# 4 0.000000 0.000000 0.000000 0.033910 0.000000 -0.002394
# 5 -0.004453 -0.001012 -0.000661 0.000000 0.050382 0.000000
# 6 0.000000 0.000000 0.000000 -0.002394 0.000000 0.043487
#
#
# Mechanical properties :
#
#
# Convention : Reuss Voigt Hill
#
# Bulk Modulus (GPa) = 48.44645 57.95911 53.20278
# Shear Modulus (GPa) = 23.33320 24.73954 24.03637
#
# Velocity S-wave (km/s) = 3.76740 3.87928 3.82375
# Velocity P-wave (km/s) = 6.95657 7.43781 7.20121
#
# Compressibility (1/GPa) = 0.02064135
#
# Stress axis : x y z
#
# Youngs Moduli (GPa) = 61.73889 46.56693 80.24014
#
# Poissons Ratio (x) = 0.17106 0.44872
# Poissons Ratio (y) = 0.22680 0.43978
# Poissons Ratio (z) = 0.34526 0.25522
#
# Static dielectric constant tensor:
#      x y z
#    x 3.071230 0.000000 0.140700 
#    y 0.000000 3.039190 0.000000 
#    z 0.140700 0.000000 3.017770 
# 
# 
# High freq. dielectric constant tensor:
#      x y z
#    x 1.615720 0.000000 0.013400 
#    y 0.000000 1.636570 0.000000 
#    z 0.013400 0.000000 1.620860 
# 
# From -- ./inp_files/51223.got.cif
#   From: 2010.06.25/outbox.cif.g09.slc.cpg/sg11_26_cif.got.tgz:51223.got - 2010.06.27 23:14:04.
