data_PCOD8070714
_publ_section_title
;
Structure prediction by ZEFSAII (Michael W. Deem and Ramdas Pophale) SiO2 
 PCOD8070714
Probable space group: P 21/M
;
_chemical_formula_sum "Si O2"
_cell_formula_units_Z 28
_cell_length_a 10.330711
_cell_length_b 8.920288
_cell_length_c 30.235075
_cell_angle_alpha 90.000000
_cell_angle_beta 33.244408
_cell_angle_gamma 90.000000
_cell_volume 1527.454790
_symmetry_space_group_name_H-M "P 21/M"
_symmetry_group_IT_number 11
_symmetry_cell_setting 'monoclinic'
loop_
_space_group_symop_operation_xyz
x,y,z
-x,1/2+y,-z
-x,-y,-z
x,1/2-y,z
loop_
_atom_site_type_symbol
_atom_site_label
_atom_site_fract_x
_atom_site_fract_y
_atom_site_fract_z
Si Si1 0.803909 0.072389 0.674013
Si Si2 0.861536 0.576743 0.916164
Si Si3 0.619659 0.421408 0.905740
Si Si4 0.677641 0.572397 0.231109
Si Si5 0.867760 0.574512 0.497451
Si Si6 0.074825 0.924438 0.263847
Si Si7 0.340182 0.926295 0.668510
O O1 0.788427 0.250000 0.680306
O O2 0.556200 0.009363 0.726054
O O3 0.850928 0.010264 0.709670
O O4 0.016068 0.018104 0.581569
O O5 0.931265 0.750000 0.894680
O O6 0.767468 0.530754 0.894756
O O7 0.094887 0.482464 0.861755
O O8 0.659838 0.543491 0.010433
O O9 0.669088 0.250000 0.906665
O O10 0.700581 0.448286 0.832419
O O11 0.676024 0.750000 0.234544
O O12 0.696916 0.508669 0.274742
O O13 0.905934 0.750000 0.492032
O O14 0.593659 0.530450 0.575669
O O15 0.000000 0.500000 0.500000
O O16 0.002793 0.750000 0.286779
O O17 0.851353 0.018219 0.311685
O O18 0.315064 0.750000 0.683503
#
# Coordination Sequence:
#
# PCOD8070714 Si02
#       7
#     4   4   4   4   4   4   4
#     4   9  20  37  57  79 107 144 183 223 265 320
#     4  10  19  31  51  80 111 137 176 230 272 310
#     4   9  18  32  52  78 107 143 180 218 267 323
#     4  11  20  34  56  80 106 142 186 222 265 324
#     4  10  20  36  56  80 110 141 180 224 268 315
#     4  10  20  37  58  79 107 145 184 218 265 326
#     4  11  22  34  54  83 111 139 177 228 274 315
#
# _framework density 18.331147000000001
#
# number of rings (size 3 to 8) (size 9 to 14) (size 15 to 20)
#    0.000    2.000    2.857    1.286    0.000    1.714 
#    0.000    2.857    0.000    0.000    0.000    0.000 
#    0.000    0.000    0.000    0.000    0.000    0.000 
#
# Total GULP energy -347226.675298 kJ/mol
# GULP energy per Si atom -12400.952689 kJ/mol
# Density = 1.828942 g / cm^3
# Si number density = 18.331147 Si / 1000 Ang^3
#
#
#
# Elastic Constant Matrix: (Units=GPa)
#
#
# Indices 1 2 3 4 5 6 
#
# 1 116.2273 28.1958 70.1577 0.0000 -2.4835 0.0000
# 2 28.1958 53.6143 39.5287 0.0000 -7.3754 0.0000
# 3 70.1577 39.5287 155.5346 0.0000 -9.2296 0.0000
# 4 0.0000 0.0000 0.0000 25.3624 0.0000 -5.3825
# 5 -2.4835 -7.3754 -9.2296 0.0000 34.1434 0.0000
# 6 0.0000 0.0000 0.0000 -5.3825 0.0000 17.3104
#
#
#
# Elastic Compliance Matrix: (Units=1/GPa)
#
#
# Indices 1 2 3 4 5 6 
#
# 1 0.012215 -0.003029 -0.004803 0.000000 -0.001064 0.000000
# 2 -0.003029 0.024107 -0.004537 0.000000 0.003761 0.000000
# 3 -0.004803 -0.004537 0.009828 0.000000 0.001327 0.000000
# 4 0.000000 0.000000 0.000000 0.042214 0.000000 0.013126
# 5 -0.001064 0.003761 0.001327 0.000000 0.030382 0.000000
# 6 0.000000 0.000000 0.000000 0.013126 0.000000 0.061850
#
#
# Mechanical properties :
#
#
# Convention : Reuss Voigt Hill
#
# Bulk Modulus (GPa) = 46.70449 66.79338 56.74894
# Shear Modulus (GPa) = 23.53238 27.86285 25.69761
#
# Velocity S-wave (km/s) = 3.58681 3.90291 3.74820
# Velocity P-wave (km/s) = 6.53354 7.53834 7.05385
#
# Compressibility (1/GPa) = 0.02141122
#
# Stress axis : x y z
#
# Youngs Moduli (GPa) = 81.86430 41.48125 101.74999
#
# Poissons Ratio (x) = 0.12565 0.48874
# Poissons Ratio (y) = 0.24797 0.46167
# Poissons Ratio (z) = 0.39322 0.18821
#
# Static dielectric constant tensor:
#      x y z
#    x 3.281430 0.000000 -0.181030 
#    y 0.000000 3.288300 0.000000 
#    z -0.181030 0.000000 3.740800 
# 
# 
# High freq. dielectric constant tensor:
#      x y z
#    x 1.689700 0.000000 -0.010480 
#    y 0.000000 1.700350 0.000000 
#    z -0.010480 0.000000 1.729680 
# 
# From -- ./inp_files/70845.got.cif
#   From: 2010.06.25/outbox.cif.g09.slc.cpg/sg11_36_cif.got.tgz:70845.got - 2010.06.27 23:14:04.
