data_PCOD8070579
_publ_section_title
;
Structure prediction by ZEFSAII (Michael W. Deem and Ramdas Pophale) SiO2 
 PCOD8070579
Probable space group: P 21/M
;
_chemical_formula_sum "Si O2"
_cell_formula_units_Z 32
_cell_length_a 27.768278
_cell_length_b 8.881093
_cell_length_c 22.567000
_cell_angle_alpha 90.000000
_cell_angle_beta 17.833875
_cell_angle_gamma 90.000000
_cell_volume 1704.421059
_symmetry_space_group_name_H-M "P 21/M"
_symmetry_group_IT_number 11
_symmetry_cell_setting 'monoclinic'
loop_
_space_group_symop_operation_xyz
x,y,z
-x,1/2+y,-z
-x,-y,-z
x,1/2-y,z
loop_
_atom_site_type_symbol
_atom_site_label
_atom_site_fract_x
_atom_site_fract_y
_atom_site_fract_z
Si Si1 0.367994 0.074260 0.389583
Si Si2 0.250930 0.927274 0.896259
Si Si3 0.455109 0.071728 0.919617
Si Si4 0.574117 0.073063 0.556093
Si Si5 0.063024 0.074854 0.673474
Si Si6 0.833242 0.428840 0.680569
Si Si7 0.759427 0.426867 0.634615
Si Si8 0.656698 0.077195 0.335493
O O1 0.409238 0.250000 0.337388
O O2 0.197830 0.036923 0.562644
O O3 0.499489 0.981681 0.199454
O O4 0.362719 0.021152 0.463048
O O5 0.282184 0.750000 0.870748
O O6 0.217004 0.956249 0.864917
O O7 0.397295 0.023105 0.747831
O O8 0.099908 0.985660 0.108903
O O9 0.430858 0.250000 0.949058
O O10 0.590866 0.018483 0.806667
O O11 0.293112 0.990758 0.125167
O O12 0.575773 0.250000 0.569141
O O13 0.692950 0.031486 0.361522
O O14 0.052696 0.250000 0.672239
O O15 0.097518 0.995043 0.570774
O O16 0.844623 0.250000 0.672250
O O17 0.777866 0.481570 0.680288
O O18 0.000000 0.500000 0.500000
O O19 0.772916 0.250000 0.613277
O O20 0.613585 0.250000 0.387578
O O21 0.500000 0.000000 0.500000
#
# Coordination Sequence:
#
# PCOD8070579 Si02
#       8
#     4   4   4   4   4   4   4   4
#     4  10  20  35  53  75 103 136 170 208 253 306
#     4   9  17  32  52  74 100 133 171 215 261 306
#     4  10  20  37  59  80 101 132 172 214 256 303
#     4  10  19  31  49  75 102 133 172 214 257 306
#     4   9  19  34  54  77 101 131 171 212 253 302
#     4  11  23  38  55  80 111 141 171 209 254 301
#     4   9  20  37  57  78 103 135 171 208 252 304
#     4   8  15  28  47  69  97 131 169 210 255 304
#
# _framework density 18.774702999999999
#
# number of rings (size 3 to 8) (size 9 to 14) (size 15 to 20)
#    0.000    2.500    0.000    1.875    0.000    4.000 
#    0.000    3.125    0.000    0.000    0.000    0.000 
#    0.000    0.000    0.000    0.000    0.000    0.000 
#
# Total GULP energy -396626.183042 kJ/mol
# GULP energy per Si atom -12394.568220 kJ/mol
# Density = 1.873197 g / cm^3
# Si number density = 18.774703 Si / 1000 Ang^3
#
#
#
# Elastic Constant Matrix: (Units=GPa)
#
#
# Indices 1 2 3 4 5 6 
#
# 1 56.3000 17.8728 -13.2451 0.0000 8.5069 0.0000
# 2 17.8728 41.8465 9.9088 0.0000 0.8898 0.0000
# 3 -13.2451 9.9088 49.6485 0.0000 3.0379 0.0000
# 4 0.0000 0.0000 0.0000 27.9797 0.0000 3.0863
# 5 8.5069 0.8898 3.0379 0.0000 21.9392 0.0000
# 6 0.0000 0.0000 0.0000 3.0863 0.0000 30.0850
#
#
#
# Elastic Compliance Matrix: (Units=1/GPa)
#
#
# Indices 1 2 3 4 5 6 
#
# 1 0.026081 -0.013343 0.010294 0.000000 -0.010997 0.000000
# 2 -0.013343 0.031911 -0.010253 0.000000 0.005299 0.000000
# 3 0.010294 -0.010253 0.025368 0.000000 -0.007088 0.000000
# 4 0.000000 0.000000 0.000000 0.036149 0.000000 -0.003708
# 5 -0.010997 0.005299 -0.007088 0.000000 0.050611 0.000000
# 6 0.000000 0.000000 0.000000 -0.003708 0.000000 0.033620
#
#
# Mechanical properties :
#
#
# Convention : Reuss Voigt Hill
#
# Bulk Modulus (GPa) = 17.61929 19.65199 18.63564
# Shear Modulus (GPa) = 20.05921 24.88468 22.47194
#
# Velocity S-wave (km/s) = 3.27221 3.64460 3.46342
# Velocity P-wave (km/s) = 4.86636 5.31045 5.09325
#
# Compressibility (1/GPa) = 0.05675596
#
# Stress axis : x y z
#
# Youngs Moduli (GPa) = 38.34175 31.33737 39.42026
#
# Poissons Ratio (x) = 0.41814 -0.40578
# Poissons Ratio (y) = 0.51160 0.40416
# Poissons Ratio (z) = -0.39468 0.32129
#
# Static dielectric constant tensor:
#      x y z
#    x 3.649970 0.000000 0.371670 
#    y 0.000000 3.320230 0.000000 
#    z 0.371670 0.000000 3.608850 
# 
# 
# High freq. dielectric constant tensor:
#      x y z
#    x 1.727470 0.000000 0.024280 
#    y 0.000000 1.732070 0.000000 
#    z 0.024280 0.000000 1.723040 
# 
# From -- ./inp_files/66971.got.cif
#   From: 2010.06.25/outbox.cif.g09.slc.cpg/sg11_34_cif.got.tgz:66971.got - 2010.06.27 23:14:04.
