data_PCOD8070800
_publ_section_title
;
Structure prediction by ZEFSAII (Michael W. Deem and Ramdas Pophale) SiO2 
 PCOD8070800
Probable space group: P 21/M
;
_chemical_formula_sum "Si O2"
_cell_formula_units_Z 28
_cell_length_a 14.946792
_cell_length_b 8.976632
_cell_length_c 18.081933
_cell_angle_alpha 90.000000
_cell_angle_beta 42.430770
_cell_angle_gamma 90.000000
_cell_volume 1636.877768
_symmetry_space_group_name_H-M "P 21/M"
_symmetry_group_IT_number 11
_symmetry_cell_setting 'monoclinic'
loop_
_space_group_symop_operation_xyz
x,y,z
-x,1/2+y,-z
-x,-y,-z
x,1/2-y,z
loop_
_atom_site_type_symbol
_atom_site_label
_atom_site_fract_x
_atom_site_fract_y
_atom_site_fract_z
Si Si1 0.802525 0.925515 0.262634
Si Si2 0.001597 0.582428 0.385320
Si Si3 0.405093 0.923634 0.328066
Si Si4 0.941487 0.420272 0.966725
Si Si5 0.200595 0.417747 0.356485
Si Si6 0.206218 0.576540 0.581925
Si Si7 0.320767 0.925283 0.806699
O O1 0.772140 0.750000 0.284164
O O2 0.963039 0.959860 0.161151
O O3 0.747348 0.001909 0.370109
O O4 0.725666 0.994125 0.239842
O O5 0.036046 0.750000 0.338624
O O6 0.906863 0.586022 0.513487
O O7 0.930494 0.497336 0.361764
O O8 0.137194 0.497005 0.323360
O O9 0.429984 0.750000 0.299698
O O10 0.323340 0.953039 0.452580
O O11 0.327671 0.988432 0.304672
O O12 0.542252 0.008998 0.249548
O O13 0.962047 0.250000 0.972686
O O14 0.783786 0.456138 0.061253
O O15 0.000000 0.500000 0.000000
O O16 0.243741 0.250000 0.309146
O O17 0.179676 0.750000 0.609802
O O18 0.335499 0.750000 0.781596
#
# Coordination Sequence:
#
# PCOD8070800 Si02
#       7
#     4   4   4   4   4   4   4
#     4  10  19  32  49  68  91 119 152 189 229 271
#     4   9  16  27  44  65  89 118 151 187 226 266
#     4  10  20  32  45  65  94 125 156 188 223 267
#     4   8  16  30  48  68  87 110 145 190 232 268
#     4   9  16  27  44  65  89 118 151 187 226 266
#     4  10  20  32  45  65  94 125 156 188 223 267
#     4  10  19  32  49  68  91 119 152 189 229 271
#
# _framework density 17.105737000000001
#
# number of rings (size 3 to 8) (size 9 to 14) (size 15 to 20)
#    0.000    2.571    0.000    2.571    0.000    6.857 
#    0.000    0.000    0.000    0.000    0.000    1.000 
#    0.000    0.000    0.000    0.000    0.000    0.000 
#
# Total GULP energy -346981.435752 kJ/mol
# GULP energy per Si atom -12392.194134 kJ/mol
# Density = 1.706680 g / cm^3
# Si number density = 17.105737 Si / 1000 Ang^3
#
#
#
# Elastic Constant Matrix: (Units=GPa)
#
#
# Indices 1 2 3 4 5 6 
#
# 1 60.8187 20.9411 16.9032 0.0000 -23.1723 0.0000
# 2 20.9411 93.3157 22.7061 0.0000 -13.3165 0.0000
# 3 16.9032 22.7061 35.8157 0.0000 -17.1405 0.0000
# 4 0.0000 0.0000 0.0000 18.0588 0.0000 -4.5160
# 5 -23.1723 -13.3165 -17.1405 0.0000 13.9625 0.0000
# 6 0.0000 0.0000 0.0000 -4.5160 0.0000 35.4132
#
#
#
# Elastic Compliance Matrix: (Units=1/GPa)
#
#
# Indices 1 2 3 4 5 6 
#
# 1 0.076013 -0.003718 0.060992 0.000000 0.197481 0.000000
# 2 -0.003718 0.013022 -0.008509 0.000000 -0.004196 0.000000
# 3 0.060992 -0.008509 0.119006 0.000000 0.239202 0.000000
# 4 0.000000 0.000000 0.000000 0.057199 0.000000 0.007294
# 5 0.197481 -0.004196 0.239202 0.000000 0.689010 0.000000
# 6 0.000000 0.000000 0.000000 0.007294 0.000000 0.029168
#
#
# Mechanical properties :
#
#
# Convention : Reuss Voigt Hill
#
# Bulk Modulus (GPa) = 3.27255 34.56122 18.91689
# Shear Modulus (GPa) = 5.06203 22.11354 13.58779
#
# Velocity S-wave (km/s) = 1.72212 3.59939 2.82146
# Velocity P-wave (km/s) = 2.42312 6.12556 4.65800
#
# Compressibility (1/GPa) = 0.30557175
#
# Stress axis : x y z
#
# Youngs Moduli (GPa) = 13.15572 76.79118 8.40291
#
# Poissons Ratio (x) = 0.28548 -0.51251
# Poissons Ratio (y) = 0.04891 0.07150
# Poissons Ratio (z) = -0.80240 0.65345
#
# Static dielectric constant tensor:
#      x y z
#    x 3.109090 0.000000 -0.273130 
#    y 0.000000 3.416760 0.000000 
#    z -0.273130 0.000000 3.608830 
# 
# 
# High freq. dielectric constant tensor:
#      x y z
#    x 1.646480 0.000000 -0.015650 
#    y 0.000000 1.682090 0.000000 
#    z -0.015650 0.000000 1.624220 
# 
# From -- ./inp_files/37124.got.cif
#   From: 2010.06.25/outbox.cif.g09.slc.cpg/sg11_19_cif.got.tgz:37124.got - 2010.06.27 23:14:04.
