data_PCOD8070892
_publ_section_title
;
Structure prediction by ZEFSAII (Michael W. Deem and Ramdas Pophale) SiO2 
 PCOD8070892
Probable space group: P 21/M
;
_chemical_formula_sum "Si O2"
_cell_formula_units_Z 28
_cell_length_a 23.478748
_cell_length_b 13.471207
_cell_length_c 5.056487
_cell_angle_alpha 90.000000
_cell_angle_beta 97.168163
_cell_angle_gamma 90.000000
_cell_volume 1586.801645
_symmetry_space_group_name_H-M "P 21/M"
_symmetry_group_IT_number 11
_symmetry_cell_setting 'monoclinic'
loop_
_space_group_symop_operation_xyz
x,y,z
-x,1/2+y,-z
-x,-y,-z
x,1/2-y,z
loop_
_atom_site_type_symbol
_atom_site_label
_atom_site_fract_x
_atom_site_fract_y
_atom_site_fract_z
Si Si1 0.117207 0.447877 0.102544
Si Si2 0.496099 0.365365 0.228786
Si Si3 0.951469 0.750000 0.006459
Si Si4 0.434215 0.055960 0.687390
Si Si5 0.237927 0.364360 0.077150
Si Si6 0.935320 0.461291 0.429121
Si Si7 0.687593 0.864143 0.379072
Si Si8 0.026656 0.750000 0.548241
O O1 0.087900 0.342904 0.063659
O O2 0.087370 0.521682 0.879022
O O3 0.184711 0.437666 0.090411
O O4 0.107787 0.487275 0.392313
O O5 0.515052 0.250000 0.264897
O O6 0.550574 0.438395 0.305578
O O7 0.447574 0.392938 0.414362
O O8 0.470501 0.384277 0.925126
O O9 0.972451 0.750000 0.320344
O O10 0.004709 0.750000 0.836819
O O11 0.366693 0.065207 0.702688
O O12 0.217567 0.250000 0.086621
O O13 0.286838 0.387018 0.319319
O O14 0.263481 0.388325 0.805507
O O15 0.933614 0.344424 0.481726
O O16 0.000000 0.500000 0.500000
O O17 0.667392 0.750000 0.341752
#
# Coordination Sequence:
#
# PCOD8070892 Si02
#       8
#     4   4   2   4   4   4   4   2
#     4  12  22  37  55  80 108 138 170 210 264 310
#     4  10  19  32  51  78 110 143 178 212 256 310
#     4  12  20  34  58  76 112 136 164 214 249 314
#     4  10  20  32  51  79 110 143 174 213 262 309
#     4  10  21  34  52  78 104 135 173 211 258 312
#     4  12  23  37  55  81 106 138 169 207 263 317
#     4  10  19  32  50  75 107 139 171 212 260 306
#     4  12  24  36  54  82 106 134 172 208 249 324
#
# _framework density 17.645558000000001
#
# number of rings (size 3 to 8) (size 9 to 14) (size 15 to 20)
#    0.000    1.143    3.571    4.286    0.000    1.143 
#    0.000    0.000    0.000    0.000   11.143    0.000 
#    0.000    0.000    0.000    0.000    0.000    0.000 
#
# Total GULP energy -347332.736029 kJ/mol
# GULP energy per Si atom -12404.740572 kJ/mol
# Density = 1.760540 g / cm^3
# Si number density = 17.645558 Si / 1000 Ang^3
#
#
#
# Elastic Constant Matrix: (Units=GPa)
#
#
# Indices 1 2 3 4 5 6 
#
# 1 85.9216 34.1808 3.9302 0.0000 -4.3693 0.0000
# 2 34.1808 118.7364 13.2445 0.0000 0.3265 0.0000
# 3 3.9302 13.2445 67.1345 0.0000 -6.6921 0.0000
# 4 0.0000 0.0000 0.0000 28.6620 0.0000 1.9255
# 5 -4.3693 0.3265 -6.6921 0.0000 19.0595 0.0000
# 6 0.0000 0.0000 0.0000 1.9255 0.0000 26.7959
#
#
#
# Elastic Compliance Matrix: (Units=1/GPa)
#
#
# Indices 1 2 3 4 5 6 
#
# 1 0.013333 -0.003881 0.000307 0.000000 0.003231 0.000000
# 2 -0.003881 0.009752 -0.001867 0.000000 -0.001713 0.000000
# 3 0.000307 -0.001867 0.015809 0.000000 0.005653 0.000000
# 4 0.000000 0.000000 0.000000 0.035059 0.000000 -0.002519
# 5 0.003231 -0.001713 0.005653 0.000000 0.055222 0.000000
# 6 0.000000 0.000000 0.000000 -0.002519 0.000000 0.037500
#
#
# Mechanical properties :
#
#
# Convention : Reuss Voigt Hill
#
# Bulk Modulus (GPa) = 35.69956 41.61150 38.65553
# Shear Modulus (GPa) = 26.75287 29.59929 28.17608
#
# Velocity S-wave (km/s) = 3.89797 4.10009 4.00031
# Velocity P-wave (km/s) = 6.36665 6.78582 6.57958
#
# Compressibility (1/GPa) = 0.02801155
#
# Stress axis : x y z
#
# Youngs Moduli (GPa) = 75.00309 102.53944 63.25336
#
# Poissons Ratio (x) = 0.39798 -0.01943
# Poissons Ratio (y) = 0.29111 0.11812
# Poissons Ratio (z) = -0.02304 0.19149
#
# Static dielectric constant tensor:
#      x y z
#    x 3.063770 0.000000 -0.063620 
#    y 0.000000 3.311180 0.000000 
#    z -0.063620 0.000000 3.478320 
# 
# 
# High freq. dielectric constant tensor:
#      x y z
#    x 1.663010 0.000000 -0.005430 
#    y 0.000000 1.667910 0.000000 
#    z -0.005430 0.000000 1.705980 
# 
# From -- ./inp_files/8645.got.cif
#   From: 2010.06.25/outbox.cif.g09.slc.cpg/sg11_5_cif.got.tgz:8645.got - 2010.06.27 23:14:04.
