data_PCOD8070480
_publ_section_title
;
Structure prediction by ZEFSAII (Michael W. Deem and Ramdas Pophale) SiO2 
 PCOD8070480
Probable space group: P 21/M
;
_chemical_formula_sum "Si O2"
_cell_formula_units_Z 32
_cell_length_a 22.315793
_cell_length_b 9.041842
_cell_length_c 11.453282
_cell_angle_alpha 90.000000
_cell_angle_beta 130.859691
_cell_angle_gamma 90.000000
_cell_volume 1747.838410
_symmetry_space_group_name_H-M "P 21/M"
_symmetry_group_IT_number 11
_symmetry_cell_setting 'monoclinic'
loop_
_space_group_symop_operation_xyz
x,y,z
-x,1/2+y,-z
-x,-y,-z
x,1/2-y,z
loop_
_atom_site_type_symbol
_atom_site_label
_atom_site_fract_x
_atom_site_fract_y
_atom_site_fract_z
Si Si1 0.922706 0.921887 0.044977
Si Si2 0.100755 0.577758 0.224641
Si Si3 0.749360 0.074846 0.440592
Si Si4 0.206464 0.574874 0.988755
Si Si5 0.391960 0.923179 0.574799
Si Si6 0.652091 0.577476 0.714101
Si Si7 0.707368 0.075438 0.134386
Si Si8 0.568233 0.581107 0.845591
O O1 0.901589 0.750000 0.023978
O O2 0.891102 0.984767 0.882531
O O3 0.880094 0.006707 0.097188
O O4 0.016332 0.950170 0.178212
O O5 0.112058 0.750000 0.206868
O O6 0.167879 0.520176 0.399085
O O7 0.748251 0.250000 0.432964
O O8 0.676485 0.019150 0.426361
O O9 0.740653 0.010227 0.298585
O O10 0.203684 0.750000 0.998406
O O11 0.266018 0.509205 0.160951
O O12 0.233612 0.525153 0.893971
O O13 0.382820 0.750000 0.532786
O O14 0.475687 0.954734 0.744332
O O15 0.389283 0.016433 0.453665
O O16 0.671196 0.750000 0.724550
O O17 0.591842 0.545368 0.742582
O O18 0.700963 0.250000 0.131368
O O19 0.618808 0.016621 0.999613
O O20 0.587416 0.750000 0.899983
#
# Coordination Sequence:
#
# PCOD8070480 Si02
#       8
#     4   4   4   4   4   4   4   4
#     4  10  19  31  51  79 106 129 159 199 243 294
#     4   9  18  33  53  76 104 135 161 194 244 296
#     4   9  18  34  53  71  94 127 167 205 242 288
#     4  10  19  32  51  72  96 129 167 203 244 294
#     4  10  19  31  50  74 100 131 164 199 246 302
#     4  10  19  31  48  72 103 131 160 203 248 292
#     4   9  19  35  53  70  91 127 172 210 241 284
#     4   9  19  33  48  71 102 132 161 200 250 295
#
# _framework density 18.308329000000001
#
# number of rings (size 3 to 8) (size 9 to 14) (size 15 to 20)
#    0.000    2.500    0.000    2.250    0.000    3.500 
#    0.000    1.875    0.000    0.000    0.000    0.000 
#    0.000    0.000    0.000    0.000    0.000    0.000 
#
# Total GULP energy -396854.333942 kJ/mol
# GULP energy per Si atom -12401.697936 kJ/mol
# Density = 1.826666 g / cm^3
# Si number density = 18.308329 Si / 1000 Ang^3
#
#
#
# Elastic Constant Matrix: (Units=GPa)
#
#
# Indices 1 2 3 4 5 6 
#
# 1 94.5099 34.2907 68.4682 0.0000 15.8236 0.0000
# 2 34.2907 54.4975 35.8093 0.0000 2.6418 0.0000
# 3 68.4682 35.8093 136.2338 0.0000 1.6923 0.0000
# 4 0.0000 0.0000 0.0000 23.3749 0.0000 4.7867
# 5 15.8236 2.6418 1.6923 0.0000 25.0910 0.0000
# 6 0.0000 0.0000 0.0000 4.7867 0.0000 24.3974
#
#
#
# Elastic Compliance Matrix: (Units=1/GPa)
#
#
# Indices 1 2 3 4 5 6 
#
# 1 0.021665 -0.007230 -0.008835 0.000000 -0.012306 0.000000
# 2 -0.007230 0.024688 -0.002882 0.000000 0.002155 0.000000
# 3 -0.008835 -0.002882 0.012476 0.000000 0.005034 0.000000
# 4 0.000000 0.000000 0.000000 0.044572 0.000000 -0.008745
# 5 -0.012306 0.002155 0.005034 0.000000 0.047049 0.000000
# 6 0.000000 0.000000 0.000000 -0.008745 0.000000 0.042704
#
#
# Mechanical properties :
#
#
# Convention : Reuss Voigt Hill
#
# Bulk Modulus (GPa) = 47.76940 62.48641 55.12791
# Shear Modulus (GPa) = 21.00596 24.35085 22.67840
#
# Velocity S-wave (km/s) = 3.39092 3.65093 3.52333
# Velocity P-wave (km/s) = 6.44045 7.20948 6.83579
#
# Compressibility (1/GPa) = 0.02093390
#
# Stress axis : x y z
#
# Youngs Moduli (GPa) = 46.15689 40.50500 80.15519
#
# Poissons Ratio (x) = 0.29286 0.70818
# Poissons Ratio (y) = 0.33372 0.23104
# Poissons Ratio (z) = 0.40780 0.11675
#
# Static dielectric constant tensor:
#      x y z
#    x 3.514230 0.000000 0.052240 
#    y 0.000000 3.252130 0.000000 
#    z 0.052240 0.000000 3.409180 
# 
# 
# High freq. dielectric constant tensor:
#      x y z
#    x 1.713880 0.000000 0.008670 
#    y 0.000000 1.698400 0.000000 
#    z 0.008670 0.000000 1.699740 
# 
# From -- ./inp_files/42881.got.cif
#   From: 2010.06.25/outbox.cif.g09.slc.cpg/sg11_22_cif.got.tgz:42881.got - 2010.06.27 23:14:04.
