data_PCOD8070726
_publ_section_title
;
Structure prediction by ZEFSAII (Michael W. Deem and Ramdas Pophale) SiO2 
 PCOD8070726
Probable space group: P 21/M
;
_chemical_formula_sum "Si O2"
_cell_formula_units_Z 28
_cell_length_a 21.572363
_cell_length_b 9.091091
_cell_length_c 16.438772
_cell_angle_alpha 90.000000
_cell_angle_beta 153.691786
_cell_angle_gamma 90.000000
_cell_volume 1428.836586
_symmetry_space_group_name_H-M "P 21/M"
_symmetry_group_IT_number 11
_symmetry_cell_setting 'monoclinic'
loop_
_space_group_symop_operation_xyz
x,y,z
-x,1/2+y,-z
-x,-y,-z
x,1/2-y,z
loop_
_atom_site_type_symbol
_atom_site_label
_atom_site_fract_x
_atom_site_fract_y
_atom_site_fract_z
Si Si1 0.355291 0.091348 0.371105
Si Si2 0.773657 0.925093 0.511487
Si Si3 0.199179 0.078689 0.786494
Si Si4 0.417426 0.083688 0.277331
Si Si5 0.907927 0.590691 0.830646
Si Si6 0.940391 0.920893 0.549281
Si Si7 0.545607 0.424435 0.842172
O O1 0.437496 0.250000 0.466641
O O2 0.301570 0.063380 0.213581
O O3 0.234104 0.115710 0.290748
O O4 0.443230 0.953649 0.507249
O O5 0.768575 0.750000 0.511345
O O6 0.868526 0.986449 0.697935
O O7 0.846934 0.978523 0.514627
O O8 0.612702 0.982207 0.327469
O O9 0.214705 0.250000 0.825643
O O10 0.151484 0.051025 0.638529
O O11 0.085347 0.010622 0.714906
O O12 0.349225 0.999497 0.970181
O O13 0.422299 0.250000 0.248249
O O14 0.399318 0.971430 0.182146
O O15 0.979492 0.750000 0.898778
O O16 0.000000 0.500000 0.000000
O O17 0.979162 0.750000 0.604835
O O18 0.555591 0.250000 0.862559
#
# Coordination Sequence:
#
# PCOD8070726 Si02
#       7
#     4   4   4   4   4   4   4
#     4   9  18  34  52  72 103 142 179 221 273 325
#     4   9  19  37  60  82 109 148 192 234 277 338
#     4  10  21  37  58  87 118 144 182 235 283 335
#     4  10  19  31  52  79 106 136 179 228 273 320
#     4  10  20  36  54  75 106 142 183 226 272 324
#     4   9  19  39  63  84 110 149 190 228 280 342
#     4  11  21  36  58  83 115 152 190 230 283 338
#
# _framework density 19.596361000000002
#
# number of rings (size 3 to 8) (size 9 to 14) (size 15 to 20)
#    0.000    2.286    1.429    1.286    0.000    3.429 
#    0.000    5.000    0.000    0.000    0.000    0.000 
#    0.000    0.000    0.000    0.000    0.000    0.000 
#
# Total GULP energy -346875.511030 kJ/mol
# GULP energy per Si atom -12388.411108 kJ/mol
# Density = 1.955176 g / cm^3
# Si number density = 19.596361 Si / 1000 Ang^3
#
#
#
# Elastic Constant Matrix: (Units=GPa)
#
#
# Indices 1 2 3 4 5 6 
#
# 1 117.2997 27.4152 39.0047 0.0000 -17.2889 0.0000
# 2 27.4152 72.4036 40.4076 0.0000 -5.0689 0.0000
# 3 39.0047 40.4076 108.5475 0.0000 -9.1605 0.0000
# 4 0.0000 0.0000 0.0000 30.1357 0.0000 -1.6451
# 5 -17.2889 -5.0689 -9.1605 0.0000 13.2469 0.0000
# 6 0.0000 0.0000 0.0000 -1.6451 0.0000 23.9084
#
#
#
# Elastic Compliance Matrix: (Units=1/GPa)
#
#
# Indices 1 2 3 4 5 6 
#
# 1 0.011703 -0.002260 -0.002281 0.000000 0.012832 0.000000
# 2 -0.002260 0.017937 -0.005878 0.000000 -0.000151 0.000000
# 3 -0.002281 -0.005878 0.012509 0.000000 0.003424 0.000000
# 4 0.000000 0.000000 0.000000 0.033308 0.000000 0.002292
# 5 0.012832 -0.000151 0.003424 0.000000 0.094547 0.000000
# 6 0.000000 0.000000 0.000000 0.002292 0.000000 0.041984
#
#
# Mechanical properties :
#
#
# Convention : Reuss Voigt Hill
#
# Bulk Modulus (GPa) = 46.92268 56.87843 51.90055
# Shear Modulus (GPa) = 20.83941 26.21976 23.52958
#
# Velocity S-wave (km/s) = 3.26457 3.66182 3.46889
# Velocity P-wave (km/s) = 6.18114 6.85322 6.52584
#
# Compressibility (1/GPa) = 0.02131166
#
# Stress axis : x y z
#
# Youngs Moduli (GPa) = 85.44661 55.75082 79.94066
#
# Poissons Ratio (x) = 0.12599 0.18236
# Poissons Ratio (y) = 0.19310 0.46988
# Poissons Ratio (z) = 0.19492 0.32769
#
# Static dielectric constant tensor:
#      x y z
#    x 3.759910 0.000000 -0.225600 
#    y 0.000000 3.766050 0.000000 
#    z -0.225600 0.000000 3.347960 
# 
# 
# High freq. dielectric constant tensor:
#      x y z
#    x 1.771550 0.000000 -0.013410 
#    y 0.000000 1.753110 0.000000 
#    z -0.013410 0.000000 1.747170 
# 
# From -- ./inp_files/54628.got.cif
#   From: 2010.06.25/outbox.cif.g09.slc.cpg/sg11_28_cif.got.tgz:54628.got - 2010.06.27 23:14:04.
