data_PCOD8070600
_publ_section_title
;
Structure prediction by ZEFSAII (Michael W. Deem and Ramdas Pophale) SiO2 
 PCOD8070600
Probable space group: P 21/M
;
_chemical_formula_sum "Si O2"
_cell_formula_units_Z 32
_cell_length_a 12.676452
_cell_length_b 8.985422
_cell_length_c 28.950508
_cell_angle_alpha 90.000000
_cell_angle_beta 150.168277
_cell_angle_gamma 90.000000
_cell_volume 1640.384318
_symmetry_space_group_name_H-M "P 21/M"
_symmetry_group_IT_number 11
_symmetry_cell_setting 'monoclinic'
loop_
_space_group_symop_operation_xyz
x,y,z
-x,1/2+y,-z
-x,-y,-z
x,1/2-y,z
loop_
_atom_site_type_symbol
_atom_site_label
_atom_site_fract_x
_atom_site_fract_y
_atom_site_fract_z
Si Si1 0.139413 0.075546 0.512369
Si Si2 0.799674 0.076994 0.208843
Si Si3 0.506165 0.084394 0.768243
Si Si4 0.362816 0.573024 0.016286
Si Si5 0.087344 0.071031 0.652377
Si Si6 0.370606 0.578504 0.280082
Si Si7 0.842239 0.087496 0.970961
Si Si8 0.991033 0.420568 0.186357
O O1 0.082728 0.250000 0.489372
O O2 0.388363 0.048980 0.613871
O O3 0.000000 0.000000 0.500000
O O4 0.107493 0.999216 0.449759
O O5 0.765330 0.250000 0.208215
O O6 0.975149 0.057003 0.235326
O O7 0.581804 0.013071 0.105309
O O8 0.891167 0.990329 0.287610
O O9 0.454762 0.250000 0.729968
O O10 0.282534 0.009327 0.695123
O O11 0.641647 0.012154 0.777593
O O12 0.620506 0.090712 0.860412
O O13 0.408497 0.750000 0.036647
O O14 0.204360 0.518565 0.996923
O O15 0.232981 0.523572 0.921313
O O16 0.075328 0.250000 0.650382
O O17 0.305390 0.750000 0.258048
O O18 0.202686 0.498389 0.248941
O O19 0.941210 0.250000 0.014513
O O20 0.000000 0.000000 0.000000
O O21 0.014818 0.250000 0.181213
#
# Coordination Sequence:
#
# PCOD8070600 Si02
#       8
#     4   4   4   4   4   4   4   4
#     4  11  22  38  62  94 125 156 195 242 295 356
#     4  11  23  39  59  87 120 155 201 254 297 348
#     4   9  17  33  54  79 113 149 183 231 287 339
#     4  10  20  37  59  83 114 157 201 244 294 351
#     4  11  21  39  63  87 117 153 195 244 298 353
#     4  10  21  38  60  86 120 156 195 240 292 355
#     4  10  19  31  49  76 113 151 189 232 282 346
#     4  10  23  40  58  85 121 156 200 253 298 345
#
# _framework density 19.507625000000001
#
# number of rings (size 3 to 8) (size 9 to 14) (size 15 to 20)
#    0.000    1.750    2.500    2.250    0.000    3.000 
#    0.000    0.625    0.000    0.000    0.000    0.000 
#    0.000    0.000    0.000    0.000    0.000    0.000 
#
# Total GULP energy -396520.939080 kJ/mol
# GULP energy per Si atom -12391.279346 kJ/mol
# Density = 1.946323 g / cm^3
# Si number density = 19.507625 Si / 1000 Ang^3
#
#
#
# Elastic Constant Matrix: (Units=GPa)
#
#
# Indices 1 2 3 4 5 6 
#
# 1 113.8949 47.6925 36.1076 0.0000 -12.1302 0.0000
# 2 47.6925 86.6013 38.4635 0.0000 -4.2232 0.0000
# 3 36.1076 38.4635 68.6613 0.0000 -14.9076 0.0000
# 4 0.0000 0.0000 0.0000 31.5723 0.0000 0.9042
# 5 -12.1302 -4.2232 -14.9076 0.0000 28.7867 0.0000
# 6 0.0000 0.0000 0.0000 0.9042 0.0000 31.9815
#
#
#
# Elastic Compliance Matrix: (Units=1/GPa)
#
#
# Indices 1 2 3 4 5 6 
#
# 1 0.012214 -0.005342 -0.002798 0.000000 0.002914 0.000000
# 2 -0.005342 0.017867 -0.008021 0.000000 -0.003784 0.000000
# 3 -0.002798 -0.008021 0.022554 0.000000 0.009324 0.000000
# 4 0.000000 0.000000 0.000000 0.031699 0.000000 -0.000896
# 5 0.002914 -0.003784 0.009324 0.000000 0.040240 0.000000
# 6 0.000000 0.000000 0.000000 -0.000896 0.000000 0.031293
#
#
# Mechanical properties :
#
#
# Convention : Reuss Voigt Hill
#
# Bulk Modulus (GPa) = 49.23082 57.07606 53.15344
# Shear Modulus (GPa) = 25.64626 28.26102 26.95364
#
# Velocity S-wave (km/s) = 3.62978 3.81033 3.72115
# Velocity P-wave (km/s) = 6.54665 6.97711 6.76530
#
# Compressibility (1/GPa) = 0.02031248
#
# Stress axis : x y z
#
# Youngs Moduli (GPa) = 81.87154 55.96897 44.33881
#
# Poissons Ratio (x) = 0.29897 0.12407
# Poissons Ratio (y) = 0.43733 0.35566
# Poissons Ratio (z) = 0.22909 0.44895
#
# Static dielectric constant tensor:
#      x y z
#    x 1.956480 0.000000 1.768710 
#    y 0.000000 3.371610 0.000000 
#    z 1.768710 0.000000 1.458410 
# 
# 
# High freq. dielectric constant tensor:
#      x y z
#    x 1.769330 0.000000 -0.011320 
#    y 0.000000 1.746520 0.000000 
#    z -0.011320 0.000000 1.757140 
# 
# From -- ./inp_files/64386.got.cif
#   From: 2010.06.25/outbox.cif.g09.slc.cpg/sg11_33_cif.got.tgz:64386.got - 2010.06.27 23:14:04.
