data_PCOD8070027
_publ_section_title
;
Structure prediction by ZEFSAII (Michael W. Deem and Ramdas Pophale) SiO2 
 PCOD8070027
Probable space group: P 21/M
;
_chemical_formula_sum "Si O2"
_cell_formula_units_Z 32
_cell_length_a 12.525341
_cell_length_b 9.346637
_cell_length_c 26.898428
_cell_angle_alpha 90.000000
_cell_angle_beta 142.192009
_cell_angle_gamma 90.000000
_cell_volume 1930.387646
_symmetry_space_group_name_H-M "P 21/M"
_symmetry_group_IT_number 11
_symmetry_cell_setting 'monoclinic'
loop_
_space_group_symop_operation_xyz
x,y,z
-x,1/2+y,-z
-x,-y,-z
x,1/2-y,z
loop_
_atom_site_type_symbol
_atom_site_label
_atom_site_fract_x
_atom_site_fract_y
_atom_site_fract_z
Si Si1 0.569924 0.582193 0.478246
Si Si2 0.486151 0.410774 0.043920
Si Si3 0.910488 0.915551 0.653613
Si Si4 0.847459 0.912226 0.014650
Si Si5 0.609556 0.581506 0.839658
Si Si6 0.703430 0.919821 0.674113
Si Si7 0.175759 0.417427 0.173033
Si Si8 0.291765 0.579635 0.782270
O O1 0.500000 0.500000 0.500000
O O2 0.520285 0.750000 0.461344
O O3 0.779889 0.562477 0.558600
O O4 0.481963 0.504006 0.398558
O O5 0.538755 0.250000 0.049740
O O6 0.621730 0.470776 0.134400
O O7 0.500000 0.500000 0.000000
O O8 0.290651 0.418895 0.991819
O O9 0.943625 0.750000 0.675859
O O10 0.829794 0.974353 0.675985
O O11 0.096573 0.987633 0.708184
O O12 0.912287 0.750000 0.030097
O O13 0.759642 0.977074 0.932209
O O14 0.008928 0.007135 0.089561
O O15 0.605057 0.750000 0.848026
O O16 0.657682 0.543466 0.800558
O O17 0.416674 0.521568 0.783277
O O18 0.667649 0.750000 0.658282
O O19 0.786060 0.967029 0.756824
O O20 0.138093 0.250000 0.157560
O O21 0.282712 0.750000 0.775720
#
# Coordination Sequence:
#
# PCOD8070027 Si02
#       8
#     4   4   4   4   4   4   4   4
#     4   9  16  28  46  67  92 118 144 177 219 269
#     4   9  18  29  43  62  89 121 148 179 221 266
#     4   8  14  25  43  65  85 109 145 178 208 261
#     4   9  18  31  44  63  90 120 153 187 226 273
#     4   8  15  29  45  63  87 116 153 190 225 261
#     4   9  18  29  42  66  94 115 144 183 223 269
#     4  10  19  29  46  69  89 114 152 196 226 257
#     4   8  14  26  45  64  84 114 148 182 218 259
#
# _framework density 16.576982000000001
#
# number of rings (size 3 to 8) (size 9 to 14) (size 15 to 20)
#    0.000    3.250    0.000    3.000    1.750    1.000 
#    0.000    0.000    0.000    2.250    0.000    0.000 
#    0.000    0.000    0.000    0.000    0.000    0.500 
#
# Total GULP energy -396450.573461 kJ/mol
# GULP energy per Si atom -12389.080421 kJ/mol
# Density = 1.653925 g / cm^3
# Si number density = 16.576982 Si / 1000 Ang^3
#
#
#
# Elastic Constant Matrix: (Units=GPa)
#
#
# Indices 1 2 3 4 5 6 
#
# 1 80.7742 19.8489 62.7840 0.0000 8.5580 0.0000
# 2 19.8489 31.5050 25.6220 0.0000 3.5982 0.0000
# 3 62.7840 25.6220 108.6943 0.0000 19.6426 0.0000
# 4 0.0000 0.0000 0.0000 24.2873 0.0000 0.3168
# 5 8.5580 3.5982 19.6426 0.0000 22.8255 0.0000
# 6 0.0000 0.0000 0.0000 0.3168 0.0000 14.3379
#
#
#
# Elastic Compliance Matrix: (Units=1/GPa)
#
#
# Indices 1 2 3 4 5 6 
#
# 1 0.023169 -0.004468 -0.012892 0.000000 0.003112 0.000000
# 2 -0.004468 0.040216 -0.007172 0.000000 0.001507 0.000000
# 3 -0.012892 -0.007172 0.020438 0.000000 -0.011624 0.000000
# 4 0.000000 0.000000 0.000000 0.041186 0.000000 -0.000910
# 5 0.003112 0.001507 -0.011624 0.000000 0.052409 0.000000
# 6 0.000000 0.000000 0.000000 -0.000910 0.000000 0.069766
#
#
# Mechanical properties :
#
#
# Convention : Reuss Voigt Hill
#
# Bulk Modulus (GPa) = 28.76853 48.60924 38.68889
# Shear Modulus (GPa) = 16.24254 19.80470 18.02362
#
# Velocity S-wave (km/s) = 3.13361 3.46021 3.30095
# Velocity P-wave (km/s) = 5.52131 6.73432 6.15776
#
# Compressibility (1/GPa) = 0.03476020
#
# Stress axis : x y z
#
# Youngs Moduli (GPa) = 43.16078 24.86567 48.92843
#
# Poissons Ratio (x) = 0.11109 0.63079
# Poissons Ratio (y) = 0.19283 0.35089
# Poissons Ratio (z) = 0.55644 0.17833
#
# Static dielectric constant tensor:
#      x y z
#    x 3.278780 0.000000 0.171610 
#    y 0.000000 2.923170 0.000000 
#    z 0.171610 0.000000 3.470220 
# 
# 
# High freq. dielectric constant tensor:
#      x y z
#    x 1.626840 0.000000 0.007700 
#    y 0.000000 1.602290 0.000000 
#    z 0.007700 0.000000 1.636910 
# 
# From -- ./inp_files/49862.got.cif
#   From: 2010.06.25/outbox.cif.g09.slc.cpg/sg11_25_cif.got.tgz:49862.got - 2010.06.27 23:14:04.
