data_PCOD8070685
_publ_section_title
;
Structure prediction by ZEFSAII (Michael W. Deem and Ramdas Pophale) SiO2 
 PCOD8070685
Probable space group: P 21/M
;
_chemical_formula_sum "Si O2"
_cell_formula_units_Z 32
_cell_length_a 22.790167
_cell_length_b 9.043102
_cell_length_c 28.188964
_cell_angle_alpha 90.000000
_cell_angle_beta 162.355213
_cell_angle_gamma 90.000000
_cell_volume 1760.967421
_symmetry_space_group_name_H-M "P 21/M"
_symmetry_group_IT_number 11
_symmetry_cell_setting 'monoclinic'
loop_
_space_group_symop_operation_xyz
x,y,z
-x,1/2+y,-z
-x,-y,-z
x,1/2-y,z
loop_
_atom_site_type_symbol
_atom_site_label
_atom_site_fract_x
_atom_site_fract_y
_atom_site_fract_z
Si Si1 0.986070 0.078522 0.039153
Si Si2 0.150183 0.921231 0.804142
Si Si3 0.205472 0.918059 0.741025
Si Si4 0.236495 0.924064 0.497093
Si Si5 0.437847 0.582478 0.307032
Si Si6 0.235237 0.420632 0.594866
Si Si7 0.445461 0.078863 0.847662
Si Si8 0.347343 0.576113 0.347129
O O1 0.047034 0.250000 0.082140
O O2 0.757591 0.064591 0.875593
O O3 0.132582 0.997104 0.188895
O O4 0.000000 0.000000 0.000000
O O5 0.085909 0.750000 0.751443
O O6 0.225195 0.973250 0.810355
O O7 0.324189 0.947778 0.974777
O O8 0.966693 0.015129 0.679745
O O9 0.273804 0.750000 0.788683
O O10 0.982949 0.938478 0.554419
O O11 0.344928 0.012304 0.816016
O O12 0.224752 0.750000 0.491246
O O13 0.404449 0.969003 0.590484
O O14 0.279495 0.987798 0.582044
O O15 0.514635 0.750000 0.361070
O O16 0.407003 0.546096 0.338754
O O17 0.283166 0.250000 0.620425
O O18 0.368552 0.488415 0.739154
O O19 0.392285 0.250000 0.808286
O O20 0.500000 0.500000 0.500000
O O21 0.335153 0.750000 0.349202
#
# Coordination Sequence:
#
# PCOD8070685 Si02
#       8
#     4   4   4   4   4   4   4   4
#     4   9  17  31  53  80 108 139 174 210 251 298
#     4   9  19  35  51  70 100 135 168 205 253 309
#     4   9  17  29  47  71 101 133 161 200 254 307
#     4  11  22  35  54  76  96 129 175 217 254 294
#     4   9  19  36  57  78 103 139 175 206 249 306
#     4   9  19  35  51  70  99 132 165 205 255 308
#     4  10  19  31  51  75  97 127 165 205 254 309
#     4  10  20  34  55  84 116 146 173 208 255 301
#
# _framework density 18.171831000000001
#
# number of rings (size 3 to 8) (size 9 to 14) (size 15 to 20)
#    0.000    2.500    0.000    4.125    0.000    6.000 
#    0.000    1.250    0.000    3.000    0.000    0.000 
#    0.000    0.000    0.000    0.000    0.000    0.000 
#
# Total GULP energy -396695.725815 kJ/mol
# GULP energy per Si atom -12396.741432 kJ/mol
# Density = 1.813047 g / cm^3
# Si number density = 18.171831 Si / 1000 Ang^3
#
#
#
# Elastic Constant Matrix: (Units=GPa)
#
#
# Indices 1 2 3 4 5 6 
#
# 1 40.2406 29.2637 36.4968 0.0000 7.6691 0.0000
# 2 29.2637 96.6674 48.6154 0.0000 5.0730 0.0000
# 3 36.4968 48.6154 115.5077 0.0000 -13.3999 0.0000
# 4 0.0000 0.0000 0.0000 28.3694 0.0000 3.2412
# 5 7.6691 5.0730 -13.3999 0.0000 27.0522 0.0000
# 6 0.0000 0.0000 0.0000 3.2412 0.0000 27.2506
#
#
#
# Elastic Compliance Matrix: (Units=1/GPa)
#
#
# Indices 1 2 3 4 5 6 
#
# 1 0.045358 -0.005631 -0.014144 0.000000 -0.018808 0.000000
# 2 -0.005631 0.014645 -0.004794 0.000000 -0.003524 0.000000
# 3 -0.014144 -0.004794 0.016671 0.000000 0.013166 0.000000
# 4 0.000000 0.000000 0.000000 0.035735 0.000000 -0.004250
# 5 -0.018808 -0.003524 0.013166 0.000000 0.049480 0.000000
# 6 0.000000 0.000000 0.000000 -0.004250 0.000000 0.037202
#
#
# Mechanical properties :
#
#
# Convention : Reuss Voigt Hill
#
# Bulk Modulus (GPa) = 36.31350 53.46307 44.88829
# Shear Modulus (GPa) = 19.42452 25.73709 22.58081
#
# Velocity S-wave (km/s) = 3.27301 3.76748 3.52892
# Velocity P-wave (km/s) = 5.85749 6.95773 6.43118
#
# Compressibility (1/GPa) = 0.02753796
#
# Stress axis : x y z
#
# Youngs Moduli (GPa) = 22.04700 68.28230 59.98322
#
# Poissons Ratio (x) = 0.38449 0.84838
# Poissons Ratio (y) = 0.12414 0.28753
# Poissons Ratio (z) = 0.31182 0.32732
#
# Static dielectric constant tensor:
#      x y z
#    x 3.051450 0.000000 -0.117330 
#    y 0.000000 3.339190 0.000000 
#    z -0.117330 0.000000 3.702670 
# 
# 
# High freq. dielectric constant tensor:
#      x y z
#    x 1.671770 0.000000 -0.006480 
#    y 0.000000 1.703230 0.000000 
#    z -0.006480 0.000000 1.717640 
# 
# From -- ./inp_files/66920.got.cif
#   From: 2010.06.25/outbox.cif.g09.slc.cpg/sg11_34_cif.got.tgz:66920.got - 2010.06.27 23:14:04.
