data_PCOD8070675
_publ_section_title
;
Structure prediction by ZEFSAII (Michael W. Deem and Ramdas Pophale) SiO2 
 PCOD8070675
Probable space group: P 21/M
;
_chemical_formula_sum "Si O2"
_cell_formula_units_Z 32
_cell_length_a 30.662960
_cell_length_b 8.857367
_cell_length_c 13.106859
_cell_angle_alpha 90.000000
_cell_angle_beta 153.103134
_cell_angle_gamma 90.000000
_cell_volume 1610.372818
_symmetry_space_group_name_H-M "P 21/M"
_symmetry_group_IT_number 11
_symmetry_cell_setting 'monoclinic'
loop_
_space_group_symop_operation_xyz
x,y,z
-x,1/2+y,-z
-x,-y,-z
x,1/2-y,z
loop_
_atom_site_type_symbol
_atom_site_label
_atom_site_fract_x
_atom_site_fract_y
_atom_site_fract_z
Si Si1 0.659190 0.580557 0.646374
Si Si2 0.191956 0.928941 0.917852
Si Si3 0.540442 0.083277 0.680849
Si Si4 0.399362 0.429186 0.827082
Si Si5 0.130223 0.426151 0.580215
Si Si6 0.737073 0.072977 0.616906
Si Si7 0.675071 0.575257 0.110744
Si Si8 0.917803 0.427818 0.110517
O O1 0.699894 0.750000 0.709835
O O2 0.544620 0.589908 0.414301
O O3 0.678327 0.462523 0.596508
O O4 0.705842 0.512481 0.847814
O O5 0.206762 0.750000 0.949089
O O6 0.120874 0.985675 0.860449
O O7 0.150245 0.979304 0.723187
O O8 0.574326 0.250000 0.719285
O O9 0.500000 0.000000 0.500000
O O10 0.631135 0.001994 0.919664
O O11 0.410421 0.250000 0.846230
O O12 0.308710 0.477298 0.569468
O O13 0.370437 0.488388 0.879514
O O14 0.500000 0.500000 0.000000
O O15 0.126534 0.250000 0.602784
O O16 0.209858 0.454743 0.658070
O O17 0.027334 0.482767 0.320767
O O18 0.728320 0.250000 0.573303
O O19 0.847940 0.020387 0.871117
O O20 0.650600 0.750000 0.052489
O O21 0.912683 0.250000 0.103041
#
# Coordination Sequence:
#
# PCOD8070675 Si02
#       8
#     4   4   4   4   4   4   4   4
#     4  10  20  34  52  77 106 141 181 221 267 324
#     4  10  19  31  50  81 114 145 181 224 269 316
#     4  11  23  36  53  76 107 144 180 216 262 318
#     4  11  23  40  61  85 110 140 177 223 274 326
#     4  10  19  35  55  75 105 147 186 223 266 318
#     4  10  20  36  58  84 109 136 173 222 272 320
#     4  10  23  39  56  79 108 141 182 225 268 318
#     4   8  17  33  54  79 109 144 182 220 265 316
#
# _framework density 19.871175999999998
#
# number of rings (size 3 to 8) (size 9 to 14) (size 15 to 20)
#    0.000    2.000    0.000    4.500    0.000    8.500 
#    0.000    3.750    0.000    0.000    0.000    0.000 
#    0.000    0.000    0.000    0.000    0.000    0.000 
#
# Total GULP energy -396684.795453 kJ/mol
# GULP energy per Si atom -12396.399858 kJ/mol
# Density = 1.982595 g / cm^3
# Si number density = 19.871176 Si / 1000 Ang^3
#
#
#
# Elastic Constant Matrix: (Units=GPa)
#
#
# Indices 1 2 3 4 5 6 
#
# 1 84.4502 29.7542 52.4567 0.0000 2.7577 0.0000
# 2 29.7542 62.2575 34.9430 0.0000 2.4920 0.0000
# 3 52.4567 34.9430 128.3841 0.0000 1.2693 0.0000
# 4 0.0000 0.0000 0.0000 32.6563 0.0000 -4.7758
# 5 2.7577 2.4920 1.2693 0.0000 34.0841 0.0000
# 6 0.0000 0.0000 0.0000 -4.7758 0.0000 23.4626
#
#
#
# Elastic Compliance Matrix: (Units=1/GPa)
#
#
# Indices 1 2 3 4 5 6 
#
# 1 0.017123 -0.004991 -0.005630 0.000000 -0.000811 0.000000
# 2 -0.004991 0.020462 -0.003520 0.000000 -0.000961 0.000000
# 3 -0.005630 -0.003520 0.011045 0.000000 0.000302 0.000000
# 4 0.000000 0.000000 0.000000 0.031561 0.000000 0.006424
# 5 -0.000811 -0.000961 0.000302 0.000000 0.029464 0.000000
# 6 0.000000 0.000000 0.000000 0.006424 0.000000 0.043929
#
#
# Mechanical properties :
#
#
# Convention : Reuss Voigt Hill
#
# Bulk Modulus (GPa) = 49.14751 56.59998 52.87375
# Shear Modulus (GPa) = 26.50414 28.56979 27.53697
#
# Velocity S-wave (km/s) = 3.65608 3.79588 3.72664
# Velocity P-wave (km/s) = 6.52758 6.91064 6.72184
#
# Compressibility (1/GPa) = 0.02034691
#
# Stress axis : x y z
#
# Youngs Moduli (GPa) = 58.39951 48.87086 90.54145
#
# Poissons Ratio (x) = 0.24393 0.50975
# Poissons Ratio (y) = 0.29149 0.31874
# Poissons Ratio (z) = 0.32879 0.17204
#
# Static dielectric constant tensor:
#      x y z
#    x 3.622080 0.000000 0.198170 
#    y 0.000000 3.552070 0.000000 
#    z 0.198170 0.000000 4.000430 
# 
# 
# High freq. dielectric constant tensor:
#      x y z
#    x 1.759110 0.000000 0.009850 
#    y 0.000000 1.770290 0.000000 
#    z 0.009850 0.000000 1.782190 
# 
# From -- ./inp_files/45255.got.cif
#   From: 2010.06.25/outbox.cif.g09.slc.cpg/sg11_23_cif.got.tgz:45255.got - 2010.06.27 23:14:04.
