data_PCOD8070827
_publ_section_title
;
Structure prediction by ZEFSAII (Michael W. Deem and Ramdas Pophale) SiO2 
 PCOD8070827
Probable space group: P 21/M
;
_chemical_formula_sum "Si O2"
_cell_formula_units_Z 32
_cell_length_a 21.064477
_cell_length_b 8.706075
_cell_length_c 15.641221
_cell_angle_alpha 90.000000
_cell_angle_beta 42.370197
_cell_angle_gamma 90.000000
_cell_volume 1933.084819
_symmetry_space_group_name_H-M "P 21/M"
_symmetry_group_IT_number 11
_symmetry_cell_setting 'monoclinic'
loop_
_space_group_symop_operation_xyz
x,y,z
-x,1/2+y,-z
-x,-y,-z
x,1/2-y,z
loop_
_atom_site_type_symbol
_atom_site_label
_atom_site_fract_x
_atom_site_fract_y
_atom_site_fract_z
Si Si1 0.394856 0.068989 0.416726
Si Si2 0.101761 0.070541 0.299576
Si Si3 0.397315 0.568772 0.100678
Si Si4 0.279582 0.569114 0.380070
Si Si5 0.094321 0.070225 0.503922
Si Si6 0.600060 0.572864 0.403512
Si Si7 0.283714 0.930847 0.048136
Si Si8 0.601611 0.930392 0.216373
O O1 0.386380 0.250000 0.405111
O O2 0.351848 0.024162 0.554065
O O3 0.332943 0.972146 0.413318
O O4 0.504229 0.021499 0.299590
O O5 0.115611 0.250000 0.269419
O O6 0.117663 0.026420 0.382822
O O7 0.175616 0.976833 0.169215
O O8 0.998049 0.020154 0.373181
O O9 0.405709 0.750000 0.093959
O O10 0.340997 0.508911 0.239186
O O11 0.344158 0.511406 0.068916
O O12 0.500000 0.500000 0.000000
O O13 0.261940 0.750000 0.391881
O O14 0.179786 0.483001 0.478602
O O15 0.075628 0.250000 0.532902
O O16 0.500000 0.500000 0.500000
O O17 0.580546 0.750000 0.430828
O O18 0.648899 0.534398 0.263547
O O19 0.292061 0.750000 0.026642
O O20 0.321205 0.015986 0.927470
O O21 0.580477 0.750000 0.226532
#
# Coordination Sequence:
#
# PCOD8070827 Si02
#       8
#     4   4   4   4   4   4   4   4
#     4  10  19  32  49  72  99 131 167 205 247 293
#     4  10  20  34  53  74  96 126 162 205 249 291
#     4  10  22  34  45  62  93 132 167 198 234 278
#     4  11  21  34  49  70  98 132 167 204 243 289
#     4  10  20  34  53  74  96 126 162 205 249 291
#     4   8  16  30  48  68  95 126 161 204 248 290
#     4  11  21  34  49  70  98 132 167 204 243 289
#     4  10  19  32  49  72  99 131 167 205 247 293
#
# _framework density 16.553851999999999
#
# number of rings (size 3 to 8) (size 9 to 14) (size 15 to 20)
#    0.000    2.000    1.250    3.000    0.000    6.000 
#    0.000    0.000    0.000    0.000    0.000    0.875 
#    0.000    0.000    0.000    0.000    0.000    0.000 
#
# Total GULP energy -396683.206849 kJ/mol
# GULP energy per Si atom -12396.350214 kJ/mol
# Density = 1.651617 g / cm^3
# Si number density = 16.553852 Si / 1000 Ang^3
#
#
#
# Elastic Constant Matrix: (Units=GPa)
#
#
# Indices 1 2 3 4 5 6 
#
# 1 71.5183 15.2617 58.2872 0.0000 9.6646 0.0000
# 2 15.2617 32.2264 15.8625 0.0000 6.4532 0.0000
# 3 58.2872 15.8625 87.6128 0.0000 8.9576 0.0000
# 4 0.0000 0.0000 0.0000 26.6016 0.0000 -3.8274
# 5 9.6646 6.4532 8.9576 0.0000 29.9261 0.0000
# 6 0.0000 0.0000 0.0000 -3.8274 0.0000 26.6546
#
#
#
# Elastic Compliance Matrix: (Units=1/GPa)
#
#
# Indices 1 2 3 4 5 6 
#
# 1 0.031564 -0.004524 -0.019845 0.000000 -0.003278 0.000000
# 2 -0.004524 0.035675 -0.002901 0.000000 -0.005364 0.000000
# 3 -0.019845 -0.002901 0.025193 0.000000 -0.000506 0.000000
# 4 0.000000 0.000000 0.000000 0.038385 0.000000 0.005512
# 5 -0.003278 -0.005364 -0.000506 0.000000 0.035782 0.000000
# 6 0.000000 0.000000 0.000000 0.005512 0.000000 0.038309
#
#
# Mechanical properties :
#
#
# Convention : Reuss Voigt Hill
#
# Bulk Modulus (GPa) = 26.39007 41.13114 33.76061
# Shear Modulus (GPa) = 18.37700 23.43287 20.90494
#
# Velocity S-wave (km/s) = 3.33548 3.76647 3.55751
# Velocity P-wave (km/s) = 5.55072 6.61935 6.10845
#
# Compressibility (1/GPa) = 0.03789305
#
# Stress axis : x y z
#
# Youngs Moduli (GPa) = 31.68123 28.03097 39.69283
#
# Poissons Ratio (x) = 0.12680 0.78771
# Poissons Ratio (y) = 0.14331 0.11515
# Poissons Ratio (z) = 0.62872 0.08132
#
# Static dielectric constant tensor:
#      x y z
#    x 3.303900 0.000000 0.436080 
#    y 0.000000 3.191690 0.000000 
#    z 0.436080 0.000000 3.359970 
# 
# 
# High freq. dielectric constant tensor:
#      x y z
#    x 1.623560 0.000000 0.009800 
#    y 0.000000 1.651080 0.000000 
#    z 0.009800 0.000000 1.623780 
# 
# From -- ./inp_files/54238.got.cif
#   From: 2010.06.25/outbox.cif.g09.slc.cpg/sg11_28_cif.got.tgz:54238.got - 2010.06.27 23:14:04.
