data_PCOD8070913
_publ_section_title
;
Structure prediction by ZEFSAII (Michael W. Deem and Ramdas Pophale) SiO2 
 PCOD8070913
Probable space group: P 21/M
;
_chemical_formula_sum "Si O2"
_cell_formula_units_Z 32
_cell_length_a 15.439531
_cell_length_b 8.880707
_cell_length_c 14.097922
_cell_angle_alpha 90.000000
_cell_angle_beta 90.911497
_cell_angle_gamma 90.000000
_cell_volume 1932.777183
_symmetry_space_group_name_H-M "P 21/M"
_symmetry_group_IT_number 11
_symmetry_cell_setting 'monoclinic'
loop_
_space_group_symop_operation_xyz
x,y,z
-x,1/2+y,-z
-x,-y,-z
x,1/2-y,z
loop_
_atom_site_type_symbol
_atom_site_label
_atom_site_fract_x
_atom_site_fract_y
_atom_site_fract_z
Si Si1 0.988500 0.928493 0.897629
Si Si2 0.675048 0.576689 0.878275
Si Si3 0.096822 0.923555 0.609855
Si Si4 0.082985 0.577928 0.398751
Si Si5 0.168591 0.576282 0.207106
Si Si6 0.514462 0.076130 0.099950
Si Si7 0.145722 0.427563 0.790803
Si Si8 0.683214 0.926103 0.098380
O O1 0.993700 0.750000 0.906154
O O2 0.895173 0.974663 0.856267
O O3 0.061955 0.988453 0.829004
O O4 0.000000 0.000000 0.000000
O O5 0.702676 0.750000 0.866094
O O6 0.733399 0.471935 0.813079
O O7 0.574971 0.552835 0.843068
O O8 0.688307 0.528284 0.988138
O O9 0.108177 0.750000 0.638361
O O10 0.126589 0.954315 0.501944
O O11 0.155562 0.024727 0.680853
O O12 0.996288 0.966148 0.620170
O O13 0.047970 0.750000 0.394886
O O14 0.154018 0.549650 0.318877
O O15 0.153954 0.750000 0.179495
O O16 0.533065 0.250000 0.083473
O O17 0.600024 0.002881 0.148581
O O18 0.500000 0.000000 0.000000
O O19 0.131912 0.250000 0.800571
O O20 0.230048 0.483000 0.848858
O O21 0.670991 0.750000 0.110999
#
# Coordination Sequence:
#
# PCOD8070913 Si02
#       8
#     4   4   4   4   4   4   4   4
#     4  12  24  36  49  67  95 133 169 201 236 283
#     4   9  18  32  48  70  99 130 162 198 239 288
#     4  10  19  32  51  72  93 126 165 204 249 293
#     4   9  19  34  50  69  96 125 162 208 250 289
#     4  11  21  33  50  72  97 129 164 202 243 287
#     4   9  17  30  49  70  95 125 159 200 242 281
#     4  11  21  34  50  72 101 131 162 202 245 290
#     4   9  19  33  49  69  97 130 162 198 241 285
#
# _framework density 16.556487000000001
#
# number of rings (size 3 to 8) (size 9 to 14) (size 15 to 20)
#    0.000    2.000    1.250    4.125    0.000    5.500 
#    0.000    0.000    0.000    0.000    0.000    0.875 
#    0.000    0.000    0.000    0.000    0.000    0.000 
#
# Total GULP energy -396763.113731 kJ/mol
# GULP energy per Si atom -12398.847304 kJ/mol
# Density = 1.651880 g / cm^3
# Si number density = 16.556487 Si / 1000 Ang^3
#
#
#
# Elastic Constant Matrix: (Units=GPa)
#
#
# Indices 1 2 3 4 5 6 
#
# 1 87.5868 34.9405 29.8692 0.0000 -11.8588 0.0000
# 2 34.9405 77.9299 31.1580 0.0000 -6.7538 0.0000
# 3 29.8692 31.1580 80.9910 0.0000 -9.8602 0.0000
# 4 0.0000 0.0000 0.0000 24.5784 0.0000 -0.2207
# 5 -11.8588 -6.7538 -9.8602 0.0000 13.4120 0.0000
# 6 0.0000 0.0000 0.0000 -0.2207 0.0000 29.9861
#
#
#
# Elastic Compliance Matrix: (Units=1/GPa)
#
#
# Indices 1 2 3 4 5 6 
#
# 1 0.015631 -0.005142 -0.002657 0.000000 0.009278 0.000000
# 2 -0.005142 0.017023 -0.004572 0.000000 0.000665 0.000000
# 3 -0.002657 -0.004572 0.015947 0.000000 0.007072 0.000000
# 4 0.000000 0.000000 0.000000 0.040689 0.000000 0.000299
# 5 0.009278 0.000665 0.007072 0.000000 0.088298 0.000000
# 6 0.000000 0.000000 0.000000 0.000299 0.000000 0.033351
#
#
# Mechanical properties :
#
#
# Convention : Reuss Voigt Hill
#
# Bulk Modulus (GPa) = 41.91193 48.71591 45.31392
# Shear Modulus (GPa) = 20.52280 23.63131 22.07706
#
# Velocity S-wave (km/s) = 3.52456 3.78208 3.65559
# Velocity P-wave (km/s) = 6.47556 6.96851 6.72655
#
# Compressibility (1/GPa) = 0.02385956
#
# Stress axis : x y z
#
# Youngs Moduli (GPa) = 63.97675 58.74448 62.70895
#
# Poissons Ratio (x) = 0.30205 0.16661
# Poissons Ratio (y) = 0.32895 0.28668
# Poissons Ratio (z) = 0.16998 0.26856
#
# Static dielectric constant tensor:
#      x y z
#    x 3.284150 0.000000 0.029590 
#    y 0.000000 3.252770 0.000000 
#    z 0.029590 0.000000 3.189190 
# 
# 
# High freq. dielectric constant tensor:
#      x y z
#    x 1.623890 0.000000 -0.001880 
#    y 0.000000 1.650450 0.000000 
#    z -0.001880 0.000000 1.616370 
# 
# From -- ./inp_files/51314.got.cif
#   From: 2010.06.25/outbox.cif.g09.slc.cpg/sg11_26_cif.got.tgz:51314.got - 2010.06.27 23:14:04.
