data_PCOD8070835
_publ_section_title
;
Structure prediction by ZEFSAII (Michael W. Deem and Ramdas Pophale) SiO2 
 PCOD8070835
Probable space group: P 21/M
;
_chemical_formula_sum "Si O2"
_cell_formula_units_Z 28
_cell_length_a 28.560706
_cell_length_b 8.587720
_cell_length_c 9.662232
_cell_angle_alpha 90.000000
_cell_angle_beta 141.480869
_cell_angle_gamma 90.000000
_cell_volume 1475.897114
_symmetry_space_group_name_H-M "P 21/M"
_symmetry_group_IT_number 11
_symmetry_cell_setting 'monoclinic'
loop_
_space_group_symop_operation_xyz
x,y,z
-x,1/2+y,-z
-x,-y,-z
x,1/2-y,z
loop_
_atom_site_type_symbol
_atom_site_label
_atom_site_fract_x
_atom_site_fract_y
_atom_site_fract_z
Si Si1 0.400682 0.569935 0.864782
Si Si2 0.197254 0.068428 0.173497
Si Si3 0.196548 0.069285 0.766163
Si Si4 0.439549 0.071215 0.668546
Si Si5 0.750598 0.929847 0.407050
Si Si6 0.917995 0.432870 0.291130
Si Si7 0.309881 0.930412 0.224473
O O1 0.402934 0.750000 0.824554
O O2 0.471698 0.532089 0.128602
O O3 0.404979 0.464514 0.738923
O O4 0.324838 0.532272 0.771589
O O5 0.208536 0.250000 0.166472
O O6 0.199051 0.034339 0.341488
O O7 0.264485 0.972300 0.258906
O O8 0.117963 0.011716 0.928372
O O9 0.178557 0.250000 0.748742
O O10 0.199236 0.026862 0.610141
O O11 0.131353 0.968940 0.687049
O O12 0.277077 0.028181 0.020304
O O13 0.423494 0.250000 0.598524
O O14 0.397372 0.971340 0.452756
O O15 0.726082 0.750000 0.344974
O O16 0.921778 0.250000 0.276135
O O17 0.000000 0.500000 0.500000
O O18 0.300813 0.750000 0.168980
#
# Coordination Sequence:
#
# PCOD8070835 Si02
#       7
#     4   4   4   4   4   4   4
#     4  10  20  31  50  77 107 142 184 233 281 325
#     4  10  19  34  57  84 111 144 180 223 268 323
#     4  10  21  38  58  82 112 148 181 221 272 328
#     4  10  19  32  49  74 106 143 186 234 281 325
#     4  10  21  36  56  81 113 148 183 221 275 331
#     4  11  22  39  62  88 113 143 179 221 265 320
#     4  11  20  32  52  80 106 142 189 234 275 324
#
# _framework density 18.971512000000001
#
# number of rings (size 3 to 8) (size 9 to 14) (size 15 to 20)
#    0.000    1.714    1.429    6.000    0.000    3.429 
#    0.000    1.429    0.000    0.000    0.000    0.000 
#    0.000    0.000    0.000    0.000    0.000    0.000 
#
# Total GULP energy -347257.561178 kJ/mol
# GULP energy per Si atom -12402.055756 kJ/mol
# Density = 1.892833 g / cm^3
# Si number density = 18.971512 Si / 1000 Ang^3
#
#
#
# Elastic Constant Matrix: (Units=GPa)
#
#
# Indices 1 2 3 4 5 6 
#
# 1 72.9568 17.9677 54.7348 0.0000 -6.7448 0.0000
# 2 17.9677 61.8723 24.2052 0.0000 2.8607 0.0000
# 3 54.7348 24.2052 123.5723 0.0000 6.3393 0.0000
# 4 0.0000 0.0000 0.0000 28.5677 0.0000 5.7794
# 5 -6.7448 2.8607 6.3393 0.0000 35.6820 0.0000
# 6 0.0000 0.0000 0.0000 5.7794 0.0000 24.4461
#
#
#
# Elastic Compliance Matrix: (Units=1/GPa)
#
#
# Indices 1 2 3 4 5 6 
#
# 1 0.022174 -0.002986 -0.009551 0.000000 0.006128 0.000000
# 2 -0.002986 0.017929 -0.002106 0.000000 -0.001628 0.000000
# 3 -0.009551 -0.002106 0.012937 0.000000 -0.003935 0.000000
# 4 0.000000 0.000000 0.000000 0.036763 0.000000 -0.008691
# 5 0.006128 -0.001628 -0.003935 0.000000 0.030013 0.000000
# 6 0.000000 0.000000 0.000000 -0.008691 0.000000 0.042961
#
#
# Mechanical properties :
#
#
# Convention : Reuss Voigt Hill
#
# Bulk Modulus (GPa) = 42.09801 50.24630 46.17216
# Shear Modulus (GPa) = 25.00230 28.50542 26.75386
#
# Velocity S-wave (km/s) = 3.63421 3.88046 3.75935
# Velocity P-wave (km/s) = 6.31255 6.82788 6.57527
#
# Compressibility (1/GPa) = 0.02375409
#
# Stress axis : x y z
#
# Youngs Moduli (GPa) = 45.09707 55.77709 77.29550
#
# Poissons Ratio (x) = 0.16656 0.73827
# Poissons Ratio (y) = 0.13467 0.16276
# Poissons Ratio (z) = 0.43074 0.11745
#
# Static dielectric constant tensor:
#      x y z
#    x 3.174720 0.000000 0.019670 
#    y 0.000000 3.553600 0.000000 
#    z 0.019670 0.000000 3.664820 
# 
# 
# High freq. dielectric constant tensor:
#      x y z
#    x 1.701620 0.000000 0.002410 
#    y 0.000000 1.749280 0.000000 
#    z 0.002410 0.000000 1.743970 
# 
# From -- ./inp_files/29075.got.cif
#   From: 2010.06.25/outbox.cif.g09.slc.cpg/sg11_15_cif.got.tgz:29075.got - 2010.06.27 23:14:04.
