data_PCOD8070907
_publ_section_title
;
Structure prediction by ZEFSAII (Michael W. Deem and Ramdas Pophale) SiO2 
 PCOD8070907
Probable space group: P 21/M
;
_chemical_formula_sum "Si O2"
_cell_formula_units_Z 32
_cell_length_a 24.477831
_cell_length_b 8.945354
_cell_length_c 12.597219
_cell_angle_alpha 90.000000
_cell_angle_beta 37.056354
_cell_angle_gamma 90.000000
_cell_volume 1662.166189
_symmetry_space_group_name_H-M "P 21/M"
_symmetry_group_IT_number 11
_symmetry_cell_setting 'monoclinic'
loop_
_space_group_symop_operation_xyz
x,y,z
-x,1/2+y,-z
-x,-y,-z
x,1/2-y,z
loop_
_atom_site_type_symbol
_atom_site_label
_atom_site_fract_x
_atom_site_fract_y
_atom_site_fract_z
Si Si1 0.246026 0.076667 0.555196
Si Si2 0.692122 0.924209 0.087608
Si Si3 0.331859 0.077946 0.642290
Si Si4 0.501208 0.926730 0.304378
Si Si5 0.556027 0.926027 0.820185
Si Si6 0.943193 0.426510 0.183284
Si Si7 0.978384 0.074811 0.366506
Si Si8 0.132000 0.426978 0.291348
O O1 0.220997 0.250000 0.577532
O O2 0.264199 0.041748 0.651007
O O3 0.336131 0.033797 0.347331
O O4 0.161438 0.976914 0.651827
O O5 0.689302 0.750000 0.068985
O O6 0.719331 0.953486 0.167995
O O7 0.593595 0.988838 0.213069
O O8 0.769557 0.993076 0.892218
O O9 0.365078 0.250000 0.582131
O O10 0.419025 0.970867 0.508594
O O11 0.501545 0.750000 0.283905
O O12 0.490295 0.014423 0.212927
O O13 0.544192 0.750000 0.845154
O O14 0.500000 0.000000 0.000000
O O15 0.947572 0.250000 0.159780
O O16 0.986002 0.473488 0.231062
O O17 0.000000 0.500000 0.000000
O O18 0.961945 0.250000 0.399142
O O19 0.066684 0.024124 0.295423
O O20 0.893278 0.996502 0.555968
O O21 0.131423 0.250000 0.304561
#
# Coordination Sequence:
#
# PCOD8070907 Si02
#       8
#     4   4   4   4   4   4   4   4
#     4   9  20  37  57  81 110 147 188 230 280 336
#     4   9  18  31  53  81 105 141 185 223 267 326
#     4   9  18  34  55  76 107 148 186 220 269 329
#     4  10  19  32  50  78 112 140 178 226 273 325
#     4  10  21  38  59  81 108 148 189 228 279 336
#     4  11  24  39  59  86 115 149 190 236 287 340
#     4   9  20  38  57  78 108 141 176 223 277 329
#     4   9  18  35  59  80 103 141 183 222 270 327
#
# _framework density 19.251985000000001
#
# number of rings (size 3 to 8) (size 9 to 14) (size 15 to 20)
#    0.000    2.500    0.000    2.250    1.750    4.500 
#    0.000    6.250    0.000    0.000    0.000    0.000 
#    0.000    0.000    0.000    0.000    0.000    0.000 
#
# Total GULP energy -396663.281917 kJ/mol
# GULP energy per Si atom -12395.727560 kJ/mol
# Density = 1.920817 g / cm^3
# Si number density = 19.251985 Si / 1000 Ang^3
#
#
#
# Elastic Constant Matrix: (Units=GPa)
#
#
# Indices 1 2 3 4 5 6 
#
# 1 86.4270 34.5650 46.8116 0.0000 8.5066 0.0000
# 2 34.5650 54.9964 38.0080 0.0000 3.7620 0.0000
# 3 46.8116 38.0080 107.5713 0.0000 14.0639 0.0000
# 4 0.0000 0.0000 0.0000 33.2985 0.0000 1.9625
# 5 8.5066 3.7620 14.0639 0.0000 28.6221 0.0000
# 6 0.0000 0.0000 0.0000 1.9625 0.0000 26.3277
#
#
#
# Elastic Compliance Matrix: (Units=1/GPa)
#
#
# Indices 1 2 3 4 5 6 
#
# 1 0.017264 -0.007541 -0.004603 0.000000 -0.001878 0.000000
# 2 -0.007541 0.027383 -0.006643 0.000000 0.001906 0.000000
# 3 -0.004603 -0.006643 0.014270 0.000000 -0.004771 0.000000
# 4 0.000000 0.000000 0.000000 0.030164 0.000000 -0.002248
# 5 -0.001878 0.001906 -0.004771 0.000000 0.037590 0.000000
# 6 0.000000 0.000000 0.000000 -0.002248 0.000000 0.038150
#
#
# Mechanical properties :
#
#
# Convention : Reuss Voigt Hill
#
# Bulk Modulus (GPa) = 46.85178 54.19600 50.52389
# Shear Modulus (GPa) = 23.86529 26.29032 25.07781
#
# Velocity S-wave (km/s) = 3.52465 3.69940 3.61308
# Velocity P-wave (km/s) = 6.39947 6.81611 6.61107
#
# Compressibility (1/GPa) = 0.02134391
#
# Stress axis : x y z
#
# Youngs Moduli (GPa) = 57.92309 36.51906 70.07728
#
# Poissons Ratio (x) = 0.27539 0.32255
# Poissons Ratio (y) = 0.43680 0.46551
# Poissons Ratio (z) = 0.26661 0.24259
#
# Static dielectric constant tensor:
#      x y z
#    x 3.627510 0.000000 0.007690 
#    y 0.000000 4.978660 0.000000 
#    z 0.007690 0.000000 3.729320 
# 
# 
# High freq. dielectric constant tensor:
#      x y z
#    x 1.749080 0.000000 0.005170 
#    y 0.000000 1.733310 0.000000 
#    z 0.005170 0.000000 1.756210 
# 
# From -- ./inp_files/56140.got.cif
#   From: 2010.06.25/outbox.cif.g09.slc.cpg/sg11_29_cif.got.tgz:56140.got - 2010.06.27 23:14:04.
