data_PCOD8070095
_publ_section_title
;
Structure prediction by ZEFSAII (Michael W. Deem and Ramdas Pophale) SiO2 
 PCOD8070095
Probable space group: P 21/M
;
_chemical_formula_sum "Si O2"
_cell_formula_units_Z 32
_cell_length_a 20.778061
_cell_length_b 11.274573
_cell_length_c 16.536336
_cell_angle_alpha 90.000000
_cell_angle_beta 151.010471
_cell_angle_gamma 90.000000
_cell_volume 1877.467471
_symmetry_space_group_name_H-M "P 21/M"
_symmetry_group_IT_number 11
_symmetry_cell_setting 'monoclinic'
loop_
_space_group_symop_operation_xyz
x,y,z
-x,1/2+y,-z
-x,-y,-z
x,1/2-y,z
loop_
_atom_site_type_symbol
_atom_site_label
_atom_site_fract_x
_atom_site_fract_y
_atom_site_fract_z
Si Si1 0.094348 0.380289 0.541911
Si Si2 0.837027 0.996550 0.225251
Si Si3 0.594300 0.118546 0.034600
Si Si4 0.665611 0.493949 0.272513
Si Si5 0.144419 0.115914 0.095961
Si Si6 0.091451 0.386896 0.858114
Si Si7 0.202078 0.886867 0.436974
Si Si8 0.168210 0.615630 0.218917
O O1 0.140246 0.250000 0.568279
O O2 0.107062 0.395608 0.652835
O O3 0.189737 0.469813 0.600009
O O4 0.941601 0.395733 0.347021
O O5 0.689030 0.030988 0.088962
O O6 0.827421 0.952489 0.122845
O O7 0.635519 0.250000 0.055870
O O8 0.608268 0.103237 0.146878
O O9 0.441376 0.099302 0.840985
O O10 0.683448 0.445143 0.382654
O O11 0.198994 0.250000 0.180781
O O12 0.211633 0.999855 0.212933
O O13 0.169321 0.096140 0.028071
O O14 0.989094 0.116535 0.943727
O O15 0.082304 0.250000 0.825114
O O16 0.943107 0.441533 0.702630
O O17 0.197530 0.750000 0.453901
O O18 0.237549 0.905949 0.381825
O O19 0.209021 0.750000 0.231055
#
# Coordination Sequence:
#
# PCOD8070095 Si02
#       8
#     4   4   4   4   4   4   4   4
#     4  10  19  30  45  66  92 118 155 201 237 276
#     4  10  19  31  46  67  91 123 159 192 235 283
#     4  10  21  34  47  64  94 129 158 197 245 283
#     4  10  19  33  50  67  88 123 164 198 233 281
#     4   8  14  25  42  64  95 128 156 189 236 291
#     4   9  16  28  47  69  94 124 158 196 233 279
#     4   9  16  28  48  70  92 121 159 199 235 279
#     4   8  14  25  42  65  95 125 155 193 238 288
#
# _framework density 17.044238
#
# number of rings (size 3 to 8) (size 9 to 14) (size 15 to 20)
#    0.000    2.750    1.250    3.000    0.000    0.000 
#    0.000    4.375    0.000    0.000    0.000    0.875 
#    0.000    0.000    0.000    0.000    0.000    0.000 
#
# Total GULP energy -396477.115316 kJ/mol
# GULP energy per Si atom -12389.909854 kJ/mol
# Density = 1.700544 g / cm^3
# Si number density = 17.044238 Si / 1000 Ang^3
#
#
#
# Elastic Constant Matrix: (Units=GPa)
#
#
# Indices 1 2 3 4 5 6 
#
# 1 72.2980 39.9136 28.9070 0.0000 -18.7615 0.0000
# 2 39.9136 95.9675 28.7205 0.0000 -21.5566 0.0000
# 3 28.9070 28.7205 59.1812 0.0000 -11.0171 0.0000
# 4 0.0000 0.0000 0.0000 11.4654 0.0000 -0.7627
# 5 -18.7615 -21.5566 -11.0171 0.0000 28.0803 0.0000
# 6 0.0000 0.0000 0.0000 -0.7627 0.0000 16.4553
#
#
#
# Elastic Compliance Matrix: (Units=1/GPa)
#
#
# Indices 1 2 3 4 5 6 
#
# 1 0.021269 -0.005190 -0.006437 0.000000 0.007701 0.000000
# 2 -0.005190 0.015168 -0.003564 0.000000 0.006778 0.000000
# 3 -0.006437 -0.003564 0.022073 0.000000 0.001624 0.000000
# 4 0.000000 0.000000 0.000000 0.087489 0.000000 0.004055
# 5 0.007701 0.006778 0.001624 0.000000 0.046598 0.000000
# 6 0.000000 0.000000 0.000000 0.004055 0.000000 0.060959
#
#
# Mechanical properties :
#
#
# Convention : Reuss Voigt Hill
#
# Bulk Modulus (GPa) = 35.55073 46.94766 41.24919
# Shear Modulus (GPa) = 17.04671 19.86059 18.45365
#
# Velocity S-wave (km/s) = 3.16594 3.41726 3.29400
# Velocity P-wave (km/s) = 5.85384 6.57074 6.22262
#
# Compressibility (1/GPa) = 0.02812882
#
# Stress axis : x y z
#
# Youngs Moduli (GPa) = 47.01756 65.92898 45.30399
#
# Poissons Ratio (x) = 0.34215 0.29160
# Poissons Ratio (y) = 0.24401 0.16147
# Poissons Ratio (z) = 0.30263 0.23498
#
# Static dielectric constant tensor:
#      x y z
#    x 3.032200 0.000000 -0.200020 
#    y 0.000000 3.227130 0.000000 
#    z -0.200020 0.000000 2.953960 
# 
# 
# High freq. dielectric constant tensor:
#      x y z
#    x 1.637360 0.000000 -0.014830 
#    y 0.000000 1.652390 0.000000 
#    z -0.014830 0.000000 1.626480 
# 
# From -- ./inp_files/26601.got.cif
#   From: 2010.06.25/outbox.cif.g09.slc.cpg/sg11_14_cif.got.tgz:26601.got - 2010.06.27 23:14:04.
