data_PCOD8070364
_publ_section_title
;
Structure prediction by ZEFSAII (Michael W. Deem and Ramdas Pophale) SiO2 
 PCOD8070364
Probable space group: P 21/M
;
_chemical_formula_sum "Si O2"
_cell_formula_units_Z 32
_cell_length_a 18.361324
_cell_length_b 9.090545
_cell_length_c 26.303445
_cell_angle_alpha 90.000000
_cell_angle_beta 28.940547
_cell_angle_gamma 90.000000
_cell_volume 2124.534529
_symmetry_space_group_name_H-M "P 21/M"
_symmetry_group_IT_number 11
_symmetry_cell_setting 'monoclinic'
loop_
_space_group_symop_operation_xyz
x,y,z
-x,1/2+y,-z
-x,-y,-z
x,1/2-y,z
loop_
_atom_site_type_symbol
_atom_site_label
_atom_site_fract_x
_atom_site_fract_y
_atom_site_fract_z
Si Si1 0.641428 0.078453 0.474136
Si Si2 0.738058 0.917526 0.513440
Si Si3 0.090404 0.921443 0.871124
Si Si4 0.469722 0.421685 0.264364
Si Si5 0.804047 0.421720 0.081075
Si Si6 0.971049 0.582574 0.449439
Si Si7 0.700742 0.922264 0.336394
Si Si8 0.238244 0.582190 0.347524
O O1 0.671466 0.250000 0.447256
O O2 0.464225 0.043087 0.585022
O O3 0.717826 0.027655 0.479459
O O4 0.718523 0.989940 0.381423
O O5 0.705099 0.750000 0.516054
O O6 0.623407 0.963751 0.628322
O O7 0.910605 0.934022 0.428502
O O8 0.082676 0.750000 0.862984
O O9 0.176407 0.952270 0.871133
O O10 0.177395 0.003682 0.773771
O O11 0.922100 0.985037 0.976361
O O12 0.470683 0.250000 0.255183
O O13 0.639429 0.479975 0.166096
O O14 0.391779 0.490790 0.261612
O O15 0.827219 0.250000 0.054865
O O16 0.931264 0.750000 0.492170
O O17 0.884430 0.463414 0.535804
O O18 0.152474 0.557650 0.345238
O O19 0.732864 0.750000 0.319941
O O20 0.283856 0.750000 0.327629
#
# Coordination Sequence:
#
# PCOD8070364 Si02
#       8
#     4   4   4   4   4   4   4   4
#     4  10  20  31  44  64  85 106 139 178 209 242
#     4   9  16  27  42  59  83 114 143 171 208 250
#     4  10  19  31  47  64  83 108 140 178 212 243
#     4   9  17  28  41  58  84 116 144 171 206 249
#     4   9  18  31  45  62  85 113 142 171 208 252
#     4   8  15  26  37  52  78 111 141 168 204 249
#     4  10  20  33  47  61  82 112 140 169 210 255
#     4   9  15  23  37  56  78 106 141 176 205 238
#
# _framework density 15.062122
#
# number of rings (size 3 to 8) (size 9 to 14) (size 15 to 20)
#    0.000    2.750    0.000    3.000    0.000    6.000 
#    0.000    0.000    0.000    0.000    0.000    0.000 
#    0.000    1.000    0.000    3.000    0.000    4.875 
#
# Total GULP energy -396622.629845 kJ/mol
# GULP energy per Si atom -12394.457183 kJ/mol
# Density = 1.502784 g / cm^3
# Si number density = 15.062122 Si / 1000 Ang^3
#
#
#
# Elastic Constant Matrix: (Units=GPa)
#
#
# Indices 1 2 3 4 5 6 
#
# 1 110.9373 45.4736 53.6329 0.0000 -19.7053 0.0000
# 2 45.4736 66.6991 46.0503 0.0000 -1.8242 0.0000
# 3 53.6329 46.0503 84.4802 0.0000 -7.2841 0.0000
# 4 0.0000 0.0000 0.0000 22.5465 0.0000 -0.6953
# 5 -19.7053 -1.8242 -7.2841 0.0000 23.1792 0.0000
# 6 0.0000 0.0000 0.0000 -0.6953 0.0000 26.8369
#
#
#
# Elastic Compliance Matrix: (Units=1/GPa)
#
#
# Indices 1 2 3 4 5 6 
#
# 1 0.016876 -0.007206 -0.005754 0.000000 0.011971 0.000000
# 2 -0.007206 0.027235 -0.010911 0.000000 -0.007411 0.000000
# 3 -0.005754 -0.010911 0.021525 0.000000 0.001014 0.000000
# 4 0.000000 0.000000 0.000000 0.044388 0.000000 0.001150
# 5 0.011971 -0.007411 0.001014 0.000000 0.053055 0.000000
# 6 0.000000 0.000000 0.000000 0.001150 0.000000 0.037292
#
#
# Mechanical properties :
#
#
# Convention : Reuss Voigt Hill
#
# Bulk Modulus (GPa) = 55.87782 61.38113 58.62948
# Shear Modulus (GPa) = 19.67915 22.30984 20.99450
#
# Velocity S-wave (km/s) = 3.61852 3.85280 3.73749
# Velocity P-wave (km/s) = 7.39169 7.78669 7.59176
#
# Compressibility (1/GPa) = 0.01789619
#
# Stress axis : x y z
#
# Youngs Moduli (GPa) = 59.25658 36.71690 46.45822
#
# Poissons Ratio (x) = 0.26456 0.26731
# Poissons Ratio (y) = 0.42697 0.50689
# Poissons Ratio (z) = 0.34095 0.40060
#
# Static dielectric constant tensor:
#      x y z
#    x 3.134470 0.000000 -0.263350 
#    y 0.000000 2.964580 0.000000 
#    z -0.263350 0.000000 2.670970 
# 
# 
# High freq. dielectric constant tensor:
#      x y z
#    x 1.576080 0.000000 -0.020530 
#    y 0.000000 1.588520 0.000000 
#    z -0.020530 0.000000 1.532090 
# 
# From -- ./inp_files/42528.got.cif
#   From: 2010.06.25/outbox.cif.g09.slc.cpg/sg11_22_cif.got.tgz:42528.got - 2010.06.27 23:14:04.
