data_PCOD8070586
_publ_section_title
;
Structure prediction by ZEFSAII (Michael W. Deem and Ramdas Pophale) SiO2 
 PCOD8070586
Probable space group: P 21/M
;
_chemical_formula_sum "Si O2"
_cell_formula_units_Z 28
_cell_length_a 29.128768
_cell_length_b 9.717058
_cell_length_c 29.165718
_cell_angle_alpha 90.000000
_cell_angle_beta 10.174941
_cell_angle_gamma 90.000000
_cell_volume 1458.323023
_symmetry_space_group_name_H-M "P 21/M"
_symmetry_group_IT_number 11
_symmetry_cell_setting 'monoclinic'
loop_
_space_group_symop_operation_xyz
x,y,z
-x,1/2+y,-z
-x,-y,-z
x,1/2-y,z
loop_
_atom_site_type_symbol
_atom_site_label
_atom_site_fract_x
_atom_site_fract_y
_atom_site_fract_z
Si Si1 0.798396 0.538149 0.793068
Si Si2 0.489851 0.413270 0.464017
Si Si3 0.714118 0.750000 0.798442
Si Si4 0.328037 0.903134 0.322741
Si Si5 0.819172 0.250000 0.729243
Si Si6 0.361179 0.086401 0.378438
Si Si7 0.891913 0.413185 0.903051
Si Si8 0.044026 0.587964 0.058349
O O1 0.763195 0.613230 0.779239
O O2 0.805688 0.376911 0.776926
O O3 0.061579 0.587081 0.557387
O O4 0.560880 0.571963 0.059196
O O5 0.500000 0.500000 0.500000
O O6 0.498896 0.250000 0.465901
O O7 0.231585 0.456769 0.690948
O O8 0.729736 0.464615 0.197460
O O9 0.905819 0.750000 0.566827
O O10 0.416958 0.750000 0.074230
O O11 0.352367 0.750000 0.320025
O O12 0.336282 0.016981 0.353866
O O13 0.356416 0.250000 0.375633
O O14 0.126505 0.034267 0.640907
O O15 0.624060 0.035887 0.144293
O O16 0.898330 0.250000 0.899834
O O17 0.921181 0.477413 0.925224
O O18 0.064608 0.750000 0.042521
#
# Coordination Sequence:
#
# PCOD8070586 Si02
#       8
#     4   4   2   4   2   4   4   4
#     4  12  25  42  65  89 119 154 191 232 280 333
#     4  10  19  31  49  75 104 143 184 226 272 328
#     4  12  22  46  62  92 122 152 192 224 286 340
#     4  12  24  43  61  85 119 160 190 224 279 346
#     4  12  26  40  68  94 118 148 190 246 280 320
#     4  10  21  34  59  85 111 138 180 236 281 326
#     4   9  17  33  53  84 109 136 179 233 285 328
#     4   9  17  30  52  75 105 141 181 226 278 333
#
# _framework density 19.200136000000001
#
# number of rings (size 3 to 8) (size 9 to 14) (size 15 to 20)
#    0.000    1.429    1.429    4.714    2.000    3.429 
#    0.000    0.000    0.000    5.143    0.000    0.000 
#    0.000    0.000    0.000    0.000    0.000    0.000 
#
# Total GULP energy -347319.019526 kJ/mol
# GULP energy per Si atom -12404.250697 kJ/mol
# Density = 1.915644 g / cm^3
# Si number density = 19.200136 Si / 1000 Ang^3
#
#
#
# Elastic Constant Matrix: (Units=GPa)
#
#
# Indices 1 2 3 4 5 6 
#
# 1 111.3424 22.6984 57.9689 0.0000 43.5620 0.0000
# 2 22.6984 83.0163 7.5549 0.0000 -10.9740 0.0000
# 3 57.9689 7.5549 170.8983 0.0000 66.7339 0.0000
# 4 0.0000 0.0000 0.0000 15.3077 0.0000 5.2428
# 5 43.5620 -10.9740 66.7339 0.0000 55.4261 0.0000
# 6 0.0000 0.0000 0.0000 5.2428 0.0000 27.5542
#
#
#
# Elastic Compliance Matrix: (Units=1/GPa)
#
#
# Indices 1 2 3 4 5 6 
#
# 1 0.015410 -0.006088 0.000457 0.000000 -0.013867 0.000000
# 2 -0.006088 0.015549 -0.003195 0.000000 0.011711 0.000000
# 3 0.000457 -0.003195 0.011749 0.000000 -0.015137 0.000000
# 4 0.000000 0.000000 0.000000 0.069881 0.000000 -0.013296
# 5 -0.013867 0.011711 -0.015137 0.000000 0.049485 0.000000
# 6 0.000000 0.000000 0.000000 -0.013296 0.000000 0.038822
#
#
# Mechanical properties :
#
#
# Convention : Reuss Voigt Hill
#
# Bulk Modulus (GPa) = 39.91178 60.18904 50.05041
# Shear Modulus (GPa) = 22.03619 38.12658 30.08139
#
# Velocity S-wave (km/s) = 3.39146 4.46100 3.96249
# Velocity P-wave (km/s) = 6.01402 7.61251 6.85998
#
# Compressibility (1/GPa) = 0.02505526
#
# Stress axis : x y z
#
# Youngs Moduli (GPa) = 64.89358 64.31177 85.11629
#
# Poissons Ratio (x) = 0.39153 -0.03890
# Poissons Ratio (y) = 0.39508 0.27196
# Poissons Ratio (z) = -0.02966 0.20549
#
# Static dielectric constant tensor:
#      x y z
#    x 3.610080 0.000000 0.014730 
#    y 0.000000 3.425290 0.000000 
#    z 0.014730 0.000000 3.867830 
# 
# 
# High freq. dielectric constant tensor:
#      x y z
#    x 1.756340 0.000000 -0.000490 
#    y 0.000000 1.719760 0.000000 
#    z -0.000490 0.000000 1.772750 
# 
# From -- ./inp_files/73868.got.cif
#   From: 2010.06.25/outbox.cif.g09.slc.cpg/sg11_37_cif.got.tgz:73868.got - 2010.06.27 23:14:04.
