data_PCOD8070914
_publ_section_title
;
Structure prediction by ZEFSAII (Michael W. Deem and Ramdas Pophale) SiO2 
 PCOD8070914
Probable space group: P 21/M
;
_chemical_formula_sum "Si O2"
_cell_formula_units_Z 28
_cell_length_a 11.715968
_cell_length_b 8.968640
_cell_length_c 19.757170
_cell_angle_alpha 90.000000
_cell_angle_beta 52.056671
_cell_angle_gamma 90.000000
_cell_volume 1637.181829
_symmetry_space_group_name_H-M "P 21/M"
_symmetry_group_IT_number 11
_symmetry_cell_setting 'monoclinic'
loop_
_space_group_symop_operation_xyz
x,y,z
-x,1/2+y,-z
-x,-y,-z
x,1/2-y,z
loop_
_atom_site_type_symbol
_atom_site_label
_atom_site_fract_x
_atom_site_fract_y
_atom_site_fract_z
Si Si1 0.378452 0.424842 0.499503
Si Si2 0.101929 0.575307 0.147161
Si Si3 0.437523 0.073485 0.831966
Si Si4 0.801158 0.923956 0.313343
Si Si5 0.872836 0.926450 0.005054
Si Si6 0.591722 0.076407 0.908122
Si Si7 0.522581 0.927476 0.332923
O O1 0.500000 0.500000 0.500000
O O2 0.408076 0.250000 0.481681
O O3 0.229351 0.455607 0.595479
O O4 0.385042 0.501088 0.423047
O O5 0.088453 0.750000 0.133741
O O6 0.237581 0.546105 0.146972
O O7 0.957830 0.510835 0.236206
O O8 0.126749 0.480976 0.071430
O O9 0.442553 0.250000 0.827658
O O10 0.275417 0.019581 0.906408
O O11 0.544058 0.013143 0.851975
O O12 0.485422 0.012426 0.741058
O O13 0.806273 0.750000 0.297724
O O14 0.672647 0.986764 0.312021
O O15 0.889995 0.750000 0.000706
O O16 0.000000 0.000000 0.000000
O O17 0.554281 0.250000 0.926700
O O18 0.500000 0.000000 0.000000
O O19 0.510573 0.750000 0.342120
#
# Coordination Sequence:
#
# PCOD8070914 Si02
#       7
#     4   4   4   4   4   4   4
#     4   9  16  28  46  68  95 123 153 190 235 287
#     4  10  19  32  51  72  94 125 165 201 235 284
#     4   9  18  32  49  68  95 130 160 194 241 287
#     4   8  15  28  46  68  94 124 154 188 236 289
#     4  11  21  33  48  68  99 129 157 194 241 291
#     4  10  19  33  52  71  93 125 168 206 238 282
#     4   9  16  29  48  67  92 125 159 193 233 286
#
# _framework density 17.102557999999998
#
# number of rings (size 3 to 8) (size 9 to 14) (size 15 to 20)
#    0.000    2.571    1.429    2.571    0.000    2.286 
#    0.000    8.571    0.000    0.857    0.000    0.000 
#    0.000    0.000    0.000    0.000    0.000    0.571 
#
# Total GULP energy -347011.227086 kJ/mol
# GULP energy per Si atom -12393.258110 kJ/mol
# Density = 1.706363 g / cm^3
# Si number density = 17.102558 Si / 1000 Ang^3
#
#
#
# Elastic Constant Matrix: (Units=GPa)
#
#
# Indices 1 2 3 4 5 6 
#
# 1 101.2198 26.2157 53.6254 0.0000 22.8700 0.0000
# 2 26.2157 43.9511 35.3393 0.0000 4.3485 0.0000
# 3 53.6254 35.3393 145.3087 0.0000 32.4362 0.0000
# 4 0.0000 0.0000 0.0000 27.2251 0.0000 3.6117
# 5 22.8700 4.3485 32.4362 0.0000 18.9592 0.0000
# 6 0.0000 0.0000 0.0000 3.6117 0.0000 17.7885
#
#
#
# Elastic Compliance Matrix: (Units=1/GPa)
#
#
# Indices 1 2 3 4 5 6 
#
# 1 0.015777 -0.007577 -0.000193 0.000000 -0.016963 0.000000
# 2 -0.007577 0.032804 -0.008967 0.000000 0.016957 0.000000
# 3 -0.000193 -0.008967 0.013951 0.000000 -0.021578 0.000000
# 4 0.000000 0.000000 0.000000 0.037748 0.000000 -0.007664
# 5 -0.016963 0.016957 -0.021578 0.000000 0.106234 0.000000
# 6 0.000000 0.000000 0.000000 -0.007664 0.000000 0.057772
#
#
# Mechanical properties :
#
#
# Convention : Reuss Voigt Hill
#
# Bulk Modulus (GPa) = 34.41433 57.87114 46.14274
# Shear Modulus (GPa) = 16.26304 24.48117 20.37210
#
# Velocity S-wave (km/s) = 3.08703 3.78753 3.45508
# Velocity P-wave (km/s) = 5.73344 7.28275 6.55404
#
# Compressibility (1/GPa) = 0.02905766
#
# Stress axis : x y z
#
# Youngs Moduli (GPa) = 63.38369 30.48376 71.68159
#
# Poissons Ratio (x) = 0.23097 0.01384
# Poissons Ratio (y) = 0.48026 0.64277
# Poissons Ratio (z) = 0.01224 0.27335
#
# Static dielectric constant tensor:
#      x y z
#    x 2.993750 0.000000 -0.148620 
#    y 0.000000 3.082460 0.000000 
#    z -0.148620 0.000000 3.627330 
# 
# 
# High freq. dielectric constant tensor:
#      x y z
#    x 1.638780 0.000000 0.006640 
#    y 0.000000 1.636710 0.000000 
#    z 0.006640 0.000000 1.671640 
# 
# From -- ./inp_files/42318.got.cif
#   From: 2010.06.25/outbox.cif.g09.slc.cpg/sg11_22_cif.got.tgz:42318.got - 2010.06.27 23:14:04.
