data_PCOD8070424
_publ_section_title
;
Structure prediction by ZEFSAII (Michael W. Deem and Ramdas Pophale) SiO2 
 PCOD8070424
Probable space group: P 21/M
;
_chemical_formula_sum "Si O2"
_cell_formula_units_Z 16
_cell_length_a 21.908943
_cell_length_b 5.221044
_cell_length_c 8.187348
_cell_angle_alpha 90.000000
_cell_angle_beta 128.094878
_cell_angle_gamma 90.000000
_cell_volume 737.040481
_symmetry_space_group_name_H-M "P 21/M"
_symmetry_group_IT_number 11
_symmetry_cell_setting 'monoclinic'
loop_
_space_group_symop_operation_xyz
x,y,z
-x,1/2+y,-z
-x,-y,-z
x,1/2-y,z
loop_
_atom_site_type_symbol
_atom_site_label
_atom_site_fract_x
_atom_site_fract_y
_atom_site_fract_z
Si Si1 0.486725 0.250000 0.763141
Si Si2 0.821394 0.250000 0.548524
Si Si3 0.679567 0.750000 0.625052
Si Si4 0.764144 0.250000 0.823103
Si Si5 0.014838 0.750000 0.311167
Si Si6 0.429541 0.250000 0.039424
Si Si7 0.071507 0.750000 0.773048
Si Si8 0.736595 0.750000 0.349329
O O1 0.413723 0.250000 0.520002
O O2 0.538478 0.500358 0.814851
O O3 0.457277 0.250000 0.899419
O O4 0.797074 0.250000 0.695297
O O5 0.788430 0.499622 0.401409
O O6 0.914465 0.250000 0.699258
O O7 0.711741 0.499241 0.769233
O O8 0.705963 0.750000 0.482196
O O9 0.835697 0.250000 0.065555
O O10 0.962343 0.500652 0.193300
O O11 0.050368 0.750000 0.549509
O O12 0.336212 0.250000 0.894071
#
# Coordination Sequence:
#
# PCOD8070424 Si02
#       8
#     2   2   2   2   2   2   2   2
#     4   9  15  23  37  58  88 125 156 182 220 269
#     4  10  19  31  48  69  95 124 152 188 232 276
#     4   9  17  28  42  65  96 125 154 190 230 269
#     4  10  19  31  48  69  95 124 152 188 232 276
#     4  10  21  36  52  70  93 120 152 192 232 272
#     4   9  15  23  37  58  88 125 156 182 220 269
#     4  10  21  36  52  70  93 120 152 192 232 272
#     4   9  17  28  42  65  96 125 154 190 230 269
#
# _framework density 21.708441000000001
#
# number of rings (size 3 to 8) (size 9 to 14) (size 15 to 20)
#    0.000    2.500    0.000    3.000    0.000    7.000 
#    0.000    0.000    0.000    0.000    0.000    0.000 
#    0.000   20.000    0.000    0.000    0.000    0.000 
#
# Total GULP energy -198445.879488 kJ/mol
# GULP energy per Si atom -12402.867468 kJ/mol
# Density = 2.165903 g / cm^3
# Si number density = 21.708441 Si / 1000 Ang^3
#
#
#
# Elastic Constant Matrix: (Units=GPa)
#
#
# Indices 1 2 3 4 5 6 
#
# 1 8.6732 3.9111 -0.2871 0.0000 2.6549 0.0000
# 2 3.9111 207.2228 63.2130 0.0000 16.8045 0.0000
# 3 -0.2871 63.2130 119.5627 0.0000 39.2256 0.0000
# 4 0.0000 0.0000 0.0000 39.0714 0.0000 20.4331
# 5 2.6549 16.8045 39.2256 0.0000 15.1323 0.0000
# 6 0.0000 0.0000 0.0000 20.4331 0.0000 16.3436
#
#
#
# Elastic Compliance Matrix: (Units=1/GPa)
#
#
# Indices 1 2 3 4 5 6 
#
# 1 0.205541 -0.010884 0.094360 0.000000 -0.268573 0.000000
# 2 -0.010884 0.006566 -0.011579 0.000000 0.024632 0.000000
# 3 0.094360 -0.011579 0.106471 0.000000 -0.279688 0.000000
# 4 0.000000 0.000000 0.000000 0.073935 0.000000 -0.092435
# 5 -0.268573 0.024632 -0.279688 0.000000 0.810850 0.000000
# 6 0.000000 0.000000 0.000000 -0.092435 0.000000 0.176750
#
#
# Mechanical properties :
#
#
# Convention : Reuss Voigt Hill
#
# Bulk Modulus (GPa) = 2.16276 52.12586 27.14431
# Shear Modulus (GPa) = 3.59598 32.01758 17.80678
#
# Velocity S-wave (km/s) = 1.28844 3.84460 2.86714
# Velocity P-wave (km/s) = 1.79217 6.61603 4.84684
#
# Compressibility (1/GPa) = 0.46237183
#
# Stress axis : x y z
#
# Youngs Moduli (GPa) = 4.86522 152.30718 9.39224
#
# Poissons Ratio (x) = 1.65774 -0.88625
# Poissons Ratio (y) = 0.05295 0.10875
# Poissons Ratio (z) = -0.45908 1.76352
#
# Static dielectric constant tensor:
#      x y z
#    x 3.329250 0.000000 0.381120 
#    y 0.000000 4.258500 0.000000 
#    z 0.381120 0.000000 3.837720 
# 
# 
# High freq. dielectric constant tensor:
#      x y z
#    x 1.810280 0.000000 0.028950 
#    y 0.000000 1.871520 0.000000 
#    z 0.028950 0.000000 1.849260 
# 
# From -- ./inp_files/8297.got.cif
#   From: 2010.06.25/outbox.cif.g09.slc.cpg/sg11_5_cif.got.tgz:8297.got - 2010.06.27 23:14:04.
