data_PCOD8070143
_publ_section_title
;
Structure prediction by ZEFSAII (Michael W. Deem and Ramdas Pophale) SiO2 
 PCOD8070143
Probable space group: P 21/M
;
_chemical_formula_sum "Si O2"
_cell_formula_units_Z 32
_cell_length_a 28.792135
_cell_length_b 9.252760
_cell_length_c 15.523337
_cell_angle_alpha 90.000000
_cell_angle_beta 153.469297
_cell_angle_gamma 90.000000
_cell_volume 1847.243518
_symmetry_space_group_name_H-M "P 21/M"
_symmetry_group_IT_number 11
_symmetry_cell_setting 'monoclinic'
loop_
_space_group_symop_operation_xyz
x,y,z
-x,1/2+y,-z
-x,-y,-z
x,1/2-y,z
loop_
_atom_site_type_symbol
_atom_site_label
_atom_site_fract_x
_atom_site_fract_y
_atom_site_fract_z
Si Si1 0.353871 0.083171 0.605584
Si Si2 0.765170 0.581093 0.177999
Si Si3 0.072408 0.413270 0.681586
Si Si4 0.081074 0.579954 0.436292
Si Si5 0.585528 0.414233 0.947017
Si Si6 0.966807 0.583403 0.811896
Si Si7 0.605983 0.085084 0.172306
Si Si8 0.861267 0.913225 0.818505
O O1 0.362024 0.250000 0.647687
O O2 0.465378 0.032479 0.752709
O O3 0.263278 0.060355 0.384496
O O4 0.320344 0.992063 0.635136
O O5 0.763006 0.750000 0.199381
O O6 0.808216 0.557558 0.150685
O O7 0.836219 0.494450 0.363408
O O8 0.648358 0.517119 0.986046
O O9 0.044046 0.250000 0.613335
O O10 0.000000 0.500000 0.500000
O O11 0.037460 0.444886 0.722396
O O12 0.107613 0.750000 0.471327
O O13 0.087079 0.506264 0.353449
O O14 0.588569 0.250000 0.917958
O O15 0.644962 0.424549 0.138392
O O16 0.976786 0.750000 0.801197
O O17 0.896306 0.561497 0.778559
O O18 0.082378 0.522423 0.023127
O O19 0.589142 0.250000 0.172273
O O20 0.500000 0.000000 0.000000
O O21 0.888791 0.750000 0.892953
#
# Coordination Sequence:
#
# PCOD8070143 Si02
#       8
#     4   4   4   4   4   4   4   4
#     4   9  18  32  48  64  87 121 159 193 228 271
#     4  10  19  30  46  69  97 125 156 191 227 272
#     4   8  16  30  46  66  91 121 153 186 226 275
#     4  10  19  32  50  69  94 125 155 188 232 279
#     4   9  18  30  42  64  93 122 156 190 225 272
#     4  10  20  33  49  73  96 117 153 195 232 276
#     4   9  17  28  41  59  85 117 154 191 224 263
#     4   9  19  35  51  67  91 124 156 192 235 272
#
# _framework density 17.323108000000001
#
# number of rings (size 3 to 8) (size 9 to 14) (size 15 to 20)
#    0.000    2.750    0.000    2.250    1.750    4.500 
#    0.000    0.000    0.000    0.000    0.000    0.875 
#    0.000    0.000    0.000    0.000    0.000    0.000 
#
# Total GULP energy -396440.763994 kJ/mol
# GULP energy per Si atom -12388.773875 kJ/mol
# Density = 1.728368 g / cm^3
# Si number density = 17.323108 Si / 1000 Ang^3
#
#
#
# Elastic Constant Matrix: (Units=GPa)
#
#
# Indices 1 2 3 4 5 6 
#
# 1 46.5885 23.5662 10.7652 0.0000 16.0592 0.0000
# 2 23.5662 80.6453 19.7224 0.0000 8.3864 0.0000
# 3 10.7652 19.7224 55.0706 0.0000 13.4800 0.0000
# 4 0.0000 0.0000 0.0000 25.2766 0.0000 2.6380
# 5 16.0592 8.3864 13.4800 0.0000 21.6507 0.0000
# 6 0.0000 0.0000 0.0000 2.6380 0.0000 22.9843
#
#
#
# Elastic Compliance Matrix: (Units=1/GPa)
#
#
# Indices 1 2 3 4 5 6 
#
# 1 0.032627 -0.007658 0.001843 0.000000 -0.022382 0.000000
# 2 -0.007658 0.015516 -0.004694 0.000000 0.002593 0.000000
# 3 0.001843 -0.004694 0.022852 0.000000 -0.013776 0.000000
# 4 0.000000 0.000000 0.000000 0.040042 0.000000 -0.004596
# 5 -0.022382 0.002593 -0.013776 0.000000 0.070363 0.000000
# 6 0.000000 0.000000 0.000000 -0.004596 0.000000 0.044035
#
#
# Mechanical properties :
#
#
# Convention : Reuss Voigt Hill
#
# Bulk Modulus (GPa) = 20.00916 32.26803 26.13859
# Shear Modulus (GPa) = 19.00329 22.53235 20.76782
#
# Velocity S-wave (km/s) = 3.31568 3.61045 3.46620
# Velocity P-wave (km/s) = 5.12191 6.00400 5.58041
#
# Compressibility (1/GPa) = 0.04997712
#
# Stress axis : x y z
#
# Youngs Moduli (GPa) = 30.64911 64.44898 43.76064
#
# Poissons Ratio (x) = 0.49352 -0.08065
# Poissons Ratio (y) = 0.23470 0.20543
# Poissons Ratio (z) = -0.05649 0.30256
#
# Static dielectric constant tensor:
#      x y z
#    x 3.799570 0.000000 -0.114090 
#    y 0.000000 3.408940 0.000000 
#    z -0.114090 0.000000 3.471010 
# 
# 
# High freq. dielectric constant tensor:
#      x y z
#    x 1.649250 0.000000 0.024660 
#    y 0.000000 1.681340 0.000000 
#    z 0.024660 0.000000 1.637140 
# 
# From -- ./inp_files/56198.got.cif
#   From: 2010.06.25/outbox.cif.g09.slc.cpg/sg11_29_cif.got.tgz:56198.got - 2010.06.27 23:14:04.
