data_PCOD8070461
_publ_section_title
;
Structure prediction by ZEFSAII (Michael W. Deem and Ramdas Pophale) SiO2 
 PCOD8070461
Probable space group: P 21/M
;
_chemical_formula_sum "Si O2"
_cell_formula_units_Z 28
_cell_length_a 21.258642
_cell_length_b 9.992684
_cell_length_c 18.676299
_cell_angle_alpha 90.000000
_cell_angle_beta 156.378131
_cell_angle_gamma 90.000000
_cell_volume 1589.741442
_symmetry_space_group_name_H-M "P 21/M"
_symmetry_group_IT_number 11
_symmetry_cell_setting 'monoclinic'
loop_
_space_group_symop_operation_xyz
x,y,z
-x,1/2+y,-z
-x,-y,-z
x,1/2-y,z
loop_
_atom_site_type_symbol
_atom_site_label
_atom_site_fract_x
_atom_site_fract_y
_atom_site_fract_z
Si Si1 0.545407 0.593759 0.481129
Si Si2 0.237183 0.094756 0.930065
Si Si3 0.496011 0.395782 0.096217
Si Si4 0.074489 0.894421 0.664376
Si Si5 0.747350 0.532573 0.270573
Si Si6 0.330035 0.404339 0.185360
Si Si7 0.135261 0.398615 0.123126
O O1 0.500000 0.500000 0.500000
O O2 0.485497 0.750000 0.424046
O O3 0.471910 0.513915 0.336679
O O4 0.734554 0.594939 0.677802
O O5 0.206363 0.250000 0.878576
O O6 0.098527 0.007962 0.749812
O O7 0.403753 0.046755 0.069511
O O8 0.238670 0.071639 0.016270
O O9 0.561112 0.250000 0.182984
O O10 0.647953 0.481586 0.234939
O O11 0.371755 0.380995 0.901426
O O12 0.121703 0.750000 0.745603
O O13 0.181397 0.915756 0.705351
O O14 0.892120 0.884041 0.452322
O O15 0.392736 0.250000 0.255924
O O16 0.209430 0.434456 0.123527
O O17 0.062644 0.250000 0.044449
O O18 0.000000 0.500000 0.000000
#
# Coordination Sequence:
#
# PCOD8070461 Si02
#       7
#     4   4   4   4   4   4   4
#     4   9  17  30  50  75  98 123 157 194 230 274
#     4   9  19  34  51  70  95 127 161 198 239 287
#     4   9  16  29  48  69  91 120 160 200 242 287
#     4  10  19  31  48  71  98 128 162 197 240 289
#     4   9  18  29  46  70  96 123 156 203 246 283
#     4   9  18  34  52  71  97 128 161 196 236 283
#     4   9  18  31  49  74 100 123 154 194 234 277
#
# _framework density 17.612926000000002
#
# number of rings (size 3 to 8) (size 9 to 14) (size 15 to 20)
#    0.000    2.857    0.000    2.143    0.000    7.429 
#    0.000    2.143    0.000    6.857    0.000    0.000 
#    0.000    0.000    0.000    0.000    0.000    0.000 
#
# Total GULP energy -346883.369318 kJ/mol
# GULP energy per Si atom -12388.691761 kJ/mol
# Density = 1.757284 g / cm^3
# Si number density = 17.612926 Si / 1000 Ang^3
#
#
#
# Elastic Constant Matrix: (Units=GPa)
#
#
# Indices 1 2 3 4 5 6 
#
# 1 70.3067 33.8652 35.8485 0.0000 -2.0977 0.0000
# 2 33.8652 114.4610 47.1337 0.0000 -1.3975 0.0000
# 3 35.8485 47.1337 72.4424 0.0000 3.2370 0.0000
# 4 0.0000 0.0000 0.0000 24.9886 0.0000 -2.2947
# 5 -2.0977 -1.3975 3.2370 0.0000 25.4849 0.0000
# 6 0.0000 0.0000 0.0000 -2.2947 0.0000 20.2350
#
#
#
# Elastic Compliance Matrix: (Units=1/GPa)
#
#
# Indices 1 2 3 4 5 6 
#
# 1 0.019678 -0.002369 -0.008310 0.000000 0.002545 0.000000
# 2 -0.002369 0.012289 -0.006884 0.000000 0.001353 0.000000
# 3 -0.008310 -0.006884 0.022571 0.000000 -0.003928 0.000000
# 4 0.000000 0.000000 0.000000 0.040439 0.000000 0.004586
# 5 0.002545 0.001353 -0.003928 0.000000 0.040022 0.000000
# 6 0.000000 0.000000 0.000000 0.004586 0.000000 0.049939
#
#
# Mechanical properties :
#
#
# Convention : Reuss Voigt Hill
#
# Bulk Modulus (GPa) = 51.51530 54.54502 53.03016
# Shear Modulus (GPa) = 22.07189 23.49923 22.78556
#
# Velocity S-wave (km/s) = 3.54385 3.65664 3.60068
# Velocity P-wave (km/s) = 6.78655 6.99028 6.88916
#
# Compressibility (1/GPa) = 0.01941171
#
# Stress axis : x y z
#
# Youngs Moduli (GPa) = 50.81939 81.37624 44.30545
#
# Poissons Ratio (x) = 0.19277 0.36818
# Poissons Ratio (y) = 0.12039 0.30498
# Poissons Ratio (z) = 0.42231 0.56016
#
# Static dielectric constant tensor:
#      x y z
#    x 3.146840 0.000000 -0.071680 
#    y 0.000000 3.420690 0.000000 
#    z -0.071680 0.000000 3.282100 
# 
# 
# High freq. dielectric constant tensor:
#      x y z
#    x 1.653350 0.000000 0.001470 
#    y 0.000000 1.686310 0.000000 
#    z 0.001470 0.000000 1.667230 
# 
# From -- ./inp_files/66742.got.cif
#   From: 2010.06.25/outbox.cif.g09.slc.cpg/sg11_34_cif.got.tgz:66742.got - 2010.06.27 23:14:04.
