data_PCOD8070155
_publ_section_title
;
Structure prediction by ZEFSAII (Michael W. Deem and Ramdas Pophale) SiO2 
 PCOD8070155
Probable space group: P 21/M
;
_chemical_formula_sum "Si O2"
_cell_formula_units_Z 32
_cell_length_a 22.570324
_cell_length_b 9.139804
_cell_length_c 11.700289
_cell_angle_alpha 90.000000
_cell_angle_beta 132.413914
_cell_angle_gamma 90.000000
_cell_volume 1781.965015
_symmetry_space_group_name_H-M "P 21/M"
_symmetry_group_IT_number 11
_symmetry_cell_setting 'monoclinic'
loop_
_space_group_symop_operation_xyz
x,y,z
-x,1/2+y,-z
-x,-y,-z
x,1/2-y,z
loop_
_atom_site_type_symbol
_atom_site_label
_atom_site_fract_x
_atom_site_fract_y
_atom_site_fract_z
Si Si1 0.922002 0.920526 0.035485
Si Si2 0.102962 0.579203 0.226906
Si Si3 0.747285 0.076229 0.433314
Si Si4 0.193497 0.583685 0.962390
Si Si5 0.391427 0.921436 0.586405
Si Si6 0.639367 0.419201 0.706009
Si Si7 0.711722 0.077008 0.134780
Si Si8 0.572600 0.578234 0.831944
O O1 0.905067 0.750000 0.003571
O O2 0.884387 0.996420 0.875467
O O3 0.879915 0.981949 0.094418
O O4 0.016408 0.955516 0.168461
O O5 0.113523 0.750000 0.213881
O O6 0.169446 0.522360 0.402735
O O7 0.743700 0.250000 0.427649
O O8 0.672437 0.010425 0.407643
O O9 0.742593 0.019536 0.297134
O O10 0.162727 0.750000 0.920668
O O11 0.266611 0.564554 0.145455
O O12 0.221504 0.534546 0.872395
O O13 0.375459 0.750000 0.556960
O O14 0.376755 0.985165 0.440505
O O15 0.480759 0.955658 0.746772
O O16 0.612538 0.250000 0.682826
O O17 0.587262 0.514474 0.725236
O O18 0.695203 0.250000 0.110090
O O19 0.627909 0.998435 0.998258
O O20 0.590700 0.750000 0.853211
#
# Coordination Sequence:
#
# PCOD8070155 Si02
#       8
#     4   4   4   4   4   4   4   4
#     4  10  19  30  49  78 105 126 151 187 237 291
#     4   9  18  33  53  75  99 127 157 192 233 279
#     4   9  17  33  54  70  89 123 167 204 231 272
#     4   9  17  30  49  71  94 125 164 199 231 273
#     4   9  17  28  47  74  97 121 157 201 244 283
#     4   9  17  31  50  71  96 127 164 198 231 281
#     4   9  19  35  53  69  88 124 170 204 230 273
#     4  10  19  30  46  71 101 127 153 194 248 290
#
# _framework density 17.957705000000001
#
# number of rings (size 3 to 8) (size 9 to 14) (size 15 to 20)
#    0.000    2.750    0.000    2.625    0.000    5.000 
#    0.000    1.875    0.000    3.000    0.000    0.000 
#    0.000    0.000    0.000    0.000    0.000    0.000 
#
# Total GULP energy -396800.501026 kJ/mol
# GULP energy per Si atom -12400.015657 kJ/mol
# Density = 1.791683 g / cm^3
# Si number density = 17.957705 Si / 1000 Ang^3
#
#
#
# Elastic Constant Matrix: (Units=GPa)
#
#
# Indices 1 2 3 4 5 6 
#
# 1 125.2367 42.0593 86.0619 0.0000 -0.3505 0.0000
# 2 42.0593 48.2889 36.9830 0.0000 2.0704 0.0000
# 3 86.0619 36.9830 138.8169 0.0000 -12.3132 0.0000
# 4 0.0000 0.0000 0.0000 18.7738 0.0000 2.8944
# 5 -0.3505 2.0704 -12.3132 0.0000 23.1580 0.0000
# 6 0.0000 0.0000 0.0000 2.8944 0.0000 25.0693
#
#
#
# Elastic Compliance Matrix: (Units=1/GPa)
#
#
# Indices 1 2 3 4 5 6 
#
# 1 0.016298 -0.007620 -0.008387 0.000000 -0.003531 0.000000
# 2 -0.007620 0.030489 -0.003831 0.000000 -0.004878 0.000000
# 3 -0.008387 -0.003831 0.014109 0.000000 0.007717 0.000000
# 4 0.000000 0.000000 0.000000 0.054231 0.000000 -0.006261
# 5 -0.003531 -0.004878 0.007717 0.000000 0.047668 0.000000
# 6 0.000000 0.000000 0.000000 -0.006261 0.000000 0.040612
#
#
# Mechanical properties :
#
#
# Convention : Reuss Voigt Hill
#
# Bulk Modulus (GPa) = 47.12883 71.39454 59.26169
# Shear Modulus (GPa) = 19.98745 23.21611 21.60178
#
# Velocity S-wave (km/s) = 3.33983 3.59948 3.47208
# Velocity P-wave (km/s) = 6.41669 7.55767 7.01043
#
# Compressibility (1/GPa) = 0.02121843
#
# Stress axis : x y z
#
# Youngs Moduli (GPa) = 61.35785 32.79835 70.87821
#
# Poissons Ratio (x) = 0.24994 0.59447
# Poissons Ratio (y) = 0.46757 0.27154
# Poissons Ratio (z) = 0.51462 0.12566
#
# Static dielectric constant tensor:
#      x y z
#    x 3.413170 0.000000 -0.043630 
#    y 0.000000 3.072520 0.000000 
#    z -0.043630 0.000000 3.368220 
# 
# 
# High freq. dielectric constant tensor:
#      x y z
#    x 1.699550 0.000000 0.002530 
#    y 0.000000 1.668250 0.000000 
#    z 0.002530 0.000000 1.688370 
# 
# From -- ./inp_files/42882.got.cif
#   From: 2010.06.25/outbox.cif.g09.slc.cpg/sg11_22_cif.got.tgz:42882.got - 2010.06.27 23:14:04.
