data_PCOD8070856
_publ_section_title
;
Structure prediction by ZEFSAII (Michael W. Deem and Ramdas Pophale) SiO2 
 PCOD8070856
Probable space group: P 21/M
;
_chemical_formula_sum "Si O2"
_cell_formula_units_Z 28
_cell_length_a 25.963617
_cell_length_b 8.878050
_cell_length_c 20.387974
_cell_angle_alpha 90.000000
_cell_angle_beta 19.139753
_cell_angle_gamma 90.000000
_cell_volume 1540.859698
_symmetry_space_group_name_H-M "P 21/M"
_symmetry_group_IT_number 11
_symmetry_cell_setting 'monoclinic'
loop_
_space_group_symop_operation_xyz
x,y,z
-x,1/2+y,-z
-x,-y,-z
x,1/2-y,z
loop_
_atom_site_type_symbol
_atom_site_label
_atom_site_fract_x
_atom_site_fract_y
_atom_site_fract_z
Si Si1 0.590211 0.927490 0.183696
Si Si2 0.798228 0.925874 0.551476
Si Si3 0.267167 0.073766 0.806202
Si Si4 0.471849 0.922872 0.875960
Si Si5 0.657024 0.423142 0.834456
Si Si6 0.112895 0.928717 0.102433
Si Si7 0.438549 0.426552 0.477068
O O1 0.599318 0.750000 0.182071
O O2 0.571496 0.966357 0.130343
O O3 0.437312 0.993488 0.407207
O O4 0.748455 0.002676 0.020540
O O5 0.806464 0.750000 0.554462
O O6 0.641990 0.969815 0.699379
O O7 0.948108 0.982927 0.330613
O O8 0.800367 0.002645 0.621353
O O9 0.261629 0.250000 0.829057
O O10 0.279516 0.047417 0.712074
O O11 0.419764 0.001869 0.654742
O O12 0.119860 0.991970 0.018768
O O13 0.475652 0.750000 0.846842
O O14 0.335954 0.943357 0.095050
O O15 0.649028 0.250000 0.824770
O O16 0.500000 0.500000 0.000000
O O17 0.127884 0.750000 0.083407
O O18 0.471022 0.250000 0.429012
#
# Coordination Sequence:
#
# PCOD8070856 Si02
#       7
#     4   4   4   4   4   4   4
#     4  11  21  31  47  73 100 127 161 199 238 283
#     4   9  19  34  53  75  97 125 162 199 238 286
#     4   9  16  26  43  68  94 122 159 198 234 278
#     4   9  18  34  52  71  96 125 158 196 239 285
#     4   9  17  30  51  74  96 124 159 199 239 281
#     4  10  19  32  50  72 100 131 158 193 243 289
#     4   9  16  27  44  65  92 126 159 195 238 279
#
# _framework density 18.171675
#
# number of rings (size 3 to 8) (size 9 to 14) (size 15 to 20)
#    0.000    2.571    0.000    5.571    0.000    5.714 
#    0.000    0.714    0.000    0.857    0.000    0.000 
#    0.000    0.000    0.000    0.000    0.000    0.000 
#
# Total GULP energy -346899.541135 kJ/mol
# GULP energy per Si atom -12389.269326 kJ/mol
# Density = 1.813032 g / cm^3
# Si number density = 18.171675 Si / 1000 Ang^3
#
#
#
# Elastic Constant Matrix: (Units=GPa)
#
#
# Indices 1 2 3 4 5 6 
#
# 1 20.0674 21.0865 30.2369 0.0000 9.7271 0.0000
# 2 21.0865 96.2568 46.3824 0.0000 15.7254 0.0000
# 3 30.2369 46.3824 127.4630 0.0000 35.3004 0.0000
# 4 0.0000 0.0000 0.0000 25.4101 0.0000 11.2818
# 5 9.7271 15.7254 35.3004 0.0000 24.3090 0.0000
# 6 0.0000 0.0000 0.0000 11.2818 0.0000 27.9021
#
#
#
# Elastic Compliance Matrix: (Units=1/GPa)
#
#
# Indices 1 2 3 4 5 6 
#
# 1 0.086610 -0.010787 -0.014979 0.000000 -0.005926 0.000000
# 2 -0.010787 0.014033 -0.002055 0.000000 -0.001777 0.000000
# 3 -0.014979 -0.002055 0.016925 0.000000 -0.017255 0.000000
# 4 0.000000 0.000000 0.000000 0.047965 0.000000 -0.019394
# 5 -0.005926 -0.001777 -0.017255 0.000000 0.069714 0.000000
# 6 0.000000 0.000000 0.000000 -0.019394 0.000000 0.043681
#
#
# Mechanical properties :
#
#
# Convention : Reuss Voigt Hill
#
# Bulk Modulus (GPa) = 16.14874 48.79987 32.47431
# Shear Modulus (GPa) = 14.07606 25.26299 19.66953
#
# Velocity S-wave (km/s) = 2.78621 3.73264 3.29360
# Velocity P-wave (km/s) = 4.38824 6.74463 5.68976
#
# Compressibility (1/GPa) = 0.06192433
#
# Stress axis : x y z
#
# Youngs Moduli (GPa) = 11.54605 71.26260 59.08298
#
# Poissons Ratio (x) = 0.76873 0.88501
# Poissons Ratio (y) = 0.12455 0.12144
# Poissons Ratio (z) = 0.17295 0.14647
#
# Static dielectric constant tensor:
#      x y z
#    x 3.470920 0.000000 0.834010 
#    y 0.000000 3.480390 0.000000 
#    z 0.834010 0.000000 3.881650 
# 
# 
# High freq. dielectric constant tensor:
#      x y z
#    x 1.675690 0.000000 0.051870 
#    y 0.000000 1.716200 0.000000 
#    z 0.051870 0.000000 1.692730 
# 
# From -- ./inp_files/66879.got.cif
#   From: 2010.06.25/outbox.cif.g09.slc.cpg/sg11_34_cif.got.tgz:66879.got - 2010.06.27 23:14:04.
