data_PCOD8070668
_publ_section_title
;
Structure prediction by ZEFSAII (Michael W. Deem and Ramdas Pophale) SiO2 
 PCOD8070668
Probable space group: P 21/M
;
_chemical_formula_sum "Si O2"
_cell_formula_units_Z 28
_cell_length_a 12.616751
_cell_length_b 9.086283
_cell_length_c 13.872311
_cell_angle_alpha 90.000000
_cell_angle_beta 54.032170
_cell_angle_gamma 90.000000
_cell_volume 1287.114880
_symmetry_space_group_name_H-M "P 21/M"
_symmetry_group_IT_number 11
_symmetry_cell_setting 'monoclinic'
loop_
_space_group_symop_operation_xyz
x,y,z
-x,1/2+y,-z
-x,-y,-z
x,1/2-y,z
loop_
_atom_site_type_symbol
_atom_site_label
_atom_site_fract_x
_atom_site_fract_y
_atom_site_fract_z
Si Si1 0.622001 0.912182 0.469569
Si Si2 0.785596 0.912152 0.193655
Si Si3 0.407185 0.921825 0.848307
Si Si4 0.017813 0.919696 0.791489
Si Si5 0.280182 0.420485 0.084717
Si Si6 0.176677 0.576813 0.522652
Si Si7 0.293436 0.078964 0.296097
O O1 0.585455 0.750000 0.532335
O O2 0.718530 0.887806 0.330800
O O3 0.500000 0.000000 0.500000
O O4 0.684158 0.016315 0.516116
O O5 0.817279 0.750000 0.131637
O O6 0.689008 0.999972 0.175594
O O7 0.919289 0.997856 0.149664
O O8 0.375281 0.750000 0.864262
O O9 0.559562 0.951748 0.741754
O O10 0.381268 0.984069 0.968904
O O11 0.059127 0.750000 0.778415
O O12 0.065669 0.973602 0.658854
O O13 0.863975 0.944842 0.882338
O O14 0.321588 0.250000 0.057568
O O15 0.285311 0.478347 0.191045
O O16 0.178315 0.750000 0.507989
O O17 0.174680 0.501980 0.417702
O O18 0.258077 0.250000 0.318690
#
# Coordination Sequence:
#
# PCOD8070668 Si02
#       7
#     4   4   4   4   4   4   4
#     4  10  19  31  50  78 111 147 186 229 279 335
#     4  10  21  36  56  82 112 148 188 230 279 337
#     4  11  23  38  58  85 115 148 189 236 284 334
#     4   9  20  39  60  85 116 149 187 231 281 335
#     4  10  22  41  62  82 111 151 192 236 283 333
#     4  10  20  34  55  83 114 148 186 229 277 333
#     4  10  22  39  59  85 116 150 188 233 285 336
#
# _framework density 21.754079999999998
#
# number of rings (size 3 to 8) (size 9 to 14) (size 15 to 20)
#    0.000    2.000    0.000    3.000    0.000    8.000 
#    0.000    0.000    0.000    0.000    0.000    0.000 
#    0.000    0.000    0.000    0.000    0.000    0.000 
#
# Total GULP energy -347042.013128 kJ/mol
# GULP energy per Si atom -12394.357612 kJ/mol
# Density = 2.170457 g / cm^3
# Si number density = 21.754080 Si / 1000 Ang^3
#
#
#
# Elastic Constant Matrix: (Units=GPa)
#
#
# Indices 1 2 3 4 5 6 
#
# 1 45.4021 12.1275 -14.2698 0.0000 8.4512 0.0000
# 2 12.1275 81.2332 21.9658 0.0000 3.7033 0.0000
# 3 -14.2698 21.9658 61.9717 0.0000 7.5849 0.0000
# 4 0.0000 0.0000 0.0000 33.5830 0.0000 9.5442
# 5 8.4512 3.7033 7.5849 0.0000 31.8585 0.0000
# 6 0.0000 0.0000 0.0000 9.5442 0.0000 27.7866
#
#
#
# Elastic Compliance Matrix: (Units=1/GPa)
#
#
# Indices 1 2 3 4 5 6 
#
# 1 0.028665 -0.006579 0.010063 0.000000 -0.009235 0.000000
# 2 -0.006579 0.015132 -0.007083 0.000000 0.001673 0.000000
# 3 0.010063 -0.007083 0.021826 0.000000 -0.007042 0.000000
# 4 0.000000 0.000000 0.000000 0.032998 0.000000 -0.011334
# 5 -0.009235 0.001673 -0.007042 0.000000 0.035321 0.000000
# 6 0.000000 0.000000 0.000000 -0.011334 0.000000 0.039882
#
#
# Mechanical properties :
#
#
# Convention : Reuss Voigt Hill
#
# Bulk Modulus (GPa) = 17.11667 25.36154 21.23911
# Shear Modulus (GPa) = 24.93811 29.89785 27.41798
#
# Velocity S-wave (km/s) = 3.38947 3.71125 3.55401
# Velocity P-wave (km/s) = 4.81699 5.48162 5.16001
#
# Compressibility (1/GPa) = 0.05842259
#
# Stress axis : x y z
#
# Youngs Moduli (GPa) = 34.88629 66.08717 45.81692
#
# Poissons Ratio (x) = 0.43481 -0.46104
# Poissons Ratio (y) = 0.22953 0.32452
# Poissons Ratio (z) = -0.35105 0.46810
#
# Static dielectric constant tensor:
#      x y z
#    x 3.780010 0.000000 0.211110 
#    y 0.000000 4.026660 0.000000 
#    z 0.211110 0.000000 3.815780 
# 
# 
# High freq. dielectric constant tensor:
#      x y z
#    x 1.849530 0.000000 0.009540 
#    y 0.000000 1.850810 0.000000 
#    z 0.009540 0.000000 1.863400 
# 
# From -- ./inp_files/48930.got.cif
#   From: 2010.06.25/outbox.cif.g09.slc.cpg/sg11_25_cif.got.tgz:48930.got - 2010.06.27 23:14:04.
