data_PCOD8070501
_publ_section_title
;
Structure prediction by ZEFSAII (Michael W. Deem and Ramdas Pophale) SiO2 
 PCOD8070501
Probable space group: P 21/M
;
_chemical_formula_sum "Si O2"
_cell_formula_units_Z 28
_cell_length_a 15.202246
_cell_length_b 8.973222
_cell_length_c 12.114493
_cell_angle_alpha 90.000000
_cell_angle_beta 120.402035
_cell_angle_gamma 90.000000
_cell_volume 1425.339590
_symmetry_space_group_name_H-M "P 21/M"
_symmetry_group_IT_number 11
_symmetry_cell_setting 'monoclinic'
loop_
_space_group_symop_operation_xyz
x,y,z
-x,1/2+y,-z
-x,-y,-z
x,1/2-y,z
loop_
_atom_site_type_symbol
_atom_site_label
_atom_site_fract_x
_atom_site_fract_y
_atom_site_fract_z
Si Si1 0.887385 0.572344 0.921864
Si Si2 0.501593 0.578521 0.881616
Si Si3 0.788646 0.417414 0.248621
Si Si4 0.678236 0.574454 0.361006
Si Si5 0.811960 0.926021 0.641534
Si Si6 0.986658 0.916816 0.603519
Si Si7 0.726990 0.919875 0.003557
O O1 0.901847 0.750000 0.929711
O O2 0.823921 0.514382 0.773817
O O3 0.812572 0.520508 0.972998
O O4 0.000000 0.500000 0.000000
O O5 0.472110 0.750000 0.883458
O O6 0.422671 0.507844 0.744460
O O7 0.500000 0.500000 0.000000
O O8 0.610493 0.567999 0.886806
O O9 0.754268 0.250000 0.257102
O O10 0.774448 0.520077 0.348221
O O11 0.902092 0.419929 0.270647
O O12 0.719236 0.480919 0.107852
O O13 0.662801 0.750000 0.336798
O O14 0.707399 0.534064 0.508088
O O15 0.824443 0.750000 0.653775
O O16 0.907567 0.996094 0.635282
O O17 0.949347 0.750000 0.553940
O O18 0.000000 0.000000 0.500000
O O19 0.753811 0.750000 0.052141
#
# Coordination Sequence:
#
# PCOD8070501 Si02
#       7
#     4   4   4   4   4   4   4
#     4  10  21  41  64  87 115 153 196 239 287 345
#     4  11  22  37  57  85 118 154 194 244 294 344
#     4  11  21  32  53  83 115 148 187 238 289 341
#     4  11  21  35  56  82 114 152 190 234 291 351
#     4   9  19  36  57  79 113 154 191 232 287 347
#     4  10  19  31  48  76 109 144 180 223 277 340
#     4  10  22  38  59  83 113 152 194 237 291 348
#
# _framework density 19.644439999999999
#
# number of rings (size 3 to 8) (size 9 to 14) (size 15 to 20)
#    0.000    1.714    2.857    2.143    0.000    2.857 
#    0.000    2.857    0.000    0.000    0.000    0.000 
#    0.000    0.000    0.000    0.000    0.000    0.000 
#
# Total GULP energy -346899.918655 kJ/mol
# GULP energy per Si atom -12389.282809 kJ/mol
# Density = 1.959973 g / cm^3
# Si number density = 19.644440 Si / 1000 Ang^3
#
#
#
# Elastic Constant Matrix: (Units=GPa)
#
#
# Indices 1 2 3 4 5 6 
#
# 1 84.4682 21.3385 29.1295 0.0000 8.9463 0.0000
# 2 21.3385 76.4544 39.6581 0.0000 4.6822 0.0000
# 3 29.1295 39.6581 134.1092 0.0000 3.1564 0.0000
# 4 0.0000 0.0000 0.0000 26.5289 0.0000 6.5594
# 5 8.9463 4.6822 3.1564 0.0000 30.2607 0.0000
# 6 0.0000 0.0000 0.0000 6.5594 0.0000 24.2503
#
#
#
# Elastic Compliance Matrix: (Units=1/GPa)
#
#
# Indices 1 2 3 4 5 6 
#
# 1 0.013559 -0.002468 -0.002135 0.000000 -0.003404 0.000000
# 2 -0.002468 0.016011 -0.004168 0.000000 -0.001313 0.000000
# 3 -0.002135 -0.004168 0.009145 0.000000 0.000322 0.000000
# 4 0.000000 0.000000 0.000000 0.040396 0.000000 -0.010927
# 5 -0.003404 -0.001313 0.000322 0.000000 0.034222 0.000000
# 6 0.000000 0.000000 0.000000 -0.010927 0.000000 0.044192
#
#
# Mechanical properties :
#
#
# Convention : Reuss Voigt Hill
#
# Bulk Modulus (GPa) = 47.22988 52.80933 50.01960
# Shear Modulus (GPa) = 27.45357 29.86834 28.66096
#
# Velocity S-wave (km/s) = 3.74240 3.90352 3.82381
# Velocity P-wave (km/s) = 6.53978 6.87442 6.70918
#
# Compressibility (1/GPa) = 0.02117304
#
# Stress axis : x y z
#
# Youngs Moduli (GPa) = 73.75073 62.45771 109.34688
#
# Poissons Ratio (x) = 0.15417 0.23347
# Poissons Ratio (y) = 0.18205 0.45571
# Poissons Ratio (z) = 0.15746 0.26030
#
# Static dielectric constant tensor:
#      x y z
#    x 3.896250 0.000000 0.198310 
#    y 0.000000 3.453010 0.000000 
#    z 0.198310 0.000000 3.787270 
# 
# 
# High freq. dielectric constant tensor:
#      x y z
#    x 1.758710 0.000000 0.017880 
#    y 0.000000 1.751300 0.000000 
#    z 0.017880 0.000000 1.767750 
# 
# From -- ./inp_files/38497.got.cif
#   From: 2010.06.25/outbox.cif.g09.slc.cpg/sg11_20_cif.got.tgz:38497.got - 2010.06.27 23:14:04.
