data_PCOD8070036
_publ_section_title
;
Structure prediction by ZEFSAII (Michael W. Deem and Ramdas Pophale) SiO2 
 PCOD8070036
Probable space group: P 21/M
;
_chemical_formula_sum "Si O2"
_cell_formula_units_Z 32
_cell_length_a 15.350813
_cell_length_b 9.156467
_cell_length_c 14.553077
_cell_angle_alpha 90.000000
_cell_angle_beta 61.431323
_cell_angle_gamma 90.000000
_cell_volume 1796.509845
_symmetry_space_group_name_H-M "P 21/M"
_symmetry_group_IT_number 11
_symmetry_cell_setting 'monoclinic'
loop_
_space_group_symop_operation_xyz
x,y,z
-x,1/2+y,-z
-x,-y,-z
x,1/2-y,z
loop_
_atom_site_type_symbol
_atom_site_label
_atom_site_fract_x
_atom_site_fract_y
_atom_site_fract_z
Si Si1 0.740861 0.921038 0.857690
Si Si2 0.357146 0.918512 0.720435
Si Si3 0.257975 0.583065 0.587084
Si Si4 0.339577 0.581852 0.936060
Si Si5 0.116099 0.418514 0.531323
Si Si6 0.442882 0.581287 0.366875
Si Si7 0.884073 0.080784 0.652915
Si Si8 0.565980 0.918662 0.810597
O O1 0.764021 0.750000 0.848242
O O2 0.639229 0.958390 0.856177
O O3 0.832175 0.002472 0.764275
O O4 0.729831 0.980248 0.966608
O O5 0.390357 0.750000 0.697954
O O6 0.273021 0.953397 0.687335
O O7 0.312864 0.952651 0.843503
O O8 0.454739 0.011719 0.651006
O O9 0.223424 0.750000 0.590006
O O10 0.173516 0.477117 0.591269
O O11 0.362530 0.553881 0.485810
O O12 0.318385 0.750000 0.971493
O O13 0.454432 0.541868 0.896906
O O14 0.142336 0.250000 0.501186
O O15 0.151476 0.507398 0.424036
O O16 0.000546 0.441547 0.608550
O O17 0.461973 0.750000 0.337979
O O18 0.401745 0.510525 0.294178
O O19 0.853840 0.250000 0.664736
O O20 0.573230 0.750000 0.778746
#
# Coordination Sequence:
#
# PCOD8070036 Si02
#       8
#     4   4   4   4   4   4   4   4
#     4  11  21  32  51  77 101 129 168 210 250 296
#     4   9  19  35  51  69  99 138 174 207 247 294
#     4  10  20  33  51  75 102 134 170 206 249 299
#     4   9  18  33  50  68  97 136 171 206 248 292
#     4  10  21  36  55  79 104 130 162 202 247 295
#     4  10  19  29  46  74 103 132 167 206 247 292
#     4  10  21  37  55  76 104 134 162 197 246 302
#     4   9  19  33  47  68 101 137 168 201 246 298
#
# _framework density 17.812315999999999
#
# number of rings (size 3 to 8) (size 9 to 14) (size 15 to 20)
#    0.000    2.250    0.000    3.750    0.000    8.000 
#    0.000    0.000    0.000    0.750    0.000    0.000 
#    0.000    0.000    0.000    0.000    0.000    0.000 
#
# Total GULP energy -396914.384226 kJ/mol
# GULP energy per Si atom -12403.574507 kJ/mol
# Density = 1.777177 g / cm^3
# Si number density = 17.812316 Si / 1000 Ang^3
#
#
#
# Elastic Constant Matrix: (Units=GPa)
#
#
# Indices 1 2 3 4 5 6 
#
# 1 79.1434 48.5769 42.6289 0.0000 17.3725 0.0000
# 2 48.5769 104.3120 61.4083 0.0000 5.0184 0.0000
# 3 42.6289 61.4083 110.5226 0.0000 10.9451 0.0000
# 4 0.0000 0.0000 0.0000 29.8798 0.0000 -0.9127
# 5 17.3725 5.0184 10.9451 0.0000 20.8458 0.0000
# 6 0.0000 0.0000 0.0000 -0.9127 0.0000 28.7938
#
#
#
# Elastic Compliance Matrix: (Units=1/GPa)
#
#
# Indices 1 2 3 4 5 6 
#
# 1 0.022418 -0.008183 -0.002579 0.000000 -0.015359 0.000000
# 2 -0.008183 0.017245 -0.007057 0.000000 0.006373 0.000000
# 3 -0.002579 -0.007057 0.014327 0.000000 -0.003674 0.000000
# 4 0.000000 0.000000 0.000000 0.033500 0.000000 0.001062
# 5 -0.015359 0.006373 -0.003674 0.000000 0.061166 0.000000
# 6 0.000000 0.000000 0.000000 0.001062 0.000000 0.034763
#
#
# Mechanical properties :
#
#
# Convention : Reuss Voigt Hill
#
# Bulk Modulus (GPa) = 54.48582 66.57846 60.53214
# Shear Modulus (GPa) = 22.20501 25.32815 23.76658
#
# Velocity S-wave (km/s) = 3.53457 3.77496 3.65674
# Velocity P-wave (km/s) = 6.87843 7.51394 7.20320
#
# Compressibility (1/GPa) = 0.01835340
#
# Stress axis : x y z
#
# Youngs Moduli (GPa) = 44.60642 57.98883 69.79628
#
# Poissons Ratio (x) = 0.47449 0.18004
# Poissons Ratio (y) = 0.36499 0.49252
# Poissons Ratio (z) = 0.11506 0.40920
#
# Static dielectric constant tensor:
#      x y z
#    x 3.234980 0.000000 0.165300 
#    y 0.000000 3.355220 0.000000 
#    z 0.165300 0.000000 3.242430 
# 
# 
# High freq. dielectric constant tensor:
#      x y z
#    x 1.671770 0.000000 0.010730 
#    y 0.000000 1.697400 0.000000 
#    z 0.010730 0.000000 1.682380 
# 
# From -- ./inp_files/51619.got.cif
#   From: 2010.06.25/outbox.cif.g09.slc.cpg/sg11_26_cif.got.tgz:51619.got - 2010.06.27 23:14:04.
