data_PCOD8070197
_publ_section_title
;
Structure prediction by ZEFSAII (Michael W. Deem and Ramdas Pophale) SiO2 
 PCOD8070197
Probable space group: P 21/M
;
_chemical_formula_sum "Si O2"
_cell_formula_units_Z 32
_cell_length_a 13.489330
_cell_length_b 12.790819
_cell_length_c 14.483118
_cell_angle_alpha 90.000000
_cell_angle_beta 133.706362
_cell_angle_gamma 90.000000
_cell_volume 1806.438895
_symmetry_space_group_name_H-M "P 21/M"
_symmetry_group_IT_number 11
_symmetry_cell_setting 'monoclinic'
loop_
_space_group_symop_operation_xyz
x,y,z
-x,1/2+y,-z
-x,-y,-z
x,1/2-y,z
loop_
_atom_site_type_symbol
_atom_site_label
_atom_site_fract_x
_atom_site_fract_y
_atom_site_fract_z
Si Si1 0.850173 0.369879 0.156194
Si Si2 0.585879 0.369033 0.499780
Si Si3 0.390825 0.870890 0.131361
Si Si4 0.866153 0.626717 0.751355
Si Si5 0.202024 0.991281 0.459710
Si Si6 0.704952 0.868248 0.314464
Si Si7 0.666489 0.008169 0.719330
Si Si8 0.926391 0.974623 0.356443
O O1 0.851761 0.250000 0.185274
O O2 0.862424 0.425575 0.263064
O O3 0.972320 0.392768 0.161329
O O4 0.709024 0.402504 0.016252
O O5 0.544893 0.250000 0.469513
O O6 0.695809 0.396123 0.491715
O O7 0.448115 0.429153 0.389111
O O8 0.655823 0.393308 0.643685
O O9 0.366829 0.750000 0.146388
O O10 0.544451 0.886572 0.191146
O O11 0.357667 0.949406 0.193656
O O12 0.833695 0.750000 0.743757
O O13 0.785530 0.580686 0.610793
O O14 0.810678 0.556813 0.802588
O O15 0.051229 0.937988 0.370269
O O16 0.246061 0.049062 0.580098
O O17 0.730216 0.750000 0.364430
O O18 0.803054 0.890481 0.288550
O O19 0.000000 0.000000 0.500000
#
# Coordination Sequence:
#
# PCOD8070197 Si02
#       8
#     4   4   4   4   4   4   4   4
#     4   9  19  36  55  77 102 132 169 209 251 303
#     4  10  19  30  47  73 105 135 167 209 257 300
#     4  10  20  34  53  73 101 139 175 208 248 299
#     4   9  17  30  51  75 101 135 173 210 250 298
#     4   9  17  32  49  75 104 130 166 212 258 301
#     4  10  19  32  51  74  99 133 172 208 251 305
#     4  10  19  31  48  73 104 136 175 210 249 294
#     4   9  19  33  54  79 100 123 164 210 261 302
#
# _framework density 17.714410999999998
#
# number of rings (size 3 to 8) (size 9 to 14) (size 15 to 20)
#    0.000    2.500    1.250    1.125    0.000    4.500 
#    0.000    1.875    0.000    1.500    0.000    0.000 
#    0.000    0.000    0.000    0.000    0.000    0.000 
#
# Total GULP energy -396466.794519 kJ/mol
# GULP energy per Si atom -12389.587329 kJ/mol
# Density = 1.767409 g / cm^3
# Si number density = 17.714411 Si / 1000 Ang^3
#
#
#
# Elastic Constant Matrix: (Units=GPa)
#
#
# Indices 1 2 3 4 5 6 
#
# 1 100.4721 38.9304 38.8247 0.0000 12.0779 0.0000
# 2 38.9304 69.0000 33.5769 0.0000 -0.0480 0.0000
# 3 38.8247 33.5769 81.5837 0.0000 9.8222 0.0000
# 4 0.0000 0.0000 0.0000 21.6194 0.0000 0.8747
# 5 12.0779 -0.0480 9.8222 0.0000 22.6521 0.0000
# 6 0.0000 0.0000 0.0000 0.8747 0.0000 29.2116
#
#
#
# Elastic Compliance Matrix: (Units=1/GPa)
#
#
# Indices 1 2 3 4 5 6 
#
# 1 0.014592 -0.006534 -0.003499 0.000000 -0.006277 0.000000
# 2 -0.006534 0.021308 -0.006420 0.000000 0.006313 0.000000
# 3 -0.003499 -0.006420 0.017242 0.000000 -0.005624 0.000000
# 4 0.000000 0.000000 0.000000 0.046311 0.000000 -0.001387
# 5 -0.006277 0.006313 -0.005624 0.000000 0.049945 0.000000
# 6 0.000000 0.000000 0.000000 -0.001387 0.000000 0.034275
#
#
# Mechanical properties :
#
#
# Convention : Reuss Voigt Hill
#
# Bulk Modulus (GPa) = 49.42005 52.63554 51.02780
# Shear Modulus (GPa) = 22.38907 24.01153 23.20030
#
# Velocity S-wave (km/s) = 3.55898 3.68568 3.62288
# Velocity P-wave (km/s) = 6.69681 6.92028 6.80946
#
# Compressibility (1/GPa) = 0.02023470
#
# Stress axis : x y z
#
# Youngs Moduli (GPa) = 68.53297 46.93067 57.99841
#
# Poissons Ratio (x) = 0.30666 0.20293
# Poissons Ratio (y) = 0.44782 0.37235
# Poissons Ratio (z) = 0.23979 0.30130
#
# Static dielectric constant tensor:
#      x y z
#    x 3.789050 0.000000 0.257750 
#    y 0.000000 3.203910 0.000000 
#    z 0.257750 0.000000 3.133140 
# 
# 
# High freq. dielectric constant tensor:
#      x y z
#    x 1.697110 0.000000 0.020690 
#    y 0.000000 1.670920 0.000000 
#    z 0.020690 0.000000 1.664330 
# 
# From -- ./inp_files/52323.got.cif
#   From: 2010.06.25/outbox.cif.g09.slc.cpg/sg11_27_cif.got.tgz:52323.got - 2010.06.27 23:14:04.
