data_PCOD8070783
_publ_section_title
;
Structure prediction by ZEFSAII (Michael W. Deem and Ramdas Pophale) SiO2 
 PCOD8070783
Probable space group: P 21/M
;
_chemical_formula_sum "Si O2"
_cell_formula_units_Z 24
_cell_length_a 20.792075
_cell_length_b 8.982979
_cell_length_c 30.255986
_cell_angle_alpha 90.000000
_cell_angle_beta 164.337216
_cell_angle_gamma 90.000000
_cell_volume 1525.644007
_symmetry_space_group_name_H-M "P 21/M"
_symmetry_group_IT_number 11
_symmetry_cell_setting 'monoclinic'
loop_
_space_group_symop_operation_xyz
x,y,z
-x,1/2+y,-z
-x,-y,-z
x,1/2-y,z
loop_
_atom_site_type_symbol
_atom_site_label
_atom_site_fract_x
_atom_site_fract_y
_atom_site_fract_z
Si Si1 0.759784 0.576828 0.325758
Si Si2 0.792746 0.581833 0.888401
Si Si3 0.449426 0.922294 0.898094
Si Si4 0.272368 0.581482 0.530005
Si Si5 0.480102 0.422370 0.743176
Si Si6 0.851245 0.421873 0.213013
O O1 0.809991 0.750000 0.350532
O O2 0.663221 0.502604 0.218009
O O3 0.560653 0.553946 0.231930
O O4 0.000000 0.500000 0.500000
O O5 0.872810 0.750000 0.951861
O O6 0.550144 0.579672 0.698056
O O7 0.730851 0.498440 0.893954
O O8 0.000000 0.500000 0.000000
O O9 0.489840 0.750000 0.914023
O O10 0.272501 0.945838 0.821766
O O11 0.703454 0.996335 0.076971
O O12 0.177429 0.750000 0.472633
O O13 0.262626 0.499098 0.571560
O O14 0.112598 0.495222 0.388521
O O15 0.485554 0.250000 0.733761
O O16 0.874591 0.250000 0.215568
#
# Coordination Sequence:
#
# PCOD8070783 Si02
#       6
#     4   4   4   4   4   4
#     4  11  22  33  47  68  96 131 166 200 239 285
#     4   9  18  30  48  73  99 126 156 196 244 292
#     4  10  21  33  47  66  92 126 164 203 241 281
#     4   9  18  29  46  70  95 123 154 193 240 284
#     4   9  18  31  46  67  96 127 159 195 237 284
#     4  10  19  32  48  67  91 124 163 203 242 282
#
# _framework density 15.731062
#
# number of rings (size 3 to 8) (size 9 to 14) (size 15 to 20)
#    1.000    1.333    0.000    3.500    0.000    8.667 
#    0.000    0.000    0.000    0.000    0.000    1.167 
#    0.000    0.000    0.000    0.000    0.000    0.000 
#
# Total GULP energy -297456.417070 kJ/mol
# GULP energy per Si atom -12394.017378 kJ/mol
# Density = 1.569526 g / cm^3
# Si number density = 15.731062 Si / 1000 Ang^3
#
#
#
# Elastic Constant Matrix: (Units=GPa)
#
#
# Indices 1 2 3 4 5 6 
#
# 1 65.4890 55.1377 37.4022 0.0000 -7.4139 0.0000
# 2 55.1377 151.8363 54.5267 0.0000 -5.0846 0.0000
# 3 37.4022 54.5267 78.0140 0.0000 -12.6844 0.0000
# 4 0.0000 0.0000 0.0000 32.3356 0.0000 -2.3843
# 5 -7.4139 -5.0846 -12.6844 0.0000 26.3875 0.0000
# 6 0.0000 0.0000 0.0000 -2.3843 0.0000 25.4266
#
#
#
# Elastic Compliance Matrix: (Units=1/GPa)
#
#
# Indices 1 2 3 4 5 6 
#
# 1 0.025034 -0.006462 -0.007099 0.000000 0.002376 0.000000
# 2 -0.006462 0.010507 -0.004569 0.000000 -0.001987 0.000000
# 3 -0.007099 -0.004569 0.020554 0.000000 0.007005 0.000000
# 4 0.000000 0.000000 0.000000 0.031141 0.000000 0.002920
# 5 0.002376 -0.001987 0.007005 0.000000 0.041549 0.000000
# 6 0.000000 0.000000 0.000000 0.002920 0.000000 0.039603
#
#
# Mechanical properties :
#
#
# Convention : Reuss Voigt Hill
#
# Bulk Modulus (GPa) = 50.41573 65.49694 57.95633
# Shear Modulus (GPa) = 23.66782 26.71480 25.19131
#
# Velocity S-wave (km/s) = 3.88303 4.12542 4.00606
# Velocity P-wave (km/s) = 7.22648 8.02608 7.63675
#
# Compressibility (1/GPa) = 0.01983508
#
# Stress axis : x y z
#
# Youngs Moduli (GPa) = 39.94642 95.17782 48.65238
#
# Poissons Ratio (x) = 0.61501 0.34540
# Poissons Ratio (y) = 0.25812 0.22228
# Poissons Ratio (z) = 0.28359 0.43483
#
# Static dielectric constant tensor:
#      x y z
#    x 2.693200 0.000000 0.018380 
#    y 0.000000 3.224200 0.000000 
#    z 0.018380 0.000000 2.829430 
# 
# 
# High freq. dielectric constant tensor:
#      x y z
#    x 1.566790 0.000000 -0.002580 
#    y 0.000000 1.630610 0.000000 
#    z -0.002580 0.000000 1.589970 
# 
# From -- ./inp_files/65966.got.cif
#   From: 2010.06.25/outbox.cif.g09.slc.cpg/sg11_33_cif.got.tgz:65966.got - 2010.06.27 23:14:04.
