data_PCOD8070811
_publ_section_title
;
Structure prediction by ZEFSAII (Michael W. Deem and Ramdas Pophale) SiO2 
 PCOD8070811
Probable space group: P 21/M
;
_chemical_formula_sum "Si O2"
_cell_formula_units_Z 28
_cell_length_a 17.738883
_cell_length_b 8.795368
_cell_length_c 14.333938
_cell_angle_alpha 90.000000
_cell_angle_beta 136.463637
_cell_angle_gamma 90.000000
_cell_volume 1540.452372
_symmetry_space_group_name_H-M "P 21/M"
_symmetry_group_IT_number 11
_symmetry_cell_setting 'monoclinic'
loop_
_space_group_symop_operation_xyz
x,y,z
-x,1/2+y,-z
-x,-y,-z
x,1/2-y,z
loop_
_atom_site_type_symbol
_atom_site_label
_atom_site_fract_x
_atom_site_fract_y
_atom_site_fract_z
Si Si1 0.736115 0.929779 0.083005
Si Si2 0.353476 0.930845 0.626342
Si Si3 0.076519 0.430038 0.881824
Si Si4 0.228327 0.430135 0.185490
Si Si5 0.414089 0.429899 0.219355
Si Si6 0.613969 0.429878 0.134917
Si Si7 0.832809 0.430713 0.675281
O O1 0.730422 0.750000 0.095756
O O2 0.854363 0.979506 0.147571
O O3 0.714076 0.017169 0.159443
O O4 0.644137 0.985408 0.927567
O O5 0.353125 0.750000 0.624254
O O6 0.461658 0.991812 0.668643
O O7 0.355803 0.989195 0.734589
O O8 0.246454 0.994147 0.477292
O O9 0.073110 0.250000 0.881722
O O10 0.954234 0.498570 0.766616
O O11 0.134779 0.485320 0.029202
O O12 0.222841 0.250000 0.196952
O O13 0.346186 0.482563 0.249448
O O14 0.213330 0.516776 0.267729
O O15 0.411123 0.250000 0.214069
O O16 0.601588 0.250000 0.122143
O O17 0.500000 0.500000 0.000000
O O18 0.835880 0.250000 0.677150
#
# Coordination Sequence:
#
# PCOD8070811 Si02
#       7
#     4   4   4   4   4   4   4
#     4   9  16  31  53  73  95 124 162 200 235 280
#     4   9  18  31  48  69  97 131 160 191 237 295
#     4   8  16  31  52  73  94 129 166 194 233 288
#     4   9  17  30  50  71  93 125 165 202 239 280
#     4   8  14  28  48  68  92 127 161 188 235 295
#     4  11  20  32  52  76  98 124 160 198 242 287
#     4  10  19  32  49  70  97 129 166 199 232 282
#
# _framework density 18.176477999999999
#
# number of rings (size 3 to 8) (size 9 to 14) (size 15 to 20)
#    0.000    2.857    1.429    2.571    0.000    0.571 
#    0.000    5.714    0.000    0.000    0.000    0.000 
#    0.000    0.000    0.000    0.000    0.000    0.000 
#
# Total GULP energy -347036.343928 kJ/mol
# GULP energy per Si atom -12394.155140 kJ/mol
# Density = 1.813511 g / cm^3
# Si number density = 18.176478 Si / 1000 Ang^3
#
#
#
# Elastic Constant Matrix: (Units=GPa)
#
#
# Indices 1 2 3 4 5 6 
#
# 1 152.7587 19.0404 85.8020 0.0000 -6.6106 0.0000
# 2 19.0404 20.8448 17.2228 0.0000 -1.2927 0.0000
# 3 85.8020 17.2228 135.6597 0.0000 0.1068 0.0000
# 4 0.0000 0.0000 0.0000 13.2351 0.0000 -5.2549
# 5 -6.6106 -1.2927 0.1068 0.0000 18.7455 0.0000
# 6 0.0000 0.0000 0.0000 -5.2549 0.0000 29.6165
#
#
#
# Elastic Compliance Matrix: (Units=1/GPa)
#
#
# Indices 1 2 3 4 5 6 
#
# 1 0.010760 -0.004452 -0.006243 0.000000 0.003523 0.000000
# 2 -0.004452 0.055700 -0.004257 0.000000 0.002295 0.000000
# 3 -0.006243 -0.004257 0.011863 0.000000 -0.002563 0.000000
# 4 0.000000 0.000000 0.000000 0.081283 0.000000 0.014422
# 5 0.003523 0.002295 -0.002563 0.000000 0.054761 0.000000
# 6 0.000000 0.000000 0.000000 0.014422 0.000000 0.036324
#
#
# Mechanical properties :
#
#
# Convention : Reuss Voigt Hill
#
# Bulk Modulus (GPa) = 20.65356 61.48818 41.07087
# Shear Modulus (GPa) = 16.84998 24.79930 20.82464
#
# Velocity S-wave (km/s) = 3.04801 3.69773 3.38848
# Velocity P-wave (km/s) = 4.87592 7.22031 6.16066
#
# Compressibility (1/GPa) = 0.04841781
#
# Stress axis : x y z
#
# Youngs Moduli (GPa) = 92.93319 17.95322 84.29801
#
# Poissons Ratio (x) = 0.07993 0.52630
# Poissons Ratio (y) = 0.41374 0.35890
# Poissons Ratio (z) = 0.58021 0.07644
#
# Static dielectric constant tensor:
#      x y z
#    x 3.750350 0.000000 0.267120 
#    y 0.000000 3.143910 0.000000 
#    z 0.267120 0.000000 3.615270 
# 
# 
# High freq. dielectric constant tensor:
#      x y z
#    x 1.721040 0.000000 0.005640 
#    y 0.000000 1.658080 0.000000 
#    z 0.005640 0.000000 1.690750 
# 
# From -- ./inp_files/44123.got.cif
#   From: 2010.06.25/outbox.cif.g09.slc.cpg/sg11_23_cif.got.tgz:44123.got - 2010.06.27 23:14:04.
