data_PCOD8070847
_publ_section_title
;
Structure prediction by ZEFSAII (Michael W. Deem and Ramdas Pophale) SiO2 
 PCOD8070847
Probable space group: P 21/M
;
_chemical_formula_sum "Si O2"
_cell_formula_units_Z 32
_cell_length_a 30.729027
_cell_length_b 8.926378
_cell_length_c 14.975756
_cell_angle_alpha 90.000000
_cell_angle_beta 151.620328
_cell_angle_gamma 90.000000
_cell_volume 1952.502945
_symmetry_space_group_name_H-M "P 21/M"
_symmetry_group_IT_number 11
_symmetry_cell_setting 'monoclinic'
loop_
_space_group_symop_operation_xyz
x,y,z
-x,1/2+y,-z
-x,-y,-z
x,1/2-y,z
loop_
_atom_site_type_symbol
_atom_site_label
_atom_site_fract_x
_atom_site_fract_y
_atom_site_fract_z
Si Si1 0.614796 0.421592 0.642804
Si Si2 0.379644 0.074254 0.633774
Si Si3 0.116438 0.575231 0.285851
Si Si4 0.437189 0.923618 0.257641
Si Si5 0.087353 0.424592 0.047482
Si Si6 0.754164 0.076782 0.748372
Si Si7 0.429437 0.074598 0.064630
Si Si8 0.709978 0.923174 0.341179
O O1 0.581439 0.250000 0.568696
O O2 0.623920 0.456815 0.764653
O O3 0.541934 0.530676 0.465265
O O4 0.712605 0.448041 0.772327
O O5 0.378514 0.250000 0.612563
O O6 0.349796 0.035532 0.680320
O O7 0.311259 0.995461 0.442835
O O8 0.481170 0.013772 0.804022
O O9 0.124912 0.750000 0.279908
O O10 0.124417 0.486353 0.208065
O O11 0.197642 0.521264 0.496735
O O12 0.019773 0.539043 0.159334
O O13 0.435157 0.750000 0.227385
O O14 0.397023 0.020809 0.103973
O O15 0.107764 0.250000 0.083088
O O16 0.145363 0.501565 0.073015
O O17 0.764222 0.250000 0.743232
O O18 0.452023 0.250000 0.106164
O O19 0.347922 0.035086 0.850341
O O20 0.738423 0.750000 0.393325
#
# Coordination Sequence:
#
# PCOD8070847 Si02
#       8
#     4   4   4   4   4   4   4   4
#     4   9  19  33  49  70  98 126 160 202 246 294
#     4  11  21  33  48  70  98 133 171 206 237 279
#     4  10  20  33  51  72  95 128 166 204 244 285
#     4  10  19  32  50  71  94 127 164 203 246 287
#     4  10  20  33  49  72 101 128 160 201 244 293
#     4  11  20  31  50  75 100 132 163 197 244 293
#     4  11  22  35  49  69  98 134 169 204 243 288
#     4  10  22  36  50  68  97 133 169 206 244 285
#
# _framework density 16.389220000000002
#
# number of rings (size 3 to 8) (size 9 to 14) (size 15 to 20)
#    0.000    1.750    2.500    2.625    0.000    4.000 
#    0.000    0.000    0.000    0.000    0.000    0.875 
#    0.000    0.000    0.000    0.000    0.000    0.000 
#
# Total GULP energy -396869.477603 kJ/mol
# GULP energy per Si atom -12402.171175 kJ/mol
# Density = 1.635192 g / cm^3
# Si number density = 16.389220 Si / 1000 Ang^3
#
#
#
# Elastic Constant Matrix: (Units=GPa)
#
#
# Indices 1 2 3 4 5 6 
#
# 1 117.5014 46.7513 55.3874 0.0000 8.8761 0.0000
# 2 46.7513 74.8258 40.7439 0.0000 11.2744 0.0000
# 3 55.3874 40.7439 81.0155 0.0000 7.8769 0.0000
# 4 0.0000 0.0000 0.0000 27.6305 0.0000 2.8411
# 5 8.8761 11.2744 7.8769 0.0000 23.9357 0.0000
# 6 0.0000 0.0000 0.0000 2.8411 0.0000 25.7085
#
#
#
# Elastic Compliance Matrix: (Units=1/GPa)
#
#
# Indices 1 2 3 4 5 6 
#
# 1 0.013694 -0.004684 -0.006950 0.000000 -0.000585 0.000000
# 2 -0.004684 0.020823 -0.006700 0.000000 -0.005867 0.000000
# 3 -0.006950 -0.006700 0.020565 0.000000 -0.001035 0.000000
# 4 0.000000 0.000000 0.000000 0.036608 0.000000 -0.004046
# 5 -0.000585 -0.005867 -0.001035 0.000000 0.045099 0.000000
# 6 0.000000 0.000000 0.000000 -0.004046 0.000000 0.039345
#
#
# Mechanical properties :
#
#
# Convention : Reuss Voigt Hill
#
# Bulk Modulus (GPa) = 54.30288 62.12312 58.21300
# Shear Modulus (GPa) = 22.83746 24.15228 23.49487
#
# Velocity S-wave (km/s) = 3.73694 3.84300 3.79034
# Velocity P-wave (km/s) = 7.19895 7.59465 7.39944
#
# Compressibility (1/GPa) = 0.01841523
#
# Stress axis : x y z
#
# Youngs Moduli (GPa) = 73.02294 48.02438 48.62718
#
# Poissons Ratio (x) = 0.22493 0.33796
# Poissons Ratio (y) = 0.34202 0.32578
# Poissons Ratio (z) = 0.50750 0.32174
#
# Static dielectric constant tensor:
#      x y z
#    x 3.351360 0.000000 0.138320 
#    y 0.000000 3.256100 0.000000 
#    z 0.138320 0.000000 3.003120 
# 
# 
# High freq. dielectric constant tensor:
#      x y z
#    x 1.627320 0.000000 0.010170 
#    y 0.000000 1.648190 0.000000 
#    z 0.010170 0.000000 1.601540 
# 
# From -- ./inp_files/51194.got.cif
#   From: 2010.06.25/outbox.cif.g09.slc.cpg/sg11_26_cif.got.tgz:51194.got - 2010.06.27 23:14:04.
