data_PCOD8070499
_publ_section_title
;
Structure prediction by ZEFSAII (Michael W. Deem and Ramdas Pophale) SiO2 
 PCOD8070499
Probable space group: P 21/M
;
_chemical_formula_sum "Si O2"
_cell_formula_units_Z 28
_cell_length_a 20.961031
_cell_length_b 9.197281
_cell_length_c 15.602257
_cell_angle_alpha 90.000000
_cell_angle_beta 152.566404
_cell_angle_gamma 90.000000
_cell_volume 1385.788197
_symmetry_space_group_name_H-M "P 21/M"
_symmetry_group_IT_number 11
_symmetry_cell_setting 'monoclinic'
loop_
_space_group_symop_operation_xyz
x,y,z
-x,1/2+y,-z
-x,-y,-z
x,1/2-y,z
loop_
_atom_site_type_symbol
_atom_site_label
_atom_site_fract_x
_atom_site_fract_y
_atom_site_fract_z
Si Si1 0.715474 0.418549 0.625912
Si Si2 0.251013 0.919518 0.148649
Si Si3 0.734381 0.918018 0.001930
Si Si4 0.229013 0.416967 0.567872
Si Si5 0.548586 0.418684 0.262290
Si Si6 0.016692 0.923917 0.429545
Si Si7 0.942374 0.585422 0.809215
O O1 0.747998 0.250000 0.657230
O O2 0.664803 0.454914 0.662797
O O3 0.602919 0.466988 0.421555
O O4 0.863129 0.494449 0.786741
O O5 0.253480 0.750000 0.129258
O O6 0.095065 0.976573 0.977047
O O7 0.313036 0.001447 0.141111
O O8 0.737787 0.750000 0.982095
O O9 0.882749 0.969988 0.213778
O O10 0.616550 0.947515 0.933778
O O11 0.247169 0.250000 0.620204
O O12 0.380171 0.485045 0.726935
O O13 0.156108 0.512130 0.554324
O O14 0.136715 0.428699 0.374294
O O15 0.583382 0.250000 0.285974
O O16 0.027795 0.750000 0.452407
O O17 0.000000 0.000000 0.500000
O O18 0.948110 0.750000 0.848666
#
# Coordination Sequence:
#
# PCOD8070499 Si02
#       7
#     4   4   4   4   4   4   4
#     4   9  18  30  48  74 107 149 191 229 269 313
#     4  10  19  31  48  75 111 148 187 233 276 316
#     4  10  22  38  57  81 111 148 186 225 277 333
#     4  10  19  35  59  86 113 146 184 225 275 329
#     4   9  19  37  56  79 115 153 189 228 267 319
#     4  11  23  40  63  89 112 139 177 225 280 336
#     4   9  17  29  47  73 108 144 183 230 274 316
#
# _framework density 20.205107000000002
#
# number of rings (size 3 to 8) (size 9 to 14) (size 15 to 20)
#    0.000    2.286    1.429    1.286    0.000    3.429 
#    0.000    0.714    0.000    0.000    0.000    0.000 
#    0.000    0.000    0.000    0.000    0.000    0.000 
#
# Total GULP energy -347130.725440 kJ/mol
# GULP energy per Si atom -12397.525909 kJ/mol
# Density = 2.015912 g / cm^3
# Si number density = 20.205107 Si / 1000 Ang^3
#
#
#
# Elastic Constant Matrix: (Units=GPa)
#
#
# Indices 1 2 3 4 5 6 
#
# 1 128.4712 59.5705 30.0525 0.0000 4.9785 0.0000
# 2 59.5705 77.4149 23.3428 0.0000 1.6110 0.0000
# 3 30.0525 23.3428 28.5429 0.0000 6.4765 0.0000
# 4 0.0000 0.0000 0.0000 18.7525 0.0000 -0.3266
# 5 4.9785 1.6110 6.4765 0.0000 24.4374 0.0000
# 6 0.0000 0.0000 0.0000 -0.3266 0.0000 41.1162
#
#
#
# Elastic Compliance Matrix: (Units=1/GPa)
#
#
# Indices 1 2 3 4 5 6 
#
# 1 0.013188 -0.007926 -0.007355 0.000000 -0.000215 0.000000
# 2 -0.007926 0.022084 -0.010376 0.000000 0.002909 0.000000
# 3 -0.007355 -0.010376 0.054017 0.000000 -0.012133 0.000000
# 4 0.000000 0.000000 0.000000 0.053334 0.000000 0.000424
# 5 -0.000215 0.002909 -0.012133 0.000000 0.043989 0.000000
# 6 0.000000 0.000000 0.000000 0.000424 0.000000 0.024325
#
#
# Mechanical properties :
#
#
# Convention : Reuss Voigt Hill
#
# Bulk Modulus (GPa) = 26.33189 51.15117 38.74153
# Shear Modulus (GPa) = 18.18793 24.95876 21.57334
#
# Velocity S-wave (km/s) = 3.00353 3.51845 3.27114
# Velocity P-wave (km/s) = 5.00888 6.47124 5.78644
#
# Compressibility (1/GPa) = 0.03797676
#
# Stress axis : x y z
#
# Youngs Moduli (GPa) = 75.82835 45.28082 18.51263
#
# Poissons Ratio (x) = 0.35889 0.13615
# Poissons Ratio (y) = 0.60100 0.19209
# Poissons Ratio (z) = 0.55768 0.46983
#
# Static dielectric constant tensor:
#      x y z
#    x 3.688670 0.000000 0.056170 
#    y 0.000000 3.622940 0.000000 
#    z 0.056170 0.000000 3.612700 
# 
# 
# High freq. dielectric constant tensor:
#      x y z
#    x 1.789290 0.000000 0.006140 
#    y 0.000000 1.782260 0.000000 
#    z 0.006140 0.000000 1.771230 
# 
# From -- ./inp_files/54613.got.cif
#   From: 2010.06.25/outbox.cif.g09.slc.cpg/sg11_28_cif.got.tgz:54613.got - 2010.06.27 23:14:04.
