data_PCOD8070612
_publ_section_title
;
Structure prediction by ZEFSAII (Michael W. Deem and Ramdas Pophale) SiO2 
 PCOD8070612
Probable space group: P 21/M
;
_chemical_formula_sum "Si O2"
_cell_formula_units_Z 32
_cell_length_a 9.450730
_cell_length_b 17.970512
_cell_length_c 21.720956
_cell_angle_alpha 90.000000
_cell_angle_beta 28.736302
_cell_angle_gamma 90.000000
_cell_volume 1773.578311
_symmetry_space_group_name_H-M "P 21/M"
_symmetry_group_IT_number 11
_symmetry_cell_setting 'monoclinic'
loop_
_space_group_symop_operation_xyz
x,y,z
-x,1/2+y,-z
-x,-y,-z
x,1/2-y,z
loop_
_atom_site_type_symbol
_atom_site_label
_atom_site_fract_x
_atom_site_fract_y
_atom_site_fract_z
Si Si1 0.045471 0.338344 0.641138
Si Si2 0.757262 0.338771 0.626563
Si Si3 0.783515 0.917934 0.853912
Si Si4 0.108228 0.164514 0.848923
Si Si5 0.535800 0.165737 0.127931
Si Si6 0.781152 0.409646 0.860459
Si Si7 0.713347 0.161846 0.395529
Si Si8 0.024494 0.335559 0.401004
O O1 0.037584 0.250000 0.645835
O O2 0.380417 0.367323 0.517412
O O3 0.906080 0.370674 0.631408
O O4 0.851364 0.367495 0.771133
O O5 0.771032 0.250000 0.623583
O O6 0.421645 0.367678 0.750320
O O7 0.931132 0.372919 0.501117
O O8 0.595687 0.896231 0.866089
O O9 0.091414 0.872644 0.734890
O O10 0.860906 0.004345 0.822801
O O11 0.570098 0.898649 0.993171
O O12 0.141164 0.250000 0.815726
O O13 0.982849 0.121352 0.838295
O O14 0.889422 0.156837 0.991824
O O15 0.452729 0.250000 0.136598
O O16 0.378059 0.153786 0.254587
O O17 0.731154 0.250000 0.382307
O O18 0.841922 0.133169 0.412077
O O19 0.937049 0.250000 0.440704
#
# Coordination Sequence:
#
# PCOD8070612 Si02
#       8
#     4   4   4   4   4   4   4   4
#     4  10  20  32  47  71 100 127 155 192 240 286
#     4   9  17  29  45  67  95 122 152 193 236 279
#     4   9  18  31  49  73  98 124 159 197 241 283
#     4   9  16  28  48  71  91 118 159 199 232 273
#     4   8  14  26  47  71  90 112 152 201 238 274
#     4  10  19  31  50  72  98 128 159 197 237 285
#     4   9  17  31  52  74  94 120 158 200 239 281
#     4   8  13  24  44  66  86 112 146 185 227 270
#
# _framework density 18.042619999999999
#
# number of rings (size 3 to 8) (size 9 to 14) (size 15 to 20)
#    0.000    3.000    0.000    2.250    0.000    4.000 
#    0.000    1.250    0.000   18.000    0.000    0.000 
#    0.000    0.000    0.000    0.000    0.000    0.000 
#
# Total GULP energy -396468.690260 kJ/mol
# GULP energy per Si atom -12389.646571 kJ/mol
# Density = 1.800155 g / cm^3
# Si number density = 18.042620 Si / 1000 Ang^3
#
#
#
# Elastic Constant Matrix: (Units=GPa)
#
#
# Indices 1 2 3 4 5 6 
#
# 1 93.8419 15.0103 71.8818 0.0000 8.0427 0.0000
# 2 15.0103 25.1010 25.2877 0.0000 0.8325 0.0000
# 3 71.8818 25.2877 170.1168 0.0000 11.1056 0.0000
# 4 0.0000 0.0000 0.0000 18.9136 0.0000 0.6664
# 5 8.0427 0.8325 11.1056 0.0000 8.0998 0.0000
# 6 0.0000 0.0000 0.0000 0.6664 0.0000 5.4628
#
#
#
# Elastic Compliance Matrix: (Units=1/GPa)
#
#
# Indices 1 2 3 4 5 6 
#
# 1 0.016418 -0.003629 -0.005885 0.000000 -0.007861 0.000000
# 2 -0.003629 0.047858 -0.006035 0.000000 0.006959 0.000000
# 3 -0.005885 -0.006035 0.009709 0.000000 -0.006849 0.000000
# 4 0.000000 0.000000 0.000000 0.053100 0.000000 -0.006477
# 5 -0.007861 0.006959 -0.006849 0.000000 0.139940 0.000000
# 6 0.000000 0.000000 0.000000 -0.006477 0.000000 0.183845
#
#
# Mechanical properties :
#
#
# Convention : Reuss Voigt Hill
#
# Bulk Modulus (GPa) = 23.31642 57.04661 40.18151
# Shear Modulus (GPa) = 10.07528 18.28723 14.18126
#
# Velocity S-wave (km/s) = 2.36565 3.18710 2.80659
# Velocity P-wave (km/s) = 4.51805 6.72531 5.72898
#
# Compressibility (1/GPa) = 0.04288823
#
# Stress axis : x y z
#
# Youngs Moduli (GPa) = 60.90882 20.89506 102.99631
#
# Poissons Ratio (x) = 0.07582 0.60611
# Poissons Ratio (y) = 0.22102 0.62159
# Poissons Ratio (z) = 0.35843 0.12610
#
# Static dielectric constant tensor:
#      x y z
#    x 3.153500 0.000000 0.036310 
#    y 0.000000 3.005560 0.000000 
#    z 0.036310 0.000000 3.893990 
# 
# 
# High freq. dielectric constant tensor:
#      x y z
#    x 1.659050 0.000000 0.003120 
#    y 0.000000 1.663200 0.000000 
#    z 0.003120 0.000000 1.728010 
# 
# From -- ./inp_files/63995.got.cif
#   From: 2010.06.25/outbox.cif.g09.slc.cpg/sg11_32_cif.got.tgz:63995.got - 2010.06.27 23:14:04.
