data_PCOD8070202
_publ_section_title
;
Structure prediction by ZEFSAII (Michael W. Deem and Ramdas Pophale) SiO2 
 PCOD8070202
Probable space group: P 21/M
;
_chemical_formula_sum "Si O2"
_cell_formula_units_Z 32
_cell_length_a 11.996678
_cell_length_b 8.824252
_cell_length_c 20.104213
_cell_angle_alpha 90.000000
_cell_angle_beta 122.870461
_cell_angle_gamma 90.000000
_cell_volume 1787.530467
_symmetry_space_group_name_H-M "P 21/M"
_symmetry_group_IT_number 11
_symmetry_cell_setting 'monoclinic'
loop_
_space_group_symop_operation_xyz
x,y,z
-x,1/2+y,-z
-x,-y,-z
x,1/2-y,z
loop_
_atom_site_type_symbol
_atom_site_label
_atom_site_fract_x
_atom_site_fract_y
_atom_site_fract_z
Si Si1 0.288017 0.428932 0.539514
Si Si2 0.302032 0.575011 0.894175
Si Si3 0.746926 0.071510 0.334517
Si Si4 0.564142 0.423352 0.931993
Si Si5 0.895183 0.575551 0.264926
Si Si6 0.587775 0.428157 0.652814
Si Si7 0.471322 0.574775 0.223902
Si Si8 0.803694 0.074233 0.622054
O O1 0.278461 0.250000 0.541483
O O2 0.221669 0.497763 0.583999
O O3 0.441449 0.483199 0.583359
O O4 0.206730 0.485864 0.450242
O O5 0.272286 0.750000 0.869577
O O6 0.440893 0.532996 0.904974
O O7 0.181931 0.477709 0.826021
O O8 0.315421 0.541934 0.977981
O O9 0.752075 0.250000 0.344191
O O10 0.856958 0.020218 0.317374
O O11 0.604699 0.021619 0.260439
O O12 0.515914 0.250000 0.926825
O O13 0.612924 0.448006 0.871391
O O14 0.860419 0.750000 0.267493
O O15 0.050377 0.551609 0.300620
O O16 0.600735 0.250000 0.650121
O O17 0.611998 0.477345 0.737962
O O18 0.699680 0.499447 0.641159
O O19 0.513900 0.750000 0.247388
O O20 0.773058 0.250000 0.598255
#
# Coordination Sequence:
#
# PCOD8070202 Si02
#       8
#     4   4   4   4   4   4   4   4
#     4  10  20  35  56  78 101 127 160 208 261 305
#     4  10  19  30  47  74 104 135 168 205 247 297
#     4  11  21  33  51  75 102 132 166 205 251 301
#     4   9  17  29  49  76 105 133 163 202 252 301
#     4  11  22  35  50  69 101 141 172 205 248 297
#     4   8  16  32  54  78 100 126 164 209 252 297
#     4   9  16  30  53  78 104 130 160 204 256 303
#     4  10  21  36  53  73  98 132 174 211 247 295
#
# _framework density 17.901793999999999
#
# number of rings (size 3 to 8) (size 9 to 14) (size 15 to 20)
#    0.000    2.250    1.250    3.375    0.000    2.000 
#    0.000    2.500    0.000    0.750    0.000    0.000 
#    0.000    0.000    0.000    0.000    0.000    0.500 
#
# Total GULP energy -396715.936710 kJ/mol
# GULP energy per Si atom -12397.373022 kJ/mol
# Density = 1.786105 g / cm^3
# Si number density = 17.901794 Si / 1000 Ang^3
#
#
#
# Elastic Constant Matrix: (Units=GPa)
#
#
# Indices 1 2 3 4 5 6 
#
# 1 53.9539 25.1287 38.8078 0.0000 -0.9529 0.0000
# 2 25.1287 73.3944 37.7901 0.0000 1.0311 0.0000
# 3 38.8078 37.7901 133.3953 0.0000 -12.4555 0.0000
# 4 0.0000 0.0000 0.0000 27.1209 0.0000 -1.4552
# 5 -0.9529 1.0311 -12.4555 0.0000 22.0660 0.0000
# 6 0.0000 0.0000 0.0000 -1.4552 0.0000 13.2588
#
#
#
# Elastic Compliance Matrix: (Units=1/GPa)
#
#
# Indices 1 2 3 4 5 6 
#
# 1 0.025416 -0.005583 -0.006002 0.000000 -0.002029 0.000000
# 2 -0.005583 0.017435 -0.003604 0.000000 -0.003090 0.000000
# 3 -0.006002 -0.003604 0.010826 0.000000 0.006020 0.000000
# 4 0.000000 0.000000 0.000000 0.037090 0.000000 0.004071
# 5 -0.002029 -0.003090 0.006020 0.000000 0.048773 0.000000
# 6 0.000000 0.000000 0.000000 0.004071 0.000000 0.075869
#
#
# Mechanical properties :
#
#
# Convention : Reuss Voigt Hill
#
# Bulk Modulus (GPa) = 42.91904 51.57744 47.24824
# Shear Modulus (GPa) = 19.71976 23.09027 21.40501
#
# Velocity S-wave (km/s) = 3.32256 3.59532 3.46163
# Velocity P-wave (km/s) = 6.22463 6.79036 6.51364
#
# Compressibility (1/GPa) = 0.02329968
#
# Stress axis : x y z
#
# Youngs Moduli (GPa) = 39.34568 57.35457 92.37376
#
# Poissons Ratio (x) = 0.32021 0.55442
# Poissons Ratio (y) = 0.21967 0.33288
# Poissons Ratio (z) = 0.23615 0.20669
#
# Static dielectric constant tensor:
#      x y z
#    x 3.232560 0.000000 -0.245050 
#    y 0.000000 3.247430 0.000000 
#    z -0.245050 0.000000 3.515360 
# 
# 
# High freq. dielectric constant tensor:
#      x y z
#    x 1.661590 0.000000 -0.020580 
#    y 0.000000 1.687810 0.000000 
#    z -0.020580 0.000000 1.700030 
# 
# From -- ./inp_files/64229.got.cif
#   From: 2010.06.25/outbox.cif.g09.slc.cpg/sg11_33_cif.got.tgz:64229.got - 2010.06.27 23:14:04.
