data_PCOD8070385
_publ_section_title
;
Structure prediction by ZEFSAII (Michael W. Deem and Ramdas Pophale) SiO2 
 PCOD8070385
Probable space group: P 21/M
;
_chemical_formula_sum "Si O2"
_cell_formula_units_Z 32
_cell_length_a 21.039118
_cell_length_b 9.255065
_cell_length_c 23.144444
_cell_angle_alpha 90.000000
_cell_angle_beta 23.939506
_cell_angle_gamma 90.000000
_cell_volume 1828.671512
_symmetry_space_group_name_H-M "P 21/M"
_symmetry_group_IT_number 11
_symmetry_cell_setting 'monoclinic'
loop_
_space_group_symop_operation_xyz
x,y,z
-x,1/2+y,-z
-x,-y,-z
x,1/2-y,z
loop_
_atom_site_type_symbol
_atom_site_label
_atom_site_fract_x
_atom_site_fract_y
_atom_site_fract_z
Si Si1 0.673330 0.082462 0.224499
Si Si2 0.660143 0.579211 0.851921
Si Si3 0.789066 0.418111 0.252038
Si Si4 0.881470 0.919392 0.966922
Si Si5 0.133396 0.086052 0.419454
Si Si6 0.670747 0.584666 0.453657
Si Si7 0.060163 0.581543 0.316176
Si Si8 0.007573 0.419012 0.757403
O O1 0.713784 0.250000 0.179679
O O2 0.754574 0.027658 0.216076
O O3 0.488327 0.054905 0.380047
O O4 0.732795 0.986733 0.122254
O O5 0.642446 0.750000 0.878873
O O6 0.700232 0.548188 0.749914
O O7 0.799612 0.515391 0.775300
O O8 0.500000 0.500000 0.000000
O O9 0.752698 0.250000 0.287200
O O10 0.671624 0.494531 0.393944
O O11 0.966974 0.456728 0.120344
O O12 0.857245 0.750000 0.978856
O O13 0.893885 0.991745 0.893802
O O14 0.097410 0.250000 0.434161
O O15 0.106555 0.058581 0.510464
O O16 0.000000 0.000000 0.500000
O O17 0.683756 0.750000 0.423573
O O18 0.812635 0.540939 0.378020
O O19 0.110264 0.750000 0.277405
O O20 0.027944 0.531282 0.277966
O O21 0.974890 0.250000 0.793602
#
# Coordination Sequence:
#
# PCOD8070385 Si02
#       8
#     4   4   4   4   4   4   4   4
#     4  10  19  31  47  69  96 123 157 202 250 297
#     4  10  19  31  49  76 109 136 159 194 238 280
#     4   9  18  31  47  68  93 123 159 200 247 298
#     4  10  20  32  47  68  95 127 162 199 241 292
#     4   8  15  28  47  71  96 123 157 195 232 272
#     4   9  18  31  48  70  94 121 156 200 246 293
#     4   9  17  32  54  74  93 124 165 201 236 283
#     4   9  18  34  53  70  91 123 161 199 240 287
#
# _framework density 17.499043
#
# number of rings (size 3 to 8) (size 9 to 14) (size 15 to 20)
#    0.000    2.750    0.000    1.500    0.000    2.500 
#    0.000    1.250    0.000    4.500    0.000    0.000 
#    0.000    0.000    0.000    0.000    0.000    0.000 
#
# Total GULP energy -396595.158118 kJ/mol
# GULP energy per Si atom -12393.598691 kJ/mol
# Density = 1.745921 g / cm^3
# Si number density = 17.499043 Si / 1000 Ang^3
#
#
#
# Elastic Constant Matrix: (Units=GPa)
#
#
# Indices 1 2 3 4 5 6 
#
# 1 91.3873 40.5022 64.8933 0.0000 25.6317 0.0000
# 2 40.5022 64.8712 59.8727 0.0000 13.4300 0.0000
# 3 64.8933 59.8727 140.0073 0.0000 24.2461 0.0000
# 4 0.0000 0.0000 0.0000 28.9642 0.0000 2.1983
# 5 25.6317 13.4300 24.2461 0.0000 24.2421 0.0000
# 6 0.0000 0.0000 0.0000 2.1983 0.0000 22.6236
#
#
#
# Elastic Compliance Matrix: (Units=1/GPa)
#
#
# Indices 1 2 3 4 5 6 
#
# 1 0.020789 -0.005654 -0.004782 0.000000 -0.014065 0.000000
# 2 -0.005654 0.027311 -0.009039 0.000000 -0.000111 0.000000
# 3 -0.004782 -0.009039 0.013887 0.000000 -0.003825 0.000000
# 4 0.000000 0.000000 0.000000 0.034782 0.000000 -0.003380
# 5 -0.014065 -0.000111 -0.003825 0.000000 0.060010 0.000000
# 6 0.000000 0.000000 0.000000 -0.003380 0.000000 0.044530
#
#
# Mechanical properties :
#
#
# Convention : Reuss Voigt Hill
#
# Bulk Modulus (GPa) = 43.40994 69.64471 56.52733
# Shear Modulus (GPa) = 20.16627 23.89915 22.03271
#
# Velocity S-wave (km/s) = 3.39842 3.69960 3.55220
# Velocity P-wave (km/s) = 6.34507 7.62463 7.01409
#
# Compressibility (1/GPa) = 0.02303620
#
# Stress axis : x y z
#
# Youngs Moduli (GPa) = 48.10265 36.61493 72.00981
#
# Poissons Ratio (x) = 0.20703 0.34434
# Poissons Ratio (y) = 0.27198 0.65093
# Poissons Ratio (z) = 0.23002 0.33098
#
# Static dielectric constant tensor:
#      x y z
#    x 3.191720 0.000000 0.296940 
#    y 0.000000 3.248260 0.000000 
#    z 0.296940 0.000000 3.496580 
# 
# 
# High freq. dielectric constant tensor:
#      x y z
#    x 1.651120 0.000000 0.016290 
#    y 0.000000 1.678140 0.000000 
#    z 0.016290 0.000000 1.682570 
# 
# From -- ./inp_files/27294.got.cif
#   From: 2010.06.25/outbox.cif.g09.slc.cpg/sg11_14_cif.got.tgz:27294.got - 2010.06.27 23:14:04.
