data_PCOD8070833
_publ_section_title
;
Structure prediction by ZEFSAII (Michael W. Deem and Ramdas Pophale) SiO2 
 PCOD8070833
Probable space group: P 21/M
;
_chemical_formula_sum "Si O2"
_cell_formula_units_Z 32
_cell_length_a 14.584007
_cell_length_b 13.929632
_cell_length_c 11.220281
_cell_angle_alpha 90.000000
_cell_angle_beta 134.691564
_cell_angle_gamma 90.000000
_cell_volume 1620.431238
_symmetry_space_group_name_H-M "P 21/M"
_symmetry_group_IT_number 11
_symmetry_cell_setting 'monoclinic'
loop_
_space_group_symop_operation_xyz
x,y,z
-x,1/2+y,-z
-x,-y,-z
x,1/2-y,z
loop_
_atom_site_type_symbol
_atom_site_label
_atom_site_fract_x
_atom_site_fract_y
_atom_site_fract_z
Si Si1 0.388338 0.862760 0.159320
Si Si2 0.172585 0.142925 0.125072
Si Si3 0.143316 0.636533 0.786605
Si Si4 0.778298 0.359962 0.402021
Si Si5 0.311622 0.534776 0.314854
Si Si6 0.914411 0.141518 0.767962
Si Si7 0.120870 0.358611 0.349371
Si Si8 0.370354 0.017569 0.619200
O O1 0.413352 0.750000 0.165374
O O2 0.372999 0.885481 0.285592
O O3 0.511489 0.920646 0.221476
O O4 0.263745 0.900860 0.974569
O O5 0.229879 0.250000 0.155379
O O6 0.106370 0.138379 0.194129
O O7 0.287593 0.065207 0.221398
O O8 0.064027 0.118149 0.927879
O O9 0.137737 0.750000 0.795060
O O10 0.160656 0.604321 0.665984
O O11 0.009138 0.594388 0.714485
O O12 0.730285 0.250000 0.347650
O O13 0.887428 0.371539 0.602970
O O14 0.653077 0.424232 0.319839
O O15 0.173335 0.569971 0.236683
O O16 0.403581 0.515967 0.513423
O O17 0.882706 0.250000 0.780286
O O18 0.140579 0.250000 0.412992
O O19 0.241698 0.418996 0.504759
#
# Coordination Sequence:
#
# PCOD8070833 Si02
#       8
#     4   4   4   4   4   4   4   4
#     4  11  22  36  55  78 103 131 170 215 255 303
#     4   9  17  29  48  75 106 139 170 206 254 302
#     4   9  19  35  55  77 102 135 172 212 255 297
#     4   9  19  35  52  73 103 137 174 212 250 299
#     4  10  19  32  49  74 104 135 169 207 253 307
#     4   9  16  28  49  75 104 137 171 208 251 301
#     4   9  17  32  53  78 108 135 166 210 256 300
#     4  10  21  35  53  78 104 137 171 205 256 306
#
# _framework density 19.747828999999999
#
# number of rings (size 3 to 8) (size 9 to 14) (size 15 to 20)
#    0.000    2.500    0.000    2.250    0.000    6.000 
#    0.000    0.625    0.000    0.000    0.000    1.750 
#    0.000    0.000    0.000    0.000    0.000    0.000 
#
# Total GULP energy -396776.647719 kJ/mol
# GULP energy per Si atom -12399.270241 kJ/mol
# Density = 1.970288 g / cm^3
# Si number density = 19.747829 Si / 1000 Ang^3
#
#
#
# Elastic Constant Matrix: (Units=GPa)
#
#
# Indices 1 2 3 4 5 6 
#
# 1 71.9437 18.1902 38.6213 0.0000 -1.7791 0.0000
# 2 18.1902 66.0198 18.4094 0.0000 -0.6221 0.0000
# 3 38.6213 18.4094 71.2975 0.0000 8.5947 0.0000
# 4 0.0000 0.0000 0.0000 25.9682 0.0000 5.1576
# 5 -1.7791 -0.6221 8.5947 0.0000 22.0603 0.0000
# 6 0.0000 0.0000 0.0000 5.1576 0.0000 26.5700
#
#
#
# Elastic Compliance Matrix: (Units=1/GPa)
#
#
# Indices 1 2 3 4 5 6 
#
# 1 0.020761 -0.002506 -0.011324 0.000000 0.006016 0.000000
# 2 -0.002506 0.016728 -0.003142 0.000000 0.001494 0.000000
# 3 -0.011324 -0.003142 0.022132 0.000000 -0.009624 0.000000
# 4 0.000000 0.000000 0.000000 0.040053 0.000000 -0.007775
# 5 0.006016 0.001494 -0.009624 0.000000 0.049607 0.000000
# 6 0.000000 0.000000 0.000000 -0.007775 0.000000 0.039146
#
#
# Mechanical properties :
#
#
# Convention : Reuss Voigt Hill
#
# Bulk Modulus (GPa) = 38.94647 39.96700 39.45673
# Shear Modulus (GPa) = 21.65169 23.85571 22.75370
#
# Velocity S-wave (km/s) = 3.31480 3.47942 3.39811
# Velocity P-wave (km/s) = 5.86645 6.03527 5.95146
#
# Compressibility (1/GPa) = 0.02567627
#
# Stress axis : x y z
#
# Youngs Moduli (GPa) = 48.16639 59.78163 45.18442
#
# Poissons Ratio (x) = 0.14980 0.51169
# Poissons Ratio (y) = 0.12070 0.14196
# Poissons Ratio (z) = 0.54546 0.18782
#
# Static dielectric constant tensor:
#      x y z
#    x 3.383340 0.000000 -0.064470 
#    y 0.000000 3.821970 0.000000 
#    z -0.064470 0.000000 3.511170 
# 
# 
# High freq. dielectric constant tensor:
#      x y z
#    x 1.741180 0.000000 -0.000230 
#    y 0.000000 1.778480 0.000000 
#    z -0.000230 0.000000 1.757900 
# 
# From -- ./inp_files/39677.got.cif
#   From: 2010.06.25/outbox.cif.g09.slc.cpg/sg11_20_cif.got.tgz:39677.got - 2010.06.27 23:14:04.
