data_PCOD8070974
_publ_section_title
;
Structure prediction by ZEFSAII (Michael W. Deem and Ramdas Pophale) SiO2 
 PCOD8070974
Probable space group: P 21/M
;
_chemical_formula_sum "Si O2"
_cell_formula_units_Z 32
_cell_length_a 22.223330
_cell_length_b 8.996444
_cell_length_c 28.141582
_cell_angle_alpha 90.000000
_cell_angle_beta 161.438152
_cell_angle_gamma 90.000000
_cell_volume 1791.032871
_symmetry_space_group_name_H-M "P 21/M"
_symmetry_group_IT_number 11
_symmetry_cell_setting 'monoclinic'
loop_
_space_group_symop_operation_xyz
x,y,z
-x,1/2+y,-z
-x,-y,-z
x,1/2-y,z
loop_
_atom_site_type_symbol
_atom_site_label
_atom_site_fract_x
_atom_site_fract_y
_atom_site_fract_z
Si Si1 0.775840 0.421887 0.217379
Si Si2 0.814712 0.426135 0.989155
Si Si3 0.522957 0.073583 0.848275
Si Si4 0.587142 0.576651 0.993591
Si Si5 0.904532 0.576334 0.472960
Si Si6 0.187749 0.572996 0.120139
Si Si7 0.447485 0.421382 0.386843
Si Si8 0.770477 0.921645 0.679339
O O1 0.758334 0.250000 0.189721
O O2 0.617016 0.463004 0.137381
O O3 0.979182 0.460187 0.392096
O O4 0.750800 0.520133 0.151575
O O5 0.817691 0.250000 0.990651
O O6 0.015000 0.481248 0.160170
O O7 0.646252 0.486005 0.896337
O O8 0.783944 0.483205 0.912624
O O9 0.533120 0.250000 0.859938
O O10 0.308584 0.018081 0.679575
O O11 0.610056 0.006211 0.961114
O O12 0.613414 0.750000 0.004685
O O13 0.908589 0.750000 0.465252
O O14 0.000000 0.500000 0.500000
O O15 0.168680 0.750000 0.109377
O O16 0.370260 0.517749 0.285397
O O17 0.000000 0.500000 0.000000
O O18 0.460686 0.250000 0.381592
O O19 0.307310 0.444082 0.325924
O O20 0.655596 0.479894 0.555740
O O21 0.754363 0.750000 0.651880
#
# Coordination Sequence:
#
# PCOD8070974 Si02
#       8
#     4   4   4   4   4   4   4   4
#     4   9  18  32  50  75 106 136 172 216 260 309
#     4   9  19  36  55  77 106 140 180 219 261 320
#     4  10  20  35  56  78 104 141 179 217 265 322
#     4  10  19  32  51  76 106 136 171 217 264 311
#     4  10  19  32  53  80 106 135 174 220 266 313
#     4  11  20  34  55  80 109 142 180 226 272 318
#     4  10  19  32  52  81 109 134 172 222 269 317
#     4   9  17  33  53  75 104 138 174 216 263 314
#
# _framework density 17.866786000000001
#
# number of rings (size 3 to 8) (size 9 to 14) (size 15 to 20)
#    0.000    2.250    2.500    1.125    0.000    1.500 
#    0.000    3.125    0.000    4.500    0.000    0.000 
#    0.000    0.000    0.000    0.000    0.000    0.000 
#
# Total GULP energy -396849.833581 kJ/mol
# GULP energy per Si atom -12401.557299 kJ/mol
# Density = 1.782612 g / cm^3
# Si number density = 17.866786 Si / 1000 Ang^3
#
#
#
# Elastic Constant Matrix: (Units=GPa)
#
#
# Indices 1 2 3 4 5 6 
#
# 1 124.7407 41.1558 75.6060 0.0000 -4.7259 0.0000
# 2 41.1558 52.8034 38.9938 0.0000 -4.5453 0.0000
# 3 75.6060 38.9938 139.2456 0.0000 -3.4162 0.0000
# 4 0.0000 0.0000 0.0000 26.5422 0.0000 -5.7426
# 5 -4.7259 -4.5453 -3.4162 0.0000 26.8817 0.0000
# 6 0.0000 0.0000 0.0000 -5.7426 0.0000 23.7496
#
#
#
# Elastic Compliance Matrix: (Units=1/GPa)
#
#
# Indices 1 2 3 4 5 6 
#
# 1 0.013495 -0.006388 -0.005524 0.000000 0.000590 0.000000
# 2 -0.006388 0.027177 -0.004070 0.000000 0.002955 0.000000
# 3 -0.005524 -0.004070 0.011315 0.000000 -0.000221 0.000000
# 4 0.000000 0.000000 0.000000 0.039756 0.000000 0.009613
# 5 0.000590 0.002955 -0.000221 0.000000 0.037775 0.000000
# 6 0.000000 0.000000 0.000000 0.009613 0.000000 0.044430
#
#
# Mechanical properties :
#
#
# Convention : Reuss Voigt Hill
#
# Bulk Modulus (GPa) = 49.94073 69.81119 59.87596
# Shear Modulus (GPa) = 23.52009 26.17031 24.84520
#
# Velocity S-wave (km/s) = 3.63218 3.83135 3.73309
# Velocity P-wave (km/s) = 6.75298 7.66357 7.22264
#
# Compressibility (1/GPa) = 0.02002374
#
# Stress axis : x y z
#
# Youngs Moduli (GPa) = 74.10400 36.79641 88.37843
#
# Poissons Ratio (x) = 0.23505 0.48818
# Poissons Ratio (y) = 0.47337 0.35966
# Poissons Ratio (z) = 0.40934 0.14974
#
# Static dielectric constant tensor:
#      x y z
#    x 3.279610 0.000000 -0.082080 
#    y 0.000000 3.221250 0.000000 
#    z -0.082080 0.000000 3.536330 
# 
# 
# High freq. dielectric constant tensor:
#      x y z
#    x 1.672230 0.000000 -0.015740 
#    y 0.000000 1.681380 0.000000 
#    z -0.015740 0.000000 1.699030 
# 
# From -- ./inp_files/72212.got.cif
#   From: 2010.06.25/outbox.cif.g09.slc.cpg/sg11_37_cif.got.tgz:72212.got - 2010.06.27 23:14:04.
