data_PCOD8070032
_publ_section_title
;
Structure prediction by ZEFSAII (Michael W. Deem and Ramdas Pophale) SiO2 
 PCOD8070032
Probable space group: P 21/M
;
_chemical_formula_sum "Si O2"
_cell_formula_units_Z 28
_cell_length_a 16.407408
_cell_length_b 9.040268
_cell_length_c 17.700286
_cell_angle_alpha 90.000000
_cell_angle_beta 40.968602
_cell_angle_gamma 90.000000
_cell_volume 1721.355426
_symmetry_space_group_name_H-M "P 21/M"
_symmetry_group_IT_number 11
_symmetry_cell_setting 'monoclinic'
loop_
_space_group_symop_operation_xyz
x,y,z
-x,1/2+y,-z
-x,-y,-z
x,1/2-y,z
loop_
_atom_site_type_symbol
_atom_site_label
_atom_site_fract_x
_atom_site_fract_y
_atom_site_fract_z
Si Si1 0.875375 0.586425 0.672977
Si Si2 0.073256 0.422307 0.199815
Si Si3 0.633087 0.926203 0.411562
Si Si4 0.213507 0.922899 0.568521
Si Si5 0.824203 0.079512 0.175254
Si Si6 0.069469 0.579936 0.056363
Si Si7 0.166206 0.913383 0.437377
O O1 0.819538 0.750000 0.713070
O O2 0.864804 0.519256 0.765122
O O3 0.796358 0.500567 0.664778
O O4 0.018831 0.590474 0.549992
O O5 0.104245 0.250000 0.166484
O O6 0.129801 0.519130 0.091774
O O7 0.925704 0.447718 0.304937
O O8 0.622243 0.750000 0.416992
O O9 0.500000 0.000000 0.500000
O O10 0.696165 0.976596 0.445356
O O11 0.710897 0.982271 0.284973
O O12 0.249356 0.750000 0.550077
O O13 0.225957 0.978419 0.472655
O O14 0.807254 0.250000 0.212506
O O15 0.828344 0.065270 0.081428
O O16 0.952129 0.022038 0.120518
O O17 0.026632 0.750000 0.095361
O O18 0.218761 0.750000 0.388565
#
# Coordination Sequence:
#
# PCOD8070032 Si02
#       7
#     4   4   4   4   4   4   4
#     4   8  14  23  35  56  84 117 150 179 217 261
#     4   9  16  26  42  62  91 125 152 185 226 267
#     4  12  24  36  51  69  89 118 157 195 235 276
#     4   9  17  30  45  62  87 119 153 189 230 270
#     4  10  20  34  48  65  92 120 150 192 234 271
#     4  10  19  29  46  70  92 119 155 190 226 273
#     4   8  14  24  38  56  81 115 148 181 221 262
#
# _framework density 16.266252000000001
#
# number of rings (size 3 to 8) (size 9 to 14) (size 15 to 20)
#    0.000    2.571    1.429    3.857    0.000    2.857 
#    0.000    2.857    0.000    0.000    0.000    0.000 
#    0.000    1.143    0.000    3.714    0.000    5.429 
#
# Total GULP energy -347010.061270 kJ/mol
# GULP energy per Si atom -12393.216474 kJ/mol
# Density = 1.622923 g / cm^3
# Si number density = 16.266252 Si / 1000 Ang^3
#
#
#
# Elastic Constant Matrix: (Units=GPa)
#
#
# Indices 1 2 3 4 5 6 
#
# 1 101.8197 57.9943 50.0842 0.0000 37.3499 0.0000
# 2 57.9943 102.3709 39.9326 0.0000 16.4976 0.0000
# 3 50.0842 39.9326 60.6082 0.0000 16.3543 0.0000
# 4 0.0000 0.0000 0.0000 22.1023 0.0000 7.2069
# 5 37.3499 16.4976 16.3543 0.0000 30.7789 0.0000
# 6 0.0000 0.0000 0.0000 7.2069 0.0000 29.6037
#
#
#
# Elastic Compliance Matrix: (Units=1/GPa)
#
#
# Indices 1 2 3 4 5 6 
#
# 1 0.029733 -0.007877 -0.012588 0.000000 -0.025170 0.000000
# 2 -0.007877 0.015453 -0.004688 0.000000 0.003768 0.000000
# 3 -0.012588 -0.004688 0.029407 0.000000 0.002163 0.000000
# 4 0.000000 0.000000 0.000000 0.049145 0.000000 -0.011964
# 5 -0.025170 0.003768 0.002163 0.000000 0.059864 0.000000
# 6 0.000000 0.000000 0.000000 -0.011964 0.000000 0.036692
#
#
# Mechanical properties :
#
#
# Convention : Reuss Voigt Hill
#
# Bulk Modulus (GPa) = 41.17815 62.31345 51.74580
# Shear Modulus (GPa) = 17.94063 24.28282 21.11172
#
# Velocity S-wave (km/s) = 3.32465 3.86791 3.60653
# Velocity P-wave (km/s) = 6.33307 7.63801 7.01595
#
# Compressibility (1/GPa) = 0.02428472
#
# Stress axis : x y z
#
# Youngs Moduli (GPa) = 33.63266 64.71360 34.00546
#
# Poissons Ratio (x) = 0.50978 0.42807
# Poissons Ratio (y) = 0.26494 0.15943
# Poissons Ratio (z) = 0.42338 0.30339
#
# Static dielectric constant tensor:
#      x y z
#    x 3.191830 0.000000 0.473220 
#    y 0.000000 3.207390 0.000000 
#    z 0.473220 0.000000 2.862110 
# 
# 
# High freq. dielectric constant tensor:
#      x y z
#    x 1.617500 0.000000 0.046360 
#    y 0.000000 1.630070 0.000000 
#    z 0.046360 0.000000 1.578850 
# 
# From -- ./inp_files/60092.got.cif
#   From: 2010.06.25/outbox.cif.g09.slc.cpg/sg11_31_cif.got.tgz:60092.got - 2010.06.27 23:14:04.
