data_PCOD8070849
_publ_section_title
;
Structure prediction by ZEFSAII (Michael W. Deem and Ramdas Pophale) SiO2 
 PCOD8070849
Probable space group: P 21/M
;
_chemical_formula_sum "Si O2"
_cell_formula_units_Z 28
_cell_length_a 24.003798
_cell_length_b 8.931450
_cell_length_c 16.372001
_cell_angle_alpha 90.000000
_cell_angle_beta 151.324873
_cell_angle_gamma 90.000000
_cell_volume 1684.234509
_symmetry_space_group_name_H-M "P 21/M"
_symmetry_group_IT_number 11
_symmetry_cell_setting 'monoclinic'
loop_
_space_group_symop_operation_xyz
x,y,z
-x,1/2+y,-z
-x,-y,-z
x,1/2-y,z
loop_
_atom_site_type_symbol
_atom_site_label
_atom_site_fract_x
_atom_site_fract_y
_atom_site_fract_z
Si Si1 0.555313 0.928266 0.828993
Si Si2 0.225465 0.418060 0.988350
Si Si3 0.341703 0.426029 0.473879
Si Si4 0.539139 0.571105 0.134272
Si Si5 0.223238 0.424861 0.486663
Si Si6 0.968521 0.426837 0.181125
Si Si7 0.209074 0.081363 0.145950
O O1 0.548043 0.750000 0.829999
O O2 0.679701 0.979985 0.952844
O O3 0.458195 0.981925 0.640413
O O4 0.543594 0.009390 0.900775
O O5 0.189991 0.250000 0.918040
O O6 0.279603 0.420200 0.150393
O O7 0.106345 0.516166 0.836551
O O8 0.372767 0.250000 0.511603
O O9 0.248340 0.461586 0.424391
O O10 0.288496 0.485310 0.320191
O O11 0.529637 0.750000 0.119667
O O12 0.670801 0.515010 0.321299
O O13 0.500000 0.500000 0.000000
O O14 0.215594 0.250000 0.490727
O O15 0.099261 0.494612 0.353586
O O16 0.970116 0.250000 0.182077
O O17 0.908588 0.484965 0.019680
O O18 0.172460 0.250000 0.123218
#
# Coordination Sequence:
#
# PCOD8070849 Si02
#       7
#     4   4   4   4   4   4   4
#     4  10  19  32  50  71  97 125 157 198 240 281
#     4   8  17  32  45  64  95 130 162 197 239 275
#     4   9  17  30  46  65  95 131 165 199 243 285
#     4  10  20  36  56  78 101 121 147 184 235 290
#     4   8  16  30  48  70  96 124 151 192 241 281
#     4   9  16  28  46  67  91 125 166 197 228 276
#     4   8  16  30  43  63  95 132 164 199 242 274
#
# _framework density 16.624763000000002
#
# number of rings (size 3 to 8) (size 9 to 14) (size 15 to 20)
#    0.857    2.286    0.000    1.714    0.000    2.857 
#    0.000    7.143    0.000    0.857    0.000    0.000 
#    0.000    0.000    0.000    0.000    0.000    0.000 
#
# Total GULP energy -346868.171991 kJ/mol
# GULP energy per Si atom -12388.149000 kJ/mol
# Density = 1.658692 g / cm^3
# Si number density = 16.624763 Si / 1000 Ang^3
#
#
#
# Elastic Constant Matrix: (Units=GPa)
#
#
# Indices 1 2 3 4 5 6 
#
# 1 99.9367 34.8723 65.9745 0.0000 10.6423 0.0000
# 2 34.8723 56.4387 30.1053 0.0000 4.2513 0.0000
# 3 65.9745 30.1053 69.7024 0.0000 4.6034 0.0000
# 4 0.0000 0.0000 0.0000 21.4401 0.0000 -0.4940
# 5 10.6423 4.2513 4.6034 0.0000 29.5091 0.0000
# 6 0.0000 0.0000 0.0000 -0.4940 0.0000 25.4314
#
#
#
# Elastic Compliance Matrix: (Units=1/GPa)
#
#
# Indices 1 2 3 4 5 6 
#
# 1 0.028300 -0.003853 -0.024739 0.000000 -0.005792 0.000000
# 2 -0.003853 0.023640 -0.006497 0.000000 -0.001003 0.000000
# 3 -0.024739 -0.006497 0.040334 0.000000 0.003566 0.000000
# 4 0.000000 0.000000 0.000000 0.046663 0.000000 0.000906
# 5 -0.005792 -0.001003 0.003566 0.000000 0.035565 0.000000
# 6 0.000000 0.000000 0.000000 0.000906 0.000000 0.039339
#
#
# Mechanical properties :
#
#
# Convention : Reuss Voigt Hill
#
# Bulk Modulus (GPa) = 45.26092 54.22022 49.74057
# Shear Modulus (GPa) = 17.15944 21.61782 19.38863
#
# Velocity S-wave (km/s) = 3.21621 3.60993 3.41875
# Velocity P-wave (km/s) = 6.40907 7.07534 6.75043
#
# Compressibility (1/GPa) = 0.02209411
#
# Stress axis : x y z
#
# Youngs Moduli (GPa) = 35.33608 42.30054 24.79309
#
# Poissons Ratio (x) = 0.16299 0.61337
# Poissons Ratio (y) = 0.13615 0.16109
# Poissons Ratio (z) = 0.87420 0.27484
#
# Static dielectric constant tensor:
#      x y z
#    x 3.078150 0.000000 0.140210 
#    y 0.000000 2.989440 0.000000 
#    z 0.140210 0.000000 3.188940 
# 
# 
# High freq. dielectric constant tensor:
#      x y z
#    x 1.627310 0.000000 0.009490 
#    y 0.000000 1.632710 0.000000 
#    z 0.009490 0.000000 1.623820 
# 
# From -- ./inp_files/61701.got.cif
#   From: 2010.06.25/outbox.cif.g09.slc.cpg/sg11_31_cif.got.tgz:61701.got - 2010.06.27 23:14:04.
