data_PCOD8070760
_publ_section_title
;
Structure prediction by ZEFSAII (Michael W. Deem and Ramdas Pophale) SiO2 
 PCOD8070760
Probable space group: P 21/M
;
_chemical_formula_sum "Si O2"
_cell_formula_units_Z 28
_cell_length_a 9.806084
_cell_length_b 9.268789
_cell_length_c 31.885602
_cell_angle_alpha 90.000000
_cell_angle_beta 32.328972
_cell_angle_gamma 90.000000
_cell_volume 1549.844526
_symmetry_space_group_name_H-M "P 21/M"
_symmetry_group_IT_number 11
_symmetry_cell_setting 'monoclinic'
loop_
_space_group_symop_operation_xyz
x,y,z
-x,1/2+y,-z
-x,-y,-z
x,1/2-y,z
loop_
_atom_site_type_symbol
_atom_site_label
_atom_site_fract_x
_atom_site_fract_y
_atom_site_fract_z
Si Si1 0.425250 0.417939 0.714023
Si Si2 0.018765 0.583311 0.452573
Si Si3 0.677130 0.914772 0.875760
Si Si4 0.167504 0.421219 0.992114
Si Si5 0.514873 0.583720 0.538150
Si Si6 0.988275 0.418184 0.132137
Si Si7 0.196443 0.585905 0.698674
O O1 0.358995 0.250000 0.733935
O O2 0.725935 0.448964 0.640606
O O3 0.273117 0.498068 0.790509
O O4 0.342850 0.476033 0.690312
O O5 0.002887 0.750000 0.468484
O O6 0.000000 0.500000 0.500000
O O7 0.779173 0.530987 0.488674
O O8 0.576181 0.750000 0.904791
O O9 0.790584 0.963404 0.891845
O O10 0.893673 0.928909 0.783822
O O11 0.454773 0.019532 0.917701
O O12 0.168370 0.250000 0.983115
O O13 0.000000 0.500000 0.000000
O O14 0.060708 0.457365 0.065972
O O15 0.500000 0.500000 0.500000
O O16 0.520875 0.750000 0.525376
O O17 0.275422 0.547361 0.630698
O O18 0.933285 0.250000 0.152498
O O19 0.283333 0.750000 0.686879
#
# Coordination Sequence:
#
# PCOD8070760 Si02
#       7
#     4   4   4   4   4   4   4
#     4  10  19  31  54  87 113 136 178 231 275 314
#     4  10  20  34  55  81 110 143 182 227 272 321
#     4   9  18  35  60  85 108 138 181 227 270 322
#     4  11  23  39  58  82 113 147 181 219 270 326
#     4  10  21  37  54  76 110 149 187 227 271 321
#     4   9  20  38  59  82 110 145 182 220 267 328
#     4   9  18  35  57  79 110 147 182 222 271 326
#
# _framework density 18.066329
#
# number of rings (size 3 to 8) (size 9 to 14) (size 15 to 20)
#    0.000    2.286    1.429    2.143    0.000    5.143 
#    2.571    0.000    0.000    0.000    0.000    0.000 
#    0.000    0.000    0.000    0.000    0.000    0.000 
#
# Total GULP energy -347123.857143 kJ/mol
# GULP energy per Si atom -12397.280612 kJ/mol
# Density = 1.802521 g / cm^3
# Si number density = 18.066329 Si / 1000 Ang^3
#
#
#
# Elastic Constant Matrix: (Units=GPa)
#
#
# Indices 1 2 3 4 5 6 
#
# 1 123.9899 58.8956 82.5100 0.0000 4.2042 0.0000
# 2 58.8956 70.4242 60.2834 0.0000 -3.6123 0.0000
# 3 82.5100 60.2834 137.6054 0.0000 2.3931 0.0000
# 4 0.0000 0.0000 0.0000 33.6389 0.0000 1.2206
# 5 4.2042 -3.6123 2.3931 0.0000 26.3002 0.0000
# 6 0.0000 0.0000 0.0000 1.2206 0.0000 31.8815
#
#
#
# Elastic Compliance Matrix: (Units=1/GPa)
#
#
# Indices 1 2 3 4 5 6 
#
# 1 0.016203 -0.008719 -0.005839 0.000000 -0.003256 0.000000
# 2 -0.008719 0.027847 -0.007073 0.000000 0.005862 0.000000
# 3 -0.005839 -0.007073 0.013890 0.000000 -0.001302 0.000000
# 4 0.000000 0.000000 0.000000 0.029769 0.000000 -0.001140
# 5 -0.003256 0.005862 -0.001302 0.000000 0.039467 0.000000
# 6 0.000000 0.000000 0.000000 -0.001140 0.000000 0.031410
#
#
# Mechanical properties :
#
#
# Convention : Reuss Voigt Hill
#
# Bulk Modulus (GPa) = 68.13609 81.71082 74.92346
# Shear Modulus (GPa) = 24.18500 27.05284 25.61892
#
# Velocity S-wave (km/s) = 3.66276 3.87385 3.76978
# Velocity P-wave (km/s) = 7.46218 8.08303 7.77880
#
# Compressibility (1/GPa) = 0.01467651
#
# Stress axis : x y z
#
# Youngs Moduli (GPa) = 61.71750 35.91067 71.99608
#
# Poissons Ratio (x) = 0.31311 0.42039
# Poissons Ratio (y) = 0.53813 0.50924
# Poissons Ratio (z) = 0.36037 0.25400
#
# Static dielectric constant tensor:
#      x y z
#    x 3.193070 0.000000 -0.055090 
#    y 0.000000 3.325190 0.000000 
#    z -0.055090 0.000000 3.612850 
# 
# 
# High freq. dielectric constant tensor:
#      x y z
#    x 1.679030 0.000000 -0.002300 
#    y 0.000000 1.703060 0.000000 
#    z -0.002300 0.000000 1.714800 
# 
# From -- ./inp_files/72721.got.cif
#   From: 2010.06.25/outbox.cif.g09.slc.cpg/sg11_37_cif.got.tgz:72721.got - 2010.06.27 23:14:04.
