data_PCOD8070531
_publ_section_title
;
Structure prediction by ZEFSAII (Michael W. Deem and Ramdas Pophale) SiO2 
 PCOD8070531
Probable space group: P 21/M
;
_chemical_formula_sum "Si O2"
_cell_formula_units_Z 32
_cell_length_a 7.614502
_cell_length_b 9.708266
_cell_length_c 26.994254
_cell_angle_alpha 90.000000
_cell_angle_beta 115.031433
_cell_angle_gamma 90.000000
_cell_volume 1808.085789
_symmetry_space_group_name_H-M "P 21/M"
_symmetry_group_IT_number 11
_symmetry_cell_setting 'monoclinic'
loop_
_space_group_symop_operation_xyz
x,y,z
-x,1/2+y,-z
-x,-y,-z
x,1/2-y,z
loop_
_atom_site_type_symbol
_atom_site_label
_atom_site_fract_x
_atom_site_fract_y
_atom_site_fract_z
Si Si1 0.626518 0.409954 0.551925
Si Si2 0.778976 0.597288 0.046906
Si Si3 0.945935 0.914205 0.167507
Si Si4 0.361742 0.597288 0.046909
Si Si5 0.633185 0.414750 0.755459
Si Si6 0.970743 0.590046 0.448075
Si Si7 0.443397 0.414205 0.832493
Si Si8 0.450357 0.412288 0.633572
O O1 0.500000 0.500000 0.500000
O O2 0.569820 0.250000 0.537551
O O3 0.854114 0.434082 0.569410
O O4 0.577649 0.459695 0.601638
O O5 0.846254 0.750000 0.038798
O O6 0.918594 0.538387 0.107044
O O7 0.563084 0.604064 0.042058
O O8 0.790026 0.499998 1.000000
O O9 0.940754 0.750000 0.167569
O O10 0.771374 0.972200 0.180910
O O11 0.147729 0.970782 0.213194
O O12 0.270144 0.750000 0.038806
O O13 0.402549 0.538375 0.107046
O O14 0.632166 0.250000 0.754767
O O15 0.508110 0.470764 0.786800
O O16 0.541350 0.477400 0.694235
O O17 0.957166 0.750000 0.462449
O O18 0.000000 0.500000 0.500000
O O19 0.772738 0.540304 0.398362
O O20 0.438034 0.250000 0.832441
O O21 0.459790 0.250000 0.639862
#
# Coordination Sequence:
#
# PCOD8070531 Si02
#       8
#     4   4   4   4   4   4   4   4
#     4  10  19  31  49  72  98 126 153 185 227 272
#     4   8  13  22  37  58  83 109 140 179 221 266
#     4   8  14  24  38  57  82 112 145 180 220 268
#     4   8  13  22  37  58  83 109 140 179 221 266
#     4   9  16  26  41  60  86 118 146 180 228 266
#     4  10  19  31  49  72  98 126 153 185 227 272
#     4   8  14  24  38  57  82 112 145 180 220 268
#     4   9  18  30  43  66  96 120 152 194 226 266
#
# _framework density 17.698276
#
# number of rings (size 3 to 8) (size 9 to 14) (size 15 to 20)
#    0.000    3.250    1.250    1.500    0.000    1.000 
#    0.000    5.625    0.000    0.000    0.000    3.500 
#    0.000    4.000    0.000    0.000    0.000    0.000 
#
# Total GULP energy -396581.842114 kJ/mol
# GULP energy per Si atom -12393.182566 kJ/mol
# Density = 1.765799 g / cm^3
# Si number density = 17.698276 Si / 1000 Ang^3
#
#
#
# Elastic Constant Matrix: (Units=GPa)
#
#
# Indices 1 2 3 4 5 6 
#
# 1 122.5319 22.5913 85.2084 0.0000 -0.1727 0.0000
# 2 22.5913 31.0963 37.9968 0.0000 -1.2017 0.0000
# 3 85.2084 37.9968 186.3326 0.0000 -4.7928 0.0000
# 4 0.0000 0.0000 0.0000 20.2253 0.0000 -0.8125
# 5 -0.1727 -1.2017 -4.7928 0.0000 20.1986 0.0000
# 6 0.0000 0.0000 0.0000 -0.8125 0.0000 9.8375
#
#
#
# Elastic Compliance Matrix: (Units=1/GPa)
#
#
# Indices 1 2 3 4 5 6 
#
# 1 0.012167 -0.002730 -0.005039 0.000000 -0.001254 0.000000
# 2 -0.002730 0.043447 -0.007592 0.000000 0.000760 0.000000
# 3 -0.005039 -0.007592 0.009263 0.000000 0.001703 0.000000
# 4 0.000000 0.000000 0.000000 0.049608 0.000000 0.004097
# 5 -0.001254 0.000760 0.001703 0.000000 0.049947 0.000000
# 6 0.000000 0.000000 0.000000 0.004097 0.000000 0.101991
#
#
# Mechanical properties :
#
#
# Convention : Reuss Voigt Hill
#
# Bulk Modulus (GPa) = 29.27824 70.17265 49.72544
# Shear Modulus (GPa) = 16.20585 22.99655 19.60120
#
# Velocity S-wave (km/s) = 3.02929 3.60858 3.33155
# Velocity P-wave (km/s) = 5.36790 7.55632 6.55410
#
# Compressibility (1/GPa) = 0.03415506
#
# Stress axis : x y z
#
# Youngs Moduli (GPa) = 82.18841 23.01636 107.95422
#
# Poissons Ratio (x) = 0.06284 0.54403
# Poissons Ratio (y) = 0.22438 0.81956
# Poissons Ratio (z) = 0.41419 0.17473
#
# Static dielectric constant tensor:
#      x y z
#    x 1.029990 0.000000 -0.197890 
#    y 0.000000 2.747210 0.000000 
#    z -0.197890 0.000000 3.561130 
# 
# 
# High freq. dielectric constant tensor:
#      x y z
#    x 1.688420 0.000000 0.000150 
#    y 0.000000 1.617860 0.000000 
#    z 0.000150 0.000000 1.686530 
# 
# From -- ./inp_files/70979.got.cif
#   From: 2010.06.25/outbox.cif.g09.slc.cpg/sg11_36_cif.got.tgz:70979.got - 2010.06.27 23:14:04.
