data_PCOD8070681
_publ_section_title
;
Structure prediction by ZEFSAII (Michael W. Deem and Ramdas Pophale) SiO2 
 PCOD8070681
Probable space group: P 21/M
;
_chemical_formula_sum "Si O2"
_cell_formula_units_Z 32
_cell_length_a 28.036333
_cell_length_b 8.780081
_cell_length_c 15.806659
_cell_angle_alpha 90.000000
_cell_angle_beta 27.307504
_cell_angle_gamma 90.000000
_cell_volume 1785.052429
_symmetry_space_group_name_H-M "P 21/M"
_symmetry_group_IT_number 11
_symmetry_cell_setting 'monoclinic'
loop_
_space_group_symop_operation_xyz
x,y,z
-x,1/2+y,-z
-x,-y,-z
x,1/2-y,z
loop_
_atom_site_type_symbol
_atom_site_label
_atom_site_fract_x
_atom_site_fract_y
_atom_site_fract_z
Si Si1 0.066069 0.570848 0.215208
Si Si2 0.175585 0.429683 0.201107
Si Si3 0.858741 0.070333 0.566216
Si Si4 0.558863 0.569794 0.785635
Si Si5 0.588217 0.929372 0.551371
Si Si6 0.628994 0.070311 0.180341
Si Si7 0.273629 0.926445 0.797906
Si Si8 0.347759 0.570949 0.204641
O O1 0.043746 0.750000 0.254041
O O2 0.104071 0.517107 0.246979
O O3 0.962518 0.478792 0.351803
O O4 0.154079 0.532861 0.006689
O O5 0.163655 0.250000 0.206760
O O6 0.137481 0.476736 0.353319
O O7 0.295003 0.480879 0.002666
O O8 0.856507 0.250000 0.587783
O O9 0.759448 0.017982 0.668599
O O10 0.566093 0.750000 0.774356
O O11 0.583359 0.503186 0.653927
O O12 0.644037 0.505504 0.716297
O O13 0.443162 0.516311 0.995018
O O14 0.591541 0.750000 0.551248
O O15 0.487194 0.982974 0.658108
O O16 0.691335 0.985629 0.341290
O O17 0.646581 0.250000 0.137691
O O18 0.654122 0.023914 0.237019
O O19 0.287752 0.750000 0.757198
O O20 0.350734 0.750000 0.213194
#
# Coordination Sequence:
#
# PCOD8070681 Si02
#       8
#     4   4   4   4   4   4   4   4
#     4  10  21  37  52  70 100 135 170 209 251 290
#     4  11  21  32  49  75 104 135 170 205 244 293
#     4  11  21  34  53  75 100 131 167 206 250 299
#     4   9  18  33  52  76 104 131 159 195 244 297
#     4  10  19  31  51  75 101 134 168 205 249 298
#     4   9  18  33  49  70 104 139 168 204 250 292
#     4   9  19  33  49  70  99 134 169 208 248 289
#     4   9  19  35  54  75 101 131 160 196 245 297
#
# _framework density 17.926644
#
# number of rings (size 3 to 8) (size 9 to 14) (size 15 to 20)
#    0.000    2.250    0.000    4.125    0.000    6.500 
#    0.000    2.500    0.000    0.750    0.000    0.000 
#    0.000    0.000    0.000    0.000    0.000    0.000 
#
# Total GULP energy -396854.616511 kJ/mol
# GULP energy per Si atom -12401.706766 kJ/mol
# Density = 1.788584 g / cm^3
# Si number density = 17.926644 Si / 1000 Ang^3
#
#
#
# Elastic Constant Matrix: (Units=GPa)
#
#
# Indices 1 2 3 4 5 6 
#
# 1 89.2765 22.4008 64.0206 0.0000 1.5803 0.0000
# 2 22.4008 34.0019 25.8229 0.0000 0.0439 0.0000
# 3 64.0206 25.8229 115.2923 0.0000 2.1758 0.0000
# 4 0.0000 0.0000 0.0000 32.7174 0.0000 0.9669
# 5 1.5803 0.0439 2.1758 0.0000 30.3155 0.0000
# 6 0.0000 0.0000 0.0000 0.9669 0.0000 26.0871
#
#
#
# Elastic Compliance Matrix: (Units=1/GPa)
#
#
# Indices 1 2 3 4 5 6 
#
# 1 0.019449 -0.005562 -0.009548 0.000000 -0.000321 0.000000
# 2 -0.005562 0.037037 -0.005219 0.000000 0.000611 0.000000
# 3 -0.009548 -0.005219 0.015156 0.000000 -0.000582 0.000000
# 4 0.000000 0.000000 0.000000 0.030598 0.000000 -0.001134
# 5 -0.000321 0.000611 -0.000582 0.000000 0.033044 0.000000
# 6 0.000000 0.000000 0.000000 -0.001134 0.000000 0.038375
#
#
# Mechanical properties :
#
#
# Convention : Reuss Voigt Hill
#
# Bulk Modulus (GPa) = 32.27412 51.45103 41.86257
# Shear Modulus (GPa) = 22.25738 26.24576 24.25157
#
# Velocity S-wave (km/s) = 3.52743 3.83046 3.68206
# Velocity P-wave (km/s) = 5.88497 6.95172 6.44047
#
# Compressibility (1/GPa) = 0.03098458
#
# Stress axis : x y z
#
# Youngs Moduli (GPa) = 51.41528 27.00028 65.98234
#
# Poissons Ratio (x) = 0.15016 0.63002
# Poissons Ratio (y) = 0.28595 0.34434
# Poissons Ratio (z) = 0.49093 0.14091
#
# Static dielectric constant tensor:
#      x y z
#    x 3.246170 0.000000 -0.051990 
#    y 0.000000 3.197620 0.000000 
#    z -0.051990 0.000000 3.506440 
# 
# 
# High freq. dielectric constant tensor:
#      x y z
#    x 1.672370 0.000000 -0.002220 
#    y 0.000000 1.690400 0.000000 
#    z -0.002220 0.000000 1.695660 
# 
# From -- ./inp_files/51610.got.cif
#   From: 2010.06.25/outbox.cif.g09.slc.cpg/sg11_26_cif.got.tgz:51610.got - 2010.06.27 23:14:04.
