data_PCOD8070978
_publ_section_title
;
Structure prediction by ZEFSAII (Michael W. Deem and Ramdas Pophale) SiO2 
 PCOD8070978
Probable space group: P 21/M
;
_chemical_formula_sum "Si O2"
_cell_formula_units_Z 32
_cell_length_a 12.127684
_cell_length_b 8.957229
_cell_length_c 21.449347
_cell_angle_alpha 90.000000
_cell_angle_beta 128.993770
_cell_angle_gamma 90.000000
_cell_volume 1810.949982
_symmetry_space_group_name_H-M "P 21/M"
_symmetry_group_IT_number 11
_symmetry_cell_setting 'monoclinic'
loop_
_space_group_symop_operation_xyz
x,y,z
-x,1/2+y,-z
-x,-y,-z
x,1/2-y,z
loop_
_atom_site_type_symbol
_atom_site_label
_atom_site_fract_x
_atom_site_fract_y
_atom_site_fract_z
Si Si1 0.016474 0.074196 0.788902
Si Si2 0.722571 0.076731 0.074887
Si Si3 0.729205 0.926187 0.666900
Si Si4 0.440492 0.573662 0.625723
Si Si5 0.077596 0.579517 0.684004
Si Si6 0.474331 0.076284 0.896410
Si Si7 0.383088 0.923996 0.743993
Si Si8 0.229921 0.079399 0.460423
O O1 0.007516 0.250000 0.792445
O O2 0.128194 0.009585 0.879230
O O3 0.074328 0.030403 0.741405
O O4 0.862052 0.005551 0.747211
O O5 0.752712 0.250000 0.096693
O O6 0.640637 0.017542 0.106444
O O7 0.630794 0.048304 0.980122
O O8 0.748926 0.750000 0.682005
O O9 0.587028 0.987120 0.648893
O O10 0.722419 0.970538 0.591831
O O11 0.437685 0.750000 0.622628
O O12 0.427276 0.516690 0.691776
O O13 0.307115 0.519711 0.538737
O O14 0.076552 0.750000 0.708983
O O15 0.215472 0.545383 0.692009
O O16 0.938924 0.553729 0.591914
O O17 0.432951 0.250000 0.885334
O O18 0.474671 0.018575 0.825798
O O19 0.419053 0.750000 0.765529
O O20 0.272683 0.250000 0.487403
#
# Coordination Sequence:
#
# PCOD8070978 Si02
#       8
#     4   4   4   4   4   4   4   4
#     4  11  20  30  51  81 105 128 170 215 253 303
#     4  10  19  32  51  76 108 138 163 202 255 301
#     4   9  19  36  54  72 101 135 171 216 265 306
#     4  10  21  35  52  75  99 135 180 214 253 309
#     4   9  18  33  50  71 103 140 169 201 259 312
#     4  10  20  32  50  78 106 135 172 206 242 297
#     4  10  20  34  52  72 104 143 173 206 253 307
#     4   9  18  32  51  73  98 133 172 217 265 303
#
# _framework density 17.670285
#
# number of rings (size 3 to 8) (size 9 to 14) (size 15 to 20)
#    0.000    2.250    1.250    3.000    0.000    5.000 
#    0.000    0.000    0.000    0.750    0.000    0.000 
#    0.000    0.000    0.000    0.000    0.000    0.000 
#
# Total GULP energy -396850.245461 kJ/mol
# GULP energy per Si atom -12401.570171 kJ/mol
# Density = 1.763007 g / cm^3
# Si number density = 17.670285 Si / 1000 Ang^3
#
#
#
# Elastic Constant Matrix: (Units=GPa)
#
#
# Indices 1 2 3 4 5 6 
#
# 1 71.2378 25.1629 58.6287 0.0000 -6.0055 0.0000
# 2 25.1629 65.0625 46.9428 0.0000 5.2344 0.0000
# 3 58.6287 46.9428 134.1120 0.0000 8.8668 0.0000
# 4 0.0000 0.0000 0.0000 33.6273 0.0000 3.1732
# 5 -6.0055 5.2344 8.8668 0.0000 21.1420 0.0000
# 6 0.0000 0.0000 0.0000 3.1732 0.0000 16.3702
#
#
#
# Elastic Compliance Matrix: (Units=1/GPa)
#
#
# Indices 1 2 3 4 5 6 
#
# 1 0.024879 -0.002912 -0.010668 0.000000 0.012262 0.000000
# 2 -0.002912 0.020997 -0.005840 0.000000 -0.003576 0.000000
# 3 -0.010668 -0.005840 0.014676 0.000000 -0.007739 0.000000
# 4 0.000000 0.000000 0.000000 0.030292 0.000000 -0.005872
# 5 0.012262 -0.003576 -0.007739 0.000000 0.054913 0.000000
# 6 0.000000 0.000000 0.000000 -0.005872 0.000000 0.062225
#
#
# Mechanical properties :
#
#
# Convention : Reuss Voigt Hill
#
# Bulk Modulus (GPa) = 46.05526 59.09789 52.57657
# Shear Modulus (GPa) = 19.68039 23.53977 21.61008
#
# Velocity S-wave (km/s) = 3.34092 3.65385 3.50088
# Velocity P-wave (km/s) = 6.40333 7.16367 6.79414
#
# Compressibility (1/GPa) = 0.02171305
#
# Stress axis : x y z
#
# Youngs Moduli (GPa) = 40.19405 47.62479 68.13848
#
# Poissons Ratio (x) = 0.13867 0.72689
# Poissons Ratio (y) = 0.11703 0.39795
# Poissons Ratio (z) = 0.42878 0.27815
#
# Static dielectric constant tensor:
#      x y z
#    x 3.269190 0.000000 0.197300 
#    y 0.000000 3.194290 0.000000 
#    z 0.197300 0.000000 3.359670 
# 
# 
# High freq. dielectric constant tensor:
#      x y z
#    x 1.659210 0.000000 0.020650 
#    y 0.000000 1.681880 0.000000 
#    z 0.020650 0.000000 1.686060 
# 
# From -- ./inp_files/42411.got.cif
#   From: 2010.06.25/outbox.cif.g09.slc.cpg/sg11_22_cif.got.tgz:42411.got - 2010.06.27 23:14:04.
