data_PCOD8070495
_publ_section_title
;
Structure prediction by ZEFSAII (Michael W. Deem and Ramdas Pophale) SiO2 
 PCOD8070495
Probable space group: P 21/M
;
_chemical_formula_sum "Si O2"
_cell_formula_units_Z 32
_cell_length_a 21.954142
_cell_length_b 8.832344
_cell_length_c 28.185490
_cell_angle_alpha 90.000000
_cell_angle_beta 161.389896
_cell_angle_gamma 90.000000
_cell_volume 1744.137916
_symmetry_space_group_name_H-M "P 21/M"
_symmetry_group_IT_number 11
_symmetry_cell_setting 'monoclinic'
loop_
_space_group_symop_operation_xyz
x,y,z
-x,1/2+y,-z
-x,-y,-z
x,1/2-y,z
loop_
_atom_site_type_symbol
_atom_site_label
_atom_site_fract_x
_atom_site_fract_y
_atom_site_fract_z
Si Si1 0.131853 0.571500 0.057981
Si Si2 0.284504 0.078004 0.566747
Si Si3 0.693628 0.422085 0.272386
Si Si4 0.588366 0.424696 0.873839
Si Si5 0.526184 0.427770 0.375029
Si Si6 0.050743 0.426986 0.899561
Si Si7 0.631738 0.426656 0.557673
Si Si8 0.015084 0.076138 0.446536
O O1 0.121780 0.750000 0.054897
O O2 0.346478 0.517798 0.222748
O O3 0.054333 0.522824 0.950017
O O4 0.000000 0.500000 0.000000
O O5 0.308031 0.250000 0.566444
O O6 0.446325 0.040574 0.725446
O O7 0.074689 0.051719 0.435410
O O8 0.302206 0.967724 0.534529
O O9 0.625220 0.250000 0.228283
O O10 0.513586 0.528760 0.151716
O O11 0.867070 0.455308 0.436131
O O12 0.787439 0.448320 0.288885
O O13 0.646235 0.250000 0.918739
O O14 0.778668 0.523596 0.009061
O O15 0.485448 0.250000 0.344350
O O16 0.574215 0.486207 0.463139
O O17 0.068348 0.250000 0.924566
O O18 0.852618 0.466911 0.727872
O O19 0.500000 0.500000 0.500000
O O20 0.595710 0.250000 0.534622
O O21 0.072915 0.250000 0.503297
#
# Coordination Sequence:
#
# PCOD8070495 Si02
#       8
#     4   4   4   4   4   4   4   4
#     4  12  24  38  56  81 108 136 172 215 262 317
#     4   9  17  30  48  73 106 140 176 217 261 309
#     4   9  15  24  41  66  98 139 178 213 259 311
#     4  10  19  31  48  74 108 140 174 218 264 314
#     4  11  22  37  56  80 108 139 175 217 265 318
#     4  11  22  38  58  80 105 138 178 220 267 318
#     4  10  24  42  59  80 105 135 175 221 267 319
#     4   8  15  26  40  63 100 139 176 216 259 307
#
# _framework density 18.347173000000002
#
# number of rings (size 3 to 8) (size 9 to 14) (size 15 to 20)
#    0.000    2.000    1.250    4.125    0.000    6.500 
#    0.000    0.000    0.000    0.000    0.000    0.875 
#    0.000    0.000    0.000    0.000    0.000    0.000 
#
# Total GULP energy -396676.283273 kJ/mol
# GULP energy per Si atom -12396.133852 kJ/mol
# Density = 1.830541 g / cm^3
# Si number density = 18.347173 Si / 1000 Ang^3
#
#
#
# Elastic Constant Matrix: (Units=GPa)
#
#
# Indices 1 2 3 4 5 6 
#
# 1 118.0386 37.7018 31.8233 0.0000 25.8020 0.0000
# 2 37.7018 78.5003 22.4018 0.0000 4.2241 0.0000
# 3 31.8233 22.4018 36.3491 0.0000 9.0092 0.0000
# 4 0.0000 0.0000 0.0000 13.7427 0.0000 8.6056
# 5 25.8020 4.2241 9.0092 0.0000 32.0004 0.0000
# 6 0.0000 0.0000 0.0000 8.6056 0.0000 32.4516
#
#
#
# Elastic Compliance Matrix: (Units=1/GPa)
#
#
# Indices 1 2 3 4 5 6 
#
# 1 0.013536 -0.003956 -0.007350 0.000000 -0.008323 0.000000
# 2 -0.003956 0.016628 -0.007558 0.000000 0.003123 0.000000
# 3 -0.007350 -0.007558 0.039655 0.000000 -0.004240 0.000000
# 4 0.000000 0.000000 0.000000 0.087255 0.000000 -0.023138
# 5 -0.008323 0.003123 -0.004240 0.000000 0.038742 0.000000
# 6 0.000000 0.000000 0.000000 -0.023138 0.000000 0.036951
#
#
# Mechanical properties :
#
#
# Convention : Reuss Voigt Hill
#
# Bulk Modulus (GPa) = 31.16177 46.30465 38.73321
# Shear Modulus (GPa) = 17.78151 25.03634 21.40892
#
# Velocity S-wave (km/s) = 3.11653 3.69804 3.41967
# Velocity P-wave (km/s) = 5.47464 6.59749 6.06212
#
# Compressibility (1/GPa) = 0.03209061
#
# Stress axis : x y z
#
# Youngs Moduli (GPa) = 73.87645 60.14122 25.21759
#
# Poissons Ratio (x) = 0.23790 0.18535
# Poissons Ratio (y) = 0.29224 0.19060
# Poissons Ratio (z) = 0.54299 0.45456
#
# Static dielectric constant tensor:
#      x y z
#    x 4.267340 0.000000 0.683320 
#    y 0.000000 3.458330 0.000000 
#    z 0.683320 0.000000 3.390790 
# 
# 
# High freq. dielectric constant tensor:
#      x y z
#    x 1.720930 0.000000 0.038180 
#    y 0.000000 1.720080 0.000000 
#    z 0.038180 0.000000 1.669050 
# 
# From -- ./inp_files/72167.got.cif
#   From: 2010.06.25/outbox.cif.g09.slc.cpg/sg11_37_cif.got.tgz:72167.got - 2010.06.27 23:14:04.
