data_PCOD8070055
_publ_section_title
;
Structure prediction by ZEFSAII (Michael W. Deem and Ramdas Pophale) SiO2 
 PCOD8070055
Probable space group: P 21/M
;
_chemical_formula_sum "Si O2"
_cell_formula_units_Z 32
_cell_length_a 14.215819
_cell_length_b 9.143403
_cell_length_c 16.469414
_cell_angle_alpha 90.000000
_cell_angle_beta 82.286693
_cell_angle_gamma 90.000000
_cell_volume 2121.341247
_symmetry_space_group_name_H-M "P 21/M"
_symmetry_group_IT_number 11
_symmetry_cell_setting 'monoclinic'
loop_
_space_group_symop_operation_xyz
x,y,z
-x,1/2+y,-z
-x,-y,-z
x,1/2-y,z
loop_
_atom_site_type_symbol
_atom_site_label
_atom_site_fract_x
_atom_site_fract_y
_atom_site_fract_z
Si Si1 0.622724 0.917473 0.954739
Si Si2 0.874135 0.082277 0.674556
Si Si3 0.564518 0.422357 0.558168
Si Si4 0.466485 0.417478 0.877944
Si Si5 0.450234 0.421361 0.270851
Si Si6 0.054634 0.420034 0.565049
Si Si7 0.782788 0.420253 0.517911
Si Si8 0.744355 0.915171 0.798700
O O1 0.588370 0.750000 0.937695
O O2 0.724090 0.940962 0.897477
O O3 0.552781 0.038589 0.926633
O O4 0.627328 0.935934 0.052776
O O5 0.848089 0.250000 0.687246
O O6 0.818344 0.021970 0.601637
O O7 0.988338 0.058608 0.652759
O O8 0.835621 0.006069 0.760055
O O9 0.500000 0.500000 0.500000
O O10 0.543861 0.250000 0.563544
O O11 0.540734 0.491304 0.647282
O O12 0.672567 0.454909 0.520366
O O13 0.478338 0.250000 0.848126
O O14 0.465615 0.520594 0.798589
O O15 0.464539 0.250000 0.285147
O O16 0.349857 0.458950 0.240906
O O17 0.065992 0.250000 0.543072
O O18 0.158989 0.493395 0.559682
O O19 0.000000 0.500000 0.500000
O O20 0.806140 0.250000 0.505560
O O21 0.771445 0.750000 0.776804
#
# Coordination Sequence:
#
# PCOD8070055 Si02
#       8
#     4   4   4   4   4   4   4   4
#     4   8  15  25  34  52  78 103 135 169 200 238
#     4   9  16  26  38  57  81 105 134 168 201 239
#     4  11  22  35  48  63  82 105 138 177 218 255
#     4   9  15  24  39  54  73 102 134 169 206 241
#     4  10  19  30  42  58  78 103 138 174 209 248
#     4   9  17  27  40  58  79 103 134 168 204 244
#     4   9  18  31  44  58  78 102 133 172 209 248
#     4   9  16  24  37  56  79 107 137 168 199 237
#
# _framework density 15.084796000000001
#
# number of rings (size 3 to 8) (size 9 to 14) (size 15 to 20)
#    0.000    2.750    1.250    3.000    0.000    6.000 
#    0.000    0.000    0.000    0.000    0.000    0.000 
#    0.000    0.000    0.000    1.125    0.000   14.250 
#
# Total GULP energy -396447.520876 kJ/mol
# GULP energy per Si atom -12388.985027 kJ/mol
# Density = 1.505046 g / cm^3
# Si number density = 15.084796 Si / 1000 Ang^3
#
#
#
# Elastic Constant Matrix: (Units=GPa)
#
#
# Indices 1 2 3 4 5 6 
#
# 1 65.0497 41.4886 50.6786 0.0000 -23.0838 0.0000
# 2 41.4886 77.2766 51.1310 0.0000 -18.6985 0.0000
# 3 50.6786 51.1310 87.5362 0.0000 -31.4978 0.0000
# 4 0.0000 0.0000 0.0000 24.4012 0.0000 -7.1334
# 5 -23.0838 -18.6985 -31.4978 0.0000 25.6495 0.0000
# 6 0.0000 0.0000 0.0000 -7.1334 0.0000 21.5563
#
#
#
# Elastic Compliance Matrix: (Units=1/GPa)
#
#
# Indices 1 2 3 4 5 6 
#
# 1 0.032115 -0.007984 -0.010076 0.000000 0.010709 0.000000
# 2 -0.007984 0.023080 -0.009658 0.000000 -0.002220 0.000000
# 3 -0.010076 -0.009658 0.030642 0.000000 0.021520 0.000000
# 4 0.000000 0.000000 0.000000 0.045371 0.000000 0.015014
# 5 0.010709 -0.002220 0.021520 0.000000 0.073433 0.000000
# 6 0.000000 0.000000 0.000000 0.015014 0.000000 0.051359
#
#
# Mechanical properties :
#
#
# Convention : Reuss Voigt Hill
#
# Bulk Modulus (GPa) = 32.89302 57.38432 45.13867
# Shear Modulus (GPa) = 15.54874 20.09236 17.82055
#
# Velocity S-wave (km/s) = 3.21402 3.65356 3.44082
# Velocity P-wave (km/s) = 5.96875 7.47809 6.76564
#
# Compressibility (1/GPa) = 0.03040159
#
# Stress axis : x y z
#
# Youngs Moduli (GPa) = 31.13784 43.32728 32.63503
#
# Poissons Ratio (x) = 0.34593 0.32883
# Poissons Ratio (y) = 0.24861 0.31518
# Poissons Ratio (z) = 0.31374 0.41845
#
# Static dielectric constant tensor:
#      x y z
#    x 2.859240 0.000000 -0.504380 
#    y 0.000000 3.039530 0.000000 
#    z -0.504380 0.000000 3.044670 
# 
# 
# High freq. dielectric constant tensor:
#      x y z
#    x 1.531110 0.000000 -0.052590 
#    y 0.000000 1.592450 0.000000 
#    z -0.052590 0.000000 1.557370 
# 
# From -- ./inp_files/51285.got.cif
#   From: 2010.06.25/outbox.cif.g09.slc.cpg/sg11_26_cif.got.tgz:51285.got - 2010.06.27 23:14:04.
