data_PCOD8070050
_publ_section_title
;
Structure prediction by ZEFSAII (Michael W. Deem and Ramdas Pophale) SiO2 
 PCOD8070050
Probable space group: P 21/M
;
_chemical_formula_sum "Si O2"
_cell_formula_units_Z 32
_cell_length_a 19.929877
_cell_length_b 9.346108
_cell_length_c 12.043931
_cell_angle_alpha 90.000000
_cell_angle_beta 54.637568
_cell_angle_gamma 90.000000
_cell_volume 1829.496586
_symmetry_space_group_name_H-M "P 21/M"
_symmetry_group_IT_number 11
_symmetry_cell_setting 'monoclinic'
loop_
_space_group_symop_operation_xyz
x,y,z
-x,1/2+y,-z
-x,-y,-z
x,1/2-y,z
loop_
_atom_site_type_symbol
_atom_site_label
_atom_site_fract_x
_atom_site_fract_y
_atom_site_fract_z
Si Si1 0.702299 0.088326 0.100647
Si Si2 0.771875 0.084153 0.617975
Si Si3 0.384671 0.083901 0.187766
Si Si4 0.130939 0.584286 0.697413
Si Si5 0.808368 0.917829 0.155396
Si Si6 0.434947 0.586356 0.927473
Si Si7 0.160660 0.913691 0.212303
Si Si8 0.054977 0.083267 0.154103
O O1 0.711825 0.250000 0.136638
O O2 0.609045 0.057433 0.148970
O O3 0.726457 0.980260 0.175672
O O4 0.758934 0.063640 0.939102
O O5 0.747289 0.250000 0.652556
O O6 0.832790 0.056124 0.458383
O O7 0.818206 0.031272 0.684641
O O8 0.688914 0.994444 0.677563
O O9 0.362980 0.250000 0.195350
O O10 0.467676 0.060178 0.180134
O O11 0.396537 0.019097 0.054517
O O12 0.137831 0.750000 0.725521
O O13 0.181836 0.490008 0.734951
O O14 0.036552 0.532698 0.788152
O O15 0.796709 0.750000 0.182335
O O16 0.887512 0.956875 0.005051
O O17 0.417559 0.750000 0.982590
O O18 0.131899 0.750000 0.242158
O O19 0.084842 0.003905 0.236436
O O20 0.057767 0.250000 0.178629
#
# Coordination Sequence:
#
# PCOD8070050 Si02
#       8
#     4   4   4   4   4   4   4   4
#     4   9  16  30  52  73  99 132 164 198 240 297
#     4  10  20  35  51  69 101 139 172 203 240 299
#     4  10  19  29  48  77 106 134 164 203 246 290
#     4  10  21  36  53  70  94 135 176 205 245 303
#     4  10  20  33  51  75 102 125 159 216 261 290
#     4   9  17  31  50  75 105 135 166 199 242 296
#     4   9  17  30  49  72  98 132 165 197 245 298
#     4   9  19  34  51  74 100 125 161 213 258 294
#
# _framework density 17.491150999999999
#
# number of rings (size 3 to 8) (size 9 to 14) (size 15 to 20)
#    0.000    2.500    1.250    1.125    0.000    3.500 
#    0.000    0.000    0.000    0.750    0.000    0.000 
#    0.000    0.000    0.000    0.000    0.000    0.000 
#
# Total GULP energy -396853.803999 kJ/mol
# GULP energy per Si atom -12401.681375 kJ/mol
# Density = 1.745134 g / cm^3
# Si number density = 17.491151 Si / 1000 Ang^3
#
#
#
# Elastic Constant Matrix: (Units=GPa)
#
#
# Indices 1 2 3 4 5 6 
#
# 1 122.2848 51.6645 26.8097 0.0000 16.4188 0.0000
# 2 51.6645 71.6691 24.9438 0.0000 8.4103 0.0000
# 3 26.8097 24.9438 35.9685 0.0000 13.1434 0.0000
# 4 0.0000 0.0000 0.0000 21.6275 0.0000 1.1191
# 5 16.4188 8.4103 13.1434 0.0000 22.4688 0.0000
# 6 0.0000 0.0000 0.0000 1.1191 0.0000 32.8897
#
#
#
# Elastic Compliance Matrix: (Units=1/GPa)
#
#
# Indices 1 2 3 4 5 6 
#
# 1 0.012599 -0.007729 -0.002193 0.000000 -0.005031 0.000000
# 2 -0.007729 0.023143 -0.011684 0.000000 0.003820 0.000000
# 3 -0.002193 -0.011684 0.044968 0.000000 -0.020329 0.000000
# 4 0.000000 0.000000 0.000000 0.046319 0.000000 -0.001576
# 5 -0.005031 0.003820 -0.020329 0.000000 0.058644 0.000000
# 6 0.000000 0.000000 0.000000 -0.001576 0.000000 0.030458
#
#
# Mechanical properties :
#
#
# Convention : Reuss Voigt Hill
#
# Bulk Modulus (GPa) = 26.66811 48.52871 37.59841
# Shear Modulus (GPa) = 18.39295 23.83083 21.11189
#
# Velocity S-wave (km/s) = 3.24629 3.69514 3.47797
# Velocity P-wave (km/s) = 5.41580 6.78310 6.13764
#
# Compressibility (1/GPa) = 0.03749798
#
# Stress axis : x y z
#
# Youngs Moduli (GPa) = 79.36941 43.20952 22.23810
#
# Poissons Ratio (x) = 0.33397 0.04876
# Poissons Ratio (y) = 0.61345 0.25984
# Poissons Ratio (z) = 0.17403 0.50488
#
# Static dielectric constant tensor:
#      x y z
#    x 3.439100 0.000000 -0.070960 
#    y 0.000000 3.264880 0.000000 
#    z -0.070960 0.000000 2.944760 
# 
# 
# High freq. dielectric constant tensor:
#      x y z
#    x 1.686090 0.000000 -0.001160 
#    y 0.000000 1.677220 0.000000 
#    z -0.001160 0.000000 1.638970 
# 
# From -- ./inp_files/42782.got.cif
#   From: 2010.06.25/outbox.cif.g09.slc.cpg/sg11_22_cif.got.tgz:42782.got - 2010.06.27 23:14:04.
