data_PCOD8070065
_publ_section_title
;
Structure prediction by ZEFSAII (Michael W. Deem and Ramdas Pophale) SiO2 
 PCOD8070065
Probable space group: P 21/M
;
_chemical_formula_sum "Si O2"
_cell_formula_units_Z 32
_cell_length_a 26.225215
_cell_length_b 8.762912
_cell_length_c 13.558918
_cell_angle_alpha 90.000000
_cell_angle_beta 139.479260
_cell_angle_gamma 90.000000
_cell_volume 2024.514799
_symmetry_space_group_name_H-M "P 21/M"
_symmetry_group_IT_number 11
_symmetry_cell_setting 'monoclinic'
loop_
_space_group_symop_operation_xyz
x,y,z
-x,1/2+y,-z
-x,-y,-z
x,1/2-y,z
loop_
_atom_site_type_symbol
_atom_site_label
_atom_site_fract_x
_atom_site_fract_y
_atom_site_fract_z
Si Si1 0.378265 0.572921 0.855493
Si Si2 0.617145 0.927722 0.700328
Si Si3 0.757300 0.068961 0.020575
Si Si4 0.240173 0.071745 0.764255
Si Si5 0.538007 0.927142 0.196907
Si Si6 0.535576 0.427109 0.402075
Si Si7 0.931048 0.081645 0.275692
Si Si8 0.082459 0.581668 0.510888
O O1 0.354885 0.750000 0.822876
O O2 0.304672 0.470966 0.778352
O O3 0.402200 0.525877 0.780375
O O4 0.449075 0.536433 0.034428
O O5 0.619204 0.750000 0.676125
O O6 0.551358 0.962116 0.685556
O O7 0.599788 0.023843 0.576819
O O8 0.700305 0.980977 0.863557
O O9 0.744770 0.250000 0.995013
O O10 0.845433 0.020501 0.116940
O O11 0.741129 0.021082 0.109096
O O12 0.242677 0.250000 0.792078
O O13 0.155217 0.029060 0.594320
O O14 0.557591 0.750000 0.210536
O O15 0.549573 0.972436 0.326604
O O16 0.546351 0.250000 0.392335
O O17 0.944760 0.250000 0.252185
O O18 0.931827 0.088959 0.394324
O O19 0.002227 0.977041 0.341060
O O20 0.101208 0.750000 0.496827
#
# Coordination Sequence:
#
# PCOD8070065 Si02
#       8
#     4   4   4   4   4   4   4   4
#     4  10  20  33  48  66  89 116 148 184 221 263
#     4  10  20  32  47  67  89 115 150 187 221 261
#     4  10  19  30  44  63  89 119 150 184 222 263
#     4  11  20  29  43  63  89 119 151 185 220 260
#     4  10  20  33  49  67  88 115 147 184 224 264
#     4  10  20  33  48  65  88 118 149 183 224 265
#     4   8  15  26  39  57  82 113 146 178 214 258
#     4   9  16  26  40  58  82 113 147 180 216 258
#
# _framework density 15.806255999999999
#
# number of rings (size 3 to 8) (size 9 to 14) (size 15 to 20)
#    0.000    2.250    0.000    4.875    0.000    8.500 
#    0.000    0.000    0.000    0.000    0.000    0.000 
#    0.000    1.000    0.000    3.750    0.000    6.000 
#
# Total GULP energy -396819.689263 kJ/mol
# GULP energy per Si atom -12400.615289 kJ/mol
# Density = 1.577028 g / cm^3
# Si number density = 15.806256 Si / 1000 Ang^3
#
#
#
# Elastic Constant Matrix: (Units=GPa)
#
#
# Indices 1 2 3 4 5 6 
#
# 1 57.7690 20.2101 33.6609 0.0000 9.2840 0.0000
# 2 20.2101 58.1969 16.5323 0.0000 7.8766 0.0000
# 3 33.6609 16.5323 77.6803 0.0000 14.7305 0.0000
# 4 0.0000 0.0000 0.0000 26.7660 0.0000 2.9519
# 5 9.2840 7.8766 14.7305 0.0000 24.5709 0.0000
# 6 0.0000 0.0000 0.0000 2.9519 0.0000 26.3917
#
#
#
# Elastic Compliance Matrix: (Units=1/GPa)
#
#
# Indices 1 2 3 4 5 6 
#
# 1 0.025048 -0.005797 -0.009227 0.000000 -0.002074 0.000000
# 2 -0.005797 0.019982 -0.001062 0.000000 -0.003579 0.000000
# 3 -0.009227 -0.001062 0.018472 0.000000 -0.007247 0.000000
# 4 0.000000 0.000000 0.000000 0.037827 0.000000 -0.004231
# 5 -0.002074 -0.003579 -0.007247 0.000000 0.046974 0.000000
# 6 0.000000 0.000000 0.000000 -0.004231 0.000000 0.038364
#
#
# Mechanical properties :
#
#
# Convention : Reuss Voigt Hill
#
# Bulk Modulus (GPa) = 31.91781 37.16143 34.53962
# Shear Modulus (GPa) = 21.80716 23.76192 22.78454
#
# Velocity S-wave (km/s) = 3.71840 3.88148 3.80081
# Velocity P-wave (km/s) = 6.21871 6.60677 6.41567
#
# Compressibility (1/GPa) = 0.03133047
#
# Stress axis : x y z
#
# Youngs Moduli (GPa) = 39.92345 50.04480 54.13624
#
# Poissons Ratio (x) = 0.29008 0.49951
# Poissons Ratio (y) = 0.23142 0.05751
# Poissons Ratio (z) = 0.36837 0.05316
#
# Static dielectric constant tensor:
#      x y z
#    x 2.832220 0.000000 0.267200 
#    y 0.000000 3.162460 0.000000 
#    z 0.267200 0.000000 2.920300 
# 
# 
# High freq. dielectric constant tensor:
#      x y z
#    x 1.579530 0.000000 0.025450 
#    y 0.000000 1.625200 0.000000 
#    z 0.025450 0.000000 1.584260 
# 
# From -- ./inp_files/43831.got.cif
#   From: 2010.06.25/outbox.cif.g09.slc.cpg/sg11_22_cif.got.tgz:43831.got - 2010.06.27 23:14:04.
