data_PCOD8070239
_publ_section_title
;
Structure prediction by ZEFSAII (Michael W. Deem and Ramdas Pophale) SiO2 
 PCOD8070239
Probable space group: P 21/M
;
_chemical_formula_sum "Si O2"
_cell_formula_units_Z 32
_cell_length_a 24.392051
_cell_length_b 8.905505
_cell_length_c 16.071318
_cell_angle_alpha 90.000000
_cell_angle_beta 26.911325
_cell_angle_gamma 90.000000
_cell_volume 1580.095889
_symmetry_space_group_name_H-M "P 21/M"
_symmetry_group_IT_number 11
_symmetry_cell_setting 'monoclinic'
loop_
_space_group_symop_operation_xyz
x,y,z
-x,1/2+y,-z
-x,-y,-z
x,1/2-y,z
loop_
_atom_site_type_symbol
_atom_site_label
_atom_site_fract_x
_atom_site_fract_y
_atom_site_fract_z
Si Si1 0.259218 0.582865 0.519528
Si Si2 0.093568 0.576814 0.594421
Si Si3 0.723347 0.421400 0.954198
Si Si4 0.153508 0.922889 0.042596
Si Si5 0.886861 0.572113 0.607504
Si Si6 0.680775 0.571949 0.307707
Si Si7 0.120604 0.417268 0.832877
Si Si8 0.479522 0.576028 0.337441
O O1 0.220316 0.750000 0.603077
O O2 0.220441 0.568005 0.475378
O O3 0.184158 0.449117 0.660445
O O4 0.396860 0.557192 0.365436
O O5 0.064478 0.750000 0.612042
O O6 0.121212 0.481043 0.475956
O O7 0.973508 0.510147 0.804106
O O8 0.703119 0.250000 0.953109
O O9 0.765138 0.519492 0.818976
O O10 0.826732 0.429311 0.884994
O O11 0.599325 0.485932 0.156662
O O12 0.143275 0.750000 0.025781
O O13 0.276424 0.999395 0.837534
O O14 0.898339 0.750000 0.594764
O O15 0.000000 0.500000 0.500000
O O16 0.653505 0.750000 0.336293
O O17 0.797714 0.531172 0.202360
O O18 0.571551 0.491390 0.505582
O O19 0.082890 0.250000 0.891741
O O20 0.000000 0.500000 0.000000
O O21 0.507286 0.750000 0.317294
#
# Coordination Sequence:
#
# PCOD8070239 Si02
#       8
#     4   4   4   4   4   4   4   4
#     4   9  20  37  57  83 115 153 194 241 292 347
#     4  11  22  38  62  91 124 156 192 243 302 356
#     4  11  24  42  63  88 119 155 198 247 299 353
#     4  11  23  37  57  87 121 156 199 248 300 355
#     4  12  24  41  65  93 122 154 193 238 296 356
#     4  10  21  36  54  80 116 157 201 245 294 350
#     4  10  19  30  48  75 109 151 195 241 291 346
#     4  10  21  40  63  86 117 158 205 247 292 350
#
# _framework density 20.251935
#
# number of rings (size 3 to 8) (size 9 to 14) (size 15 to 20)
#    0.000    1.500    1.250    4.125    0.000    8.000 
#    0.000    0.625    0.000    0.000    0.000    0.000 
#    0.000    0.000    0.000    0.000    0.000    0.000 
#
# Total GULP energy -396505.146047 kJ/mol
# GULP energy per Si atom -12390.785814 kJ/mol
# Density = 2.020584 g / cm^3
# Si number density = 20.251935 Si / 1000 Ang^3
#
#
#
# Elastic Constant Matrix: (Units=GPa)
#
#
# Indices 1 2 3 4 5 6 
#
# 1 59.0711 37.1392 9.0133 0.0000 6.7838 0.0000
# 2 37.1392 225.9243 24.4006 0.0000 -3.6894 0.0000
# 3 9.0133 24.4006 83.4468 0.0000 3.7068 0.0000
# 4 0.0000 0.0000 0.0000 39.6219 0.0000 3.3196
# 5 6.7838 -3.6894 3.7068 0.0000 17.6790 0.0000
# 6 0.0000 0.0000 0.0000 3.3196 0.0000 27.6560
#
#
#
# Elastic Compliance Matrix: (Units=1/GPa)
#
#
# Indices 1 2 3 4 5 6 
#
# 1 0.020108 -0.003351 -0.000826 0.000000 -0.008242 0.000000
# 2 -0.003351 0.005156 -0.001262 0.000000 0.002627 0.000000
# 3 -0.000826 -0.001262 0.012557 0.000000 -0.002579 0.000000
# 4 0.000000 0.000000 0.000000 0.025495 0.000000 -0.003060
# 5 -0.008242 0.002627 -0.002579 0.000000 0.060816 0.000000
# 6 0.000000 0.000000 0.000000 -0.003060 0.000000 0.036526
#
#
# Mechanical properties :
#
#
# Convention : Reuss Voigt Hill
#
# Bulk Modulus (GPa) = 37.11633 56.61648 46.86641
# Shear Modulus (GPa) = 27.69816 36.85064 32.27440
#
# Velocity S-wave (km/s) = 3.70223 4.27032 3.99638
# Velocity P-wave (km/s) = 6.05330 7.23401 6.66983
#
# Compressibility (1/GPa) = 0.02694232
#
# Stress axis : x y z
#
# Youngs Moduli (GPa) = 49.73120 193.93531 79.63918
#
# Poissons Ratio (x) = 0.64986 0.06578
# Poissons Ratio (y) = 0.16664 0.10054
# Poissons Ratio (z) = 0.04108 0.24484
#
# Static dielectric constant tensor:
#      x y z
#    x 3.814140 0.000000 0.031140 
#    y 0.000000 3.605410 0.000000 
#    z 0.031140 0.000000 3.708360 
# 
# 
# High freq. dielectric constant tensor:
#      x y z
#    x 1.790660 0.000000 -0.002510 
#    y 0.000000 1.808370 0.000000 
#    z -0.002510 0.000000 1.779510 
# 
# From -- ./inp_files/55593.got.cif
#   From: 2010.06.25/outbox.cif.g09.slc.cpg/sg11_28_cif.got.tgz:55593.got - 2010.06.27 23:14:04.
