data_PCOD8070283
_publ_section_title
;
Structure prediction by ZEFSAII (Michael W. Deem and Ramdas Pophale) SiO2 
 PCOD8070283
Probable space group: P 21/M
;
_chemical_formula_sum "Si O2"
_cell_formula_units_Z 28
_cell_length_a 18.999996
_cell_length_b 9.283943
_cell_length_c 14.077063
_cell_angle_alpha 90.000000
_cell_angle_beta 137.746116
_cell_angle_gamma 90.000000
_cell_volume 1669.693297
_symmetry_space_group_name_H-M "P 21/M"
_symmetry_group_IT_number 11
_symmetry_cell_setting 'monoclinic'
loop_
_space_group_symop_operation_xyz
x,y,z
-x,1/2+y,-z
-x,-y,-z
x,1/2-y,z
loop_
_atom_site_type_symbol
_atom_site_label
_atom_site_fract_x
_atom_site_fract_y
_atom_site_fract_z
Si Si1 0.994259 0.918119 0.896260
Si Si2 0.605830 0.082715 0.710107
Si Si3 0.899818 0.586044 0.503664
Si Si4 0.808329 0.081122 0.030786
Si Si5 0.109799 0.416740 0.720146
Si Si6 0.601372 0.081740 0.486896
Si Si7 0.215207 0.084803 0.424654
O O1 0.003156 0.750000 0.926876
O O2 0.887219 0.958422 0.736955
O O3 0.090170 0.968409 0.926511
O O4 0.000000 0.000000 0.000000
O O5 0.578614 0.250000 0.696471
O O6 0.630538 0.048067 0.625031
O O7 0.508445 0.990688 0.650145
O O8 0.706122 0.035204 0.870368
O O9 0.942483 0.750000 0.556601
O O10 0.854294 0.559124 0.352908
O O11 0.807092 0.559414 0.486011
O O12 0.994461 0.479832 0.621029
O O13 0.809933 0.250000 0.053352
O O14 0.807224 0.997704 0.129855
O O15 0.107153 0.250000 0.745080
O O16 0.592106 0.250000 0.457524
O O17 0.690447 0.017923 0.509033
O O18 0.246428 0.250000 0.435528
#
# Coordination Sequence:
#
# PCOD8070283 Si02
#       7
#     4   4   4   4   4   4   4
#     4  10  20  32  47  70 102 136 164 198 245 297
#     4   9  19  35  54  73  98 136 172 202 248 303
#     4   9  18  34  51  70 101 136 168 204 250 303
#     4  10  19  34  52  71 102 138 167 200 248 306
#     4  10  19  30  50  77 101 129 168 212 250 292
#     4  10  20  34  53  76 101 127 168 219 250 284
#     4  10  19  33  52  71  99 137 168 197 246 308
#
# _framework density 16.769548
#
# number of rings (size 3 to 8) (size 9 to 14) (size 15 to 20)
#    0.000    2.286    1.429    1.714    0.000    4.571 
#    0.000    0.000    0.000    0.857    0.000    0.000 
#    0.000    0.000    0.000    0.000    0.000    0.000 
#
# Total GULP energy -347276.726354 kJ/mol
# GULP energy per Si atom -12402.740227 kJ/mol
# Density = 1.673138 g / cm^3
# Si number density = 16.769548 Si / 1000 Ang^3
#
#
#
# Elastic Constant Matrix: (Units=GPa)
#
#
# Indices 1 2 3 4 5 6 
#
# 1 110.6494 53.3178 59.2178 0.0000 2.7997 0.0000
# 2 53.3178 69.9264 49.0798 0.0000 1.7675 0.0000
# 3 59.2178 49.0798 92.4949 0.0000 1.0678 0.0000
# 4 0.0000 0.0000 0.0000 26.9655 0.0000 -3.5871
# 5 2.7997 1.7675 1.0678 0.0000 26.6752 0.0000
# 6 0.0000 0.0000 0.0000 -3.5871 0.0000 27.5714
#
#
#
# Elastic Compliance Matrix: (Units=1/GPa)
#
#
# Indices 1 2 3 4 5 6 
#
# 1 0.016201 -0.008058 -0.006086 0.000000 -0.000923 0.000000
# 2 -0.008058 0.026824 -0.009068 0.000000 -0.000569 0.000000
# 3 -0.006086 -0.009068 0.019514 0.000000 0.000458 0.000000
# 4 0.000000 0.000000 0.000000 0.037738 0.000000 0.004910
# 5 -0.000923 -0.000569 0.000458 0.000000 0.037604 0.000000
# 6 0.000000 0.000000 0.000000 0.004910 0.000000 0.036908
#
#
# Mechanical properties :
#
#
# Convention : Reuss Voigt Hill
#
# Bulk Modulus (GPa) = 62.05256 66.25572 64.15414
# Shear Modulus (GPa) = 22.06695 23.67277 22.86986
#
# Velocity S-wave (km/s) = 3.63146 3.76127 3.69694
# Velocity P-wave (km/s) = 7.39370 7.64580 7.52080
#
# Compressibility (1/GPa) = 0.01611537
#
# Stress axis : x y z
#
# Youngs Moduli (GPa) = 61.72544 37.28048 51.24554
#
# Poissons Ratio (x) = 0.30041 0.31187
# Poissons Ratio (y) = 0.49739 0.46468
# Poissons Ratio (z) = 0.37564 0.33805
#
# Static dielectric constant tensor:
#      x y z
#    x 3.136380 0.000000 -0.124730 
#    y 0.000000 3.162110 0.000000 
#    z -0.124730 0.000000 3.118370 
# 
# 
# High freq. dielectric constant tensor:
#      x y z
#    x 1.639000 0.000000 -0.009790 
#    y 0.000000 1.650400 0.000000 
#    z -0.009790 0.000000 1.636310 
# 
# From -- ./inp_files/53200.got.cif
#   From: 2010.06.25/outbox.cif.g09.slc.cpg/sg11_27_cif.got.tgz:53200.got - 2010.06.27 23:14:04.
