data_PCOD8070441
_publ_section_title
;
Structure prediction by ZEFSAII (Michael W. Deem and Ramdas Pophale) SiO2 
 PCOD8070441
Probable space group: P 21/M
;
_chemical_formula_sum "Si O2"
_cell_formula_units_Z 32
_cell_length_a 14.536653
_cell_length_b 17.919848
_cell_length_c 21.393057
_cell_angle_alpha 90.000000
_cell_angle_beta 160.657769
_cell_angle_gamma 90.000000
_cell_volume 1845.758890
_symmetry_space_group_name_H-M "P 21/M"
_symmetry_group_IT_number 11
_symmetry_cell_setting 'monoclinic'
loop_
_space_group_symop_operation_xyz
x,y,z
-x,1/2+y,-z
-x,-y,-z
x,1/2-y,z
loop_
_atom_site_type_symbol
_atom_site_label
_atom_site_fract_x
_atom_site_fract_y
_atom_site_fract_z
Si Si1 0.913010 0.047766 0.248604
Si Si2 0.244592 0.047753 0.580198
Si Si3 0.415360 0.167525 0.167082
Si Si4 0.818979 0.481150 0.697273
Si Si5 0.167864 0.481139 0.046157
Si Si6 0.338031 0.389755 0.876452
Si Si7 0.077819 0.332483 0.829536
Si Si8 0.008295 0.389743 0.546716
O O1 0.145970 0.073374 0.447990
O O2 0.774477 0.971699 0.181923
O O3 0.673288 0.110477 0.090654
O O4 0.050327 0.038108 0.268813
O O5 0.157313 0.110480 0.574659
O O6 0.575714 0.038106 0.794206
O O7 0.095673 0.971700 0.503156
O O8 0.322252 0.250000 0.130835
O O9 0.278546 0.104224 0.123212
O O10 0.747806 0.165582 0.379920
O O11 0.318738 0.152454 0.034380
O O12 0.500000 0.500000 0.500000
O O13 0.842836 0.395780 0.687495
O O14 0.973097 0.492286 0.861552
O O15 0.000000 0.500000 0.000000
O O16 0.223743 0.334427 0.855866
O O17 0.229094 0.361586 0.739552
O O18 0.943490 0.250000 0.752045
#
# Coordination Sequence:
#
# PCOD8070441 Si02
#       8
#     4   4   4   4   4   4   4   4
#     4   9  16  27  44  66  92 120 150 186 229 277
#     4   9  16  27  44  66  92 120 150 186 229 277
#     4   9  18  32  49  69  94 125 159 195 239 292
#     4  10  19  31  48  70  96 126 163 205 244 286
#     4  10  19  31  48  70  96 126 163 205 244 286
#     4   9  16  26  43  68  94 118 146 184 231 278
#     4   9  18  32  49  69  94 125 159 195 239 292
#     4   9  16  26  43  68  94 118 146 184 231 278
#
# _framework density 17.337042
#
# number of rings (size 3 to 8) (size 9 to 14) (size 15 to 20)
#    0.000    2.750    0.000    2.250    0.000    7.500 
#    0.000    0.000    0.000    1.500    0.000    3.500 
#    0.000    0.000    0.000    0.000    0.000    0.000 
#
# Total GULP energy -396705.879701 kJ/mol
# GULP energy per Si atom -12397.058741 kJ/mol
# Density = 1.729758 g / cm^3
# Si number density = 17.337042 Si / 1000 Ang^3
#
#
#
# Elastic Constant Matrix: (Units=GPa)
#
#
# Indices 1 2 3 4 5 6 
#
# 1 133.1324 40.2546 59.9372 0.0000 -1.3197 0.0000
# 2 40.2546 59.9771 36.5054 0.0000 4.7631 0.0000
# 3 59.9372 36.5054 130.9816 0.0000 4.0422 0.0000
# 4 0.0000 0.0000 0.0000 16.6103 0.0000 -0.2985
# 5 -1.3197 4.7631 4.0422 0.0000 30.3135 0.0000
# 6 0.0000 0.0000 0.0000 -0.2985 0.0000 16.3836
#
#
#
# Elastic Compliance Matrix: (Units=1/GPa)
#
#
# Indices 1 2 3 4 5 6 
#
# 1 0.010664 -0.005170 -0.003493 0.000000 0.001742 0.000000
# 2 -0.005170 0.022764 -0.003877 0.000000 -0.003285 0.000000
# 3 -0.003493 -0.003877 0.010342 0.000000 -0.000922 0.000000
# 4 0.000000 0.000000 0.000000 0.060223 0.000000 0.001097
# 5 0.001742 -0.003285 -0.000922 0.000000 0.033703 0.000000
# 6 0.000000 0.000000 0.000000 0.001097 0.000000 0.061057
#
#
# Mechanical properties :
#
#
# Convention : Reuss Voigt Hill
#
# Bulk Modulus (GPa) = 53.50470 66.38729 59.94599
# Shear Modulus (GPa) = 21.73309 25.15440 23.44374
#
# Velocity S-wave (km/s) = 3.54441 3.81321 3.68126
# Velocity P-wave (km/s) = 6.90500 7.60018 7.26091
#
# Compressibility (1/GPa) = 0.01868995
#
# Stress axis : x y z
#
# Youngs Moduli (GPa) = 93.77062 43.92961 96.69252
#
# Poissons Ratio (x) = 0.22711 0.33773
# Poissons Ratio (y) = 0.48479 0.37490
# Poissons Ratio (z) = 0.32753 0.17033
#
# Static dielectric constant tensor:
#      x y z
#    x 3.246100 0.000000 -0.169550 
#    y 0.000000 2.969610 0.000000 
#    z -0.169550 0.000000 3.379220 
# 
# 
# High freq. dielectric constant tensor:
#      x y z
#    x 1.663730 0.000000 -0.016160 
#    y 0.000000 1.629750 0.000000 
#    z -0.016160 0.000000 1.676440 
# 
# From -- ./inp_files/65874.got.cif
#   From: 2010.06.25/outbox.cif.g09.slc.cpg/sg11_33_cif.got.tgz:65874.got - 2010.06.27 23:14:04.
