data_PCOD8070377
_publ_section_title
;
Structure prediction by ZEFSAII (Michael W. Deem and Ramdas Pophale) SiO2 
 PCOD8070377
Probable space group: P 21/M
;
_chemical_formula_sum "Si O2"
_cell_formula_units_Z 28
_cell_length_a 21.056199
_cell_length_b 9.341590
_cell_length_c 13.946636
_cell_angle_alpha 90.000000
_cell_angle_beta 144.524445
_cell_angle_gamma 90.000000
_cell_volume 1592.078206
_symmetry_space_group_name_H-M "P 21/M"
_symmetry_group_IT_number 11
_symmetry_cell_setting 'monoclinic'
loop_
_space_group_symop_operation_xyz
x,y,z
-x,1/2+y,-z
-x,-y,-z
x,1/2-y,z
loop_
_atom_site_type_symbol
_atom_site_label
_atom_site_fract_x
_atom_site_fract_y
_atom_site_fract_z
Si Si1 0.108568 0.918357 0.657650
Si Si2 0.763989 0.080909 0.002219
Si Si3 0.551937 0.420244 0.846028
Si Si4 0.903941 0.082428 0.999413
Si Si5 0.678659 0.081399 0.187775
Si Si6 0.119291 0.583168 0.247930
Si Si7 0.657144 0.080150 0.375569
O O1 0.085405 0.750000 0.629073
O O2 0.198047 0.961773 0.688136
O O3 0.151223 0.973056 0.813148
O O4 0.000000 0.000000 0.500000
O O5 0.760102 0.250000 0.004045
O O6 0.640598 0.028566 0.874836
O O7 0.807150 0.028884 0.951577
O O8 0.533488 0.250000 0.820436
O O9 0.439225 0.501675 0.684481
O O10 0.594190 0.472997 0.002849
O O11 0.926375 0.250000 0.040863
O O12 0.864461 0.045608 0.844014
O O13 0.016258 0.002133 0.163689
O O14 0.670188 0.250000 0.180752
O O15 0.652652 0.020098 0.261081
O O16 0.095522 0.750000 0.233987
O O17 0.227887 0.534302 0.436642
O O18 0.640534 0.250000 0.361885
#
# Coordination Sequence:
#
# PCOD8070377 Si02
#       7
#     4   4   4   4   4   4   4
#     4   9  17  29  44  66  93 121 153 188 226 273
#     4   8  16  31  50  67  90 124 156 188 233 276
#     4   9  17  32  50  68  89 121 162 193 221 271
#     4   9  17  33  53  69  91 124 158 191 229 280
#     4   8  16  30  46  63  91 127 153 181 229 278
#     4   9  19  32  48  72  97 121 152 192 238 280
#     4  10  19  31  47  68  96 124 151 189 237 278
#
# _framework density 17.587074999999999
#
# number of rings (size 3 to 8) (size 9 to 14) (size 15 to 20)
#    0.000    3.143    0.000    2.143    2.000    0.571 
#    0.000    5.000    0.000    0.000    0.000    0.000 
#    0.000    0.000    0.000    0.000    0.000    0.000 
#
# Total GULP energy -347060.051588 kJ/mol
# GULP energy per Si atom -12395.001842 kJ/mol
# Density = 1.754705 g / cm^3
# Si number density = 17.587075 Si / 1000 Ang^3
#
#
#
# Elastic Constant Matrix: (Units=GPa)
#
#
# Indices 1 2 3 4 5 6 
#
# 1 124.4741 27.9015 49.5370 0.0000 13.5408 0.0000
# 2 27.9015 31.0204 31.3136 0.0000 8.6343 0.0000
# 3 49.5370 31.3136 94.5796 0.0000 17.7891 0.0000
# 4 0.0000 0.0000 0.0000 28.9234 0.0000 8.1245
# 5 13.5408 8.6343 17.7891 0.0000 21.8068 0.0000
# 6 0.0000 0.0000 0.0000 8.1245 0.0000 20.9508
#
#
#
# Elastic Compliance Matrix: (Units=1/GPa)
#
#
# Indices 1 2 3 4 5 6 
#
# 1 0.010902 -0.005855 -0.003466 0.000000 -0.001624 0.000000
# 2 -0.005855 0.052540 -0.013111 0.000000 -0.006472 0.000000
# 3 -0.003466 -0.013111 0.018130 0.000000 -0.007446 0.000000
# 4 0.000000 0.000000 0.000000 0.038801 0.000000 -0.015047
# 5 -0.001624 -0.006472 -0.007446 0.000000 0.055502 0.000000
# 6 0.000000 0.000000 0.000000 -0.015047 0.000000 0.053566
#
#
# Mechanical properties :
#
#
# Convention : Reuss Voigt Hill
#
# Bulk Modulus (GPa) = 27.24277 51.95316 39.59797
# Shear Modulus (GPa) = 17.44952 23.75766 20.60359
#
# Velocity S-wave (km/s) = 3.15330 3.67939 3.42646
# Velocity P-wave (km/s) = 5.36485 6.90328 6.18210
#
# Compressibility (1/GPa) = 0.03670698
#
# Stress axis : x y z
#
# Youngs Moduli (GPa) = 91.72297 19.03330 55.15760
#
# Poissons Ratio (x) = 0.11144 0.19119
# Poissons Ratio (y) = 0.53706 0.72317
# Poissons Ratio (z) = 0.31794 0.24954
#
# Static dielectric constant tensor:
#      x y z
#    x 3.843740 0.000000 -0.087660 
#    y 0.000000 2.661160 0.000000 
#    z -0.087660 0.000000 3.251210 
# 
# 
# High freq. dielectric constant tensor:
#      x y z
#    x 1.686430 0.000000 0.009330 
#    y 0.000000 1.645900 0.000000 
#    z 0.009330 0.000000 1.673280 
# 
# From -- ./inp_files/21288.got.cif
#   From: 2010.06.25/outbox.cif.g09.slc.cpg/sg11_11_cif.got.tgz:21288.got - 2010.06.27 23:14:04.
