data_PCOD8070964
_publ_section_title
;
Structure prediction by ZEFSAII (Michael W. Deem and Ramdas Pophale) SiO2 
 PCOD8070964
Probable space group: P 21/M
;
_chemical_formula_sum "Si O2"
_cell_formula_units_Z 24
_cell_length_a 23.974039
_cell_length_b 8.657463
_cell_length_c 11.853690
_cell_angle_alpha 90.000000
_cell_angle_beta 147.648342
_cell_angle_gamma 90.000000
_cell_volume 1316.533488
_symmetry_space_group_name_H-M "P 21/M"
_symmetry_group_IT_number 11
_symmetry_cell_setting 'monoclinic'
loop_
_space_group_symop_operation_xyz
x,y,z
-x,1/2+y,-z
-x,-y,-z
x,1/2-y,z
loop_
_atom_site_type_symbol
_atom_site_label
_atom_site_fract_x
_atom_site_fract_y
_atom_site_fract_z
Si Si1 0.562244 0.425261 0.247448
Si Si2 0.387315 0.068564 0.279146
Si Si3 0.264048 0.575866 0.265970
Si Si4 0.280161 0.432383 0.645313
Si Si5 0.643317 0.430981 0.011919
Si Si6 0.113249 0.067460 0.176472
O O1 0.524786 0.250000 0.157929
O O2 0.646355 0.425040 0.489100
O O3 0.611678 0.501206 0.220400
O O4 0.469323 0.531337 0.130667
O O5 0.402141 0.250000 0.300990
O O6 0.500000 0.000000 0.500000
O O7 0.300807 0.023268 0.222529
O O8 0.342816 0.011552 0.084372
O O9 0.238478 0.750000 0.183301
O O10 0.160521 0.500173 0.141774
O O11 0.288300 0.250000 0.666389
O O12 0.182581 0.484368 0.402419
O O13 0.268908 0.503983 0.751479
O O14 0.657531 0.250000 0.020510
O O15 0.108817 0.250000 0.158154
O O16 0.000000 0.000000 0.000000
#
# Coordination Sequence:
#
# PCOD8070964 Si02
#       6
#     4   4   4   4   4   4
#     4  10  19  32  51  75 108 146 184 225 270 323
#     4  12  23  36  54  78 112 152 192 228 268 322
#     4  10  20  35  56  82 112 146 187 230 273 324
#     4  10  21  36  53  77 109 142 182 227 277 331
#     4  12  23  34  51  75 109 150 188 225 270 324
#     4  10  21  38  62  87 111 141 180 231 285 334
#
# _framework density 18.229690999999999
#
# number of rings (size 3 to 8) (size 9 to 14) (size 15 to 20)
#    0.000    1.333    1.667    5.500    0.000    3.333 
#    0.000    0.000    0.000    1.000    0.000    0.000 
#    0.000    0.000    0.000    0.000    0.000    0.000 
#
# Total GULP energy -297671.638847 kJ/mol
# GULP energy per Si atom -12402.984952 kJ/mol
# Density = 1.818820 g / cm^3
# Si number density = 18.229691 Si / 1000 Ang^3
#
#
#
# Elastic Constant Matrix: (Units=GPa)
#
#
# Indices 1 2 3 4 5 6 
#
# 1 129.2711 54.6005 53.0738 0.0000 -9.9004 0.0000
# 2 54.6005 133.5961 33.2074 0.0000 -6.8015 0.0000
# 3 53.0738 33.2074 53.1730 0.0000 7.3905 0.0000
# 4 0.0000 0.0000 0.0000 27.2717 0.0000 -1.7002
# 5 -9.9004 -6.8015 7.3905 0.0000 30.6760 0.0000
# 6 0.0000 0.0000 0.0000 -1.7002 0.0000 36.0332
#
#
#
# Elastic Compliance Matrix: (Units=1/GPa)
#
#
# Indices 1 2 3 4 5 6 
#
# 1 0.015574 -0.002125 -0.015365 0.000000 0.008257 0.000000
# 2 -0.002125 0.009510 -0.004154 0.000000 0.002423 0.000000
# 3 -0.015365 -0.004154 0.038856 0.000000 -0.015242 0.000000
# 4 0.000000 0.000000 0.000000 0.036776 0.000000 0.001735
# 5 0.008257 0.002423 -0.015242 0.000000 0.039473 0.000000
# 6 0.000000 0.000000 0.000000 0.001735 0.000000 0.027834
#
#
# Mechanical properties :
#
#
# Convention : Reuss Voigt Hill
#
# Bulk Modulus (GPa) = 48.42681 66.42263 57.42472
# Shear Modulus (GPa) = 22.91496 30.47340 26.69418
#
# Velocity S-wave (km/s) = 3.54928 4.09300 3.83080
# Velocity P-wave (km/s) = 6.58931 7.67154 7.15093
#
# Compressibility (1/GPa) = 0.02064972
#
# Stress axis : x y z
#
# Youngs Moduli (GPa) = 64.20846 105.15279 25.73585
#
# Poissons Ratio (x) = 0.22350 0.39544
# Poissons Ratio (y) = 0.13647 0.10692
# Poissons Ratio (z) = 0.98659 0.43685
#
# Static dielectric constant tensor:
#      x y z
#    x 3.528360 0.000000 -0.226530 
#    y 0.000000 3.569530 0.000000 
#    z -0.226530 0.000000 3.317180 
# 
# 
# High freq. dielectric constant tensor:
#      x y z
#    x 1.701330 0.000000 -0.021210 
#    y 0.000000 1.727490 0.000000 
#    z -0.021210 0.000000 1.685750 
# 
# From -- ./inp_files/37248.got.cif
#   From: 2010.06.25/outbox.cif.g09.slc.cpg/sg11_19_cif.got.tgz:37248.got - 2010.06.27 23:14:04.
