data_PCOD8070467
_publ_section_title
;
Structure prediction by ZEFSAII (Michael W. Deem and Ramdas Pophale) SiO2 
 PCOD8070467
Probable space group: P 21/M
;
_chemical_formula_sum "Si O2"
_cell_formula_units_Z 28
_cell_length_a 16.279672
_cell_length_b 8.921351
_cell_length_c 18.378249
_cell_angle_alpha 90.000000
_cell_angle_beta 143.182499
_cell_angle_gamma 90.000000
_cell_volume 1599.563950
_symmetry_space_group_name_H-M "P 21/M"
_symmetry_group_IT_number 11
_symmetry_cell_setting 'monoclinic'
loop_
_space_group_symop_operation_xyz
x,y,z
-x,1/2+y,-z
-x,-y,-z
x,1/2-y,z
loop_
_atom_site_type_symbol
_atom_site_label
_atom_site_fract_x
_atom_site_fract_y
_atom_site_fract_z
Si Si1 0.804125 0.581069 0.903928
Si Si2 0.972813 0.578060 0.752164
Si Si3 0.279858 0.924540 0.016486
Si Si4 0.487997 0.927416 0.912867
Si Si5 0.116529 0.917809 0.175734
Si Si6 0.213518 0.076606 0.675342
Si Si7 0.020197 0.077300 0.406631
O O1 0.746379 0.750000 0.863356
O O2 0.717037 0.479693 0.897780
O O3 0.789255 0.514018 0.812245
O O4 0.961490 0.578238 0.038616
O O5 0.942123 0.750000 0.748247
O O6 0.876914 0.483015 0.738073
O O7 0.933024 0.535381 0.641566
O O8 0.132763 0.543731 0.876719
O O9 0.319744 0.750000 0.042076
O O10 0.385810 0.021549 0.046311
O O11 0.489256 0.750000 0.922247
O O12 0.349222 0.978242 0.775282
O O13 0.500000 0.000000 0.000000
O O14 0.174742 0.750000 0.218261
O O15 0.249792 0.250000 0.713915
O O16 0.149032 0.048168 0.550230
O O17 0.107101 0.026378 0.661833
O O18 0.971197 0.250000 0.376163
#
# Coordination Sequence:
#
# PCOD8070467 Si02
#       7
#     4   4   4   4   4   4   4
#     4   9  16  27  42  62  92 128 162 194 233 282
#     4   9  17  29  46  69  97 127 157 193 238 285
#     4  10  19  31  48  71  99 129 161 197 239 286
#     4  12  24  37  52  71  97 128 163 201 242 288
#     4   9  16  25  40  64  93 124 158 196 236 279
#     4  10  20  34  52  73  97 127 163 201 242 286
#     4   9  18  33  52  73  98 128 162 200 241 286
#
# _framework density 17.504771000000002
#
# number of rings (size 3 to 8) (size 9 to 14) (size 15 to 20)
#    0.000    2.286    0.000    3.857    0.000    6.286 
#    0.000    0.000    0.000    0.000    0.000    1.000 
#    0.000    0.000    0.000    0.000    0.000    0.000 
#
# Total GULP energy -347244.417315 kJ/mol
# GULP energy per Si atom -12401.586333 kJ/mol
# Density = 1.746493 g / cm^3
# Si number density = 17.504771 Si / 1000 Ang^3
#
#
#
# Elastic Constant Matrix: (Units=GPa)
#
#
# Indices 1 2 3 4 5 6 
#
# 1 116.1688 56.0235 41.5179 0.0000 -27.6866 0.0000
# 2 56.0235 122.5234 36.7240 0.0000 -8.7735 0.0000
# 3 41.5179 36.7240 51.3260 0.0000 -15.8946 0.0000
# 4 0.0000 0.0000 0.0000 21.6951 0.0000 -2.0602
# 5 -27.6866 -8.7735 -15.8946 0.0000 23.5088 0.0000
# 6 0.0000 0.0000 0.0000 -2.0602 0.0000 37.2943
#
#
#
# Elastic Compliance Matrix: (Units=1/GPa)
#
#
# Indices 1 2 3 4 5 6 
#
# 1 0.016039 -0.004749 -0.005408 0.000000 0.013461 0.000000
# 2 -0.004749 0.011836 -0.006313 0.000000 -0.005444 0.000000
# 3 -0.005408 -0.006313 0.032471 0.000000 0.013230 0.000000
# 4 0.000000 0.000000 0.000000 0.046336 0.000000 0.002560
# 5 0.013461 -0.005444 0.013230 0.000000 0.065304 0.000000
# 6 0.000000 0.000000 0.000000 0.002560 0.000000 0.026955
#
#
# Mechanical properties :
#
#
# Convention : Reuss Voigt Hill
#
# Bulk Modulus (GPa) = 36.48675 62.06097 49.27386
# Shear Modulus (GPa) = 20.74550 26.88317 23.81434
#
# Velocity S-wave (km/s) = 3.44631 3.92313 3.69243
# Velocity P-wave (km/s) = 6.06013 7.48679 6.81092
#
# Compressibility (1/GPa) = 0.02740721
#
# Stress axis : x y z
#
# Youngs Moduli (GPa) = 62.34665 84.49134 30.79644
#
# Poissons Ratio (x) = 0.40127 0.16653
# Poissons Ratio (y) = 0.29610 0.19441
# Poissons Ratio (z) = 0.33714 0.53337
#
# Static dielectric constant tensor:
#      x y z
#    x 3.353530 0.000000 -0.249720 
#    y 0.000000 3.422430 0.000000 
#    z -0.249720 0.000000 3.006640 
# 
# 
# High freq. dielectric constant tensor:
#      x y z
#    x 1.679550 0.000000 -0.024540 
#    y 0.000000 1.691120 0.000000 
#    z -0.024540 0.000000 1.632840 
# 
# From -- ./inp_files/42336.got.cif
#   From: 2010.06.25/outbox.cif.g09.slc.cpg/sg11_22_cif.got.tgz:42336.got - 2010.06.27 23:14:04.
