data_PCOD8070321
_publ_section_title
;
Structure prediction by ZEFSAII (Michael W. Deem and Ramdas Pophale) SiO2 
 PCOD8070321
Probable space group: P 21/M
;
_chemical_formula_sum "Si O2"
_cell_formula_units_Z 32
_cell_length_a 17.641505
_cell_length_b 14.278304
_cell_length_c 12.744992
_cell_angle_alpha 90.000000
_cell_angle_beta 29.827686
_cell_angle_gamma 90.000000
_cell_volume 1596.804260
_symmetry_space_group_name_H-M "P 21/M"
_symmetry_group_IT_number 11
_symmetry_cell_setting 'monoclinic'
loop_
_space_group_symop_operation_xyz
x,y,z
-x,1/2+y,-z
-x,-y,-z
x,1/2-y,z
loop_
_atom_site_type_symbol
_atom_site_label
_atom_site_fract_x
_atom_site_fract_y
_atom_site_fract_z
Si Si1 0.762446 0.017627 0.270873
Si Si2 0.301222 0.644321 0.826076
Si Si3 0.023268 0.359983 0.049558
Si Si4 0.847876 0.147715 0.469028
Si Si5 0.593775 0.358726 0.073752
Si Si6 0.079271 0.598391 0.394586
Si Si7 0.308945 0.022694 0.414747
Si Si8 0.029207 0.352319 0.692200
O O1 0.651523 0.068428 0.319190
O O2 0.897285 0.093764 0.125350
O O3 0.668466 0.001032 0.490002
O O4 0.820681 0.917351 0.157244
O O5 0.311028 0.750000 0.769494
O O6 0.411478 0.635288 0.793792
O O7 0.131095 0.618344 0.066685
O O8 0.046378 0.250000 0.993595
O O9 0.974351 0.374002 0.228950
O O10 0.775584 0.250000 0.536176
O O11 0.934254 0.148236 0.476706
O O12 0.708210 0.073521 0.631050
O O13 0.588949 0.250000 0.042800
O O14 0.448043 0.415260 0.204637
O O15 0.742265 0.408839 0.848796
O O16 0.987957 0.652861 0.413641
O O17 0.000000 0.500000 0.500000
O O18 0.150230 0.075226 0.589366
O O19 0.080401 0.250000 0.669389
#
# Coordination Sequence:
#
# PCOD8070321 Si02
#       8
#     4   4   4   4   4   4   4   4
#     4  10  19  30  53  78 113 148 195 232 274 334
#     4   9  18  34  57  81 109 150 194 237 280 329
#     4   9  18  30  49  81 114 146 183 235 287 329
#     4  10  20  36  57  82 117 152 189 234 286 339
#     4  10  23  40  59  85 118 150 187 236 289 340
#     4  11  21  38  63  85 108 144 189 234 285 340
#     4  11  22  36  55  86 116 156 188 232 286 338
#     4  10  19  34  57  86 115 145 191 241 281 331
#
# _framework density 20.040026999999998
#
# number of rings (size 3 to 8) (size 9 to 14) (size 15 to 20)
#    0.000    2.000    1.250    4.875    1.750    3.500 
#    0.000    0.000    0.000    2.250    0.000    0.000 
#    0.000    0.000    0.000    0.000    0.000    0.000 
#
# Total GULP energy -396686.118047 kJ/mol
# GULP energy per Si atom -12396.441189 kJ/mol
# Density = 1.999441 g / cm^3
# Si number density = 20.040027 Si / 1000 Ang^3
#
#
#
# Elastic Constant Matrix: (Units=GPa)
#
#
# Indices 1 2 3 4 5 6 
#
# 1 61.1639 26.9446 15.8017 0.0000 18.0993 0.0000
# 2 26.9446 135.1024 33.7866 0.0000 -7.7991 0.0000
# 3 15.8017 33.7866 36.6112 0.0000 1.5984 0.0000
# 4 0.0000 0.0000 0.0000 21.8692 0.0000 3.6339
# 5 18.0993 -7.7991 1.5984 0.0000 33.1237 0.0000
# 6 0.0000 0.0000 0.0000 3.6339 0.0000 28.1702
#
#
#
# Elastic Compliance Matrix: (Units=1/GPa)
#
#
# Indices 1 2 3 4 5 6 
#
# 1 0.023675 -0.004030 -0.005906 0.000000 -0.013600 0.000000
# 2 -0.004030 0.010556 -0.008224 0.000000 0.005084 0.000000
# 3 -0.005906 -0.008224 0.037475 0.000000 -0.000518 0.000000
# 4 0.000000 0.000000 0.000000 0.046728 0.000000 -0.006028
# 5 -0.013600 0.005084 -0.000518 0.000000 0.038843 0.000000
# 6 0.000000 0.000000 0.000000 -0.006028 0.000000 0.036276
#
#
# Mechanical properties :
#
#
# Convention : Reuss Voigt Hill
#
# Bulk Modulus (GPa) = 28.25908 42.88260 35.57084
# Shear Modulus (GPa) = 20.68957 27.05557 23.87257
#
# Velocity S-wave (km/s) = 3.21660 3.67833 3.45519
# Velocity P-wave (km/s) = 5.28463 6.28371 5.80570
#
# Compressibility (1/GPa) = 0.03538685
#
# Stress axis : x y z
#
# Youngs Moduli (GPa) = 42.23856 94.73588 26.68453
#
# Poissons Ratio (x) = 0.38178 0.15759
# Poissons Ratio (y) = 0.17022 0.21945
# Poissons Ratio (z) = 0.24944 0.77910
#
# Static dielectric constant tensor:
#      x y z
#    x 3.817180 0.000000 0.349930 
#    y 0.000000 3.942800 0.000000 
#    z 0.349930 0.000000 3.335620 
# 
# 
# High freq. dielectric constant tensor:
#      x y z
#    x 1.778380 0.000000 0.024830 
#    y 0.000000 1.796000 0.000000 
#    z 0.024830 0.000000 1.746990 
# 
# From -- ./inp_files/41624.got.cif
#   From: 2010.06.25/outbox.cif.g09.slc.cpg/sg11_21_cif.got.tgz:41624.got - 2010.06.27 23:14:04.
