data_PCOD8070526
_publ_section_title
;
Structure prediction by ZEFSAII (Michael W. Deem and Ramdas Pophale) SiO2 
 PCOD8070526
Probable space group: P 21/M
;
_chemical_formula_sum "Si O2"
_cell_formula_units_Z 28
_cell_length_a 28.151515
_cell_length_b 9.024538
_cell_length_c 9.598586
_cell_angle_alpha 90.000000
_cell_angle_beta 39.232314
_cell_angle_gamma 90.000000
_cell_volume 1542.308927
_symmetry_space_group_name_H-M "P 21/M"
_symmetry_group_IT_number 11
_symmetry_cell_setting 'monoclinic'
loop_
_space_group_symop_operation_xyz
x,y,z
-x,1/2+y,-z
-x,-y,-z
x,1/2-y,z
loop_
_atom_site_type_symbol
_atom_site_label
_atom_site_fract_x
_atom_site_fract_y
_atom_site_fract_z
Si Si1 0.101786 0.920012 0.881094
Si Si2 0.959915 0.420075 0.286691
Si Si3 0.294705 0.575031 0.761589
Si Si4 0.740793 0.925632 0.437458
Si Si5 0.307637 0.576368 0.182967
Si Si6 0.578528 0.078990 0.310085
Si Si7 0.186704 0.575092 0.241390
O O1 0.117228 0.750000 0.885079
O O2 0.080967 0.940182 0.767901
O O3 0.175046 0.013427 0.747702
O O4 0.033418 0.978691 0.132002
O O5 0.983938 0.250000 0.254211
O O6 0.899955 0.474106 0.540172
O O7 0.294737 0.750000 0.728903
O O8 0.299344 0.481424 0.611007
O O9 0.365513 0.527494 0.694602
O O10 0.218378 0.528190 0.018366
O O11 0.742753 0.750000 0.435959
O O12 0.690366 0.985195 0.678875
O O13 0.296894 0.750000 0.241549
O O14 0.238842 0.512190 0.246929
O O15 0.384692 0.547393 0.924295
O O16 0.562308 0.250000 0.365578
O O17 0.500000 0.000000 0.500000
O O18 0.193901 0.750000 0.239450
#
# Coordination Sequence:
#
# PCOD8070526 Si02
#       7
#     4   4   4   4   4   4   4
#     4  10  19  31  49  72 104 142 175 217 268 319
#     4   9  16  29  50  76 102 130 173 228 269 307
#     4   9  19  36  57  78 104 142 177 209 260 321
#     4  12  23  34  50  78 110 140 177 223 265 307
#     4   9  17  34  57  80 104 139 178 212 257 315
#     4   9  19  36  62  88 111 137 171 211 257 314
#     4   8  14  30  55  77  97 130 179 224 261 307
#
# _framework density 18.154599000000001
#
# number of rings (size 3 to 8) (size 9 to 14) (size 15 to 20)
#    0.000    2.571    1.429    3.429    0.000    1.714 
#    0.000    4.286    0.000    0.000    0.000    0.000 
#    0.000    0.000    0.000    0.000    0.000    0.000 
#
# Total GULP energy -347118.051116 kJ/mol
# GULP energy per Si atom -12397.073254 kJ/mol
# Density = 1.811328 g / cm^3
# Si number density = 18.154599 Si / 1000 Ang^3
#
#
#
# Elastic Constant Matrix: (Units=GPa)
#
#
# Indices 1 2 3 4 5 6 
#
# 1 73.3308 49.1157 58.6456 0.0000 6.2680 0.0000
# 2 49.1157 92.3368 56.3869 0.0000 2.1654 0.0000
# 3 58.6456 56.3869 117.9966 0.0000 -0.5044 0.0000
# 4 0.0000 0.0000 0.0000 29.3736 0.0000 -5.6886
# 5 6.2680 2.1654 -0.5044 0.0000 28.9833 0.0000
# 6 0.0000 0.0000 0.0000 -5.6886 0.0000 22.9616
#
#
#
# Elastic Compliance Matrix: (Units=1/GPa)
#
#
# Indices 1 2 3 4 5 6 
#
# 1 0.027594 -0.008698 -0.009581 0.000000 -0.005484 0.000000
# 2 -0.008698 0.018081 -0.004315 0.000000 0.000455 0.000000
# 3 -0.009581 -0.004315 0.015311 0.000000 0.002661 0.000000
# 4 0.000000 0.000000 0.000000 0.035760 0.000000 0.008859
# 5 -0.005484 0.000455 0.002661 0.000000 0.035701 0.000000
# 6 0.000000 0.000000 0.000000 0.008859 0.000000 0.045746
#
#
# Mechanical properties :
#
#
# Convention : Reuss Voigt Hill
#
# Bulk Modulus (GPa) = 63.30802 67.99563 65.65183
# Shear Modulus (GPa) = 21.86764 24.23143 23.04954
#
# Velocity S-wave (km/s) = 3.47439 3.65735 3.56705
# Velocity P-wave (km/s) = 7.14440 7.44110 7.29426
#
# Compressibility (1/GPa) = 0.01579579
#
# Stress axis : x y z
#
# Youngs Moduli (GPa) = 36.23945 55.30586 65.31455
#
# Poissons Ratio (x) = 0.48106 0.62581
# Poissons Ratio (y) = 0.31522 0.28186
# Poissons Ratio (z) = 0.34723 0.23867
#
# Static dielectric constant tensor:
#      x y z
#    x 3.731300 0.000000 -0.683210 
#    y 0.000000 3.158600 0.000000 
#    z -0.683210 0.000000 4.394970 
# 
# 
# High freq. dielectric constant tensor:
#      x y z
#    x 1.678420 0.000000 0.001370 
#    y 0.000000 1.683830 0.000000 
#    z 0.001370 0.000000 1.712910 
# 
# From -- ./inp_files/28019.got.cif
#   From: 2010.06.25/outbox.cif.g09.slc.cpg/sg11_15_cif.got.tgz:28019.got - 2010.06.27 23:14:04.
