data_PCOD8070409
_publ_section_title
;
Structure prediction by ZEFSAII (Michael W. Deem and Ramdas Pophale) SiO2 
 PCOD8070409
Probable space group: P 21/M
;
_chemical_formula_sum "Si O2"
_cell_formula_units_Z 32
_cell_length_a 12.577548
_cell_length_b 8.802532
_cell_length_c 23.871868
_cell_angle_alpha 90.000000
_cell_angle_beta 134.192846
_cell_angle_gamma 90.000000
_cell_volume 1894.993536
_symmetry_space_group_name_H-M "P 21/M"
_symmetry_group_IT_number 11
_symmetry_cell_setting 'monoclinic'
loop_
_space_group_symop_operation_xyz
x,y,z
-x,1/2+y,-z
-x,-y,-z
x,1/2-y,z
loop_
_atom_site_type_symbol
_atom_site_label
_atom_site_fract_x
_atom_site_fract_y
_atom_site_fract_z
Si Si1 0.838727 0.075222 0.161682
Si Si2 0.048109 0.930306 0.409990
Si Si3 0.446912 0.929800 0.422599
Si Si4 0.330993 0.930622 0.582102
Si Si5 0.399335 0.572653 0.009983
Si Si6 0.403297 0.570664 0.835156
Si Si7 0.111825 0.571958 0.310341
Si Si8 0.721508 0.569565 0.319987
O O1 0.874492 0.250000 0.184580
O O2 0.725636 0.020911 0.168858
O O3 0.769411 0.048281 0.074026
O O4 0.992770 0.986001 0.221610
O O5 0.049925 0.750000 0.407952
O O6 0.175956 0.988513 0.498702
O O7 0.079042 0.999235 0.359704
O O8 0.889930 0.989604 0.373800
O O9 0.471392 0.750000 0.433653
O O10 0.275288 0.973489 0.350207
O O11 0.500000 0.000000 0.500000
O O12 0.533812 0.002482 0.403271
O O13 0.341510 0.750000 0.585785
O O14 0.345799 0.993914 0.649746
O O15 0.435941 0.750000 0.029470
O O16 0.437357 0.487140 0.082100
O O17 0.500000 0.500000 0.000000
O O18 0.409189 0.750000 0.827964
O O19 0.378454 0.485537 0.767970
O O20 0.095205 0.750000 0.308864
O O21 0.714095 0.750000 0.322188
#
# Coordination Sequence:
#
# PCOD8070409 Si02
#       8
#     4   4   4   4   4   4   4   4
#     4   9  18  30  46  73 104 131 167 208 250 299
#     4   9  18  33  51  73 101 134 170 209 255 304
#     4  11  22  37  55  75  99 131 173 217 260 304
#     4  11  22  38  54  72 101 134 174 219 258 300
#     4   9  17  29  45  69 101 135 168 205 247 300
#     4  10  19  31  47  72 103 137 171 205 249 301
#     4  10  19  33  52  74 100 133 171 210 254 304
#     4  11  21  34  52  75 103 137 174 209 253 306
#
# _framework density 16.886600999999999
#
# number of rings (size 3 to 8) (size 9 to 14) (size 15 to 20)
#    0.000    2.000    2.500    3.000    0.000    3.500 
#    0.000    1.875    0.000    0.000    0.000    0.875 
#    0.000    0.000    0.000    0.000    0.000    0.000 
#
# Total GULP energy -396760.066659 kJ/mol
# GULP energy per Si atom -12398.752083 kJ/mol
# Density = 1.684817 g / cm^3
# Si number density = 16.886601 Si / 1000 Ang^3
#
#
#
# Elastic Constant Matrix: (Units=GPa)
#
#
# Indices 1 2 3 4 5 6 
#
# 1 101.5880 41.3749 63.0383 0.0000 -6.3441 0.0000
# 2 41.3749 57.0776 33.9232 0.0000 6.6387 0.0000
# 3 63.0383 33.9232 128.6636 0.0000 6.9113 0.0000
# 4 0.0000 0.0000 0.0000 31.6988 0.0000 -0.4366
# 5 -6.3441 6.6387 6.9113 0.0000 17.5550 0.0000
# 6 0.0000 0.0000 0.0000 -0.4366 0.0000 23.3805
#
#
#
# Elastic Compliance Matrix: (Units=1/GPa)
#
#
# Indices 1 2 3 4 5 6 
#
# 1 0.020388 -0.011976 -0.007632 0.000000 0.014901 0.000000
# 2 -0.011976 0.028410 -0.000831 0.000000 -0.014745 0.000000
# 3 -0.007632 -0.000831 0.012118 0.000000 -0.007215 0.000000
# 4 0.000000 0.000000 0.000000 0.031555 0.000000 0.000589
# 5 0.014901 -0.014745 -0.007215 0.000000 0.070765 0.000000
# 6 0.000000 0.000000 0.000000 0.000589 0.000000 0.042782
#
#
# Mechanical properties :
#
#
# Convention : Reuss Voigt Hill
#
# Bulk Modulus (GPa) = 49.90444 62.66689 56.28566
# Shear Modulus (GPa) = 19.71808 24.45972 22.08890
#
# Velocity S-wave (km/s) = 3.42083 3.81000 3.62065
# Velocity P-wave (km/s) = 6.72456 7.51970 7.13321
#
# Compressibility (1/GPa) = 0.02003830
#
# Stress axis : x y z
#
# Youngs Moduli (GPa) = 49.04941 35.19870 82.52245
#
# Poissons Ratio (x) = 0.42154 0.62978
# Poissons Ratio (y) = 0.58742 0.06856
# Poissons Ratio (z) = 0.37433 0.02925
#
# Static dielectric constant tensor:
#      x y z
#    x 2.990280 0.000000 0.107710 
#    y 0.000000 3.139740 0.000000 
#    z 0.107710 0.000000 3.501790 
# 
# 
# High freq. dielectric constant tensor:
#      x y z
#    x 1.612930 0.000000 0.004450 
#    y 0.000000 1.653630 0.000000 
#    z 0.004450 0.000000 1.661010 
# 
# From -- ./inp_files/64411.got.cif
#   From: 2010.06.25/outbox.cif.g09.slc.cpg/sg11_33_cif.got.tgz:64411.got - 2010.06.27 23:14:04.
