data_PCOD8070237
_publ_section_title
;
Structure prediction by ZEFSAII (Michael W. Deem and Ramdas Pophale) SiO2 
 PCOD8070237
Probable space group: P 21/M
;
_chemical_formula_sum "Si O2"
_cell_formula_units_Z 28
_cell_length_a 30.284983
_cell_length_b 8.874723
_cell_length_c 9.907988
_cell_angle_alpha 90.000000
_cell_angle_beta 36.116204
_cell_angle_gamma 90.000000
_cell_volume 1569.625516
_symmetry_space_group_name_H-M "P 21/M"
_symmetry_group_IT_number 11
_symmetry_cell_setting 'monoclinic'
loop_
_space_group_symop_operation_xyz
x,y,z
-x,1/2+y,-z
-x,-y,-z
x,1/2-y,z
loop_
_atom_site_type_symbol
_atom_site_label
_atom_site_fract_x
_atom_site_fract_y
_atom_site_fract_z
Si Si1 0.502173 0.925391 0.637247
Si Si2 0.057988 0.429167 0.959370
Si Si3 0.785191 0.427634 0.434856
Si Si4 0.340683 0.927806 0.049358
Si Si5 0.051428 0.925006 0.261953
Si Si6 0.224064 0.579282 0.849296
Si Si7 0.664082 0.926191 0.230236
O O1 0.499850 0.750000 0.617957
O O2 0.583198 0.969483 0.501122
O O3 0.500000 0.000000 0.500000
O O4 0.423961 0.972660 0.903715
O O5 0.052717 0.250000 0.969911
O O6 0.140468 0.481395 0.711002
O O7 0.037192 0.488824 0.158269
O O8 0.000000 0.500000 0.000000
O O9 0.802151 0.250000 0.407625
O O10 0.720218 0.487327 0.694036
O O11 0.759707 0.464420 0.345625
O O12 0.332698 0.750000 0.054472
O O13 0.325308 0.995646 0.940356
O O14 0.030783 0.750000 0.293282
O O15 0.136939 0.943119 0.098083
O O16 0.000000 0.000000 0.500000
O O17 0.249221 0.750000 0.815718
O O18 0.270710 0.470919 0.829687
O O19 0.669184 0.750000 0.190687
#
# Coordination Sequence:
#
# PCOD8070237 Si02
#       7
#     4   4   4   4   4   4   4
#     4   8  15  28  46  70  98 129 164 205 251 295
#     4  11  22  37  57  79 105 137 171 211 257 307
#     4   9  19  36  55  75 100 132 170 211 254 304
#     4   9  17  32  54  74  97 131 169 209 255 302
#     4  10  21  38  58  80 105 135 172 213 256 306
#     4   9  19  35  52  71 100 135 167 200 247 303
#     4  10  19  30  48  75 104 131 167 211 249 293
#
# _framework density 17.838650999999999
#
# number of rings (size 3 to 8) (size 9 to 14) (size 15 to 20)
#    0.000    2.571    0.000    3.000    0.000    5.143 
#    0.000    2.143    0.000    0.000    0.000    0.000 
#    0.000    0.000    0.000    0.000    0.000    0.000 
#
# Total GULP energy -346973.702659 kJ/mol
# GULP energy per Si atom -12391.917952 kJ/mol
# Density = 1.779805 g / cm^3
# Si number density = 17.838651 Si / 1000 Ang^3
#
#
#
# Elastic Constant Matrix: (Units=GPa)
#
#
# Indices 1 2 3 4 5 6 
#
# 1 91.3185 33.2533 67.3342 0.0000 -9.0481 0.0000
# 2 33.2533 64.9859 53.5411 0.0000 -4.8755 0.0000
# 3 67.3342 53.5411 166.8030 0.0000 -3.4848 0.0000
# 4 0.0000 0.0000 0.0000 26.3877 0.0000 -0.5165
# 5 -9.0481 -4.8755 -3.4848 0.0000 14.9274 0.0000
# 6 0.0000 0.0000 0.0000 -0.5165 0.0000 24.8355
#
#
#
# Elastic Compliance Matrix: (Units=1/GPa)
#
#
# Indices 1 2 3 4 5 6 
#
# 1 0.017184 -0.003561 -0.005628 0.000000 0.007939 0.000000
# 2 -0.003561 0.022083 -0.005572 0.000000 0.003753 0.000000
# 3 -0.005628 -0.005572 0.009995 0.000000 -0.002898 0.000000
# 4 0.000000 0.000000 0.000000 0.037912 0.000000 0.000788
# 5 0.007939 0.003753 -0.002898 0.000000 0.072352 0.000000
# 6 0.000000 0.000000 0.000000 0.000788 0.000000 0.040281
#
#
# Mechanical properties :
#
#
# Convention : Reuss Voigt Hill
#
# Bulk Modulus (GPa) = 50.65974 70.15164 60.40569
# Shear Modulus (GPa) = 21.19471 24.49538 22.84505
#
# Velocity S-wave (km/s) = 3.45067 3.70964 3.58250
# Velocity P-wave (km/s) = 6.65858 7.59997 7.14480
#
# Compressibility (1/GPa) = 0.01973954
#
# Stress axis : x y z
#
# Youngs Moduli (GPa) = 58.19515 45.28466 100.04957
#
# Poissons Ratio (x) = 0.16124 0.56306
# Poissons Ratio (y) = 0.20720 0.55752
# Poissons Ratio (z) = 0.32751 0.25235
#
# Static dielectric constant tensor:
#      x y z
#    x 3.267330 0.000000 -0.337350 
#    y 0.000000 3.340660 0.000000 
#    z -0.337350 0.000000 3.787930 
# 
# 
# High freq. dielectric constant tensor:
#      x y z
#    x 1.679290 0.000000 -0.017850 
#    y 0.000000 1.693960 0.000000 
#    z -0.017850 0.000000 1.696990 
# 
# From -- ./inp_files/28322.got.cif
#   From: 2010.06.25/outbox.cif.g09.slc.cpg/sg11_15_cif.got.tgz:28322.got - 2010.06.27 23:14:04.
