data_PCOD8070130
_publ_section_title
;
Structure prediction by ZEFSAII (Michael W. Deem and Ramdas Pophale) SiO2 
 PCOD8070130
Probable space group: P 21/M
;
_chemical_formula_sum "Si O2"
_cell_formula_units_Z 32
_cell_length_a 11.086637
_cell_length_b 8.998227
_cell_length_c 20.974021
_cell_angle_alpha 90.000000
_cell_angle_beta 116.791814
_cell_angle_gamma 90.000000
_cell_volume 1867.754500
_symmetry_space_group_name_H-M "P 21/M"
_symmetry_group_IT_number 11
_symmetry_cell_setting 'monoclinic'
loop_
_space_group_symop_operation_xyz
x,y,z
-x,1/2+y,-z
-x,-y,-z
x,1/2-y,z
loop_
_atom_site_type_symbol
_atom_site_label
_atom_site_fract_x
_atom_site_fract_y
_atom_site_fract_z
Si Si1 0.088633 0.583163 0.378176
Si Si2 0.135384 0.423565 0.509484
Si Si3 0.010758 0.420385 0.240643
Si Si4 0.789005 0.922004 0.967693
Si Si5 0.225430 0.415732 0.662744
Si Si6 0.703578 0.078224 0.201330
Si Si7 0.987511 0.920981 0.902405
Si Si8 0.482701 0.926370 0.064241
O O1 0.143723 0.750000 0.389012
O O2 0.179193 0.494311 0.452007
O O3 0.103026 0.514150 0.311101
O O4 0.933410 0.574202 0.361472
O O5 0.107532 0.250000 0.493222
O O6 0.247071 0.450274 0.592239
O O7 0.000000 0.500000 0.500000
O O8 0.040043 0.250000 0.263360
O O9 0.852208 0.454267 0.210100
O O10 0.054405 0.462838 0.179401
O O11 0.753327 0.750000 0.971016
O O12 0.857339 0.947893 0.915328
O O13 0.655052 0.019770 0.936095
O O14 0.889393 0.974685 0.047262
O O15 0.277806 0.250000 0.691279
O O16 0.304997 0.532530 0.725962
O O17 0.661724 0.250000 0.184469
O O18 0.605171 0.974807 0.137961
O O19 0.036968 0.750000 0.918324
O O20 0.481323 0.750000 0.056276
O O21 0.500000 0.000000 0.000000
#
# Coordination Sequence:
#
# PCOD8070130 Si02
#       8
#     4   4   4   4   4   4   4   4
#     4   9  16  24  36  57  85 116 151 187 222 264
#     4   9  15  23  36  54  80 114 150 185 221 264
#     4   9  17  29  45  65  91 122 153 186 226 270
#     4  10  20  34  52  73  95 120 153 191 231 275
#     4   8  15  26  38  55  82 117 153 186 222 265
#     4  10  19  30  46  68  93 121 154 190 228 273
#     4   9  18  33  52  72  95 123 154 189 229 274
#     4  12  24  37  52  69  93 122 154 192 233 277
#
# _framework density 17.132871999999999
#
# number of rings (size 3 to 8) (size 9 to 14) (size 15 to 20)
#    0.000    2.500    0.000    4.125    0.000    6.000 
#    0.000    0.000    0.000    0.000    0.000    0.000 
#    0.000    1.000    0.000    3.000    0.000    4.875 
#
# Total GULP energy -396699.653230 kJ/mol
# GULP energy per Si atom -12396.864163 kJ/mol
# Density = 1.709388 g / cm^3
# Si number density = 17.132872 Si / 1000 Ang^3
#
#
#
# Elastic Constant Matrix: (Units=GPa)
#
#
# Indices 1 2 3 4 5 6 
#
# 1 37.6981 31.4010 34.4581 0.0000 -11.4629 0.0000
# 2 31.4010 120.8929 65.7595 0.0000 -9.5140 0.0000
# 3 34.4581 65.7595 134.4763 0.0000 -27.1734 0.0000
# 4 0.0000 0.0000 0.0000 35.7267 0.0000 -1.5157
# 5 -11.4629 -9.5140 -27.1734 0.0000 18.4721 0.0000
# 6 0.0000 0.0000 0.0000 -1.5157 0.0000 18.5474
#
#
#
# Elastic Compliance Matrix: (Units=1/GPa)
#
#
# Indices 1 2 3 4 5 6 
#
# 1 0.040919 -0.007405 -0.003563 0.000000 0.016337 0.000000
# 2 -0.007405 0.012750 -0.005605 0.000000 -0.006274 0.000000
# 3 -0.003563 -0.005605 0.014315 0.000000 0.015961 0.000000
# 4 0.000000 0.000000 0.000000 0.028088 0.000000 0.002295
# 5 0.016337 -0.006274 0.015961 0.000000 0.084522 0.000000
# 6 0.000000 0.000000 0.000000 0.002295 0.000000 0.054103
#
#
# Mechanical properties :
#
#
# Convention : Reuss Voigt Hill
#
# Bulk Modulus (GPa) = 28.70362 61.81161 45.25762
# Shear Modulus (GPa) = 17.89195 25.31249 21.60222
#
# Velocity S-wave (km/s) = 3.23508 3.84790 3.55472
# Velocity P-wave (km/s) = 5.54475 7.47649 6.58187
#
# Compressibility (1/GPa) = 0.03483881
#
# Stress axis : x y z
#
# Youngs Moduli (GPa) = 24.43880 78.42916 69.85493
#
# Poissons Ratio (x) = 0.58073 0.24888
# Poissons Ratio (y) = 0.18096 0.39156
# Poissons Ratio (z) = 0.08707 0.43962
#
# Static dielectric constant tensor:
#      x y z
#    x 2.768070 0.000000 -0.105660 
#    y 0.000000 3.367300 0.000000 
#    z -0.105660 0.000000 2.717450 
# 
# 
# High freq. dielectric constant tensor:
#      x y z
#    x 1.598020 0.000000 -0.023610 
#    y 0.000000 1.674680 0.000000 
#    z -0.023610 0.000000 1.674060 
# 
# From -- ./inp_files/64195.got.cif
#   From: 2010.06.25/outbox.cif.g09.slc.cpg/sg11_33_cif.got.tgz:64195.got - 2010.06.27 23:14:04.
