data_PCOD8070229
_publ_section_title
;
Structure prediction by ZEFSAII (Michael W. Deem and Ramdas Pophale) SiO2 
 PCOD8070229
Probable space group: P 21/M
;
_chemical_formula_sum "Si O2"
_cell_formula_units_Z 28
_cell_length_a 28.499599
_cell_length_b 9.008926
_cell_length_c 9.576600
_cell_angle_alpha 90.000000
_cell_angle_beta 141.254867
_cell_angle_gamma 90.000000
_cell_volume 1538.857429
_symmetry_space_group_name_H-M "P 21/M"
_symmetry_group_IT_number 11
_symmetry_cell_setting 'monoclinic'
loop_
_space_group_symop_operation_xyz
x,y,z
-x,1/2+y,-z
-x,-y,-z
x,1/2-y,z
loop_
_atom_site_type_symbol
_atom_site_label
_atom_site_fract_x
_atom_site_fract_y
_atom_site_fract_z
Si Si1 0.189560 0.577291 0.257742
Si Si2 0.256043 0.422970 0.916206
Si Si3 0.420082 0.075045 0.822218
Si Si4 0.959487 0.079737 0.213154
Si Si5 0.695622 0.074259 0.246798
Si Si6 0.300484 0.419542 0.322339
Si Si7 0.101812 0.920786 0.621225
O O1 0.198270 0.750000 0.253589
O O2 0.227964 0.529861 0.492711
O O3 0.231069 0.508534 0.222111
O O4 0.101204 0.534798 0.047569
O O5 0.252705 0.250000 0.868769
O O6 0.297584 0.514495 0.893099
O O7 0.172248 0.480196 0.743997
O O8 0.306277 0.450898 0.170863
O O9 0.428423 0.250000 0.866662
O O10 0.378065 0.037723 0.578924
O O11 0.375003 0.004328 0.845981
O O12 0.500000 0.000000 0.000000
O O13 0.985780 0.250000 0.259797
O O14 0.917909 0.054777 0.263613
O O15 0.031263 0.974250 0.363972
O O16 0.682339 0.250000 0.214981
O O17 0.280948 0.250000 0.307306
O O18 0.119054 0.750000 0.625207
#
# Coordination Sequence:
#
# PCOD8070229 Si02
#       7
#     4   4   4   4   4   4   4
#     4   9  17  32  53  76 102 135 178 223 265 312
#     4  11  21  35  53  77 109 143 177 217 264 313
#     4  10  20  38  61  86 111 137 171 211 256 309
#     4   9  17  30  48  73 103 135 175 224 271 313
#     4  10  21  36  56  81 109 141 175 215 263 314
#     4   9  19  33  54  80 106 137 175 215 256 308
#     4  10  19  30  48  74 104 138 177 223 269 313
#
# _framework density 18.195315999999998
#
# number of rings (size 3 to 8) (size 9 to 14) (size 15 to 20)
#    0.000    2.286    1.429    1.714    0.000    2.857 
#    0.000    1.429    0.000    0.000    0.000    0.000 
#    0.000    0.000    0.000    0.000    0.000    0.000 
#
# Total GULP energy -347169.559705 kJ/mol
# GULP energy per Si atom -12398.912847 kJ/mol
# Density = 1.815390 g / cm^3
# Si number density = 18.195316 Si / 1000 Ang^3
#
#
#
# Elastic Constant Matrix: (Units=GPa)
#
#
# Indices 1 2 3 4 5 6 
#
# 1 71.1057 34.6650 49.4798 0.0000 1.6337 0.0000
# 2 34.6650 72.7372 40.6149 0.0000 4.0072 0.0000
# 3 49.4798 40.6149 101.7433 0.0000 9.3433 0.0000
# 4 0.0000 0.0000 0.0000 27.1100 0.0000 2.8677
# 5 1.6337 4.0072 9.3433 0.0000 24.9817 0.0000
# 6 0.0000 0.0000 0.0000 2.8677 0.0000 32.2966
#
#
#
# Elastic Compliance Matrix: (Units=1/GPa)
#
#
# Indices 1 2 3 4 5 6 
#
# 1 0.023398 -0.006187 -0.009175 0.000000 0.002894 0.000000
# 2 -0.006187 0.019329 -0.004618 0.000000 -0.000969 0.000000
# 3 -0.009175 -0.004618 0.016580 0.000000 -0.004860 0.000000
# 4 0.000000 0.000000 0.000000 0.037237 0.000000 -0.003306
# 5 0.002894 -0.000969 -0.004860 0.000000 0.041813 0.000000
# 6 0.000000 0.000000 0.000000 -0.003306 0.000000 0.031257
#
#
# Mechanical properties :
#
#
# Convention : Reuss Voigt Hill
#
# Bulk Modulus (GPa) = 51.68741 55.01173 53.34957
# Shear Modulus (GPa) = 23.14581 24.93276 24.03929
#
# Velocity S-wave (km/s) = 3.57049 3.70575 3.63875
# Velocity P-wave (km/s) = 6.74288 6.97207 6.85843
#
# Compressibility (1/GPa) = 0.01934707
#
# Stress axis : x y z
#
# Youngs Moduli (GPa) = 42.73904 51.73640 60.31297
#
# Poissons Ratio (x) = 0.32011 0.55335
# Poissons Ratio (y) = 0.26444 0.27851
# Poissons Ratio (z) = 0.39211 0.23891
#
# Static dielectric constant tensor:
#      x y z
#    x 3.119300 0.000000 -0.038100 
#    y 0.000000 3.447830 0.000000 
#    z -0.038100 0.000000 3.699830 
# 
# 
# High freq. dielectric constant tensor:
#      x y z
#    x 1.675870 0.000000 0.000380 
#    y 0.000000 1.714840 0.000000 
#    z 0.000380 0.000000 1.711460 
# 
# From -- ./inp_files/28592.got.cif
#   From: 2010.06.25/outbox.cif.g09.slc.cpg/sg11_15_cif.got.tgz:28592.got - 2010.06.27 23:14:04.
