data_PCOD8070327
_publ_section_title
;
Structure prediction by ZEFSAII (Michael W. Deem and Ramdas Pophale) SiO2 
 PCOD8070327
Probable space group: P 21/M
;
_chemical_formula_sum "Si O2"
_cell_formula_units_Z 24
_cell_length_a 14.989970
_cell_length_b 9.263730
_cell_length_c 20.692361
_cell_angle_alpha 90.000000
_cell_angle_beta 146.180877
_cell_angle_gamma 90.000000
_cell_volume 1599.258918
_symmetry_space_group_name_H-M "P 21/M"
_symmetry_group_IT_number 11
_symmetry_cell_setting 'monoclinic'
loop_
_space_group_symop_operation_xyz
x,y,z
-x,1/2+y,-z
-x,-y,-z
x,1/2-y,z
loop_
_atom_site_type_symbol
_atom_site_label
_atom_site_fract_x
_atom_site_fract_y
_atom_site_fract_z
Si Si1 0.333254 0.581286 0.902799
Si Si2 0.148423 0.586005 0.061638
Si Si3 0.299964 0.588296 0.026077
Si Si4 0.804945 0.083519 0.435144
Si Si5 0.555482 0.581526 0.783263
Si Si6 0.100092 0.580895 0.651055
O O1 0.365260 0.750000 0.910810
O O2 0.253171 0.549096 0.924645
O O3 0.213133 0.520430 0.776158
O O4 0.500000 0.500000 0.000000
O O5 0.146590 0.750000 0.087035
O O6 0.315765 0.506650 0.183414
O O7 0.143693 0.583079 0.979744
O O8 0.000000 0.500000 0.000000
O O9 0.374449 0.750000 0.073042
O O10 0.431029 0.476109 0.134146
O O11 0.850005 0.250000 0.470775
O O12 0.624013 0.052548 0.349984
O O13 0.819976 0.039124 0.369021
O O14 0.925555 0.992197 0.551944
O O15 0.597956 0.750000 0.807405
O O16 0.074183 0.750000 0.643601
#
# Coordination Sequence:
#
# PCOD8070327 Si02
#       6
#     4   4   4   4   4   4
#     4  10  19  31  44  63  89 120 153 184 220 263
#     4   9  17  29  45  68  93 117 144 180 226 271
#     4   8  17  29  42  62  90 117 144 178 219 266
#     4   9  17  29  42  61  86 115 151 188 221 256
#     4   9  16  27  45  65  88 115 144 181 222 264
#     4   9  18  29  43  60  84 118 154 186 218 257
#
# _framework density 15.00695
#
# number of rings (size 3 to 8) (size 9 to 14) (size 15 to 20)
#    1.000    2.000    0.000    1.500    0.000    4.000 
#    0.000    3.333    0.000    0.000    0.000    1.167 
#    0.000    0.000    0.000    0.000    0.000    0.000 
#
# Total GULP energy -297319.687856 kJ/mol
# GULP energy per Si atom -12388.320327 kJ/mol
# Density = 1.497279 g / cm^3
# Si number density = 15.006950 Si / 1000 Ang^3
#
#
#
# Elastic Constant Matrix: (Units=GPa)
#
#
# Indices 1 2 3 4 5 6 
#
# 1 72.8682 38.4810 43.4536 0.0000 15.0169 0.0000
# 2 38.4810 76.0028 48.4279 0.0000 14.7181 0.0000
# 3 43.4536 48.4279 110.5762 0.0000 12.1039 0.0000
# 4 0.0000 0.0000 0.0000 25.1066 0.0000 6.2381
# 5 15.0169 14.7181 12.1039 0.0000 23.3162 0.0000
# 6 0.0000 0.0000 0.0000 6.2381 0.0000 22.7885
#
#
#
# Elastic Compliance Matrix: (Units=1/GPa)
#
#
# Indices 1 2 3 4 5 6 
#
# 1 0.021487 -0.006373 -0.004854 0.000000 -0.007296 0.000000
# 2 -0.006373 0.021591 -0.006265 0.000000 -0.006272 0.000000
# 3 -0.004854 -0.006265 0.013698 0.000000 -0.000030 0.000000
# 4 0.000000 0.000000 0.000000 0.042737 0.000000 -0.011699
# 5 -0.007296 -0.006272 -0.000030 0.000000 0.051562 0.000000
# 6 0.000000 0.000000 0.000000 -0.011699 0.000000 0.047084
#
#
# Mechanical properties :
#
#
# Convention : Reuss Voigt Hill
#
# Bulk Modulus (GPa) = 45.88905 57.79691 51.84298
# Shear Modulus (GPa) = 20.79799 22.84791 21.82295
#
# Velocity S-wave (km/s) = 3.72679 3.90614 3.81752
# Velocity P-wave (km/s) = 7.01167 7.67730 7.35202
#
# Compressibility (1/GPa) = 0.02179169
#
# Stress axis : x y z
#
# Youngs Moduli (GPa) = 46.53898 46.31623 73.00323
#
# Poissons Ratio (x) = 0.29520 0.35436
# Poissons Ratio (y) = 0.29662 0.45734
# Poissons Ratio (z) = 0.22590 0.29016
#
# Static dielectric constant tensor:
#      x y z
#    x 2.758280 0.000000 -0.017800 
#    y 0.000000 2.947690 0.000000 
#    z -0.017800 0.000000 2.805590 
# 
# 
# High freq. dielectric constant tensor:
#      x y z
#    x 1.551190 0.000000 0.010690 
#    y 0.000000 1.584410 0.000000 
#    z 0.010690 0.000000 1.549870 
# 
# From -- ./inp_files/26256.got.cif
#   From: 2010.06.25/outbox.cif.g09.slc.cpg/sg11_14_cif.got.tgz:26256.got - 2010.06.27 23:14:04.
