data_PCOD8070067
_publ_section_title
;
Structure prediction by ZEFSAII (Michael W. Deem and Ramdas Pophale) SiO2 
 PCOD8070067
Probable space group: P 21/M
;
_chemical_formula_sum "Si O2"
_cell_formula_units_Z 32
_cell_length_a 18.835114
_cell_length_b 9.056771
_cell_length_c 22.852472
_cell_angle_alpha 90.000000
_cell_angle_beta 28.822921
_cell_angle_gamma 90.000000
_cell_volume 1879.384929
_symmetry_space_group_name_H-M "P 21/M"
_symmetry_group_IT_number 11
_symmetry_cell_setting 'monoclinic'
loop_
_space_group_symop_operation_xyz
x,y,z
-x,1/2+y,-z
-x,-y,-z
x,1/2-y,z
loop_
_atom_site_type_symbol
_atom_site_label
_atom_site_fract_x
_atom_site_fract_y
_atom_site_fract_z
Si Si1 0.459210 0.921703 0.776170
Si Si2 0.881087 0.576934 0.626198
Si Si3 0.639308 0.078010 0.427157
Si Si4 0.336594 0.583070 0.288132
Si Si5 0.858716 0.080940 0.167273
Si Si6 0.700174 0.919942 0.503377
Si Si7 0.195268 0.421633 0.909479
Si Si8 0.901247 0.413715 0.437595
O O1 0.440825 0.750000 0.802906
O O2 0.566174 0.949471 0.644100
O O3 0.520404 0.999550 0.790358
O O4 0.301547 0.991280 0.876168
O O5 0.872886 0.750000 0.616706
O O6 0.723028 0.501147 0.727113
O O7 0.000000 0.500000 0.500000
O O8 0.934845 0.552930 0.654866
O O9 0.604114 0.250000 0.457597
O O10 0.781304 0.046963 0.284516
O O11 0.500000 0.000000 0.500000
O O12 0.672080 0.015997 0.466997
O O13 0.379668 0.750000 0.240106
O O14 0.210725 0.579357 0.427674
O O15 0.833871 0.250000 0.165474
O O16 0.786051 0.978881 0.170234
O O17 0.030795 0.046419 0.050923
O O18 0.713073 0.750000 0.476191
O O19 0.854095 0.969362 0.422246
O O20 0.236347 0.250000 0.880997
O O21 0.897269 0.250000 0.412449
#
# Coordination Sequence:
#
# PCOD8070067 Si02
#       8
#     4   4   4   4   4   4   4   4
#     4  10  19  30  44  64  92 122 150 184 226 267
#     4   9  15  23  36  55  81 114 150 185 221 263
#     4  11  22  35  50  67  91 119 148 183 222 265
#     4   9  16  25  38  58  84 115 151 186 220 263
#     4   9  20  36  50  67  90 116 146 182 225 268
#     4  10  20  31  44  64  90 119 152 187 222 263
#     4  10  19  32  51  70  88 113 147 185 223 266
#     4   8  15  26  39  56  81 115 151 183 218 261
#
# _framework density 17.026847
#
# number of rings (size 3 to 8) (size 9 to 14) (size 15 to 20)
#    0.000    2.500    0.000    3.750    0.000    9.500 
#    0.000    0.000    0.000    0.000    0.000    0.000 
#    0.000    1.000    0.000    3.000    0.000    4.500 
#
# Total GULP energy -396730.112121 kJ/mol
# GULP energy per Si atom -12397.816004 kJ/mol
# Density = 1.698809 g / cm^3
# Si number density = 17.026847 Si / 1000 Ang^3
#
#
#
# Elastic Constant Matrix: (Units=GPa)
#
#
# Indices 1 2 3 4 5 6 
#
# 1 117.3604 66.9957 37.1507 0.0000 -32.9024 0.0000
# 2 66.9957 122.4362 37.6214 0.0000 -18.7967 0.0000
# 3 37.1507 37.6214 41.4004 0.0000 -14.2760 0.0000
# 4 0.0000 0.0000 0.0000 19.9736 0.0000 -8.0457
# 5 -32.9024 -18.7967 -14.2760 0.0000 24.8103 0.0000
# 6 0.0000 0.0000 0.0000 -8.0457 0.0000 37.1839
#
#
#
# Elastic Compliance Matrix: (Units=1/GPa)
#
#
# Indices 1 2 3 4 5 6 
#
# 1 0.018155 -0.005738 -0.005332 0.000000 0.016662 0.000000
# 2 -0.005738 0.013368 -0.007648 0.000000 -0.001882 0.000000
# 3 -0.005332 -0.007648 0.039238 0.000000 0.009712 0.000000
# 4 0.000000 0.000000 0.000000 0.054846 0.000000 0.011867
# 5 0.016662 -0.001882 0.009712 0.000000 0.066564 0.000000
# 6 0.000000 0.000000 0.000000 0.011867 0.000000 0.029461
#
#
# Mechanical properties :
#
#
# Convention : Reuss Voigt Hill
#
# Bulk Modulus (GPa) = 30.00715 62.74808 46.37761
# Shear Modulus (GPa) = 18.50626 25.68886 22.09756
#
# Velocity S-wave (km/s) = 3.30037 3.88845 3.60642
# Velocity P-wave (km/s) = 5.67318 7.55596 6.68122
#
# Compressibility (1/GPa) = 0.03332539
#
# Stress axis : x y z
#
# Youngs Moduli (GPa) = 55.08009 74.80310 25.48540
#
# Poissons Ratio (x) = 0.42923 0.13589
# Poissons Ratio (y) = 0.31605 0.19492
# Poissons Ratio (z) = 0.29369 0.57210
#
# Static dielectric constant tensor:
#      x y z
#    x 4.093810 0.000000 -0.547790 
#    y 0.000000 3.364640 0.000000 
#    z -0.547790 0.000000 2.936280 
# 
# 
# High freq. dielectric constant tensor:
#      x y z
#    x 1.660730 0.000000 -0.033220 
#    y 0.000000 1.674830 0.000000 
#    z -0.033220 0.000000 1.602080 
# 
# From -- ./inp_files/42551.got.cif
#   From: 2010.06.25/outbox.cif.g09.slc.cpg/sg11_22_cif.got.tgz:42551.got - 2010.06.27 23:14:04.
