data_PCOD8070086
_publ_section_title
;
Structure prediction by ZEFSAII (Michael W. Deem and Ramdas Pophale) SiO2 
 PCOD8070086
Probable space group: P 21/M
;
_chemical_formula_sum "Si O2"
_cell_formula_units_Z 28
_cell_length_a 16.784705
_cell_length_b 9.077511
_cell_length_c 20.681254
_cell_angle_alpha 90.000000
_cell_angle_beta 144.880533
_cell_angle_gamma 90.000000
_cell_volume 1812.754757
_symmetry_space_group_name_H-M "P 21/M"
_symmetry_group_IT_number 11
_symmetry_cell_setting 'monoclinic'
loop_
_space_group_symop_operation_xyz
x,y,z
-x,1/2+y,-z
-x,-y,-z
x,1/2-y,z
loop_
_atom_site_type_symbol
_atom_site_label
_atom_site_fract_x
_atom_site_fract_y
_atom_site_fract_z
Si Si1 0.174971 0.417495 0.910730
Si Si2 0.593468 0.420933 0.878091
Si Si3 0.124885 0.923623 0.266703
Si Si4 0.418775 0.574717 0.504485
Si Si5 0.121813 0.577162 0.118874
Si Si6 0.443217 0.417184 0.023906
Si Si7 0.571991 0.079947 0.718481
O O1 0.169219 0.250000 0.933457
O O2 0.018333 0.473088 0.792737
O O3 0.247707 0.517951 0.014281
O O4 0.273458 0.424587 0.911935
O O5 0.595354 0.250000 0.896965
O O6 0.503661 0.506114 0.873841
O O7 0.529693 0.448427 0.764987
O O8 0.137361 0.750000 0.271772
O O9 0.259054 0.980731 0.394568
O O10 0.124165 0.985609 0.193397
O O11 0.500000 0.500000 0.500000
O O12 0.433255 0.750000 0.507898
O O13 0.475905 0.522771 0.611197
O O14 0.093412 0.750000 0.098453
O O15 0.268150 0.536957 0.183917
O O16 0.000000 0.500000 0.000000
O O17 0.497180 0.250000 0.058184
O O18 0.500000 0.500000 0.000000
O O19 0.548651 0.250000 0.683244
#
# Coordination Sequence:
#
# PCOD8070086 Si02
#       7
#     4   4   4   4   4   4   4
#     4   8  16  29  47  69  95 124 154 188 232 285
#     4   9  17  29  47  70 100 127 152 189 234 281
#     4   9  17  32  48  63  90 125 160 200 239 277
#     4  11  21  34  51  66  88 126 171 212 245 280
#     4  10  19  30  45  64  91 123 158 197 239 279
#     4   9  17  29  49  73 100 128 153 185 231 290
#     4  10  20  34  47  65  96 128 161 203 242 277
#
# _framework density 15.446104999999999
#
# number of rings (size 3 to 8) (size 9 to 14) (size 15 to 20)
#    0.857    1.714    1.429    1.714    0.000    1.714 
#    0.000    1.429    0.000    0.000    0.000    1.000 
#    0.000    0.000    0.000    0.000    0.000    0.000 
#
# Total GULP energy -346895.045651 kJ/mol
# GULP energy per Si atom -12389.108773 kJ/mol
# Density = 1.541095 g / cm^3
# Si number density = 15.446105 Si / 1000 Ang^3
#
#
#
# Elastic Constant Matrix: (Units=GPa)
#
#
# Indices 1 2 3 4 5 6 
#
# 1 93.3791 42.2131 43.5666 0.0000 -10.7433 0.0000
# 2 42.2131 77.4386 46.8005 0.0000 -7.2764 0.0000
# 3 43.5666 46.8005 108.6426 0.0000 -7.6063 0.0000
# 4 0.0000 0.0000 0.0000 24.5510 0.0000 -4.2622
# 5 -10.7433 -7.2764 -7.6063 0.0000 15.4589 0.0000
# 6 0.0000 0.0000 0.0000 -4.2622 0.0000 23.2582
#
#
#
# Elastic Compliance Matrix: (Units=1/GPa)
#
#
# Indices 1 2 3 4 5 6 
#
# 1 0.015672 -0.005963 -0.003262 0.000000 0.006480 0.000000
# 2 -0.005963 0.020060 -0.006089 0.000000 0.002302 0.000000
# 3 -0.003262 -0.006089 0.013232 0.000000 0.001377 0.000000
# 4 0.000000 0.000000 0.000000 0.042070 0.000000 0.007709
# 5 0.006480 0.002302 0.001377 0.000000 0.070952 0.000000
# 6 0.000000 0.000000 0.000000 0.007709 0.000000 0.044408
#
#
# Mechanical properties :
#
#
# Convention : Reuss Voigt Hill
#
# Bulk Modulus (GPa) = 54.53735 60.51342 57.52539
# Shear Modulus (GPa) = 20.56469 22.44564 21.50516
#
# Velocity S-wave (km/s) = 3.65277 3.81617 3.73536
# Velocity P-wave (km/s) = 7.29213 7.66027 7.47846
#
# Compressibility (1/GPa) = 0.01833606
#
# Stress axis : x y z
#
# Youngs Moduli (GPa) = 63.80762 49.85011 75.57296
#
# Poissons Ratio (x) = 0.29724 0.24655
# Poissons Ratio (y) = 0.38046 0.46018
# Poissons Ratio (z) = 0.20817 0.30355
#
# Static dielectric constant tensor:
#      x y z
#    x 2.862510 0.000000 0.073470 
#    y 0.000000 2.916170 0.000000 
#    z 0.073470 0.000000 2.998550 
# 
# 
# High freq. dielectric constant tensor:
#      x y z
#    x 1.576570 0.000000 0.000310 
#    y 0.000000 1.591780 0.000000 
#    z 0.000310 0.000000 1.573010 
# 
# From -- ./inp_files/61307.got.cif
#   From: 2010.06.25/outbox.cif.g09.slc.cpg/sg11_31_cif.got.tgz:61307.got - 2010.06.27 23:14:04.
