data_PCOD8070887
_publ_section_title
;
Structure prediction by ZEFSAII (Michael W. Deem and Ramdas Pophale) SiO2 
 PCOD8070887
Probable space group: P 21/M
;
_chemical_formula_sum "Si O2"
_cell_formula_units_Z 28
_cell_length_a 12.508511
_cell_length_b 9.281628
_cell_length_c 13.950630
_cell_angle_alpha 90.000000
_cell_angle_beta 104.496242
_cell_angle_gamma 90.000000
_cell_volume 1568.095652
_symmetry_space_group_name_H-M "P 21/M"
_symmetry_group_IT_number 11
_symmetry_cell_setting 'monoclinic'
loop_
_space_group_symop_operation_xyz
x,y,z
-x,1/2+y,-z
-x,-y,-z
x,1/2-y,z
loop_
_atom_site_type_symbol
_atom_site_label
_atom_site_fract_x
_atom_site_fract_y
_atom_site_fract_z
Si Si1 0.834478 0.581717 0.288035
Si Si2 0.174658 0.084842 0.500500
Si Si3 0.743987 0.919189 0.763654
Si Si4 0.922523 0.419062 0.697814
Si Si5 0.395531 0.088508 0.446398
Si Si6 0.594945 0.917422 0.904801
Si Si7 0.377452 0.080317 0.870750
O O1 0.812679 0.750000 0.294552
O O2 0.843363 0.518561 0.397667
O O3 0.730908 0.516337 0.206351
O O4 0.947439 0.551754 0.255634
O O5 0.132005 0.250000 0.481640
O O6 0.305030 0.078491 0.509540
O O7 0.108748 0.986095 0.411582
O O8 0.770100 0.750000 0.757456
O O9 0.655680 0.970218 0.664332
O O10 0.695613 0.957810 0.856790
O O11 0.857254 0.006236 0.770920
O O12 0.895443 0.250000 0.689757
O O13 0.436962 0.250000 0.439900
O O14 0.500000 0.000000 0.500000
O O15 0.564899 0.750000 0.888729
O O16 0.485732 0.005310 0.851140
O O17 0.634787 0.958671 0.019965
O O18 0.390365 0.250000 0.858404
#
# Coordination Sequence:
#
# PCOD8070887 Si02
#       7
#     4   4   4   4   4   4   4
#     4   9  18  32  51  74 101 130 163 203 247 291
#     4   9  18  33  49  67  98 136 164 193 245 298
#     4   9  19  35  51  67  97 136 163 195 248 297
#     4  10  19  32  50  74  99 127 169 210 238 282
#     4   9  18  29  43  65  94 125 158 195 233 281
#     4   9  18  34  54  75 100 129 163 201 246 296
#     4   9  18  33  54  77 100 128 161 201 248 296
#
# _framework density 17.856054
#
# number of rings (size 3 to 8) (size 9 to 14) (size 15 to 20)
#    0.000    2.857    0.000    1.714    2.000    2.857 
#    0.000    3.571    0.000    0.000    0.000    0.000 
#    0.000    0.000    0.000    0.000    0.000    0.000 
#
# Total GULP energy -347157.728546 kJ/mol
# GULP energy per Si atom -12398.490305 kJ/mol
# Density = 1.781541 g / cm^3
# Si number density = 17.856054 Si / 1000 Ang^3
#
#
#
# Elastic Constant Matrix: (Units=GPa)
#
#
# Indices 1 2 3 4 5 6 
#
# 1 112.4771 43.3352 57.9672 0.0000 -4.0343 0.0000
# 2 43.3352 52.0460 28.3612 0.0000 1.4058 0.0000
# 3 57.9672 28.3612 70.9242 0.0000 -6.2242 0.0000
# 4 0.0000 0.0000 0.0000 19.7151 0.0000 -0.5400
# 5 -4.0343 1.4058 -6.2242 0.0000 31.2917 0.0000
# 6 0.0000 0.0000 0.0000 -0.5400 0.0000 28.3442
#
#
#
# Elastic Compliance Matrix: (Units=1/GPa)
#
#
# Indices 1 2 3 4 5 6 
#
# 1 0.018151 -0.009037 -0.011175 0.000000 0.000523 0.000000
# 2 -0.009037 0.029368 -0.004657 0.000000 -0.003411 0.000000
# 3 -0.011175 -0.004657 0.025431 0.000000 0.003827 0.000000
# 4 0.000000 0.000000 0.000000 0.050749 0.000000 0.000967
# 5 0.000523 -0.003411 0.003827 0.000000 0.032939 0.000000
# 6 0.000000 0.000000 0.000000 0.000967 0.000000 0.035299
#
#
# Mechanical properties :
#
#
# Convention : Reuss Voigt Hill
#
# Bulk Modulus (GPa) = 43.08169 54.97495 49.02832
# Shear Modulus (GPa) = 20.04710 22.92244 21.48477
#
# Velocity S-wave (km/s) = 3.35432 3.58681 3.47251
# Velocity P-wave (km/s) = 6.25951 6.92880 6.60264
#
# Compressibility (1/GPa) = 0.02321171
#
# Stress axis : x y z
#
# Youngs Moduli (GPa) = 55.09459 34.05018 39.32224
#
# Poissons Ratio (x) = 0.30773 0.43942
# Poissons Ratio (y) = 0.49792 0.18312
# Poissons Ratio (z) = 0.61567 0.15856
#
# Static dielectric constant tensor:
#      x y z
#    x 3.389630 0.000000 -0.105070 
#    y 0.000000 3.170650 0.000000 
#    z -0.105070 0.000000 3.333810 
# 
# 
# High freq. dielectric constant tensor:
#      x y z
#    x 1.696380 0.000000 -0.007240 
#    y 0.000000 1.673850 0.000000 
#    z -0.007240 0.000000 1.678140 
# 
# From -- ./inp_files/37198.got.cif
#   From: 2010.06.25/outbox.cif.g09.slc.cpg/sg11_19_cif.got.tgz:37198.got - 2010.06.27 23:14:04.
