data_PCOD8070243
_publ_section_title
;
Structure prediction by ZEFSAII (Michael W. Deem and Ramdas Pophale) SiO2 
 PCOD8070243
Probable space group: P 21/M
;
_chemical_formula_sum "Si O2"
_cell_formula_units_Z 28
_cell_length_a 14.029782
_cell_length_b 9.157984
_cell_length_c 12.322837
_cell_angle_alpha 90.000000
_cell_angle_beta 57.547049
_cell_angle_gamma 90.000000
_cell_volume 1336.034548
_symmetry_space_group_name_H-M "P 21/M"
_symmetry_group_IT_number 11
_symmetry_cell_setting 'monoclinic'
loop_
_space_group_symop_operation_xyz
x,y,z
-x,1/2+y,-z
-x,-y,-z
x,1/2-y,z
loop_
_atom_site_type_symbol
_atom_site_label
_atom_site_fract_x
_atom_site_fract_y
_atom_site_fract_z
Si Si1 0.393848 0.081588 0.338739
Si Si2 0.243580 0.918872 0.599753
Si Si3 0.640851 0.417319 0.249556
Si Si4 0.282039 0.414982 0.195729
Si Si5 0.014993 0.086978 0.793403
Si Si6 0.204840 0.077487 0.009760
Si Si7 0.082420 0.593465 0.382259
O O1 0.376806 0.250000 0.383214
O O2 0.515402 0.023119 0.302141
O O3 0.392534 0.068199 0.205706
O O4 0.294709 0.991752 0.459988
O O5 0.213683 0.750000 0.593683
O O6 0.337981 0.931008 0.635449
O O7 0.131626 0.999150 0.712593
O O8 0.654009 0.250000 0.201477
O O9 0.729982 0.517823 0.133384
O O10 0.236371 0.250000 0.226587
O O11 0.200890 0.516146 0.313477
O O12 0.282902 0.462904 0.068599
O O13 0.034149 0.250000 0.833698
O O14 0.964435 0.111649 0.707642
O O15 0.919853 0.995032 0.916551
O O16 0.188358 0.250000 0.009410
O O17 0.096704 0.750000 0.430276
O O18 0.000000 0.500000 0.500000
#
# Coordination Sequence:
#
# PCOD8070243 Si02
#       7
#     4   4   4   4   4   4   4
#     4  10  21  39  61  84 114 152 190 230 282 339
#     4  11  23  38  58  86 116 147 190 240 284 329
#     4  10  23  41  59  81 114 154 192 234 282 333
#     4   9  19  35  55  81 112 144 181 228 278 330
#     4  10  21  37  57  81 112 150 188 228 281 342
#     4  10  21  38  60  87 116 147 188 234 280 334
#     4  10  19  30  48  76 109 145 182 223 275 334
#
# _framework density 20.957542
#
# number of rings (size 3 to 8) (size 9 to 14) (size 15 to 20)
#    0.000    2.000    0.000    3.000    0.000    9.143 
#    0.000    0.000    0.000    0.000    0.000    0.000 
#    0.000    0.000    0.000    0.000    0.000    0.000 
#
# Total GULP energy -346943.325770 kJ/mol
# GULP energy per Si atom -12390.833063 kJ/mol
# Density = 2.090984 g / cm^3
# Si number density = 20.957542 Si / 1000 Ang^3
#
#
#
# Elastic Constant Matrix: (Units=GPa)
#
#
# Indices 1 2 3 4 5 6 
#
# 1 78.5060 5.9832 1.0038 0.0000 -4.1386 0.0000
# 2 5.9832 83.9594 20.6588 0.0000 -15.3252 0.0000
# 3 1.0038 20.6588 64.5583 0.0000 -8.0583 0.0000
# 4 0.0000 0.0000 0.0000 22.0717 0.0000 0.4127
# 5 -4.1386 -15.3252 -8.0583 0.0000 29.0476 0.0000
# 6 0.0000 0.0000 0.0000 0.4127 0.0000 25.0589
#
#
#
# Elastic Compliance Matrix: (Units=1/GPa)
#
#
# Indices 1 2 3 4 5 6 
#
# 1 0.012868 -0.000690 0.000212 0.000000 0.001528 0.000000
# 2 -0.000690 0.014012 -0.003691 0.000000 0.006271 0.000000
# 3 0.000212 -0.003691 0.017018 0.000000 0.002804 0.000000
# 4 0.000000 0.000000 0.000000 0.045321 0.000000 -0.000746
# 5 0.001528 0.006271 0.002804 0.000000 0.038730 0.000000
# 6 0.000000 0.000000 0.000000 -0.000746 0.000000 0.039918
#
#
# Mechanical properties :
#
#
# Convention : Reuss Voigt Hill
#
# Bulk Modulus (GPa) = 28.12162 31.36837 29.74500
# Shear Modulus (GPa) = 26.58736 28.52749 27.55742
#
# Velocity S-wave (km/s) = 3.56565 3.69345 3.63011
# Velocity P-wave (km/s) = 5.51356 5.76098 5.63862
#
# Compressibility (1/GPa) = 0.03555982
#
# Stress axis : x y z
#
# Youngs Moduli (GPa) = 77.71021 71.36549 58.76272
#
# Poissons Ratio (x) = 0.04925 -0.01243
# Poissons Ratio (y) = 0.05363 0.21687
# Poissons Ratio (z) = -0.01644 0.26338
#
# Static dielectric constant tensor:
#      x y z
#    x 3.942620 0.000000 0.149060 
#    y 0.000000 4.240980 0.000000 
#    z 0.149060 0.000000 3.455240 
# 
# 
# High freq. dielectric constant tensor:
#      x y z
#    x 1.827200 0.000000 0.013810 
#    y 0.000000 1.829970 0.000000 
#    z 0.013810 0.000000 1.805530 
# 
# From -- ./inp_files/37909.got.cif
#   From: 2010.06.25/outbox.cif.g09.slc.cpg/sg11_19_cif.got.tgz:37909.got - 2010.06.27 23:14:04.
