data_PCOD8070315
_publ_section_title
;
Structure prediction by ZEFSAII (Michael W. Deem and Ramdas Pophale) SiO2 
 PCOD8070315
Probable space group: P 21/M
;
_chemical_formula_sum "Si O2"
_cell_formula_units_Z 28
_cell_length_a 21.846449
_cell_length_b 8.986532
_cell_length_c 14.901419
_cell_angle_alpha 90.000000
_cell_angle_beta 146.793022
_cell_angle_gamma 90.000000
_cell_volume 1602.196193
_symmetry_space_group_name_H-M "P 21/M"
_symmetry_group_IT_number 11
_symmetry_cell_setting 'monoclinic'
loop_
_space_group_symop_operation_xyz
x,y,z
-x,1/2+y,-z
-x,-y,-z
x,1/2-y,z
loop_
_atom_site_type_symbol
_atom_site_label
_atom_site_fract_x
_atom_site_fract_y
_atom_site_fract_z
Si Si1 0.187223 0.079924 0.901819
Si Si2 0.420014 0.076751 0.527810
Si Si3 0.634398 0.576807 0.034557
Si Si4 0.981925 0.925944 0.573703
Si Si5 0.394319 0.921804 0.672964
Si Si6 0.245021 0.923338 0.658594
Si Si7 0.359883 0.421750 0.258743
O O1 0.145059 0.250000 0.843959
O O2 0.277882 0.047770 0.936677
O O3 0.241790 0.046610 0.065835
O O4 0.082858 0.970221 0.763205
O O5 0.425663 0.250000 0.551932
O O6 0.349881 0.037627 0.351740
O O7 0.359195 0.003918 0.538352
O O8 0.545919 0.018501 0.673633
O O9 0.631239 0.750000 0.058400
O O10 0.667718 0.478562 0.160372
O O11 0.513166 0.518956 0.855171
O O12 0.976556 0.750000 0.554753
O O13 0.867662 0.982194 0.476646
O O14 0.000000 0.000000 0.500000
O O15 0.407183 0.750000 0.665336
O O16 0.297704 0.951709 0.626049
O O17 0.219171 0.750000 0.643440
O O18 0.394867 0.250000 0.288550
#
# Coordination Sequence:
#
# PCOD8070315 Si02
#       7
#     4   4   4   4   4   4   4
#     4  10  19  34  57  79 107 141 175 216 265 314
#     4  10  19  30  52  82 109 140 177 216 259 313
#     4  10  19  33  54  78 108 145 176 212 263 310
#     4  12  24  38  56  77 105 138 179 225 265 308
#     4  10  21  37  54  76 110 148 177 212 265 320
#     4  11  23  37  55  77 105 143 184 219 261 315
#     4   9  18  34  53  77 110 143 173 214 268 316
#
# _framework density 17.476012000000001
#
# number of rings (size 3 to 8) (size 9 to 14) (size 15 to 20)
#    0.000    1.714    2.857    2.571    0.000    2.857 
#    0.000    0.000    0.000    0.857    0.000    0.000 
#    0.000    0.000    0.000    0.000    0.000    0.000 
#
# Total GULP energy -347287.006449 kJ/mol
# GULP energy per Si atom -12403.107373 kJ/mol
# Density = 1.743624 g / cm^3
# Si number density = 17.476012 Si / 1000 Ang^3
#
#
#
# Elastic Constant Matrix: (Units=GPa)
#
#
# Indices 1 2 3 4 5 6 
#
# 1 100.1941 57.5218 54.1587 0.0000 -11.0435 0.0000
# 2 57.5218 94.5421 50.0354 0.0000 -6.4085 0.0000
# 3 54.1587 50.0354 98.9059 0.0000 -10.7984 0.0000
# 4 0.0000 0.0000 0.0000 29.6165 0.0000 -2.1899
# 5 -11.0435 -6.4085 -10.7984 0.0000 27.9008 0.0000
# 6 0.0000 0.0000 0.0000 -2.1899 0.0000 28.4734
#
#
#
# Elastic Compliance Matrix: (Units=1/GPa)
#
#
# Indices 1 2 3 4 5 6 
#
# 1 0.017669 -0.007645 -0.005466 0.000000 0.003122 0.000000
# 2 -0.007645 0.017760 -0.004890 0.000000 -0.000839 0.000000
# 3 -0.005466 -0.004890 0.015890 0.000000 0.002863 0.000000
# 4 0.000000 0.000000 0.000000 0.033958 0.000000 0.002612
# 5 0.003122 -0.000839 0.002863 0.000000 0.037992 0.000000
# 6 0.000000 0.000000 0.000000 0.002612 0.000000 0.035321
#
#
# Mechanical properties :
#
#
# Convention : Reuss Voigt Hill
#
# Bulk Modulus (GPa) = 65.29268 68.56377 66.92823
# Shear Modulus (GPa) = 25.03765 25.99321 25.51543
#
# Velocity S-wave (km/s) = 3.78919 3.86082 3.82517
# Velocity P-wave (km/s) = 7.52239 7.69369 7.60852
#
# Compressibility (1/GPa) = 0.01531565
#
# Stress axis : x y z
#
# Youngs Moduli (GPa) = 56.59673 56.30653 62.93190
#
# Poissons Ratio (x) = 0.43049 0.34402
# Poissons Ratio (y) = 0.43271 0.30772
# Poissons Ratio (z) = 0.30938 0.27532
#
# Static dielectric constant tensor:
#      x y z
#    x 3.217370 0.000000 -0.163160 
#    y 0.000000 3.298750 0.000000 
#    z -0.163160 0.000000 3.367580 
# 
# 
# High freq. dielectric constant tensor:
#      x y z
#    x 1.664170 0.000000 -0.012470 
#    y 0.000000 1.679750 0.000000 
#    z -0.012470 0.000000 1.669820 
# 
# From -- ./inp_files/51572.got.cif
#   From: 2010.06.25/outbox.cif.g09.slc.cpg/sg11_26_cif.got.tgz:51572.got - 2010.06.27 23:14:04.
