data_PCOD8070617
_publ_section_title
;
Structure prediction by ZEFSAII (Michael W. Deem and Ramdas Pophale) SiO2 
 PCOD8070617
Probable space group: P 21/M
;
_chemical_formula_sum "Si O2"
_cell_formula_units_Z 32
_cell_length_a 5.113071
_cell_length_b 12.682372
_cell_length_c 28.587001
_cell_angle_alpha 90.000000
_cell_angle_beta 104.591437
_cell_angle_gamma 90.000000
_cell_volume 1793.959632
_symmetry_space_group_name_H-M "P 21/M"
_symmetry_group_IT_number 11
_symmetry_cell_setting 'monoclinic'
loop_
_space_group_symop_operation_xyz
x,y,z
-x,1/2+y,-z
-x,-y,-z
x,1/2-y,z
loop_
_atom_site_type_symbol
_atom_site_label
_atom_site_fract_x
_atom_site_fract_y
_atom_site_fract_z
Si Si1 0.785663 0.046526 0.822195
Si Si2 0.656534 0.631603 0.133019
Si Si3 0.432122 0.536453 0.945302
Si Si4 0.383902 0.871191 0.279207
Si Si5 0.827517 0.994139 0.563164
Si Si6 0.712937 0.124520 0.468086
Si Si7 0.028979 0.129351 0.657828
Si Si8 0.872969 0.629194 0.898841
O O1 0.613143 0.120232 0.848794
O O2 0.641846 0.046883 0.765142
O O3 0.082650 0.093403 0.826258
O O4 0.806631 0.931590 0.847250
O O5 0.695064 0.750000 0.119220
O O6 0.644209 0.570083 0.084238
O O7 0.177308 0.614425 0.930860
O O8 0.684819 0.593259 0.932927
O O9 0.500000 0.500000 0.000000
O O10 0.383349 0.750000 0.260654
O O11 0.658610 0.895623 0.318869
O O12 0.135440 0.891278 0.302416
O O13 0.559687 0.928634 0.563242
O O14 0.045481 0.910540 0.554690
O O15 0.769931 0.086070 0.523242
O O16 0.929096 0.049889 0.614176
O O17 0.686297 0.250000 0.466720
O O18 0.989644 0.250000 0.639047
O O19 0.819832 0.750000 0.884375
#
# Coordination Sequence:
#
# PCOD8070617 Si02
#       8
#     4   4   4   4   4   4   4   4
#     4  10  20  34  52  76 103 129 170 213 246 303
#     4  10  19  31  50  74 102 133 161 202 254 298
#     4  10  21  36  52  78 106 131 170 208 248 302
#     4  10  19  31  51  76 104 137 165 205 265 314
#     4  10  20  34  53  77 106 138 173 215 258 304
#     4  10  20  34  54  77 102 139 180 215 253 299
#     4  10  20  33  51  78 108 135 166 207 261 317
#     4  10  21  37  57  76 101 140 176 211 250 291
#
# _framework density 17.837637000000001
#
# number of rings (size 3 to 8) (size 9 to 14) (size 15 to 20)
#    0.000    2.000    0.000    4.125    0.000    2.000 
#    0.000    3.750    0.000    4.500    0.000    0.000 
#    0.000    0.000    0.000    0.000    0.000    0.000 
#
# Total GULP energy -396844.380315 kJ/mol
# GULP energy per Si atom -12401.386885 kJ/mol
# Density = 1.779704 g / cm^3
# Si number density = 17.837637 Si / 1000 Ang^3
#
#
#
# Elastic Constant Matrix: (Units=GPa)
#
#
# Indices 1 2 3 4 5 6 
#
# 1 60.0788 4.7348 1.4007 0.0000 5.4285 0.0000
# 2 4.7348 100.8010 34.0525 0.0000 5.4495 0.0000
# 3 1.4007 34.0525 81.4475 0.0000 12.0196 0.0000
# 4 0.0000 0.0000 0.0000 16.0193 0.0000 3.1732
# 5 5.4285 5.4495 12.0196 0.0000 17.1795 0.0000
# 6 0.0000 0.0000 0.0000 3.1732 0.0000 15.0012
#
#
#
# Elastic Compliance Matrix: (Units=1/GPa)
#
#
# Indices 1 2 3 4 5 6 
#
# 1 0.017212 -0.000797 0.000895 0.000000 -0.005812 0.000000
# 2 -0.000797 0.011591 -0.004825 0.000000 -0.000049 0.000000
# 3 0.000895 -0.004825 0.015719 0.000000 -0.009750 0.000000
# 4 0.000000 0.000000 0.000000 0.065155 0.000000 -0.013782
# 5 -0.005812 -0.000049 -0.009750 0.000000 0.066882 0.000000
# 6 0.000000 0.000000 0.000000 -0.013782 0.000000 0.069577
#
#
# Mechanical properties :
#
#
# Convention : Reuss Voigt Hill
#
# Bulk Modulus (GPa) = 28.51639 35.85590 32.18615
# Shear Modulus (GPa) = 18.70714 23.11595 20.91155
#
# Velocity S-wave (km/s) = 3.24195 3.60378 3.42764
# Velocity P-wave (km/s) = 5.48042 6.12056 5.80931
#
# Compressibility (1/GPa) = 0.03506755
#
# Stress axis : x y z
#
# Youngs Moduli (GPa) = 58.09939 86.27700 63.61909
#
# Poissons Ratio (x) = 0.06872 -0.05692
# Poissons Ratio (y) = 0.04628 0.30696
# Poissons Ratio (z) = -0.05198 0.41628
#
# Static dielectric constant tensor:
#      x y z
#    x 3.660890 0.000000 0.087920 
#    y 0.000000 3.210310 0.000000 
#    z 0.087920 0.000000 3.163300 
# 
# 
# High freq. dielectric constant tensor:
#      x y z
#    x 1.715690 0.000000 0.002390 
#    y 0.000000 1.676580 0.000000 
#    z 0.002390 0.000000 1.680870 
# 
# From -- ./inp_files/67642.got.cif
#   From: 2010.06.25/outbox.cif.g09.slc.cpg/sg11_34_cif.got.tgz:67642.got - 2010.06.27 23:14:04.
