data_PCOD8070770
_publ_section_title
;
Structure prediction by ZEFSAII (Michael W. Deem and Ramdas Pophale) SiO2 
 PCOD8070770
Probable space group: P 21/M
;
_chemical_formula_sum "Si O2"
_cell_formula_units_Z 20
_cell_length_a 9.021424
_cell_length_b 17.833746
_cell_length_c 9.811300
_cell_angle_alpha 90.000000
_cell_angle_beta 134.953190
_cell_angle_gamma 90.000000
_cell_volume 1117.078654
_symmetry_space_group_name_H-M "P 21/M"
_symmetry_group_IT_number 11
_symmetry_cell_setting 'monoclinic'
loop_
_space_group_symop_operation_xyz
x,y,z
-x,1/2+y,-z
-x,-y,-z
x,1/2-y,z
loop_
_atom_site_type_symbol
_atom_site_label
_atom_site_fract_x
_atom_site_fract_y
_atom_site_fract_z
Si Si1 0.472564 0.422586 0.560209
Si Si2 0.232625 0.162407 0.190987
Si Si3 0.136522 0.935142 0.023434
Si Si4 0.642142 0.560292 0.974646
Si Si5 0.241945 0.023632 0.666933
O O1 0.500000 0.500000 0.500000
O O2 0.412885 0.357438 0.415798
O O3 0.697418 0.399308 0.764446
O O4 0.298754 0.432329 0.565316
O O5 0.222813 0.250000 0.159091
O O6 0.269692 0.123285 0.068958
O O7 0.016366 0.132569 0.118636
O O8 0.260402 0.976141 0.982452
O O9 0.000000 0.000000 0.000000
O O10 0.392583 0.549780 0.785539
O O11 0.710354 0.579795 0.173828
O O12 0.000000 0.000000 0.500000
#
# Coordination Sequence:
#
# PCOD8070770 Si02
#       5
#     4   4   4   4   4
#     4  11  19  35  57  86 111 141 185 236 271 330
#     4  11  22  35  55  84 116 148 184 234 289 334
#     4   9  17  32  57  78 107 142 185 225 269 328
#     4   9  19  34  53  83 108 142 190 229 270 332
#     4  10  19  31  58  84 106 138 187 230 273 320
#
# _framework density 17.903842999999998
#
# number of rings (size 3 to 8) (size 9 to 14) (size 15 to 20)
#    0.000    2.000    6.000    1.200    2.800    0.800 
#    0.000    1.000    0.000   15.600    0.000    0.000 
#    0.000    0.000    0.000    0.000    0.000    0.000 
#
# Total GULP energy -247799.840299 kJ/mol
# GULP energy per Si atom -12389.992015 kJ/mol
# Density = 1.786309 g / cm^3
# Si number density = 17.903843 Si / 1000 Ang^3
#
#
#
# Elastic Constant Matrix: (Units=GPa)
#
#
# Indices 1 2 3 4 5 6 
#
# 1 92.3958 35.3403 45.1766 0.0000 2.1955 0.0000
# 2 35.3403 101.8403 36.4787 0.0000 -2.3445 0.0000
# 3 45.1766 36.4787 94.7704 0.0000 2.7267 0.0000
# 4 0.0000 0.0000 0.0000 21.5881 0.0000 -0.2990
# 5 2.1955 -2.3445 2.7267 0.0000 46.1123 0.0000
# 6 0.0000 0.0000 0.0000 -0.2990 0.0000 16.1537
#
#
#
# Elastic Compliance Matrix: (Units=1/GPa)
#
#
# Indices 1 2 3 4 5 6 
#
# 1 0.014895 -0.003065 -0.005906 0.000000 -0.000516 0.000000
# 2 -0.003065 0.012053 -0.003205 0.000000 0.000948 0.000000
# 3 -0.005906 -0.003205 0.014622 0.000000 -0.000746 0.000000
# 4 0.000000 0.000000 0.000000 0.046334 0.000000 0.000858
# 5 -0.000516 0.000948 -0.000746 0.000000 0.021803 0.000000
# 6 0.000000 0.000000 0.000000 0.000858 0.000000 0.061921
#
#
# Mechanical properties :
#
#
# Convention : Reuss Voigt Hill
#
# Bulk Modulus (GPa) = 58.08031 58.11086 58.09559
# Shear Modulus (GPa) = 24.78669 28.23822 26.51245
#
# Velocity S-wave (km/s) = 3.72483 3.97573 3.85232
# Velocity P-wave (km/s) = 7.14211 7.32140 7.23231
#
# Compressibility (1/GPa) = 0.01721754
#
# Stress axis : x y z
#
# Youngs Moduli (GPa) = 67.13509 82.96667 68.38830
#
# Poissons Ratio (x) = 0.25432 0.40389
# Poissons Ratio (y) = 0.20579 0.21922
# Poissons Ratio (z) = 0.39649 0.26595
#
# Static dielectric constant tensor:
#      x y z
#    x 4.021410 0.000000 0.480940 
#    y 0.000000 2.916400 0.000000 
#    z 0.480940 0.000000 4.386880 
# 
# 
# High freq. dielectric constant tensor:
#      x y z
#    x 1.706820 0.000000 0.004410 
#    y 0.000000 1.628590 0.000000 
#    z 0.004410 0.000000 1.712970 
# 
# From -- ./inp_files/13624.got.cif
#   From: 2010.06.25/outbox.cif.g09.slc.cpg/sg11_7_cif.got.tgz:13624.got - 2010.06.27 23:14:04.
