data_PCOD8070391
_publ_section_title
;
Structure prediction by ZEFSAII (Michael W. Deem and Ramdas Pophale) SiO2 
 PCOD8070391
Probable space group: P 21/M
;
_chemical_formula_sum "Si O2"
_cell_formula_units_Z 32
_cell_length_a 33.060199
_cell_length_b 9.312237
_cell_length_c 11.693769
_cell_angle_alpha 90.000000
_cell_angle_beta 29.770679
_cell_angle_gamma 90.000000
_cell_volume 1787.554654
_symmetry_space_group_name_H-M "P 21/M"
_symmetry_group_IT_number 11
_symmetry_cell_setting 'monoclinic'
loop_
_space_group_symop_operation_xyz
x,y,z
-x,1/2+y,-z
-x,-y,-z
x,1/2-y,z
loop_
_atom_site_type_symbol
_atom_site_label
_atom_site_fract_x
_atom_site_fract_y
_atom_site_fract_z
Si Si1 0.679470 0.080101 0.473609
Si Si2 0.526834 0.583429 0.822660
Si Si3 0.774440 0.581199 0.636449
Si Si4 0.818707 0.584777 0.010120
Si Si5 0.021617 0.412997 0.256193
Si Si6 0.144042 0.083448 0.332687
Si Si7 0.647670 0.412807 0.814094
Si Si8 0.928531 0.585264 0.117223
O O1 0.670786 0.250000 0.475356
O O2 0.672612 0.039266 0.624299
O O3 0.608014 0.996844 0.578050
O O4 0.764643 0.024308 0.215674
O O5 0.546317 0.750000 0.802171
O O6 0.500000 0.500000 0.000000
O O7 0.449908 0.572554 0.925424
O O8 0.759344 0.750000 0.674212
O O9 0.801900 0.525226 0.694418
O O10 0.690274 0.508540 0.805848
O O11 0.842278 0.532968 0.378174
O O12 0.797159 0.750000 0.095043
O O13 0.913937 0.553668 0.801770
O O14 0.806015 0.555537 0.906423
O O15 0.990155 0.250000 0.339270
O O16 0.943728 0.511745 0.456841
O O17 0.071305 0.441847 0.017885
O O18 0.125739 0.250000 0.396194
O O19 0.676085 0.250000 0.762706
O O20 0.942279 0.750000 0.116478
O O21 0.000000 0.500000 0.000000
#
# Coordination Sequence:
#
# PCOD8070391 Si02
#       8
#     4   4   4   4   4   4   4   4
#     4  10  20  34  53  80 108 134 168 207 255 308
#     4   9  17  31  52  79 110 138 165 201 250 306
#     4  10  20  33  50  73 102 136 173 209 251 304
#     4  10  21  36  53  73 100 134 173 217 260 302
#     4  10  20  33  51  74  98 131 174 215 260 311
#     4  10  21  36  52  71  98 136 177 215 258 303
#     4   9  19  33  51  79 108 133 163 200 248 303
#     4  10  19  31  47  69  97 129 165 204 251 301
#
# _framework density 17.901551000000001
#
# number of rings (size 3 to 8) (size 9 to 14) (size 15 to 20)
#    0.000    2.250    1.250    2.625    0.000    6.000 
#    0.000    0.000    0.000    0.750    0.000    0.000 
#    0.000    0.000    0.000    0.000    0.000    0.000 
#
# Total GULP energy -396744.491984 kJ/mol
# GULP energy per Si atom -12398.265375 kJ/mol
# Density = 1.786081 g / cm^3
# Si number density = 17.901551 Si / 1000 Ang^3
#
#
#
# Elastic Constant Matrix: (Units=GPa)
#
#
# Indices 1 2 3 4 5 6 
#
# 1 94.5843 42.4973 39.9459 0.0000 -8.9108 0.0000
# 2 42.4973 76.0806 38.4206 0.0000 -11.7777 0.0000
# 3 39.9459 38.4206 58.4745 0.0000 -15.6716 0.0000
# 4 0.0000 0.0000 0.0000 32.7024 0.0000 -8.0191
# 5 -8.9108 -11.7777 -15.6716 0.0000 24.6235 0.0000
# 6 0.0000 0.0000 0.0000 -8.0191 0.0000 26.8903
#
#
#
# Elastic Compliance Matrix: (Units=1/GPa)
#
#
# Indices 1 2 3 4 5 6 
#
# 1 0.016169 -0.005221 -0.008097 0.000000 -0.001800 0.000000
# 2 -0.005221 0.021398 -0.009954 0.000000 0.002010 0.000000
# 3 -0.008097 -0.009954 0.032688 0.000000 0.013113 0.000000
# 4 0.000000 0.000000 0.000000 0.032991 0.000000 0.009839
# 5 -0.001800 0.002010 0.013113 0.000000 0.049267 0.000000
# 6 0.000000 0.000000 0.000000 0.009839 0.000000 0.040122
#
#
# Mechanical properties :
#
#
# Convention : Reuss Voigt Hill
#
# Bulk Modulus (GPa) = 42.17702 52.31854 47.24778
# Shear Modulus (GPa) = 20.23604 24.06161 22.14882
#
# Velocity S-wave (km/s) = 3.36580 3.67018 3.52128
# Velocity P-wave (km/s) = 6.22226 6.87383 6.55614
#
# Compressibility (1/GPa) = 0.02370959
#
# Stress axis : x y z
#
# Youngs Moduli (GPa) = 61.84847 46.73230 30.59257
#
# Poissons Ratio (x) = 0.24399 0.24771
# Poissons Ratio (y) = 0.32291 0.30453
# Poissons Ratio (z) = 0.50079 0.46519
#
# Static dielectric constant tensor:
#      x y z
#    x 3.417210 0.000000 -0.213080 
#    y 0.000000 3.352990 0.000000 
#    z -0.213080 0.000000 3.383060 
# 
# 
# High freq. dielectric constant tensor:
#      x y z
#    x 1.683510 0.000000 -0.013360 
#    y 0.000000 1.694580 0.000000 
#    z -0.013360 0.000000 1.679110 
# 
# From -- ./inp_files/45220.got.cif
#   From: 2010.06.25/outbox.cif.g09.slc.cpg/sg11_23_cif.got.tgz:45220.got - 2010.06.27 23:14:04.
