data_PCOD8070967
_publ_section_title
;
Structure prediction by ZEFSAII (Michael W. Deem and Ramdas Pophale) SiO2 
 PCOD8070967
Probable space group: P 21/M
;
_chemical_formula_sum "Si O2"
_cell_formula_units_Z 28
_cell_length_a 6.531710
_cell_length_b 13.951517
_cell_length_c 18.989041
_cell_angle_alpha 90.000000
_cell_angle_beta 54.953726
_cell_angle_gamma 90.000000
_cell_volume 1416.674475
_symmetry_space_group_name_H-M "P 21/M"
_symmetry_group_IT_number 11
_symmetry_cell_setting 'monoclinic'
loop_
_space_group_symop_operation_xyz
x,y,z
-x,1/2+y,-z
-x,-y,-z
x,1/2-y,z
loop_
_atom_site_type_symbol
_atom_site_label
_atom_site_fract_x
_atom_site_fract_y
_atom_site_fract_z
Si Si1 0.761817 0.473132 0.678064
Si Si2 0.095464 0.969585 0.056995
Si Si3 0.889740 0.354645 0.523475
Si Si4 0.276833 0.944537 0.580288
Si Si5 0.582111 0.641735 0.635904
Si Si6 0.416518 0.139908 0.005789
Si Si7 0.612466 0.639292 0.155963
O O1 0.754040 0.429945 0.600623
O O2 0.622209 0.575604 0.697423
O O3 0.631801 0.404870 0.759872
O O4 0.049090 0.483998 0.644801
O O5 0.322886 0.892749 0.010086
O O6 0.855586 0.917134 0.138944
O O7 0.195528 0.067112 0.076155
O O8 0.000000 0.000000 0.000000
O O9 0.812718 0.250000 0.565977
O O10 0.809989 0.365073 0.458298
O O11 0.189079 0.367421 0.464918
O O12 0.340910 0.891997 0.640356
O O13 0.500000 0.000000 0.500000
O O14 0.547411 0.750000 0.670207
O O15 0.357928 0.250000 0.039213
O O16 0.430200 0.128851 0.918881
O O17 0.641647 0.750000 0.171578
#
# Coordination Sequence:
#
# PCOD8070967 Si02
#       7
#     4   4   4   4   4   4   4
#     4  11  21  34  53  77 110 142 181 227 278 333
#     4   9  18  35  60  85 114 150 184 217 264 321
#     4  10  19  32  51  76 101 133 179 229 279 331
#     4  11  18  34  52  72 100 140 189 237 280 321
#     4  10  20  35  54  71  97 139 189 238 280 323
#     4   9  18  35  60  89 117 147 186 222 262 322
#     4  10  21  36  55  84 120 150 174 217 281 337
#
# _framework density 19.764596999999998
#
# number of rings (size 3 to 8) (size 9 to 14) (size 15 to 20)
#    0.000    2.000    2.857    2.143    0.000    2.286 
#    0.000    0.714    0.000    4.286    0.000    0.000 
#    0.000    0.000    0.000    0.000    0.000    0.000 
#
# Total GULP energy -347032.878899 kJ/mol
# GULP energy per Si atom -12394.031389 kJ/mol
# Density = 1.971961 g / cm^3
# Si number density = 19.764597 Si / 1000 Ang^3
#
#
#
# Elastic Constant Matrix: (Units=GPa)
#
#
# Indices 1 2 3 4 5 6 
#
# 1 114.8823 50.7416 23.7772 0.0000 -19.1138 0.0000
# 2 50.7416 155.8122 37.7393 0.0000 -17.0897 0.0000
# 3 23.7772 37.7393 49.2723 0.0000 -15.6661 0.0000
# 4 0.0000 0.0000 0.0000 28.9853 0.0000 -2.3943
# 5 -19.1138 -17.0897 -15.6661 0.0000 22.9315 0.0000
# 6 0.0000 0.0000 0.0000 -2.3943 0.0000 29.7828
#
#
#
# Elastic Compliance Matrix: (Units=1/GPa)
#
#
# Indices 1 2 3 4 5 6 
#
# 1 0.011217 -0.002615 -0.001350 0.000000 0.006478 0.000000
# 2 -0.002615 0.008580 -0.005071 0.000000 0.000750 0.000000
# 3 -0.001350 -0.005071 0.029729 0.000000 0.015405 0.000000
# 4 0.000000 0.000000 0.000000 0.034731 0.000000 0.002792
# 5 0.006478 0.000750 0.015405 0.000000 0.060091 0.000000
# 6 0.000000 0.000000 0.000000 0.002792 0.000000 0.033801
#
#
# Mechanical properties :
#
#
# Convention : Reuss Voigt Hill
#
# Bulk Modulus (GPa) = 31.79350 60.49810 46.14580
# Shear Modulus (GPa) = 24.18879 30.18717 27.18798
#
# Velocity S-wave (km/s) = 3.50214 3.91235 3.71292
# Velocity P-wave (km/s) = 5.69863 7.14734 6.46370
#
# Compressibility (1/GPa) = 0.03145297
#
# Stress axis : x y z
#
# Youngs Moduli (GPa) = 89.15074 116.54603 33.63686
#
# Poissons Ratio (x) = 0.30481 0.04541
# Poissons Ratio (y) = 0.23316 0.17059
# Poissons Ratio (z) = 0.12035 0.59105
#
# Static dielectric constant tensor:
#      x y z
#    x 3.975370 0.000000 -0.178420 
#    y 0.000000 3.923150 0.000000 
#    z -0.178420 0.000000 3.107800 
# 
# 
# High freq. dielectric constant tensor:
#      x y z
#    x 1.781530 0.000000 -0.008780 
#    y 0.000000 1.787170 0.000000 
#    z -0.008780 0.000000 1.715630 
# 
# From -- ./inp_files/7876.got.cif
#   From: 2010.06.25/outbox.cif.g09.slc.cpg/sg11_4_cif.got.tgz:7876.got - 2010.06.27 23:14:04.
