data_PCOD8070578
_publ_section_title
;
Structure prediction by ZEFSAII (Michael W. Deem and Ramdas Pophale) SiO2 
 PCOD8070578
Probable space group: P 21/M
;
_chemical_formula_sum "Si O2"
_cell_formula_units_Z 28
_cell_length_a 11.500957
_cell_length_b 14.150577
_cell_length_c 11.379055
_cell_angle_alpha 90.000000
_cell_angle_beta 119.170932
_cell_angle_gamma 90.000000
_cell_volume 1617.010606
_symmetry_space_group_name_H-M "P 21/M"
_symmetry_group_IT_number 11
_symmetry_cell_setting 'monoclinic'
loop_
_space_group_symop_operation_xyz
x,y,z
-x,1/2+y,-z
-x,-y,-z
x,1/2-y,z
loop_
_atom_site_type_symbol
_atom_site_label
_atom_site_fract_x
_atom_site_fract_y
_atom_site_fract_z
Si Si1 0.737373 0.358352 0.603379
Si Si2 0.607725 0.354242 0.760702
Si Si3 0.048087 0.641920 0.464222
Si Si4 0.503879 0.860519 0.667726
Si Si5 0.338146 0.144138 0.480183
Si Si6 0.794943 0.965319 0.391193
Si Si7 0.515777 0.505353 0.145391
O O1 0.687990 0.250000 0.590776
O O2 0.717845 0.399732 0.725268
O O3 0.890005 0.365952 0.637063
O O4 0.635664 0.401872 0.455146
O O5 0.648150 0.250000 0.823678
O O6 0.470480 0.354891 0.622062
O O7 0.592202 0.416832 0.868439
O O8 0.065464 0.750000 0.519503
O O9 0.134114 0.567788 0.583945
O O10 0.894369 0.613080 0.385316
O O11 0.496876 0.750000 0.690463
O O12 0.623322 0.884969 0.634816
O O13 0.523307 0.910435 0.802985
O O14 0.275116 0.250000 0.449674
O O15 0.235792 0.068441 0.488354
O O16 0.666063 0.962888 0.246215
O O17 0.500000 0.500000 0.000000
#
# Coordination Sequence:
#
# PCOD8070578 Si02
#       7
#     4   4   4   4   4   4   4
#     4   8  14  27  49  73  93 117 155 203 252 290
#     4   8  16  29  46  70  96 123 159 204 249 286
#     4  10  19  31  49  75 101 127 158 202 253 299
#     4   9  17  30  48  71  98 126 159 202 249 292
#     4   8  15  28  48  73  99 124 153 200 256 299
#     4  10  20  31  49  74 103 130 160 198 249 290
#     4  11  22  32  47  70 102 137 169 193 232 292
#
# _framework density 17.315904
#
# number of rings (size 3 to 8) (size 9 to 14) (size 15 to 20)
#    0.000    2.857    1.429    2.143    2.000    2.857 
#    0.000    0.000    0.000    0.857    0.000    0.000 
#    0.000    0.000    0.000    0.000    0.000    0.000 
#
# Total GULP energy -346881.837492 kJ/mol
# GULP energy per Si atom -12388.637053 kJ/mol
# Density = 1.727649 g / cm^3
# Si number density = 17.315904 Si / 1000 Ang^3
#
#
#
# Elastic Constant Matrix: (Units=GPa)
#
#
# Indices 1 2 3 4 5 6 
#
# 1 114.0398 50.2412 47.7553 0.0000 -21.2975 0.0000
# 2 50.2412 95.1934 35.1622 0.0000 -17.6398 0.0000
# 3 47.7553 35.1622 87.3323 0.0000 -32.9921 0.0000
# 4 0.0000 0.0000 0.0000 14.7565 0.0000 -8.3534
# 5 -21.2975 -17.6398 -32.9921 0.0000 25.9295 0.0000
# 6 0.0000 0.0000 0.0000 -8.3534 0.0000 27.0004
#
#
#
# Elastic Compliance Matrix: (Units=1/GPa)
#
#
# Indices 1 2 3 4 5 6 
#
# 1 0.013181 -0.004959 -0.004613 0.000000 0.001583 0.000000
# 2 -0.004959 0.014425 -0.001786 0.000000 0.003467 0.000000
# 3 -0.004613 -0.001786 0.024651 0.000000 0.026361 0.000000
# 4 0.000000 0.000000 0.000000 0.082155 0.000000 0.025417
# 5 0.001583 0.003467 0.026361 0.000000 0.075766 0.000000
# 6 0.000000 0.000000 0.000000 0.025417 0.000000 0.044900
#
#
# Mechanical properties :
#
#
# Convention : Reuss Voigt Hill
#
# Bulk Modulus (GPa) = 33.85261 62.54254 48.19757
# Shear Modulus (GPa) = 17.38277 24.43107 20.90692
#
# Velocity S-wave (km/s) = 3.17181 3.76027 3.47851
# Velocity P-wave (km/s) = 5.74511 7.41956 6.63537
#
# Compressibility (1/GPa) = 0.02953982
#
# Stress axis : x y z
#
# Youngs Moduli (GPa) = 75.86580 69.32593 40.56704
#
# Poissons Ratio (x) = 0.34382 0.18713
# Poissons Ratio (y) = 0.37626 0.07245
# Poissons Ratio (z) = 0.34995 0.12381
#
# Static dielectric constant tensor:
#      x y z
#    x 3.500390 0.000000 -0.331990 
#    y 0.000000 3.523170 0.000000 
#    z -0.331990 0.000000 2.614540 
# 
# 
# High freq. dielectric constant tensor:
#      x y z
#    x 1.676870 0.000000 -0.036270 
#    y 0.000000 1.687590 0.000000 
#    z -0.036270 0.000000 1.588090 
# 
# From -- ./inp_files/35282.got.cif
#   From: 2010.06.25/outbox.cif.g09.slc.cpg/sg11_18_cif.got.tgz:35282.got - 2010.06.27 23:14:04.
