data_PCOD8070031
_publ_section_title
;
Structure prediction by ZEFSAII (Michael W. Deem and Ramdas Pophale) SiO2 
 PCOD8070031
Probable space group: P 21/M
;
_chemical_formula_sum "Si O2"
_cell_formula_units_Z 32
_cell_length_a 23.874645
_cell_length_b 9.581485
_cell_length_c 12.449088
_cell_angle_alpha 90.000000
_cell_angle_beta 133.516993
_cell_angle_gamma 90.000000
_cell_volume 2065.129179
_symmetry_space_group_name_H-M "P 21/M"
_symmetry_group_IT_number 11
_symmetry_cell_setting 'monoclinic'
loop_
_space_group_symop_operation_xyz
x,y,z
-x,1/2+y,-z
-x,-y,-z
x,1/2-y,z
loop_
_atom_site_type_symbol
_atom_site_label
_atom_site_fract_x
_atom_site_fract_y
_atom_site_fract_z
Si Si1 0.666306 0.088765 0.825044
Si Si2 0.500259 0.409151 0.604921
Si Si3 0.069618 0.588764 0.546119
Si Si4 0.091319 0.088139 0.948939
Si Si5 0.826439 0.410205 0.122480
Si Si6 0.084131 0.911465 0.321440
Si Si7 0.333845 0.088779 0.390056
Si Si8 0.175650 0.412648 0.277617
O O1 0.671867 0.250000 0.797818
O O2 0.582477 0.059387 0.773125
O O3 0.676375 0.999746 0.730971
O O4 0.735381 0.050660 0.997982
O O5 0.500000 0.500000 0.500000
O O6 0.499926 0.250000 0.566334
O O7 0.418588 0.439243 0.558366
O O8 0.043511 0.750000 0.511867
O O9 0.145319 0.563241 0.718883
O O10 0.088965 0.540411 0.451445
O O11 0.000000 0.500000 0.500000
O O12 0.108172 0.250000 0.948038
O O13 0.000437 0.058409 0.838033
O O14 0.124974 0.003170 0.894459
O O15 0.130895 0.038974 0.111324
O O16 0.840316 0.250000 0.107275
O O17 0.106389 0.750000 0.338374
O O18 0.146358 0.001500 0.340115
O O19 0.324792 0.250000 0.343752
O O20 0.266545 0.051145 0.385112
O O21 0.161121 0.250000 0.280714
#
# Coordination Sequence:
#
# PCOD8070031 Si02
#       8
#     4   4   4   4   4   4   4   4
#     4   9  16  26  41  65  93 117 144 177 215 263
#     4   8  14  24  39  60  88 118 144 172 210 258
#     4  10  20  34  50  67  87 114 150 190 228 265
#     4  10  19  32  47  65  90 119 149 181 221 267
#     4  10  19  29  46  70  92 117 148 183 222 265
#     4  10  21  34  47  63  86 117 153 189 224 262
#     4   9  16  27  43  63  89 120 148 176 214 261
#     4  10  20  31  45  66  91 118 151 185 218 262
#
# _framework density 15.4954
#
# number of rings (size 3 to 8) (size 9 to 14) (size 15 to 20)
#    0.000    2.500    2.500    0.375    0.000    2.000 
#    0.000    0.000    0.000    0.000    0.000    0.875 
#    0.000    0.000    0.000    0.000    0.000    0.000 
#
# Total GULP energy -396521.098035 kJ/mol
# GULP energy per Si atom -12391.284314 kJ/mol
# Density = 1.546013 g / cm^3
# Si number density = 15.495400 Si / 1000 Ang^3
#
#
#
# Elastic Constant Matrix: (Units=GPa)
#
#
# Indices 1 2 3 4 5 6 
#
# 1 116.3826 41.7231 61.8589 0.0000 13.1030 0.0000
# 2 41.7231 40.6676 29.1443 0.0000 1.9549 0.0000
# 3 61.8589 29.1443 75.1169 0.0000 11.1742 0.0000
# 4 0.0000 0.0000 0.0000 15.2476 0.0000 -2.2546
# 5 13.1030 1.9549 11.1742 0.0000 27.8538 0.0000
# 6 0.0000 0.0000 0.0000 -2.2546 0.0000 24.0972
#
#
#
# Elastic Compliance Matrix: (Units=1/GPa)
#
#
# Indices 1 2 3 4 5 6 
#
# 1 0.018640 -0.011562 -0.010295 0.000000 -0.003827 0.000000
# 2 -0.011562 0.041485 -0.007391 0.000000 0.005493 0.000000
# 3 -0.010295 -0.007391 0.025375 0.000000 -0.004818 0.000000
# 4 0.000000 0.000000 0.000000 0.066504 0.000000 0.006222
# 5 -0.003827 0.005493 -0.004818 0.000000 0.039249 0.000000
# 6 0.000000 0.000000 0.000000 0.006222 0.000000 0.042081
#
#
# Mechanical properties :
#
#
# Convention : Reuss Voigt Hill
#
# Bulk Modulus (GPa) = 37.03255 55.29107 46.16181
# Shear Modulus (GPa) = 16.62060 20.06910 18.34485
#
# Velocity S-wave (km/s) = 3.27863 3.60274 3.44450
# Velocity P-wave (km/s) = 6.18737 7.28465 6.75831
#
# Compressibility (1/GPa) = 0.02700327
#
# Stress axis : x y z
#
# Youngs Moduli (GPa) = 53.64769 24.10538 39.40912
#
# Poissons Ratio (x) = 0.27871 0.40571
# Poissons Ratio (y) = 0.62028 0.29128
# Poissons Ratio (z) = 0.55230 0.17816
#
# Static dielectric constant tensor:
#      x y z
#    x 3.066850 0.000000 0.434690 
#    y 0.000000 2.986300 0.000000 
#    z 0.434690 0.000000 3.256220 
# 
# 
# High freq. dielectric constant tensor:
#      x y z
#    x 1.579100 0.000000 0.031410 
#    y 0.000000 1.599620 0.000000 
#    z 0.031410 0.000000 1.581390 
# 
# From -- ./inp_files/40646.got.cif
#   From: 2010.06.25/outbox.cif.g09.slc.cpg/sg11_21_cif.got.tgz:40646.got - 2010.06.27 23:14:04.
