data_PCOD8070665
_publ_section_title
;
Structure prediction by ZEFSAII (Michael W. Deem and Ramdas Pophale) SiO2 
 PCOD8070665
Probable space group: P 21/M
;
_chemical_formula_sum "Si O2"
_cell_formula_units_Z 32
_cell_length_a 30.997662
_cell_length_b 8.868391
_cell_length_c 13.162722
_cell_angle_alpha 90.000000
_cell_angle_beta 153.018225
_cell_angle_gamma 90.000000
_cell_volume 1641.704607
_symmetry_space_group_name_H-M "P 21/M"
_symmetry_group_IT_number 11
_symmetry_cell_setting 'monoclinic'
loop_
_space_group_symop_operation_xyz
x,y,z
-x,1/2+y,-z
-x,-y,-z
x,1/2-y,z
loop_
_atom_site_type_symbol
_atom_site_label
_atom_site_fract_x
_atom_site_fract_y
_atom_site_fract_z
Si Si1 0.656861 0.575094 0.638250
Si Si2 0.164886 0.073024 0.871986
Si Si3 0.533340 0.071531 0.672769
Si Si4 0.402186 0.428969 0.838251
Si Si5 0.129645 0.426940 0.573021
Si Si6 0.756320 0.928637 0.651912
Si Si7 0.677622 0.571691 0.114433
Si Si8 0.918135 0.427492 0.100978
O O1 0.655986 0.750000 0.612460
O O2 0.549513 0.520044 0.423874
O O3 0.701005 0.499136 0.631670
O O4 0.722195 0.541905 0.874051
O O5 0.141175 0.250000 0.830230
O O6 0.139437 0.003983 0.707987
O O7 0.107764 0.992451 0.842574
O O8 0.543178 0.250000 0.681692
O O9 0.500000 0.000000 0.500000
O O10 0.629713 0.000100 0.914943
O O11 0.416000 0.250000 0.862311
O O12 0.307529 0.477934 0.577628
O O13 0.375002 0.487702 0.894107
O O14 0.500000 0.500000 0.000000
O O15 0.140673 0.250000 0.612100
O O16 0.211967 0.479724 0.666353
O O17 0.028462 0.469979 0.312440
O O18 0.771256 0.750000 0.684736
O O19 0.860739 0.003323 0.883732
O O20 0.668016 0.750000 0.090487
O O21 0.901939 0.250000 0.069789
#
# Coordination Sequence:
#
# PCOD8070665 Si02
#       8
#     4   4   4   4   4   4   4   4
#     4   8  15  28  48  69  95 132 169 202 249 310
#     4   9  16  30  51  73 100 140 177 210 256 313
#     4  11  21  34  52  76 107 143 177 213 256 310
#     4  10  21  37  61  85 106 134 172 217 266 317
#     4   9  18  33  52  72 103 142 177 212 261 315
#     4   9  18  35  54  74 100 133 169 208 258 316
#     4  10  21  38  56  77 104 139 180 219 261 318
#     4  10  19  31  50  78 105 135 175 221 261 301
#
# _framework density 19.491934000000001
#
# number of rings (size 3 to 8) (size 9 to 14) (size 15 to 20)
#    0.000    2.500    0.000    3.375    0.000    4.000 
#    0.000   11.875    0.000    0.000    0.000    0.000 
#    0.000    0.000    0.000    0.000    0.000    0.000 
#
# Total GULP energy -396438.586620 kJ/mol
# GULP energy per Si atom -12388.705832 kJ/mol
# Density = 1.944757 g / cm^3
# Si number density = 19.491934 Si / 1000 Ang^3
#
#
#
# Elastic Constant Matrix: (Units=GPa)
#
#
# Indices 1 2 3 4 5 6 
#
# 1 99.3225 28.6305 62.6462 0.0000 6.9603 0.0000
# 2 28.6305 39.4299 35.6986 0.0000 3.1756 0.0000
# 3 62.6462 35.6986 146.2920 0.0000 5.8203 0.0000
# 4 0.0000 0.0000 0.0000 29.1523 0.0000 0.7573
# 5 6.9603 3.1756 5.8203 0.0000 34.9497 0.0000
# 6 0.0000 0.0000 0.0000 0.7573 0.0000 19.5865
#
#
#
# Elastic Compliance Matrix: (Units=1/GPa)
#
#
# Indices 1 2 3 4 5 6 
#
# 1 0.015082 -0.006459 -0.004818 0.000000 -0.001614 0.000000
# 2 -0.006459 0.035414 -0.005838 0.000000 -0.000959 0.000000
# 3 -0.004818 -0.005838 0.010333 0.000000 -0.000231 0.000000
# 4 0.000000 0.000000 0.000000 0.034337 0.000000 -0.001328
# 5 -0.001614 -0.000959 -0.000231 0.000000 0.029060 0.000000
# 6 0.000000 0.000000 0.000000 -0.001328 0.000000 0.051107
#
#
# Mechanical properties :
#
#
# Convention : Reuss Voigt Hill
#
# Bulk Modulus (GPa) = 37.59557 59.88832 48.74195
# Shear Modulus (GPa) = 22.89073 27.27564 25.08318
#
# Velocity S-wave (km/s) = 3.43062 3.74482 3.59116
# Velocity P-wave (km/s) = 5.91793 7.03488 6.50044
#
# Compressibility (1/GPa) = 0.02659888
#
# Stress axis : x y z
#
# Youngs Moduli (GPa) = 66.30300 28.23736 96.78059
#
# Poissons Ratio (x) = 0.18239 0.46631
# Poissons Ratio (y) = 0.42826 0.56498
# Poissons Ratio (z) = 0.31946 0.16484
#
# Static dielectric constant tensor:
#      x y z
#    x 3.145120 0.000000 -0.061470 
#    y 0.000000 3.255460 0.000000 
#    z -0.061470 0.000000 3.769220 
# 
# 
# High freq. dielectric constant tensor:
#      x y z
#    x 1.747850 0.000000 0.008290 
#    y 0.000000 1.727080 0.000000 
#    z 0.008290 0.000000 1.772270 
# 
# From -- ./inp_files/45256.got.cif
#   From: 2010.06.25/outbox.cif.g09.slc.cpg/sg11_23_cif.got.tgz:45256.got - 2010.06.27 23:14:04.
