data_PCOD8070234
_publ_section_title
;
Structure prediction by ZEFSAII (Michael W. Deem and Ramdas Pophale) SiO2 
 PCOD8070234
Probable space group: P 21/M
;
_chemical_formula_sum "Si O2"
_cell_formula_units_Z 24
_cell_length_a 23.461631
_cell_length_b 9.362916
_cell_length_c 17.696896
_cell_angle_alpha 90.000000
_cell_angle_beta 160.097210
_cell_angle_gamma 90.000000
_cell_volume 1323.391380
_symmetry_space_group_name_H-M "P 21/M"
_symmetry_group_IT_number 11
_symmetry_cell_setting 'monoclinic'
loop_
_space_group_symop_operation_xyz
x,y,z
-x,1/2+y,-z
-x,-y,-z
x,1/2-y,z
loop_
_atom_site_type_symbol
_atom_site_label
_atom_site_fract_x
_atom_site_fract_y
_atom_site_fract_z
Si Si1 0.645306 0.907453 0.475821
Si Si2 0.155278 0.085782 0.662718
Si Si3 0.863774 0.916984 0.878460
Si Si4 0.498646 0.915157 0.827850
Si Si5 0.770602 0.581886 0.413163
Si Si6 0.005037 0.407997 0.175950
O O1 0.563432 0.750000 0.365972
O O2 0.683240 0.940843 0.612072
O O3 0.823368 0.908717 0.656621
O O4 0.524275 0.022573 0.285684
O O5 0.101998 0.250000 0.590857
O O6 0.204852 0.029281 0.641572
O O7 0.309009 0.063229 0.910955
O O8 0.000000 0.000000 0.500000
O O9 0.909446 0.750000 0.938819
O O10 0.000000 0.000000 0.000000
O O11 0.869494 0.982666 0.970564
O O12 0.446062 0.750000 0.762320
O O13 0.385628 0.996863 0.747621
O O14 0.727852 0.750000 0.365244
O O15 0.942815 0.547634 0.673742
O O16 0.924230 0.250000 0.073905
#
# Coordination Sequence:
#
# PCOD8070234 Si02
#       6
#     4   4   4   4   4   4
#     4   8  15  26  39  59  90 126 155 182 226 278
#     4  10  22  37  51  70  95 123 157 195 236 283
#     4   9  15  22  34  56  88 121 151 183 221 267
#     4  10  19  30  48  74  97 120 157 199 233 271
#     4   9  18  33  50  69  96 127 157 190 232 283
#     4   8  14  24  39  60  87 119 151 183 223 270
#
# _framework density 18.135224999999998
#
# number of rings (size 3 to 8) (size 9 to 14) (size 15 to 20)
#    0.000    3.000    0.000    3.500    0.000    8.667 
#    0.000    0.000    0.000    0.000    0.000    1.167 
#    0.000    0.000    0.000    0.000    0.000    0.000 
#
# Total GULP energy -297402.995330 kJ/mol
# GULP energy per Si atom -12391.791472 kJ/mol
# Density = 1.809395 g / cm^3
# Si number density = 18.135225 Si / 1000 Ang^3
#
#
#
# Elastic Constant Matrix: (Units=GPa)
#
#
# Indices 1 2 3 4 5 6 
#
# 1 27.6189 35.6642 44.5119 0.0000 -11.5953 0.0000
# 2 35.6642 106.9396 62.3447 0.0000 -12.2124 0.0000
# 3 44.5119 62.3447 90.2380 0.0000 -25.7797 0.0000
# 4 0.0000 0.0000 0.0000 31.4785 0.0000 -7.2654
# 5 -11.5953 -12.2124 -25.7797 0.0000 28.3362 0.0000
# 6 0.0000 0.0000 0.0000 -7.2654 0.0000 23.6932
#
#
#
# Elastic Compliance Matrix: (Units=1/GPa)
#
#
# Indices 1 2 3 4 5 6 
#
# 1 0.190061 -0.014054 -0.085873 0.000000 -0.006409 0.000000
# 2 -0.014054 0.017072 -0.005950 0.000000 -0.003806 0.000000
# 3 -0.085873 -0.005950 0.063209 0.000000 0.019802 0.000000
# 4 0.000000 0.000000 0.000000 0.034187 0.000000 0.010483
# 5 -0.006409 -0.003806 0.019802 0.000000 0.049043 0.000000
# 6 0.000000 0.000000 0.000000 0.010483 0.000000 0.045421
#
#
# Mechanical properties :
#
#
# Convention : Reuss Voigt Hill
#
# Bulk Modulus (GPa) = 17.06841 56.64868 36.85854
# Shear Modulus (GPa) = 7.93304 22.18663 15.05984
#
# Velocity S-wave (km/s) = 2.09377 3.50151 2.88483
# Velocity P-wave (km/s) = 3.90862 6.90305 5.60934
#
# Compressibility (1/GPa) = 0.05858778
#
# Stress axis : x y z
#
# Youngs Moduli (GPa) = 5.26148 58.57503 15.82065
#
# Poissons Ratio (x) = 0.82320 1.35857
# Poissons Ratio (y) = 0.07394 0.09413
# Poissons Ratio (z) = 0.45182 0.34853
#
# Static dielectric constant tensor:
#      x y z
#    x 3.418910 0.000000 -0.869240 
#    y 0.000000 3.396710 0.000000 
#    z -0.869240 0.000000 3.607870 
# 
# 
# High freq. dielectric constant tensor:
#      x y z
#    x 1.666190 0.000000 -0.052520 
#    y 0.000000 1.705980 0.000000 
#    z -0.052520 0.000000 1.689420 
# 
# From -- ./inp_files/23804.got.cif
#   From: 2010.06.25/outbox.cif.g09.slc.cpg/sg11_12_cif.got.tgz:23804.got - 2010.06.27 23:14:04.
