data_PCOD8070646
_publ_section_title
;
Structure prediction by ZEFSAII (Michael W. Deem and Ramdas Pophale) SiO2 
 PCOD8070646
Probable space group: P 21/M
;
_chemical_formula_sum "Si O2"
_cell_formula_units_Z 32
_cell_length_a 21.865429
_cell_length_b 9.144244
_cell_length_c 28.338725
_cell_angle_alpha 90.000000
_cell_angle_beta 161.502686
_cell_angle_gamma 90.000000
_cell_volume 1797.635797
_symmetry_space_group_name_H-M "P 21/M"
_symmetry_group_IT_number 11
_symmetry_cell_setting 'monoclinic'
loop_
_space_group_symop_operation_xyz
x,y,z
-x,1/2+y,-z
-x,-y,-z
x,1/2-y,z
loop_
_atom_site_type_symbol
_atom_site_label
_atom_site_fract_x
_atom_site_fract_y
_atom_site_fract_z
Si Si1 0.789017 0.419594 0.224843
Si Si2 0.872156 0.420009 0.040074
Si Si3 0.529277 0.080534 0.857144
Si Si4 0.599998 0.579487 0.004704
Si Si5 0.907866 0.578445 0.476938
Si Si6 0.039524 0.577331 0.077279
Si Si7 0.404751 0.409606 0.371439
Si Si8 0.738550 0.908268 0.630020
O O1 0.795904 0.250000 0.215909
O O2 0.609954 0.454158 0.127939
O O3 0.982611 0.468216 0.394545
O O4 0.765717 0.510246 0.159402
O O5 0.897672 0.250000 0.044390
O O6 0.887649 0.517793 0.004715
O O7 0.043606 0.463609 0.201667
O O8 0.667660 0.451406 0.914283
O O9 0.534098 0.250000 0.875454
O O10 0.316300 0.033715 0.684154
O O11 0.606369 0.988946 0.957598
O O12 0.642926 0.750000 0.032037
O O13 0.936325 0.750000 0.489856
O O14 0.000000 0.500000 0.500000
O O15 0.018192 0.750000 0.057719
O O16 0.256623 0.534180 0.248039
O O17 0.000000 0.500000 0.000000
O O18 0.375310 0.250000 0.325054
O O19 0.380082 0.385060 0.408778
O O20 0.618304 0.469364 0.513314
O O21 0.744214 0.750000 0.607800
#
# Coordination Sequence:
#
# PCOD8070646 Si02
#       8
#     4   4   4   4   4   4   4   4
#     4   9  18  32  49  73 105 137 175 222 272 321
#     4   9  19  35  53  76 105 137 175 215 260 316
#     4  10  20  34  55  79 107 142 180 223 274 329
#     4  10  19  31  50  76 104 136 176 222 271 321
#     4  10  19  32  52  79 107 139 181 228 275 323
#     4  11  21  34  54  78 104 136 174 214 260 311
#     4   9  16  27  46  73 100 124 155 198 243 291
#     4   8  14  26  45  69  97 124 156 197 243 292
#
# _framework density 17.801158000000001
#
# number of rings (size 3 to 8) (size 9 to 14) (size 15 to 20)
#    0.000    2.500    1.250    2.625    0.000    4.500 
#    0.000    0.000    2.750    0.000    0.000    0.000 
#    0.000    0.000    0.000    0.000    0.000    0.000 
#
# Total GULP energy -396639.671272 kJ/mol
# GULP energy per Si atom -12394.989727 kJ/mol
# Density = 1.776064 g / cm^3
# Si number density = 17.801158 Si / 1000 Ang^3
#
#
#
# Elastic Constant Matrix: (Units=GPa)
#
#
# Indices 1 2 3 4 5 6 
#
# 1 74.8931 54.1829 60.7498 0.0000 -5.3356 0.0000
# 2 54.1829 102.9758 52.0068 0.0000 -6.3078 0.0000
# 3 60.7498 52.0068 122.6079 0.0000 0.9534 0.0000
# 4 0.0000 0.0000 0.0000 25.1433 0.0000 -4.5043
# 5 -5.3356 -6.3078 0.9534 0.0000 28.5986 0.0000
# 6 0.0000 0.0000 0.0000 -4.5043 0.0000 25.8517
#
#
#
# Elastic Compliance Matrix: (Units=1/GPa)
#
#
# Indices 1 2 3 4 5 6 
#
# 1 0.029078 -0.009914 -0.010230 0.000000 0.003579 0.000000
# 2 -0.009914 0.015984 -0.001881 0.000000 0.001739 0.000000
# 3 -0.010230 -0.001881 0.014045 0.000000 -0.002792 0.000000
# 4 0.000000 0.000000 0.000000 0.041053 0.000000 0.007153
# 5 0.003579 0.001739 -0.002792 0.000000 0.036111 0.000000
# 6 0.000000 0.000000 0.000000 0.007153 0.000000 0.039928
#
#
# Mechanical properties :
#
#
# Convention : Reuss Voigt Hill
#
# Bulk Modulus (GPa) = 66.41995 70.48398 68.45196
# Shear Modulus (GPa) = 22.19556 24.82120 23.50838
#
# Velocity S-wave (km/s) = 3.53492 3.73816 3.63796
# Velocity P-wave (km/s) = 7.35215 7.63629 7.49556
#
# Compressibility (1/GPa) = 0.01505572
#
# Stress axis : x y z
#
# Youngs Moduli (GPa) = 34.38986 62.56177 71.20147
#
# Poissons Ratio (x) = 0.62025 0.72841
# Poissons Ratio (y) = 0.34095 0.13395
# Poissons Ratio (z) = 0.35182 0.11769
#
# Static dielectric constant tensor:
#      x y z
#    x 2.945340 0.000000 0.062000 
#    y 0.000000 3.726370 0.000000 
#    z 0.062000 0.000000 3.215720 
# 
# 
# High freq. dielectric constant tensor:
#      x y z
#    x 1.645760 0.000000 -0.003870 
#    y 0.000000 1.694680 0.000000 
#    z -0.003870 0.000000 1.692360 
# 
# From -- ./inp_files/72077.got.cif
#   From: 2010.06.25/outbox.cif.g09.slc.cpg/sg11_37_cif.got.tgz:72077.got - 2010.06.27 23:14:04.
