data_PCOD8070043
_publ_section_title
;
Structure prediction by ZEFSAII (Michael W. Deem and Ramdas Pophale) SiO2 
 PCOD8070043
Probable space group: P 21/M
;
_chemical_formula_sum "Si O2"
_cell_formula_units_Z 32
_cell_length_a 30.073019
_cell_length_b 8.977954
_cell_length_c 20.859234
_cell_angle_alpha 90.000000
_cell_angle_beta 18.806946
_cell_angle_gamma 90.000000
_cell_volume 1815.605399
_symmetry_space_group_name_H-M "P 21/M"
_symmetry_group_IT_number 11
_symmetry_cell_setting 'monoclinic'
loop_
_space_group_symop_operation_xyz
x,y,z
-x,1/2+y,-z
-x,-y,-z
x,1/2-y,z
loop_
_atom_site_type_symbol
_atom_site_label
_atom_site_fract_x
_atom_site_fract_y
_atom_site_fract_z
Si Si1 0.858218 0.424956 0.018077
Si Si2 0.444610 0.073985 0.261243
Si Si3 0.581011 0.423079 0.946403
Si Si4 0.576812 0.427473 0.454764
Si Si5 0.858494 0.075708 0.873560
Si Si6 0.131609 0.922752 0.501310
Si Si7 0.158593 0.425567 0.599230
Si Si8 0.560499 0.425666 0.236610
O O1 0.846356 0.250000 0.029836
O O2 0.833968 0.486142 0.979115
O O3 0.011965 0.472385 0.831975
O O4 0.737686 0.480186 0.230059
O O5 0.460344 0.250000 0.242007
O O6 0.284050 0.025507 0.474016
O O7 0.504613 0.009892 0.245604
O O8 0.530819 0.010687 0.083178
O O9 0.543585 0.250000 0.993191
O O10 0.744878 0.450267 0.717516
O O11 0.500000 0.500000 0.000000
O O12 0.500000 0.500000 0.500000
O O13 0.559659 0.250000 0.475068
O O14 0.519946 0.488152 0.598598
O O15 0.891266 0.250000 0.828909
O O16 0.723359 0.038514 0.016524
O O17 0.992247 0.993352 0.661799
O O18 0.106277 0.750000 0.548686
O O19 0.175788 0.997372 0.507503
O O20 0.162908 0.250000 0.580213
O O21 0.534023 0.250000 0.281874
#
# Coordination Sequence:
#
# PCOD8070043 Si02
#       8
#     4   4   4   4   4   4   4   4
#     4   8  15  28  48  73  98 127 165 207 246 293
#     4   9  18  33  55  76 100 137 177 211 251 310
#     4  10  19  32  51  78 105 133 171 216 258 302
#     4  11  20  33  52  77 106 135 171 216 261 304
#     4   9  17  32  51  70  98 135 172 207 251 309
#     4  10  19  29  47  77 107 129 162 218 265 297
#     4   9  16  31  53  74  98 134 174 205 246 307
#     4  10  20  36  54  75 102 136 178 216 253 305
#
# _framework density 17.624974999999999
#
# number of rings (size 3 to 8) (size 9 to 14) (size 15 to 20)
#    0.000    2.500    2.500    1.500    0.000    1.000 
#    0.000    3.125    0.000    0.000    0.000    0.000 
#    0.000    0.000    0.000    0.000    0.000    0.000 
#
# Total GULP energy -396626.044252 kJ/mol
# GULP energy per Si atom -12394.563883 kJ/mol
# Density = 1.758486 g / cm^3
# Si number density = 17.624975 Si / 1000 Ang^3
#
#
#
# Elastic Constant Matrix: (Units=GPa)
#
#
# Indices 1 2 3 4 5 6 
#
# 1 131.9519 33.7047 83.7427 0.0000 -8.6725 0.0000
# 2 33.7047 47.1816 46.3757 0.0000 -2.5684 0.0000
# 3 83.7427 46.3757 161.1733 0.0000 -12.3060 0.0000
# 4 0.0000 0.0000 0.0000 25.3149 0.0000 1.0989
# 5 -8.6725 -2.5684 -12.3060 0.0000 29.5446 0.0000
# 6 0.0000 0.0000 0.0000 1.0989 0.0000 16.7278
#
#
#
# Elastic Compliance Matrix: (Units=1/GPa)
#
#
# Indices 1 2 3 4 5 6 
#
# 1 0.011698 -0.003352 -0.005034 0.000000 0.001046 0.000000
# 2 -0.003352 0.030542 -0.007146 0.000000 -0.001305 0.000000
# 3 -0.005034 -0.007146 0.011068 0.000000 0.002511 0.000000
# 4 0.000000 0.000000 0.000000 0.039615 0.000000 -0.002602
# 5 0.001046 -0.001305 0.002511 0.000000 0.035087 0.000000
# 6 0.000000 0.000000 0.000000 -0.002602 0.000000 0.059952
#
#
# Mechanical properties :
#
#
# Convention : Reuss Voigt Hill
#
# Bulk Modulus (GPa) = 44.95511 74.21702 59.58606
# Shear Modulus (GPa) = 22.08081 26.08303 24.08192
#
# Velocity S-wave (km/s) = 3.54335 3.85111 3.70043
# Velocity P-wave (km/s) = 6.50402 7.87243 7.22071
#
# Compressibility (1/GPa) = 0.02224441
#
# Stress axis : x y z
#
# Youngs Moduli (GPa) = 85.48372 32.74146 90.35081
#
# Poissons Ratio (x) = 0.10975 0.45481
# Poissons Ratio (y) = 0.28654 0.64567
# Poissons Ratio (z) = 0.43031 0.23398
#
# Static dielectric constant tensor:
#      x y z
#    x 3.244580 0.000000 -0.069110 
#    y 0.000000 3.077600 0.000000 
#    z -0.069110 0.000000 3.823630 
# 
# 
# High freq. dielectric constant tensor:
#      x y z
#    x 1.652560 0.000000 -0.011320 
#    y 0.000000 1.658180 0.000000 
#    z -0.011320 0.000000 1.701740 
# 
# From -- ./inp_files/64469.got.cif
#   From: 2010.06.25/outbox.cif.g09.slc.cpg/sg11_33_cif.got.tgz:64469.got - 2010.06.27 23:14:04.
