data_PCOD8070672
_publ_section_title
;
Structure prediction by ZEFSAII (Michael W. Deem and Ramdas Pophale) SiO2 
 PCOD8070672
Probable space group: P 21/M
;
_chemical_formula_sum "Si O2"
_cell_formula_units_Z 28
_cell_length_a 14.395796
_cell_length_b 13.902193
_cell_length_c 9.350058
_cell_angle_alpha 90.000000
_cell_angle_beta 132.074755
_cell_angle_gamma 90.000000
_cell_volume 1388.979678
_symmetry_space_group_name_H-M "P 21/M"
_symmetry_group_IT_number 11
_symmetry_cell_setting 'monoclinic'
loop_
_space_group_symop_operation_xyz
x,y,z
-x,1/2+y,-z
-x,-y,-z
x,1/2-y,z
loop_
_atom_site_type_symbol
_atom_site_label
_atom_site_fract_x
_atom_site_fract_y
_atom_site_fract_z
Si Si1 0.643374 0.513197 0.771499
Si Si2 0.685323 0.352887 0.292091
Si Si3 0.774265 0.642960 0.389986
Si Si4 0.506149 0.082925 0.891316
Si Si5 0.586660 0.364464 0.497387
Si Si6 0.922359 0.471522 0.554862
Si Si7 0.153398 0.138341 0.866357
O O1 0.573270 0.451446 0.818709
O O2 0.678845 0.431701 0.688797
O O3 0.553469 0.597032 0.615473
O O4 0.765900 0.568603 0.950227
O O5 0.744281 0.250000 0.389582
O O6 0.613908 0.389641 0.360130
O O7 0.798756 0.420731 0.367655
O O8 0.592259 0.339148 0.061611
O O9 0.811067 0.750000 0.476402
O O10 0.630685 0.624172 0.284197
O O11 0.868845 0.570171 0.572165
O O12 0.793406 0.630460 0.239204
O O13 0.500000 0.000000 0.000000
O O14 0.597786 0.250000 0.543538
O O15 0.000000 0.500000 0.500000
O O16 0.010725 0.401998 0.740217
O O17 0.157235 0.250000 0.920579
#
# Coordination Sequence:
#
# PCOD8070672 Si02
#       7
#     4   4   4   4   4   4   4
#     4  11  21  36  57  83 115 148 185 239 284 332
#     4  11  21  36  58  83 113 152 191 230 281 344
#     4  10  19  31  50  78 115 149 178 224 285 341
#     4  12  18  33  57  88 113 141 184 234 288 331
#     4  10  22  38  56  80 113 152 189 229 286 347
#     4  10  19  34  53  80 111 142 187 235 276 325
#     4  10  19  33  54  79 106 144 189 228 273 333
#
# _framework density 20.158681999999999
#
# number of rings (size 3 to 8) (size 9 to 14) (size 15 to 20)
#    0.000    1.429    4.286    2.143    0.000    4.000 
#    0.000    1.429    0.000    0.857    0.000    0.000 
#    0.000    0.000    0.000    0.000    0.000    0.000 
#
# Total GULP energy -346888.810065 kJ/mol
# GULP energy per Si atom -12388.886074 kJ/mol
# Density = 2.011280 g / cm^3
# Si number density = 20.158682 Si / 1000 Ang^3
#
#
#
# Elastic Constant Matrix: (Units=GPa)
#
#
# Indices 1 2 3 4 5 6 
#
# 1 60.8907 49.9293 33.2416 0.0000 21.6713 0.0000
# 2 49.9293 145.1956 55.3994 0.0000 17.6516 0.0000
# 3 33.2416 55.3994 78.6915 0.0000 15.9757 0.0000
# 4 0.0000 0.0000 0.0000 32.3351 0.0000 1.6121
# 5 21.6713 17.6516 15.9757 0.0000 34.0412 0.0000
# 6 0.0000 0.0000 0.0000 1.6121 0.0000 26.4595
#
#
#
# Elastic Compliance Matrix: (Units=1/GPa)
#
#
# Indices 1 2 3 4 5 6 
#
# 1 0.029082 -0.006496 -0.005125 0.000000 -0.012740 0.000000
# 2 -0.006496 0.010987 -0.005166 0.000000 0.000863 0.000000
# 3 -0.005125 -0.005166 0.019126 0.000000 -0.003034 0.000000
# 4 0.000000 0.000000 0.000000 0.031020 0.000000 -0.001890
# 5 -0.012740 0.000863 -0.003034 0.000000 0.038464 0.000000
# 6 0.000000 0.000000 0.000000 -0.001890 0.000000 0.037909
#
#
# Mechanical properties :
#
#
# Convention : Reuss Voigt Hill
#
# Bulk Modulus (GPa) = 39.03186 62.43539 50.73362
# Shear Modulus (GPa) = 23.95748 28.31432 26.13590
#
# Velocity S-wave (km/s) = 3.45112 3.75183 3.60461
# Velocity P-wave (km/s) = 5.94009 7.05744 6.52274
#
# Compressibility (1/GPa) = 0.02562010
#
# Stress axis : x y z
#
# Youngs Moduli (GPa) = 34.38563 91.01315 52.28508
#
# Poissons Ratio (x) = 0.59124 0.26797
# Poissons Ratio (y) = 0.22338 0.27011
# Poissons Ratio (z) = 0.17623 0.47019
#
# Static dielectric constant tensor:
#      x y z
#    x 3.629730 0.000000 0.353230 
#    y 0.000000 4.177090 0.000000 
#    z 0.353230 0.000000 4.629710 
# 
# 
# High freq. dielectric constant tensor:
#      x y z
#    x 1.766720 0.000000 0.016440 
#    y 0.000000 1.813420 0.000000 
#    z 0.016440 0.000000 1.758140 
# 
# From -- ./inp_files/22258.got.cif
#   From: 2010.06.25/outbox.cif.g09.slc.cpg/sg11_12_cif.got.tgz:22258.got - 2010.06.27 23:14:04.
