data_PCOD8070307
_publ_section_title
;
Structure prediction by ZEFSAII (Michael W. Deem and Ramdas Pophale) SiO2 
 PCOD8070307
Probable space group: P 21/M
;
_chemical_formula_sum "Si O2"
_cell_formula_units_Z 32
_cell_length_a 26.460599
_cell_length_b 8.779272
_cell_length_c 21.183732
_cell_angle_alpha 90.000000
_cell_angle_beta 158.990719
_cell_angle_gamma 90.000000
_cell_volume 1764.302427
_symmetry_space_group_name_H-M "P 21/M"
_symmetry_group_IT_number 11
_symmetry_cell_setting 'monoclinic'
loop_
_space_group_symop_operation_xyz
x,y,z
-x,1/2+y,-z
-x,-y,-z
x,1/2-y,z
loop_
_atom_site_type_symbol
_atom_site_label
_atom_site_fract_x
_atom_site_fract_y
_atom_site_fract_z
Si Si1 0.349918 0.574725 0.816579
Si Si2 0.547563 0.081931 0.734158
Si Si3 0.848712 0.570304 0.314472
Si Si4 0.347221 0.570408 0.012979
Si Si5 0.631269 0.422388 0.303905
Si Si6 0.568051 0.070461 0.517457
Si Si7 0.756506 0.916812 0.558936
Si Si8 0.143213 0.431473 0.192768
O O1 0.353063 0.750000 0.842987
O O2 0.241916 0.479256 0.731487
O O3 0.303332 0.562788 0.689344
O O4 0.500000 0.500000 0.000000
O O5 0.592581 0.250000 0.761713
O O6 0.398440 0.096498 0.593755
O O7 0.537798 0.966403 0.664220
O O8 0.653177 0.024315 0.912793
O O9 0.859663 0.750000 0.324735
O O10 0.782610 0.513053 0.171637
O O11 0.000000 0.500000 0.500000
O O12 0.329272 0.750000 0.984474
O O13 0.492460 0.525209 0.147826
O O14 0.585516 0.250000 0.265446
O O15 0.754663 0.471422 0.496685
O O16 0.582360 0.250000 0.541526
O O17 0.500000 0.000000 0.500000
O O18 0.722940 0.000459 0.687773
O O19 0.807875 0.750000 0.596174
O O20 0.854618 0.977313 0.730367
O O21 0.148224 0.250000 0.190213
O O22 0.000000 0.500000 0.000000
#
# Coordination Sequence:
#
# PCOD8070307 Si02
#       8
#     4   4   4   4   4   4   4   4
#     4  11  22  36  56  84 113 143 181 227 272 319
#     4   8  16  31  51  78 108 139 177 223 269 320
#     4  12  25  40  58  80 109 146 185 227 275 330
#     4  10  19  33  55  80 109 142 178 222 272 323
#     4  10  19  30  51  82 111 138 177 226 270 313
#     4  11  21  34  55  82 112 146 182 227 274 319
#     4   8  16  30  49  75 108 142 176 217 268 320
#     4  10  20  35  55  81 111 145 184 224 268 324
#
# _framework density 18.13748
#
# number of rings (size 3 to 8) (size 9 to 14) (size 15 to 20)
#    0.000    2.000    1.250    5.250    0.000    7.000 
#    0.000    0.000    2.750    0.000    0.000    0.000 
#    0.000    0.000    0.000    0.000    0.000    0.000 
#
# Total GULP energy -396689.498653 kJ/mol
# GULP energy per Si atom -12396.546833 kJ/mol
# Density = 1.809620 g / cm^3
# Si number density = 18.137480 Si / 1000 Ang^3
#
#
#
# Elastic Constant Matrix: (Units=GPa)
#
#
# Indices 1 2 3 4 5 6 
#
# 1 98.3878 57.5603 65.4837 0.0000 -19.2848 0.0000
# 2 57.5603 136.9792 64.8822 0.0000 -13.7072 0.0000
# 3 65.4837 64.8822 136.0191 0.0000 -22.1535 0.0000
# 4 0.0000 0.0000 0.0000 31.5781 0.0000 -4.1927
# 5 -19.2848 -13.7072 -22.1535 0.0000 30.1331 0.0000
# 6 0.0000 0.0000 0.0000 -4.1927 0.0000 30.5189
#
#
#
# Elastic Compliance Matrix: (Units=1/GPa)
#
#
# Indices 1 2 3 4 5 6 
#
# 1 0.017241 -0.004129 -0.005498 0.000000 0.005114 0.000000
# 2 -0.004129 0.010453 -0.003015 0.000000 -0.000104 0.000000
# 3 -0.005498 -0.003015 0.012088 0.000000 0.003997 0.000000
# 4 0.000000 0.000000 0.000000 0.032256 0.000000 0.004431
# 5 0.005114 -0.000104 0.003997 0.000000 0.039350 0.000000
# 6 0.000000 0.000000 0.000000 0.004431 0.000000 0.033375
#
#
# Mechanical properties :
#
#
# Convention : Reuss Voigt Hill
#
# Bulk Modulus (GPa) = 68.97648 83.02652 76.00150
# Shear Modulus (GPa) = 28.59090 30.67667 29.63378
#
# Velocity S-wave (km/s) = 3.97463 4.11705 4.04647
# Velocity P-wave (km/s) = 7.69259 8.27501 7.98911
#
# Compressibility (1/GPa) = 0.01449770
#
# Stress axis : x y z
#
# Youngs Moduli (GPa) = 58.00118 95.66340 82.72577
#
# Poissons Ratio (x) = 0.39499 0.45482
# Poissons Ratio (y) = 0.23949 0.24946
# Poissons Ratio (z) = 0.31888 0.28847
#
# Static dielectric constant tensor:
#      x y z
#    x 3.306900 0.000000 -0.576490 
#    y 0.000000 3.287690 0.000000 
#    z -0.576490 0.000000 3.567150 
# 
# 
# High freq. dielectric constant tensor:
#      x y z
#    x 1.689110 0.000000 -0.035730 
#    y 0.000000 1.715830 0.000000 
#    z -0.035730 0.000000 1.687680 
# 
# From -- ./inp_files/67297.got.cif
#   From: 2010.06.25/outbox.cif.g09.slc.cpg/sg11_34_cif.got.tgz:67297.got - 2010.06.27 23:14:04.
