data_PCOD8070057
_publ_section_title
;
Structure prediction by ZEFSAII (Michael W. Deem and Ramdas Pophale) SiO2 
 PCOD8070057
Probable space group: P 21/M
;
_chemical_formula_sum "Si O2"
_cell_formula_units_Z 32
_cell_length_a 26.732878
_cell_length_b 9.142792
_cell_length_c 13.476469
_cell_angle_alpha 90.000000
_cell_angle_beta 139.271056
_cell_angle_gamma 90.000000
_cell_volume 2149.159985
_symmetry_space_group_name_H-M "P 21/M"
_symmetry_group_IT_number 11
_symmetry_cell_setting 'monoclinic'
loop_
_space_group_symop_operation_xyz
x,y,z
-x,1/2+y,-z
-x,-y,-z
x,1/2-y,z
loop_
_atom_site_type_symbol
_atom_site_label
_atom_site_fract_x
_atom_site_fract_y
_atom_site_fract_z
Si Si1 0.391766 0.418700 0.292475
Si Si2 0.922022 0.917810 0.472614
Si Si3 0.385998 0.079562 0.859769
Si Si4 0.769244 0.578974 0.029724
Si Si5 0.521956 0.920118 0.379109
Si Si6 0.755882 0.918487 0.233284
Si Si7 0.914534 0.082126 0.258693
Si Si8 0.540843 0.419847 0.206803
O O1 0.405598 0.250000 0.283178
O O2 0.415447 0.448169 0.441106
O O3 0.440259 0.516578 0.289840
O O4 0.302617 0.461702 0.147553
O O5 0.923781 0.750000 0.433967
O O6 0.841188 0.940504 0.409573
O O7 0.998697 0.943379 0.655530
O O8 0.921332 0.032269 0.382418
O O9 0.378677 0.250000 0.820327
O O10 0.309073 0.011367 0.794095
O O11 0.399189 0.989310 0.779643
O O12 0.454465 0.053582 0.040217
O O13 0.784730 0.750000 0.055792
O O14 0.754285 0.517524 0.118741
O O15 0.846882 0.506456 0.101496
O O16 0.511504 0.750000 0.339577
O O17 0.552976 0.002289 0.329779
O O18 0.732513 0.750000 0.190024
O O19 0.890666 0.250000 0.217306
O O20 0.559886 0.250000 0.247145
#
# Coordination Sequence:
#
# PCOD8070057 Si02
#       8
#     4   4   4   4   4   4   4   4
#     4   9  18  31  45  61  81 107 138 169 201 239
#     4   8  14  24  36  51  75 107 136 161 196 239
#     4   9  17  29  44  60  77 102 139 173 198 233
#     4   9  16  27  41  56  79 110 138 162 195 238
#     4  10  19  30  45  63  82 105 135 170 204 239
#     4   8  13  23  40  57  74 102 136 165 193 229
#     4   9  15  22  34  54  78 103 134 167 195 229
#     4  10  19  30  43  59  82 109 134 164 204 243
#
# _framework density 14.889538
#
# number of rings (size 3 to 8) (size 9 to 14) (size 15 to 20)
#    0.000    3.000    0.000    2.625    0.000    4.000 
#    0.000    2.500    0.000    0.000    0.000    0.000 
#    0.000    1.000    0.000    2.000    0.000    3.000 
#
# Total GULP energy -396517.454108 kJ/mol
# GULP energy per Si atom -12391.170441 kJ/mol
# Density = 1.485565 g / cm^3
# Si number density = 14.889538 Si / 1000 Ang^3
#
#
#
# Elastic Constant Matrix: (Units=GPa)
#
#
# Indices 1 2 3 4 5 6 
#
# 1 87.4625 34.0310 49.7053 0.0000 16.0242 0.0000
# 2 34.0310 58.1449 35.8293 0.0000 3.3119 0.0000
# 3 49.7053 35.8293 84.3342 0.0000 19.9052 0.0000
# 4 0.0000 0.0000 0.0000 20.8926 0.0000 1.9883
# 5 16.0242 3.3119 19.9052 0.0000 29.5230 0.0000
# 6 0.0000 0.0000 0.0000 1.9883 0.0000 20.5728
#
#
#
# Elastic Compliance Matrix: (Units=1/GPa)
#
#
# Indices 1 2 3 4 5 6 
#
# 1 0.018913 -0.006237 -0.007420 0.000000 -0.004563 0.000000
# 2 -0.006237 0.025948 -0.008872 0.000000 0.006456 0.000000
# 3 -0.007420 -0.008872 0.022375 0.000000 -0.010063 0.000000
# 4 0.000000 0.000000 0.000000 0.048308 0.000000 -0.004669
# 5 -0.004563 0.006456 -0.010063 0.000000 0.042409 0.000000
# 6 0.000000 0.000000 0.000000 -0.004669 0.000000 0.049059
#
#
# Mechanical properties :
#
#
# Convention : Reuss Voigt Hill
#
# Bulk Modulus (GPa) = 45.08937 52.11920 48.60428
# Shear Modulus (GPa) = 19.27047 21.55608 20.41327
#
# Velocity S-wave (km/s) = 3.60144 3.80904 3.70669
# Velocity P-wave (km/s) = 6.90233 7.37732 7.14378
#
# Compressibility (1/GPa) = 0.02217818
#
# Stress axis : x y z
#
# Youngs Moduli (GPa) = 52.87275 38.53867 44.69200
#
# Poissons Ratio (x) = 0.24037 0.33163
# Poissons Ratio (y) = 0.32978 0.39649
# Poissons Ratio (z) = 0.39234 0.34190
#
# Static dielectric constant tensor:
#      x y z
#    x 2.919500 0.000000 0.358710 
#    y 0.000000 2.872790 0.000000 
#    z 0.358710 0.000000 2.900390 
# 
# 
# High freq. dielectric constant tensor:
#      x y z
#    x 1.547020 0.000000 0.031580 
#    y 0.000000 1.568870 0.000000 
#    z 0.031580 0.000000 1.549020 
# 
# From -- ./inp_files/43834.got.cif
#   From: 2010.06.25/outbox.cif.g09.slc.cpg/sg11_22_cif.got.tgz:43834.got - 2010.06.27 23:14:04.
