data_PCOD8070832
_publ_section_title
;
Structure prediction by ZEFSAII (Michael W. Deem and Ramdas Pophale) SiO2 
 PCOD8070832
Probable space group: P 21/M
;
_chemical_formula_sum "Si O2"
_cell_formula_units_Z 28
_cell_length_a 9.485297
_cell_length_b 9.017805
_cell_length_c 18.441586
_cell_angle_alpha 90.000000
_cell_angle_beta 94.541298
_cell_angle_gamma 90.000000
_cell_volume 1572.477498
_symmetry_space_group_name_H-M "P 21/M"
_symmetry_group_IT_number 11
_symmetry_cell_setting 'monoclinic'
loop_
_space_group_symop_operation_xyz
x,y,z
-x,1/2+y,-z
-x,-y,-z
x,1/2-y,z
loop_
_atom_site_type_symbol
_atom_site_label
_atom_site_fract_x
_atom_site_fract_y
_atom_site_fract_z
Si Si1 0.414821 0.575448 0.432763
Si Si2 0.151777 0.922498 0.509629
Si Si3 0.305431 0.923942 0.802538
Si Si4 0.071377 0.581917 0.901177
Si Si5 0.805942 0.417711 0.939557
Si Si6 0.364052 0.926149 0.645198
Si Si7 0.530274 0.925112 0.925145
O O1 0.500000 0.500000 0.500000
O O2 0.444247 0.750000 0.433450
O O3 0.246853 0.545348 0.440790
O O4 0.481444 0.501123 0.363383
O O5 0.119548 0.750000 0.515736
O O6 0.243142 0.976209 0.583075
O O7 0.000000 0.000000 0.500000
O O8 0.329541 0.750000 0.800070
O O9 0.152862 0.960630 0.830774
O O10 0.314671 0.987108 0.721571
O O11 0.426459 0.990403 0.859436
O O12 0.011424 0.750000 0.895653
O O13 0.948455 0.463237 0.904594
O O14 0.179336 0.568712 0.972949
O O15 0.768411 0.250000 0.916035
O O16 0.686806 0.529427 0.906585
O O17 0.384986 0.750000 0.643247
O O18 0.515268 0.750000 0.933720
O O19 0.500000 0.000000 0.000000
#
# Coordination Sequence:
#
# PCOD8070832 Si02
#       7
#     4   4   4   4   4   4   4
#     4   9  17  31  51  76 104 134 168 204 243 295
#     4   9  18  31  51  78 103 130 164 202 243 288
#     4   9  18  34  54  74 100 132 171 214 259 306
#     4   9  17  32  51  71  96 131 168 209 258 306
#     4  10  19  32  49  73  99 127 168 215 260 308
#     4   9  18  34  54  76 101 133 172 212 251 301
#     4  11  20  33  52  75  99 130 169 215 262 308
#
# _framework density 17.806296
#
# number of rings (size 3 to 8) (size 9 to 14) (size 15 to 20)
#    0.000    2.571    1.429    2.143    0.000    3.429 
#    0.000    3.571    0.000    6.857    0.000    0.000 
#    0.000    0.000    0.000    0.000    0.000    0.000 
#
# Total GULP energy -347012.464689 kJ/mol
# GULP energy per Si atom -12393.302310 kJ/mol
# Density = 1.776577 g / cm^3
# Si number density = 17.806296 Si / 1000 Ang^3
#
#
#
# Elastic Constant Matrix: (Units=GPa)
#
#
# Indices 1 2 3 4 5 6 
#
# 1 102.9793 38.3995 52.7632 0.0000 -11.6184 0.0000
# 2 38.3995 59.8463 27.9491 0.0000 -5.4032 0.0000
# 3 52.7632 27.9491 111.8391 0.0000 -21.7933 0.0000
# 4 0.0000 0.0000 0.0000 19.6653 0.0000 -4.1949
# 5 -11.6184 -5.4032 -21.7933 0.0000 27.7098 0.0000
# 6 0.0000 0.0000 0.0000 -4.1949 0.0000 34.4641
#
#
#
# Elastic Compliance Matrix: (Units=1/GPa)
#
#
# Indices 1 2 3 4 5 6 
#
# 1 0.015156 -0.007230 -0.005173 0.000000 0.000877 0.000000
# 2 -0.007230 0.022366 -0.002267 0.000000 -0.000453 0.000000
# 3 -0.005173 -0.002267 0.013510 0.000000 0.008015 0.000000
# 4 0.000000 0.000000 0.000000 0.052206 0.000000 0.006354
# 5 0.000877 -0.000453 0.008015 0.000000 0.042671 0.000000
# 6 0.000000 0.000000 0.000000 0.006354 0.000000 0.029789
#
#
# Mechanical properties :
#
#
# Convention : Reuss Voigt Hill
#
# Bulk Modulus (GPa) = 46.09654 56.98760 51.54207
# Shear Modulus (GPa) = 23.55520 26.73805 25.14663
#
# Velocity S-wave (km/s) = 3.64106 3.87926 3.76204
# Velocity P-wave (km/s) = 6.60457 7.22070 6.91950
#
# Compressibility (1/GPa) = 0.02169360
#
# Stress axis : x y z
#
# Youngs Moduli (GPa) = 65.98193 44.71066 74.01951
#
# Poissons Ratio (x) = 0.32324 0.38287
# Poissons Ratio (y) = 0.47702 0.16779
# Poissons Ratio (z) = 0.34129 0.10135
#
# Static dielectric constant tensor:
#      x y z
#    x 3.468710 0.000000 -0.202840 
#    y 0.000000 3.334660 0.000000 
#    z -0.202840 0.000000 3.375320 
# 
# 
# High freq. dielectric constant tensor:
#      x y z
#    x 1.692210 0.000000 -0.021800 
#    y 0.000000 1.678680 0.000000 
#    z -0.021800 0.000000 1.665750 
# 
# From -- ./inp_files/25565.got.cif
#   From: 2010.06.25/outbox.cif.g09.slc.cpg/sg11_13_cif.got.tgz:25565.got - 2010.06.27 23:14:04.
