data_PCOD8070305
_publ_section_title
;
Structure prediction by ZEFSAII (Michael W. Deem and Ramdas Pophale) SiO2 
 PCOD8070305
Probable space group: P 21/M
;
_chemical_formula_sum "Si O2"
_cell_formula_units_Z 32
_cell_length_a 11.964540
_cell_length_b 8.944655
_cell_length_c 28.024707
_cell_angle_alpha 90.000000
_cell_angle_beta 36.178366
_cell_angle_gamma 90.000000
_cell_volume 1770.411199
_symmetry_space_group_name_H-M "P 21/M"
_symmetry_group_IT_number 11
_symmetry_cell_setting 'monoclinic'
loop_
_space_group_symop_operation_xyz
x,y,z
-x,1/2+y,-z
-x,-y,-z
x,1/2-y,z
loop_
_atom_site_type_symbol
_atom_site_label
_atom_site_fract_x
_atom_site_fract_y
_atom_site_fract_z
Si Si1 0.039473 0.922286 0.638119
Si Si2 0.719438 0.425417 0.354011
Si Si3 0.840088 0.080285 0.209760
Si Si4 0.300382 0.921747 0.894636
Si Si5 0.594134 0.577745 0.663518
Si Si6 0.654408 0.077309 0.546293
Si Si7 0.331342 0.573752 0.263420
Si Si8 0.988002 0.921239 0.074740
O O1 0.978588 0.750000 0.665152
O O2 0.162636 0.975067 0.640782
O O3 0.157848 0.945902 0.549267
O O4 0.855299 0.025273 0.700598
O O5 0.670219 0.250000 0.370843
O O6 0.840547 0.466653 0.265079
O O7 0.522053 0.512705 0.422469
O O8 0.909022 0.250000 0.179998
O O9 0.630821 0.058014 0.260582
O O10 0.984746 0.973690 0.131024
O O11 0.352916 0.750000 0.865841
O O12 0.489894 0.018579 0.828978
O O13 0.156889 0.973840 0.903334
O O14 0.199559 0.940395 0.980879
O O15 0.654487 0.750000 0.644852
O O16 0.688818 0.506906 0.584117
O O17 0.673918 0.496988 0.682407
O O18 0.613751 0.250000 0.570875
O O19 0.340307 0.750000 0.265256
O O20 0.920898 0.750000 0.093435
#
# Coordination Sequence:
#
# PCOD8070305 Si02
#       8
#     4   4   4   4   4   4   4   4
#     4  10  22  39  56  75 104 144 183 218 266 321
#     4   9  19  36  57  79 105 141 180 219 266 316
#     4   9  17  30  52  79 107 138 172 215 265 311
#     4  10  20  34  51  75 109 144 173 209 260 316
#     4  10  20  35  54  76 107 145 176 211 266 322
#     4  10  20  34  56  83 107 134 174 227 272 309
#     4  12  24  36  54  78 106 140 179 222 265 316
#     4  10  19  30  51  81 109 138 174 214 257 308
#
# _framework density 18.074897
#
# number of rings (size 3 to 8) (size 9 to 14) (size 15 to 20)
#    0.000    2.000    1.250    3.750    0.000    5.500 
#    0.000    0.000    0.000    0.750    0.000    0.000 
#    0.000    0.000    0.000    0.000    0.000    0.000 
#
# Total GULP energy -396895.772920 kJ/mol
# GULP energy per Si atom -12402.992904 kJ/mol
# Density = 1.803376 g / cm^3
# Si number density = 18.074897 Si / 1000 Ang^3
#
#
#
# Elastic Constant Matrix: (Units=GPa)
#
#
# Indices 1 2 3 4 5 6 
#
# 1 41.8768 29.4956 26.8067 0.0000 -4.7621 0.0000
# 2 29.4956 107.9130 45.4700 0.0000 -2.9621 0.0000
# 3 26.8067 45.4700 84.4963 0.0000 0.9390 0.0000
# 4 0.0000 0.0000 0.0000 31.9927 0.0000 0.9809
# 5 -4.7621 -2.9621 0.9390 0.0000 21.7857 0.0000
# 6 0.0000 0.0000 0.0000 0.9809 0.0000 26.8475
#
#
#
# Elastic Compliance Matrix: (Units=1/GPa)
#
#
# Indices 1 2 3 4 5 6 
#
# 1 0.033623 -0.005786 -0.007630 0.000000 0.006892 0.000000
# 2 -0.005786 0.013060 -0.005200 0.000000 0.000735 0.000000
# 3 -0.007630 -0.005200 0.017088 0.000000 -0.003111 0.000000
# 4 0.000000 0.000000 0.000000 0.031292 0.000000 -0.001143
# 5 0.006892 0.000735 -0.003111 0.000000 0.047642 0.000000
# 6 0.000000 0.000000 0.000000 -0.001143 0.000000 0.037289
#
#
# Mechanical properties :
#
#
# Convention : Reuss Voigt Hill
#
# Bulk Modulus (GPa) = 37.68122 48.64787 43.16454
# Shear Modulus (GPa) = 22.11679 24.95943 23.53811
#
# Velocity S-wave (km/s) = 3.50182 3.72006 3.61259
# Velocity P-wave (km/s) = 6.10269 6.73980 6.42914
#
# Compressibility (1/GPa) = 0.02653842
#
# Stress axis : x y z
#
# Youngs Moduli (GPa) = 29.74184 76.57239 58.51901
#
# Poissons Ratio (x) = 0.44304 0.44650
# Poissons Ratio (y) = 0.17208 0.30432
# Poissons Ratio (z) = 0.22693 0.39820
#
# Static dielectric constant tensor:
#      x y z
#    x 3.191840 0.000000 0.232080 
#    y 0.000000 3.394520 0.000000 
#    z 0.232080 0.000000 3.402760 
# 
# 
# High freq. dielectric constant tensor:
#      x y z
#    x 1.677310 0.000000 0.020470 
#    y 0.000000 1.709050 0.000000 
#    z 0.020470 0.000000 1.698540 
# 
# From -- ./inp_files/42913.got.cif
#   From: 2010.06.25/outbox.cif.g09.slc.cpg/sg11_22_cif.got.tgz:42913.got - 2010.06.27 23:14:04.
