data_PCOD8070147
_publ_section_title
;
Structure prediction by ZEFSAII (Michael W. Deem and Ramdas Pophale) SiO2 
 PCOD8070147
Probable space group: P 21/M
;
_chemical_formula_sum "Si O2"
_cell_formula_units_Z 24
_cell_length_a 12.129005
_cell_length_b 8.981382
_cell_length_c 21.756801
_cell_angle_alpha 90.000000
_cell_angle_beta 38.166753
_cell_angle_gamma 90.000000
_cell_volume 1464.597618
_symmetry_space_group_name_H-M "P 21/M"
_symmetry_group_IT_number 11
_symmetry_cell_setting 'monoclinic'
loop_
_space_group_symop_operation_xyz
x,y,z
-x,1/2+y,-z
-x,-y,-z
x,1/2-y,z
loop_
_atom_site_type_symbol
_atom_site_label
_atom_site_fract_x
_atom_site_fract_y
_atom_site_fract_z
Si Si1 0.216174 0.579298 0.856552
Si Si2 0.726244 0.923560 0.731822
Si Si3 0.532971 0.072917 0.050579
Si Si4 0.917462 0.423819 0.476845
Si Si5 0.824835 0.922443 0.998849
Si Si6 0.402757 0.077634 0.343234
O O1 0.221846 0.750000 0.878316
O O2 0.228474 0.471640 0.909412
O O3 0.386690 0.548754 0.737596
O O4 0.036874 0.550501 0.896217
O O5 0.685871 0.750000 0.749995
O O6 0.622733 0.990362 0.835835
O O7 0.643856 0.985934 0.704337
O O8 0.940874 0.955294 0.640746
O O9 0.531003 0.250000 0.044894
O O10 0.724104 0.020554 0.992443
O O11 0.500000 0.000000 0.000000
O O12 0.898723 0.250000 0.496980
O O13 0.719542 0.492016 0.552427
O O14 0.000000 0.500000 0.500000
O O15 0.774326 0.750000 0.012405
O O16 0.352423 0.250000 0.370814
#
# Coordination Sequence:
#
# PCOD8070147 Si02
#       6
#     4   4   4   4   4   4
#     4   9  17  30  47  66  96 129 153 184 233 282
#     4   8  15  28  44  59  87 123 150 179 229 276
#     4  11  21  35  50  66  91 125 160 196 233 275
#     4   9  16  26  40  62  88 119 150 182 223 275
#     4  10  19  30  46  70  93 121 160 194 228 276
#     4   9  15  27  44  65  91 124 150 177 226 277
#
# _framework density 16.386752999999999
#
# number of rings (size 3 to 8) (size 9 to 14) (size 15 to 20)
#    0.000    2.667    1.667    2.500    0.000    1.333 
#    0.000    2.500    0.000    0.000    0.000    1.167 
#    0.000    0.000    0.000    0.000    0.000    0.000 
#
# Total GULP energy -297379.587332 kJ/mol
# GULP energy per Si atom -12390.816139 kJ/mol
# Density = 1.634946 g / cm^3
# Si number density = 16.386753 Si / 1000 Ang^3
#
#
#
# Elastic Constant Matrix: (Units=GPa)
#
#
# Indices 1 2 3 4 5 6 
#
# 1 71.6008 33.7921 52.8527 0.0000 -12.3105 0.0000
# 2 33.7921 70.4481 44.2571 0.0000 -10.5930 0.0000
# 3 52.8527 44.2571 125.4526 0.0000 -30.1546 0.0000
# 4 0.0000 0.0000 0.0000 25.7598 0.0000 -4.0534
# 5 -12.3105 -10.5930 -30.1546 0.0000 26.5623 0.0000
# 6 0.0000 0.0000 0.0000 -4.0534 0.0000 22.0210
#
#
#
# Elastic Compliance Matrix: (Units=1/GPa)
#
#
# Indices 1 2 3 4 5 6 
#
# 1 0.022152 -0.006119 -0.007279 0.000000 -0.000437 0.000000
# 2 -0.006119 0.019927 -0.004433 0.000000 0.000078 0.000000
# 3 -0.007279 -0.004433 0.015631 0.000000 0.012604 0.000000
# 4 0.000000 0.000000 0.000000 0.039978 0.000000 0.007359
# 5 -0.000437 0.000078 0.012604 0.000000 0.051784 0.000000
# 6 0.000000 0.000000 0.000000 0.007359 0.000000 0.046766
#
#
# Mechanical properties :
#
#
# Convention : Reuss Voigt Hill
#
# Bulk Modulus (GPa) = 45.35530 58.81169 52.08350
# Shear Modulus (GPa) = 20.89875 23.97525 22.43700
#
# Velocity S-wave (km/s) = 3.57507 3.82918 3.70431
# Velocity P-wave (km/s) = 6.69176 7.45103 7.08158
#
# Compressibility (1/GPa) = 0.02204814
#
# Stress axis : x y z
#
# Youngs Moduli (GPa) = 45.14276 50.18440 63.97455
#
# Poissons Ratio (x) = 0.30706 0.46568
# Poissons Ratio (y) = 0.27621 0.28361
# Poissons Ratio (z) = 0.32860 0.22247
#
# Static dielectric constant tensor:
#      x y z
#    x 2.881690 0.000000 -0.481880 
#    y 0.000000 3.123930 0.000000 
#    z -0.481880 0.000000 3.662920 
# 
# 
# High freq. dielectric constant tensor:
#      x y z
#    x 1.578510 0.000000 -0.038430 
#    y 0.000000 1.628230 0.000000 
#    z -0.038430 0.000000 1.635710 
# 
# From -- ./inp_files/36991.got.cif
#   From: 2010.06.25/outbox.cif.g09.slc.cpg/sg11_19_cif.got.tgz:36991.got - 2010.06.27 23:14:04.
