data_PCOD8070274
_publ_section_title
;
Structure prediction by ZEFSAII (Michael W. Deem and Ramdas Pophale) SiO2 
 PCOD8070274
Probable space group: P 21/M
;
_chemical_formula_sum "Si O2"
_cell_formula_units_Z 28
_cell_length_a 19.134563
_cell_length_b 9.144372
_cell_length_c 14.383687
_cell_angle_alpha 90.000000
_cell_angle_beta 146.995453
_cell_angle_gamma 90.000000
_cell_volume 1370.895938
_symmetry_space_group_name_H-M "P 21/M"
_symmetry_group_IT_number 11
_symmetry_cell_setting 'monoclinic'
loop_
_space_group_symop_operation_xyz
x,y,z
-x,1/2+y,-z
-x,-y,-z
x,1/2-y,z
loop_
_atom_site_type_symbol
_atom_site_label
_atom_site_fract_x
_atom_site_fract_y
_atom_site_fract_z
Si Si1 0.793460 0.419561 0.007079
Si Si2 0.737191 0.590059 0.118288
Si Si3 0.320622 0.924952 0.533277
Si Si4 0.536739 0.411968 0.131032
Si Si5 0.923796 0.922031 0.694746
Si Si6 0.091431 0.082423 0.531775
Si Si7 0.475676 0.573714 0.374911
O O1 0.775202 0.250000 0.998821
O O2 0.668404 0.479835 0.814094
O O3 0.805001 0.477967 0.124912
O O4 0.929411 0.454241 0.107337
O O5 0.790514 0.750000 0.150221
O O6 0.768878 0.561101 0.263343
O O7 0.585110 0.585203 0.935873
O O8 0.327990 0.750000 0.524134
O O9 0.351003 0.968116 0.675203
O O10 0.176365 0.985730 0.353981
O O11 0.418830 0.010016 0.577091
O O12 0.569551 0.250000 0.132333
O O13 0.500000 0.500000 0.000000
O O14 0.891241 0.750000 0.666525
O O15 0.908834 0.980808 0.572263
O O16 0.047736 0.250000 0.477399
O O17 0.000000 0.000000 0.500000
O O18 0.500000 0.500000 0.500000
O O19 0.486255 0.750000 0.391568
#
# Coordination Sequence:
#
# PCOD8070274 Si02
#       7
#     4   4   4   4   4   4   4
#     4  10  21  38  62  89 116 153 199 245 298 361
#     4  10  19  32  51  78 114 156 201 250 297 345
#     4  11  23  40  62  92 126 162 206 255 307 366
#     4  10  21  35  53  80 118 162 206 252 299 353
#     4  10  21  38  58  85 125 166 204 251 304 358
#     4  10  19  30  49  77 116 164 210 251 295 349
#     4  11  24  44  71  98 122 154 198 253 316 378
#
# _framework density 20.424598
#
# number of rings (size 3 to 8) (size 9 to 14) (size 15 to 20)
#    0.000    1.714    2.857    1.714    0.000    4.571 
#    0.000    0.714    0.000    0.000    0.000    0.000 
#    0.000    0.000    0.000    0.000    0.000    0.000 
#
# Total GULP energy -346943.915937 kJ/mol
# GULP energy per Si atom -12390.854141 kJ/mol
# Density = 2.037811 g / cm^3
# Si number density = 20.424598 Si / 1000 Ang^3
#
#
#
# Elastic Constant Matrix: (Units=GPa)
#
#
# Indices 1 2 3 4 5 6 
#
# 1 86.9128 47.9286 60.4087 0.0000 7.6278 0.0000
# 2 47.9286 62.6872 44.0344 0.0000 2.4737 0.0000
# 3 60.4087 44.0344 110.7370 0.0000 16.5220 0.0000
# 4 0.0000 0.0000 0.0000 26.0966 0.0000 1.3607
# 5 7.6278 2.4737 16.5220 0.0000 33.0280 0.0000
# 6 0.0000 0.0000 0.0000 1.3607 0.0000 35.9673
#
#
#
# Elastic Compliance Matrix: (Units=1/GPa)
#
#
# Indices 1 2 3 4 5 6 
#
# 1 0.024221 -0.012874 -0.008000 0.000000 -0.000628 0.000000
# 2 -0.012874 0.029251 -0.005106 0.000000 0.003337 0.000000
# 3 -0.008000 -0.005106 0.016309 0.000000 -0.005929 0.000000
# 4 0.000000 0.000000 0.000000 0.038395 0.000000 -0.001453
# 5 -0.000628 0.003337 -0.005929 0.000000 0.033138 0.000000
# 6 0.000000 0.000000 0.000000 -0.001453 0.000000 0.027858
#
#
# Mechanical properties :
#
#
# Convention : Reuss Voigt Hill
#
# Bulk Modulus (GPa) = 56.11544 62.78672 59.45108
# Shear Modulus (GPa) = 22.01946 26.21606 24.11776
#
# Velocity S-wave (km/s) = 3.28698 3.58656 3.44003
# Velocity P-wave (km/s) = 6.47609 6.92522 6.70442
#
# Compressibility (1/GPa) = 0.01782041
#
# Stress axis : x y z
#
# Youngs Moduli (GPa) = 41.28723 34.18740 61.31431
#
# Poissons Ratio (x) = 0.44013 0.49049
# Poissons Ratio (y) = 0.53154 0.31309
# Poissons Ratio (z) = 0.33028 0.17457
#
# Static dielectric constant tensor:
#      x y z
#    x 3.518030 0.000000 0.230060 
#    y 0.000000 3.682290 0.000000 
#    z 0.230060 0.000000 4.302350 
# 
# 
# High freq. dielectric constant tensor:
#      x y z
#    x 1.776620 0.000000 0.021750 
#    y 0.000000 1.792530 0.000000 
#    z 0.021750 0.000000 1.807440 
# 
# From -- ./inp_files/54638.got.cif
#   From: 2010.06.25/outbox.cif.g09.slc.cpg/sg11_28_cif.got.tgz:54638.got - 2010.06.27 23:14:04.
