data_PCOD8070670
_publ_section_title
;
Structure prediction by ZEFSAII (Michael W. Deem and Ramdas Pophale) SiO2 
 PCOD8070670
Probable space group: P 21/M
;
_chemical_formula_sum "Si O2"
_cell_formula_units_Z 28
_cell_length_a 15.242526
_cell_length_b 8.850902
_cell_length_c 12.189437
_cell_angle_alpha 90.000000
_cell_angle_beta 121.293558
_cell_angle_gamma 90.000000
_cell_volume 1405.234977
_symmetry_space_group_name_H-M "P 21/M"
_symmetry_group_IT_number 11
_symmetry_cell_setting 'monoclinic'
loop_
_space_group_symop_operation_xyz
x,y,z
-x,1/2+y,-z
-x,-y,-z
x,1/2-y,z
loop_
_atom_site_type_symbol
_atom_site_label
_atom_site_fract_x
_atom_site_fract_y
_atom_site_fract_z
Si Si1 0.795575 0.918640 0.245603
Si Si2 0.713674 0.570049 0.971949
Si Si3 0.805620 0.070287 0.640945
Si Si4 0.978577 0.083571 0.596513
Si Si5 0.113883 0.070607 0.087869
Si Si6 0.689465 0.573827 0.384257
Si Si7 0.511324 0.072842 0.886500
O O1 0.750283 0.750000 0.230530
O O2 0.778456 0.988320 0.356450
O O3 0.910719 0.913094 0.273936
O O4 0.731523 0.995091 0.106897
O O5 0.702052 0.750000 0.959484
O O6 0.810596 0.520311 0.961383
O O7 0.605588 0.491879 0.873974
O O8 0.805802 0.250000 0.659045
O O9 0.900016 0.007057 0.628797
O O10 0.822344 0.988627 0.766525
O O11 0.703175 0.017337 0.508299
O O12 0.937668 0.250000 0.541805
O O13 0.000000 0.000000 0.500000
O O14 0.100052 0.250000 0.085227
O O15 0.000000 0.000000 0.000000
O O16 0.699543 0.750000 0.420487
O O17 0.584269 0.534647 0.254452
O O18 0.524253 0.250000 0.912463
O O19 0.500000 0.000000 0.000000
#
# Coordination Sequence:
#
# PCOD8070670 Si02
#       7
#     4   4   4   4   4   4   4
#     4   9  16  31  54  79 114 152 186 235 297 357
#     4  10  21  40  63  88 118 158 206 255 309 363
#     4  11  23  38  58  87 123 159 203 254 303 361
#     4  10  19  31  50  78 112 150 189 235 291 355
#     4  11  24  43  68  92 122 163 207 253 303 366
#     4  10  20  36  58  84 118 159 197 241 304 364
#     4  11  22  37  60  91 126 163 205 256 310 371
#
# _framework density 19.925492999999999
#
# number of rings (size 3 to 8) (size 9 to 14) (size 15 to 20)
#    0.000    1.714    2.857    2.143    0.000    5.143 
#    0.000    1.429    0.000    0.000    0.000    0.000 
#    0.000    0.000    0.000    0.000    0.000    0.000 
#
# Total GULP energy -346867.251202 kJ/mol
# GULP energy per Si atom -12388.116114 kJ/mol
# Density = 1.988014 g / cm^3
# Si number density = 19.925493 Si / 1000 Ang^3
#
#
#
# Elastic Constant Matrix: (Units=GPa)
#
#
# Indices 1 2 3 4 5 6 
#
# 1 98.2502 36.5711 32.8802 0.0000 4.8667 0.0000
# 2 36.5711 66.8283 41.3352 0.0000 0.2239 0.0000
# 3 32.8802 41.3352 130.7279 0.0000 -3.5137 0.0000
# 4 0.0000 0.0000 0.0000 32.0043 0.0000 2.1274
# 5 4.8667 0.2239 -3.5137 0.0000 25.9571 0.0000
# 6 0.0000 0.0000 0.0000 2.1274 0.0000 28.9437
#
#
#
# Elastic Compliance Matrix: (Units=1/GPa)
#
#
# Indices 1 2 3 4 5 6 
#
# 1 0.013118 -0.006323 -0.001370 0.000000 -0.002590 0.000000
# 2 -0.006323 0.021673 -0.005255 0.000000 0.000287 0.000000
# 3 -0.001370 -0.005255 0.009699 0.000000 0.001615 0.000000
# 4 0.000000 0.000000 0.000000 0.031399 0.000000 -0.002308
# 5 -0.002590 0.000287 0.001615 0.000000 0.039227 0.000000
# 6 0.000000 0.000000 0.000000 -0.002308 0.000000 0.034719
#
#
# Mechanical properties :
#
#
# Convention : Reuss Voigt Hill
#
# Bulk Modulus (GPa) = 53.77713 57.48660 55.63186
# Shear Modulus (GPa) = 27.48313 29.71570 28.59941
#
# Velocity S-wave (km/s) = 3.71791 3.86598 3.79267
# Velocity P-wave (km/s) = 6.74375 6.98864 6.86729
#
# Compressibility (1/GPa) = 0.01859527
#
# Stress axis : x y z
#
# Youngs Moduli (GPa) = 76.22893 46.14000 103.10372
#
# Poissons Ratio (x) = 0.29174 0.14124
# Poissons Ratio (y) = 0.48199 0.54180
# Poissons Ratio (z) = 0.10442 0.24246
#
# Static dielectric constant tensor:
#      x y z
#    x 7.897430 0.000000 2.459060 
#    y 0.000000 3.485770 0.000000 
#    z 2.459060 0.000000 5.091970 
# 
# 
# High freq. dielectric constant tensor:
#      x y z
#    x 1.773490 0.000000 0.009890 
#    y 0.000000 1.760390 0.000000 
#    z 0.009890 0.000000 1.785120 
# 
# From -- ./inp_files/38491.got.cif
#   From: 2010.06.25/outbox.cif.g09.slc.cpg/sg11_20_cif.got.tgz:38491.got - 2010.06.27 23:14:04.
