data_PCOD8070867
_publ_section_title
;
Structure prediction by ZEFSAII (Michael W. Deem and Ramdas Pophale) SiO2 
 PCOD8070867
Probable space group: P 21/M
;
_chemical_formula_sum "Si O2"
_cell_formula_units_Z 32
_cell_length_a 15.758200
_cell_length_b 9.628186
_cell_length_c 11.935972
_cell_angle_alpha 90.000000
_cell_angle_beta 79.152140
_cell_angle_gamma 90.000000
_cell_volume 1778.598897
_symmetry_space_group_name_H-M "P 21/M"
_symmetry_group_IT_number 11
_symmetry_cell_setting 'monoclinic'
loop_
_space_group_symop_operation_xyz
x,y,z
-x,1/2+y,-z
-x,-y,-z
x,1/2-y,z
loop_
_atom_site_type_symbol
_atom_site_label
_atom_site_fract_x
_atom_site_fract_y
_atom_site_fract_z
Si Si1 0.754427 0.587808 0.703854
Si Si2 0.086458 0.411466 0.488265
Si Si3 0.780125 0.412022 0.907420
Si Si4 0.974349 0.092564 0.902991
Si Si5 0.138146 0.091949 0.719869
Si Si6 0.734356 0.409759 0.165529
Si Si7 0.610542 0.588676 0.563786
Si Si8 0.415368 0.591837 0.638167
O O1 0.745810 0.750000 0.733998
O O2 0.848680 0.553720 0.629403
O O3 0.736744 0.501461 0.820547
O O4 0.680294 0.539869 0.636602
O O5 0.059676 0.250000 0.495183
O O6 0.138430 0.447780 0.589035
O O7 0.000000 0.500000 0.500000
O O8 0.763510 0.250000 0.887845
O O9 0.880890 0.450342 0.881769
O O10 0.738512 0.459442 0.035938
O O11 0.973331 0.250000 0.947348
O O12 0.040144 0.071230 0.785118
O O13 0.000000 0.000000 0.000000
O O14 0.169255 0.250000 0.730508
O O15 0.200743 0.993751 0.772976
O O16 0.764029 0.250000 0.165200
O O17 0.636657 0.431083 0.233420
O O18 0.622481 0.750000 0.531701
O O19 0.515300 0.554889 0.636007
O O20 0.626526 0.505336 0.445689
O O21 0.406438 0.750000 0.598213
#
# Coordination Sequence:
#
# PCOD8070867 Si02
#       8
#     4   4   4   4   4   4   4   4
#     4  10  21  36  54  75 102 139 177 211 252 304
#     4  10  21  36  52  74 103 134 170 211 256 303
#     4  10  21  36  52  72 103 140 175 214 255 300
#     4  10  19  32  50  72  99 134 172 210 251 297
#     4  10  20  33  52  76 102 133 171 214 258 304
#     4  10  20  34  52  77 105 133 168 211 260 306
#     4   9  18  35  57  80 106 135 167 208 257 308
#     4   9  18  33  56  83 107 131 165 210 259 311
#
# _framework density 17.991689000000001
#
# number of rings (size 3 to 8) (size 9 to 14) (size 15 to 20)
#    0.000    2.250    1.250    1.500    0.000    5.000 
#    0.000    0.625    0.000    0.000    0.000    0.000 
#    0.000    0.000    0.000    0.000    0.000    0.000 
#
# Total GULP energy -396861.897149 kJ/mol
# GULP energy per Si atom -12401.934286 kJ/mol
# Density = 1.795074 g / cm^3
# Si number density = 17.991689 Si / 1000 Ang^3
#
#
#
# Elastic Constant Matrix: (Units=GPa)
#
#
# Indices 1 2 3 4 5 6 
#
# 1 87.9549 40.2612 48.0637 0.0000 2.6694 0.0000
# 2 40.2612 61.8700 53.1642 0.0000 8.5096 0.0000
# 3 48.0637 53.1642 122.8999 0.0000 -0.3896 0.0000
# 4 0.0000 0.0000 0.0000 34.1510 0.0000 4.8519
# 5 2.6694 8.5096 -0.3896 0.0000 28.9584 0.0000
# 6 0.0000 0.0000 0.0000 4.8519 0.0000 25.8782
#
#
#
# Elastic Compliance Matrix: (Units=1/GPa)
#
#
# Indices 1 2 3 4 5 6 
#
# 1 0.016858 -0.008656 -0.002845 0.000000 0.000951 0.000000
# 2 -0.008656 0.032014 -0.010491 0.000000 -0.008751 0.000000
# 3 -0.002845 -0.010491 0.013799 0.000000 0.003531 0.000000
# 4 0.000000 0.000000 0.000000 0.030083 0.000000 -0.005640
# 5 0.000951 -0.008751 0.003531 0.000000 0.037064 0.000000
# 6 0.000000 0.000000 0.000000 -0.005640 0.000000 0.039700
#
#
# Mechanical properties :
#
#
# Convention : Reuss Voigt Hill
#
# Bulk Modulus (GPa) = 53.51631 61.74478 57.63054
# Shear Modulus (GPa) = 22.75505 26.54658 24.65081
#
# Velocity S-wave (km/s) = 3.56020 3.84538 3.70553
# Velocity P-wave (km/s) = 6.83444 7.35588 7.09995
#
# Compressibility (1/GPa) = 0.01868589
#
# Stress axis : x y z
#
# Youngs Moduli (GPa) = 59.32029 31.23594 72.46876
#
# Poissons Ratio (x) = 0.27037 0.20620
# Poissons Ratio (y) = 0.51347 0.76030
# Poissons Ratio (z) = 0.16879 0.32771
#
# Static dielectric constant tensor:
#      x y z
#    x 3.351890 0.000000 -0.195630 
#    y 0.000000 3.305520 0.000000 
#    z -0.195630 0.000000 3.367140 
# 
# 
# High freq. dielectric constant tensor:
#      x y z
#    x 1.693290 0.000000 -0.011630 
#    y 0.000000 1.693990 0.000000 
#    z -0.011630 0.000000 1.696920 
# 
# From -- ./inp_files/38087.got.cif
#   From: 2010.06.25/outbox.cif.g09.slc.cpg/sg11_20_cif.got.tgz:38087.got - 2010.06.27 23:14:04.
