data_PCOD8070716
_publ_section_title
;
Structure prediction by ZEFSAII (Michael W. Deem and Ramdas Pophale) SiO2 
 PCOD8070716
Probable space group: P 21/M
;
_chemical_formula_sum "Si O2"
_cell_formula_units_Z 28
_cell_length_a 12.581733
_cell_length_b 8.930186
_cell_length_c 14.945367
_cell_angle_alpha 90.000000
_cell_angle_beta 74.089882
_cell_angle_gamma 90.000000
_cell_volume 1614.893811
_symmetry_space_group_name_H-M "P 21/M"
_symmetry_group_IT_number 11
_symmetry_cell_setting 'monoclinic'
loop_
_space_group_symop_operation_xyz
x,y,z
-x,1/2+y,-z
-x,-y,-z
x,1/2-y,z
loop_
_atom_site_type_symbol
_atom_site_label
_atom_site_fract_x
_atom_site_fract_y
_atom_site_fract_z
Si Si1 0.153988 0.577245 0.894494
Si Si2 0.249411 0.425750 0.403933
Si Si3 0.701543 0.572774 0.275989
Si Si4 0.867291 0.572036 0.391862
Si Si5 0.493116 0.426901 0.404843
Si Si6 0.110372 0.923844 0.290944
Si Si7 0.932738 0.421469 0.897084
O O1 0.174890 0.750000 0.866360
O O2 0.252611 0.478228 0.831025
O O3 0.037195 0.529723 0.879543
O O4 0.152061 0.549758 0.001980
O O5 0.233375 0.250000 0.402445
O O6 0.177819 0.490373 0.503453
O O7 0.376507 0.469345 0.387601
O O8 0.207674 0.494940 0.321180
O O9 0.684761 0.750000 0.282255
O O10 0.787081 0.515103 0.331606
O O11 0.584933 0.493461 0.318218
O O12 0.866388 0.750000 0.390013
O O13 0.990703 0.510402 0.347406
O O14 0.500000 0.500000 0.500000
O O15 0.507309 0.250000 0.412345
O O16 0.115961 0.750000 0.313188
O O17 0.130327 0.953693 0.181061
O O18 0.977014 0.250000 0.888647
#
# Coordination Sequence:
#
# PCOD8070716 Si02
#       7
#     4   4   4   4   4   4   4
#     4  10  19  31  51  81 108 136 176 218 264 319
#     4  10  21  36  51  73 107 142 174 216 262 305
#     4  11  20  35  56  77 108 142 174 219 269 314
#     4   9  17  32  51  73 105 141 169 203 258 308
#     4  11  22  37  56  78 105 139 180 223 264 308
#     4  10  19  33  53  76 105 143 178 210 255 316
#     4   9  18  33  52  75 109 143 172 215 267 313
#
# _framework density 17.338601000000001
#
# number of rings (size 3 to 8) (size 9 to 14) (size 15 to 20)
#    0.000    2.000    2.857    1.714    0.000    2.286 
#    0.000    0.000    0.000    0.857    0.000    0.000 
#    0.000    0.000    0.000    0.000    0.000    0.000 
#
# Total GULP energy -347248.317606 kJ/mol
# GULP energy per Si atom -12401.725629 kJ/mol
# Density = 1.729914 g / cm^3
# Si number density = 17.338601 Si / 1000 Ang^3
#
#
#
# Elastic Constant Matrix: (Units=GPa)
#
#
# Indices 1 2 3 4 5 6 
#
# 1 120.1261 48.1340 69.0851 0.0000 3.9171 0.0000
# 2 48.1340 50.7540 37.5882 0.0000 1.3292 0.0000
# 3 69.0851 37.5882 129.5317 0.0000 1.1482 0.0000
# 4 0.0000 0.0000 0.0000 28.7476 0.0000 -0.7511
# 5 3.9171 1.3292 1.1482 0.0000 25.4337 0.0000
# 6 0.0000 0.0000 0.0000 -0.7511 0.0000 28.2933
#
#
#
# Elastic Compliance Matrix: (Units=1/GPa)
#
#
# Indices 1 2 3 4 5 6 
#
# 1 0.015819 -0.011110 -0.005199 0.000000 -0.001621 0.000000
# 2 -0.011110 0.032923 -0.003630 0.000000 0.000154 0.000000
# 3 -0.005199 -0.003630 0.011542 0.000000 0.000469 0.000000
# 4 0.000000 0.000000 0.000000 0.034810 0.000000 0.000924
# 5 -0.001621 0.000154 0.000469 0.000000 0.039538 0.000000
# 6 0.000000 0.000000 0.000000 0.000924 0.000000 0.035369
#
#
# Mechanical properties :
#
#
# Convention : Reuss Voigt Hill
#
# Bulk Modulus (GPa) = 49.00138 67.78070 58.39104
# Shear Modulus (GPa) = 23.07555 26.20191 24.63873
#
# Velocity S-wave (km/s) = 3.65208 3.89162 3.77375
# Velocity P-wave (km/s) = 6.79017 7.70520 7.26211
#
# Compressibility (1/GPa) = 0.02040759
#
# Stress axis : x y z
#
# Youngs Moduli (GPa) = 63.21590 30.37364 86.64016
#
# Poissons Ratio (x) = 0.33744 0.45041
# Poissons Ratio (y) = 0.70231 0.31450
# Poissons Ratio (z) = 0.32864 0.11025
#
# Static dielectric constant tensor:
#      x y z
#    x 3.142100 0.000000 -0.079390 
#    y 0.000000 3.141240 0.000000 
#    z -0.079390 0.000000 3.442870 
# 
# 
# High freq. dielectric constant tensor:
#      x y z
#    x 1.647760 0.000000 -0.003420 
#    y 0.000000 1.663130 0.000000 
#    z -0.003420 0.000000 1.676070 
# 
# From -- ./inp_files/37495.got.cif
#   From: 2010.06.25/outbox.cif.g09.slc.cpg/sg11_19_cif.got.tgz:37495.got - 2010.06.27 23:14:04.
