data_PCOD8070056
_publ_section_title
;
Structure prediction by ZEFSAII (Michael W. Deem and Ramdas Pophale) SiO2 
 PCOD8070056
Probable space group: P 21/M
;
_chemical_formula_sum "Si O2"
_cell_formula_units_Z 32
_cell_length_a 26.281459
_cell_length_b 9.038475
_cell_length_c 18.248306
_cell_angle_alpha 90.000000
_cell_angle_beta 29.265820
_cell_angle_gamma 90.000000
_cell_volume 2119.110394
_symmetry_space_group_name_H-M "P 21/M"
_symmetry_group_IT_number 11
_symmetry_cell_setting 'monoclinic'
loop_
_space_group_symop_operation_xyz
x,y,z
-x,1/2+y,-z
-x,-y,-z
x,1/2-y,z
loop_
_atom_site_type_symbol
_atom_site_label
_atom_site_fract_x
_atom_site_fract_y
_atom_site_fract_z
Si Si1 0.129691 0.578363 0.897117
Si Si2 0.652532 0.913723 0.782381
Si Si3 0.650516 0.080113 0.325909
Si Si4 0.901659 0.576866 0.210971
Si Si5 0.428617 0.914600 0.989480
Si Si6 0.518640 0.074117 0.743351
Si Si7 0.723729 0.575428 0.540764
Si Si8 0.493782 0.921794 0.624688
O O1 0.122344 0.750000 0.887503
O O2 0.226209 0.544284 0.829677
O O3 0.148989 0.497367 0.796293
O O4 0.021745 0.524990 0.070814
O O5 0.685893 0.750000 0.766257
O O6 0.537207 0.909233 0.894789
O O7 0.727275 0.970244 0.622391
O O8 0.658338 0.020174 0.845626
O O9 0.629077 0.250000 0.376148
O O10 0.607364 0.050544 0.298849
O O11 0.596276 0.974313 0.452962
O O12 0.894777 0.750000 0.206358
O O13 0.834866 0.532180 0.366317
O O14 0.393682 0.750000 0.009886
O O15 0.438324 0.017089 0.905890
O O16 0.521702 0.250000 0.741447
O O17 0.634248 0.011944 0.610348
O O18 0.476234 0.017749 0.719065
O O19 0.698306 0.750000 0.565913
O O20 0.507597 0.750000 0.627899
#
# Coordination Sequence:
#
# PCOD8070056 Si02
#       8
#     4   4   4   4   4   4   4   4
#     4   9  17  29  43  59  80 105 134 167 201 236
#     4   8  14  24  37  54  77 104 133 162 192 230
#     4   9  18  31  45  60  79 105 135 168 204 239
#     4   9  17  28  42  60  81 106 135 165 197 234
#     4   9  16  26  39  55  77 105 135 163 194 234
#     4  11  20  28  40  58  81 108 137 168 200 234
#     4   9  17  28  41  58  81 109 138 166 197 234
#     4  10  19  30  43  59  80 105 135 169 203 240
#
# _framework density 15.100676
#
# number of rings (size 3 to 8) (size 9 to 14) (size 15 to 20)
#    0.000    2.750    0.000    3.375    0.000    6.500 
#    0.000    0.000    0.000    0.000    0.000    0.000 
#    0.000    1.000    0.000    1.750    0.000    2.750 
#
# Total GULP energy -396678.809192 kJ/mol
# GULP energy per Si atom -12396.212787 kJ/mol
# Density = 1.506631 g / cm^3
# Si number density = 15.100676 Si / 1000 Ang^3
#
#
#
# Elastic Constant Matrix: (Units=GPa)
#
#
# Indices 1 2 3 4 5 6 
#
# 1 70.2459 36.9375 53.6915 0.0000 5.8960 0.0000
# 2 36.9375 75.4655 43.4395 0.0000 10.9114 0.0000
# 3 53.6915 43.4395 115.4270 0.0000 16.2538 0.0000
# 4 0.0000 0.0000 0.0000 20.8387 0.0000 6.7506
# 5 5.8960 10.9114 16.2538 0.0000 23.8481 0.0000
# 6 0.0000 0.0000 0.0000 6.7506 0.0000 19.7496
#
#
#
# Elastic Compliance Matrix: (Units=1/GPa)
#
#
# Indices 1 2 3 4 5 6 
#
# 1 0.024935 -0.007346 -0.009335 0.000000 0.003559 0.000000
# 2 -0.007346 0.019390 -0.003193 0.000000 -0.004879 0.000000
# 3 -0.009335 -0.003193 0.015129 0.000000 -0.006542 0.000000
# 4 0.000000 0.000000 0.000000 0.053963 0.000000 -0.018445
# 5 0.003559 -0.004879 -0.006542 0.000000 0.047743 0.000000
# 6 0.000000 0.000000 0.000000 -0.018445 0.000000 0.056938
#
#
# Mechanical properties :
#
#
# Convention : Reuss Voigt Hill
#
# Bulk Modulus (GPa) = 50.74755 58.80836 54.77796
# Shear Modulus (GPa) = 18.90966 21.35862 20.13414
#
# Velocity S-wave (km/s) = 3.54254 3.76495 3.65544
# Velocity P-wave (km/s) = 7.10013 7.61108 7.36004
#
# Compressibility (1/GPa) = 0.01970538
#
# Stress axis : x y z
#
# Youngs Moduli (GPa) = 40.10456 51.57269 66.09909
#
# Poissons Ratio (x) = 0.37883 0.61705
# Poissons Ratio (y) = 0.29459 0.21108
# Poissons Ratio (z) = 0.37439 0.16469
#
# Static dielectric constant tensor:
#      x y z
#    x 2.762950 0.000000 0.158210 
#    y 0.000000 3.023050 0.000000 
#    z 0.158210 0.000000 3.083430 
# 
# 
# High freq. dielectric constant tensor:
#      x y z
#    x 1.542910 0.000000 0.021320 
#    y 0.000000 1.586380 0.000000 
#    z 0.021320 0.000000 1.566510 
# 
# From -- ./inp_files/52958.got.cif
#   From: 2010.06.25/outbox.cif.g09.slc.cpg/sg11_27_cif.got.tgz:52958.got - 2010.06.27 23:14:04.
