data_PCOD8070034
_publ_section_title
;
Structure prediction by ZEFSAII (Michael W. Deem and Ramdas Pophale) SiO2 
 PCOD8070034
Probable space group: P 21/M
;
_chemical_formula_sum "Si O2"
_cell_formula_units_Z 32
_cell_length_a 21.428725
_cell_length_b 9.037145
_cell_length_c 14.179233
_cell_angle_alpha 90.000000
_cell_angle_beta 46.167940
_cell_angle_gamma 90.000000
_cell_volume 1980.797589
_symmetry_space_group_name_H-M "P 21/M"
_symmetry_group_IT_number 11
_symmetry_cell_setting 'monoclinic'
loop_
_space_group_symop_operation_xyz
x,y,z
-x,1/2+y,-z
-x,-y,-z
x,1/2-y,z
loop_
_atom_site_type_symbol
_atom_site_label
_atom_site_fract_x
_atom_site_fract_y
_atom_site_fract_z
Si Si1 0.195877 0.077089 0.222098
Si Si2 0.400350 0.421129 0.513079
Si Si3 0.009859 0.080010 0.392962
Si Si4 0.320223 0.078692 0.400621
Si Si5 0.175112 0.576449 0.444081
Si Si6 0.602597 0.078561 0.295409
Si Si7 0.640347 0.925678 0.070778
Si Si8 0.508140 0.576157 0.891191
O O1 0.203952 0.250000 0.237796
O O2 0.107163 0.043690 0.254019
O O3 0.198067 0.991770 0.318537
O O4 0.275332 0.024591 0.075392
O O5 0.383752 0.250000 0.554627
O O6 0.348941 0.472743 0.474410
O O7 0.366913 0.519969 0.634667
O O8 0.500997 0.448910 0.388000
O O9 0.003559 0.250000 0.424753
O O10 0.925033 0.038751 0.419233
O O11 0.000000 0.000000 0.500000
O O12 0.295952 0.250000 0.426551
O O13 0.395488 0.047282 0.246615
O O14 0.235431 0.988080 0.462167
O O15 0.191635 0.750000 0.419668
O O16 0.627254 0.250000 0.260158
O O17 0.652683 0.984925 0.163801
O O18 0.627434 0.750000 0.084410
O O19 0.557533 0.003304 0.112729
O O20 0.488087 0.750000 0.920053
O O21 0.500000 0.500000 0.000000
#
# Coordination Sequence:
#
# PCOD8070034 Si02
#       8
#     4   4   4   4   4   4   4   4
#     4   9  18  32  48  66  93 129 161 189 230 279
#     4   9  18  34  51  68  89 120 157 193 233 280
#     4   8  15  29  46  65  91 120 153 194 234 274
#     4  10  20  34  48  64  93 128 158 187 228 280
#     4  10  19  29  46  72  96 121 157 198 236 271
#     4  10  19  33  51  71  93 119 151 196 242 277
#     4  11  21  32  48  70  93 125 162 193 228 277
#     4  11  22  35  46  63  93 130 164 193 228 270
#
# _framework density 16.155110000000001
#
# number of rings (size 3 to 8) (size 9 to 14) (size 15 to 20)
#    0.000    2.250    1.250    2.250    0.000    6.500 
#    0.000    0.000    0.000    0.000    0.000    0.875 
#    0.000    0.000    0.000    0.000    0.000    0.000 
#
# Total GULP energy -396623.227678 kJ/mol
# GULP energy per Si atom -12394.475865 kJ/mol
# Density = 1.611834 g / cm^3
# Si number density = 16.155110 Si / 1000 Ang^3
#
#
#
# Elastic Constant Matrix: (Units=GPa)
#
#
# Indices 1 2 3 4 5 6 
#
# 1 107.8958 41.3266 39.2656 0.0000 1.5893 0.0000
# 2 41.3266 60.1796 25.1007 0.0000 0.9270 0.0000
# 3 39.2656 25.1007 34.2021 0.0000 4.1859 0.0000
# 4 0.0000 0.0000 0.0000 21.3996 0.0000 3.8451
# 5 1.5893 0.9270 4.1859 0.0000 25.2440 0.0000
# 6 0.0000 0.0000 0.0000 3.8451 0.0000 28.7296
#
#
#
# Elastic Compliance Matrix: (Units=1/GPa)
#
#
# Indices 1 2 3 4 5 6 
#
# 1 0.017007 -0.005003 -0.016070 0.000000 0.001778 0.000000
# 2 -0.005003 0.025526 -0.013181 0.000000 0.001563 0.000000
# 3 -0.016070 -0.013181 0.058362 0.000000 -0.008182 0.000000
# 4 0.000000 0.000000 0.000000 0.047881 0.000000 -0.006408
# 5 0.001778 0.001563 -0.008182 0.000000 0.040801 0.000000
# 6 0.000000 0.000000 0.000000 -0.006408 0.000000 0.035665
#
#
# Mechanical properties :
#
#
# Convention : Reuss Voigt Hill
#
# Bulk Modulus (GPa) = 30.87726 45.96258 38.41992
# Shear Modulus (GPa) = 16.41789 21.51363 18.96576
#
# Velocity S-wave (km/s) = 3.19135 3.65319 3.43006
# Velocity P-wave (km/s) = 5.72137 6.80493 6.28654
#
# Compressibility (1/GPa) = 0.03238630
#
# Stress axis : x y z
#
# Youngs Moduli (GPa) = 58.80040 39.17501 17.13453
#
# Poissons Ratio (x) = 0.19601 0.27535
# Poissons Ratio (y) = 0.29421 0.22585
# Poissons Ratio (z) = 0.94492 0.51636
#
# Static dielectric constant tensor:
#      x y z
#    x 3.565240 0.000000 -0.137820 
#    y 0.000000 3.112430 0.000000 
#    z -0.137820 0.000000 3.250060 
# 
# 
# High freq. dielectric constant tensor:
#      x y z
#    x 1.614020 0.000000 -0.008390 
#    y 0.000000 1.632010 0.000000 
#    z -0.008390 0.000000 1.600320 
# 
# From -- ./inp_files/51319.got.cif
#   From: 2010.06.25/outbox.cif.g09.slc.cpg/sg11_26_cif.got.tgz:51319.got - 2010.06.27 23:14:04.
