data_PCOD8070554
_publ_section_title
;
Structure prediction by ZEFSAII (Michael W. Deem and Ramdas Pophale) SiO2 
 PCOD8070554
Probable space group: P 21/M
;
_chemical_formula_sum "Si O2"
_cell_formula_units_Z 28
_cell_length_a 14.357613
_cell_length_b 8.827007
_cell_length_c 19.190846
_cell_angle_alpha 90.000000
_cell_angle_beta 41.864935
_cell_angle_gamma 90.000000
_cell_volume 1623.158807
_symmetry_space_group_name_H-M "P 21/M"
_symmetry_group_IT_number 11
_symmetry_cell_setting 'monoclinic'
loop_
_space_group_symop_operation_xyz
x,y,z
-x,1/2+y,-z
-x,-y,-z
x,1/2-y,z
loop_
_atom_site_type_symbol
_atom_site_label
_atom_site_fract_x
_atom_site_fract_y
_atom_site_fract_z
Si Si1 0.209533 0.927156 0.887701
Si Si2 0.800369 0.923498 0.599921
Si Si3 0.900553 0.928195 0.314338
Si Si4 0.974954 0.928295 0.120279
Si Si5 0.517557 0.924667 0.690516
Si Si6 0.599076 0.428945 0.502609
Si Si7 0.011022 0.424576 0.382255
O O1 0.187687 0.750000 0.890517
O O2 0.371461 0.969183 0.808311
O O3 0.157453 0.003346 0.845716
O O4 0.119524 0.985652 0.004221
O O5 0.840064 0.750000 0.558606
O O6 0.635491 0.952058 0.683557
O O7 0.846858 0.957753 0.653580
O O8 0.878766 0.034482 0.503623
O O9 0.872340 0.750000 0.332532
O O10 0.969659 0.980688 0.203243
O O11 0.755429 0.012164 0.406857
O O12 0.010385 0.974832 0.312990
O O13 0.961760 0.750000 0.122375
O O14 0.517164 0.750000 0.665789
O O15 0.542238 0.028715 0.610134
O O16 0.500000 0.500000 0.500000
O O17 0.597508 0.250000 0.494608
O O18 0.998682 0.250000 0.367538
#
# Coordination Sequence:
#
# PCOD8070554 Si02
#       7
#     4   4   4   4   4   4   4
#     4   9  18  33  53  75  97 126 167 208 247 294
#     4   9  18  32  50  72 101 132 165 204 251 302
#     4  11  21  34  51  72 101 135 168 206 250 296
#     4   9  19  34  51  72  98 130 168 207 247 292
#     4  10  19  33  53  75 100 130 163 204 252 301
#     4  12  24  35  48  71 103 135 165 200 246 301
#     4  10  19  31  49  74 100 131 168 207 249 299
#
# _framework density 17.250313999999999
#
# number of rings (size 3 to 8) (size 9 to 14) (size 15 to 20)
#    0.000    2.000    1.429    3.000    0.000    4.571 
#    0.000    0.000    0.000    0.857    0.000    0.000 
#    0.000    0.000    0.000    0.000    0.000    0.571 
#
# Total GULP energy -347194.927031 kJ/mol
# GULP energy per Si atom -12399.818823 kJ/mol
# Density = 1.721105 g / cm^3
# Si number density = 17.250314 Si / 1000 Ang^3
#
#
#
# Elastic Constant Matrix: (Units=GPa)
#
#
# Indices 1 2 3 4 5 6 
#
# 1 133.4795 28.4871 62.1982 0.0000 -3.0363 0.0000
# 2 28.4871 53.4236 26.5818 0.0000 1.1285 0.0000
# 3 62.1982 26.5818 95.8549 0.0000 -1.4431 0.0000
# 4 0.0000 0.0000 0.0000 13.0896 0.0000 2.1759
# 5 -3.0363 1.1285 -1.4431 0.0000 26.5322 0.0000
# 6 0.0000 0.0000 0.0000 2.1759 0.0000 27.6424
#
#
#
# Elastic Compliance Matrix: (Units=1/GPa)
#
#
# Indices 1 2 3 4 5 6 
#
# 1 0.011093 -0.002742 -0.006422 0.000000 0.001037 0.000000
# 2 -0.002742 0.022434 -0.004465 0.000000 -0.001511 0.000000
# 3 -0.006422 -0.004465 0.015843 0.000000 0.000317 0.000000
# 4 0.000000 0.000000 0.000000 0.077409 0.000000 -0.006093
# 5 0.001037 -0.001511 0.000317 0.000000 0.037890 0.000000
# 6 0.000000 0.000000 0.000000 -0.006093 0.000000 0.036656
#
#
# Mechanical properties :
#
#
# Convention : Reuss Voigt Hill
#
# Bulk Modulus (GPa) = 45.22432 57.47689 51.35060
# Shear Modulus (GPa) = 21.19066 24.48557 22.83811
#
# Velocity S-wave (km/s) = 3.50869 3.77162 3.64252
# Velocity P-wave (km/s) = 6.53360 7.23591 6.89371
#
# Compressibility (1/GPa) = 0.02211200
#
# Stress axis : x y z
#
# Youngs Moduli (GPa) = 90.14651 44.57569 63.12104
#
# Poissons Ratio (x) = 0.12221 0.40537
# Poissons Ratio (y) = 0.24715 0.28183
# Poissons Ratio (z) = 0.57893 0.19903
#
# Static dielectric constant tensor:
#      x y z
#    x 3.537600 0.000000 -0.031000 
#    y 0.000000 3.267430 0.000000 
#    z -0.031000 0.000000 3.361570 
# 
# 
# High freq. dielectric constant tensor:
#      x y z
#    x 1.670260 0.000000 0.000000 
#    y 0.000000 1.670310 0.000000 
#    z 0.000000 0.000000 1.644760 
# 
# From -- ./inp_files/60083.got.cif
#   From: 2010.06.25/outbox.cif.g09.slc.cpg/sg11_31_cif.got.tgz:60083.got - 2010.06.27 23:14:04.
