data_PCOD8070803
_publ_section_title
;
Structure prediction by ZEFSAII (Michael W. Deem and Ramdas Pophale) SiO2 
 PCOD8070803
Probable space group: P 21/M
;
_chemical_formula_sum "Si O2"
_cell_formula_units_Z 32
_cell_length_a 24.844863
_cell_length_b 8.925011
_cell_length_c 12.070781
_cell_angle_alpha 90.000000
_cell_angle_beta 46.382094
_cell_angle_gamma 90.000000
_cell_volume 1937.729241
_symmetry_space_group_name_H-M "P 21/M"
_symmetry_group_IT_number 11
_symmetry_cell_setting 'monoclinic'
loop_
_space_group_symop_operation_xyz
x,y,z
-x,1/2+y,-z
-x,-y,-z
x,1/2-y,z
loop_
_atom_site_type_symbol
_atom_site_label
_atom_site_fract_x
_atom_site_fract_y
_atom_site_fract_z
Si Si1 0.533978 0.427442 0.249767
Si Si2 0.206728 0.079930 0.350670
Si Si3 0.365575 0.427949 0.504833
Si Si4 0.702491 0.073518 0.611399
Si Si5 0.921908 0.919868 0.617490
Si Si6 0.215947 0.926250 0.121222
Si Si7 0.569304 0.426015 0.958452
Si Si8 0.339456 0.926504 0.768421
O O1 0.531269 0.250000 0.256366
O O2 0.450137 0.490860 0.378154
O O3 0.572245 0.481647 0.081380
O O4 0.585219 0.483973 0.278045
O O5 0.235576 0.250000 0.319984
O O6 0.118234 0.076088 0.446906
O O7 0.220966 0.992601 0.446178
O O8 0.249452 0.998002 0.187074
O O9 0.363044 0.250000 0.499044
O O10 0.316078 0.497465 0.478190
O O11 0.329538 0.481278 0.670407
O O12 0.708903 0.250000 0.584155
O O13 0.642249 0.025026 0.788785
O O14 0.933447 0.750000 0.641931
O O15 0.866819 0.005035 0.782619
O O16 0.000000 0.000000 0.500000
O O17 0.210569 0.750000 0.147425
O O18 0.268588 0.966319 0.944128
O O19 0.557761 0.250000 0.968902
O O20 0.500000 0.500000 0.000000
O O21 0.343323 0.750000 0.737711
#
# Coordination Sequence:
#
# PCOD8070803 Si02
#       8
#     4   4   4   4   4   4   4   4
#     4   9  18  33  50  68  93 126 166 214 266 309
#     4   9  19  32  50  76 105 132 161 200 242 292
#     4  11  22  34  49  67  95 132 173 223 265 300
#     4  11  21  33  50  70  96 131 169 209 255 309
#     4   9  18  31  51  80 112 138 162 195 238 296
#     4   9  17  31  52  76 104 135 165 202 250 297
#     4  10  19  32  49  69  93 123 162 207 259 310
#     4  10  20  35  52  69  95 131 174 217 256 305
#
# _framework density 16.514175999999999
#
# number of rings (size 3 to 8) (size 9 to 14) (size 15 to 20)
#    0.750    1.500    1.250    2.625    0.000    3.500 
#    0.000    1.250    0.000    0.000    0.000    0.875 
#    0.000    0.000    0.000    0.000    0.000    0.000 
#
# Total GULP energy -396604.490110 kJ/mol
# GULP energy per Si atom -12393.890316 kJ/mol
# Density = 1.647659 g / cm^3
# Si number density = 16.514176 Si / 1000 Ang^3
#
#
#
# Elastic Constant Matrix: (Units=GPa)
#
#
# Indices 1 2 3 4 5 6 
#
# 1 99.5786 46.8734 56.9765 0.0000 9.7002 0.0000
# 2 46.8734 81.9949 38.1400 0.0000 4.1833 0.0000
# 3 56.9765 38.1400 71.5063 0.0000 10.3353 0.0000
# 4 0.0000 0.0000 0.0000 23.2328 0.0000 1.3833
# 5 9.7002 4.1833 10.3353 0.0000 28.7027 0.0000
# 6 0.0000 0.0000 0.0000 1.3833 0.0000 28.5728
#
#
#
# Elastic Compliance Matrix: (Units=1/GPa)
#
#
# Indices 1 2 3 4 5 6 
#
# 1 0.020141 -0.005414 -0.012966 0.000000 -0.001349 0.000000
# 2 -0.005414 0.017693 -0.005290 0.000000 0.001156 0.000000
# 3 -0.012966 -0.005290 0.027842 0.000000 -0.004872 0.000000
# 4 0.000000 0.000000 0.000000 0.043167 0.000000 -0.002090
# 5 -0.001349 0.001156 -0.004872 0.000000 0.036882 0.000000
# 6 0.000000 0.000000 0.000000 -0.002090 0.000000 0.035100
#
#
# Mechanical properties :
#
#
# Convention : Reuss Voigt Hill
#
# Bulk Modulus (GPa) = 54.53809 59.67327 57.10568
# Shear Modulus (GPa) = 21.34248 23.50764 22.42506
#
# Velocity S-wave (km/s) = 3.59886 3.77700 3.68901
# Velocity P-wave (km/s) = 7.09688 7.43196 7.26635
#
# Compressibility (1/GPa) = 0.01833581
#
# Stress axis : x y z
#
# Youngs Moduli (GPa) = 49.65050 56.52104 35.91738
#
# Poissons Ratio (x) = 0.30600 0.46569
# Poissons Ratio (y) = 0.26881 0.19000
# Poissons Ratio (z) = 0.64375 0.29900
#
# Static dielectric constant tensor:
#      x y z
#    x 3.123900 0.000000 -0.180400 
#    y 0.000000 3.152480 0.000000 
#    z -0.180400 0.000000 3.726750 
# 
# 
# High freq. dielectric constant tensor:
#      x y z
#    x 1.628330 0.000000 0.005710 
#    y 0.000000 1.639600 0.000000 
#    z 0.005710 0.000000 1.607420 
# 
# From -- ./inp_files/43781.got.cif
#   From: 2010.06.25/outbox.cif.g09.slc.cpg/sg11_22_cif.got.tgz:43781.got - 2010.06.27 23:14:04.
