data_PCOD8070899
_publ_section_title
;
Structure prediction by ZEFSAII (Michael W. Deem and Ramdas Pophale) SiO2 
 PCOD8070899
Probable space group: P 21/M
;
_chemical_formula_sum "Si O2"
_cell_formula_units_Z 32
_cell_length_a 17.030069
_cell_length_b 8.530438
_cell_length_c 25.891206
_cell_angle_alpha 90.000000
_cell_angle_beta 153.622933
_cell_angle_gamma 90.000000
_cell_volume 1671.065553
_symmetry_space_group_name_H-M "P 21/M"
_symmetry_group_IT_number 11
_symmetry_cell_setting 'monoclinic'
loop_
_space_group_symop_operation_xyz
x,y,z
-x,1/2+y,-z
-x,-y,-z
x,1/2-y,z
loop_
_atom_site_type_symbol
_atom_site_label
_atom_site_fract_x
_atom_site_fract_y
_atom_site_fract_z
Si Si1 0.581053 0.936387 0.996248
Si Si2 0.421377 0.065652 0.647869
Si Si3 0.147510 0.935319 0.917482
Si Si4 0.409987 0.065333 0.158246
Si Si5 0.552370 0.431151 0.449410
Si Si6 0.060341 0.065280 0.481274
Si Si7 0.237604 0.933951 0.327577
Si Si8 0.312788 0.565964 0.757192
O O1 0.602307 0.750000 0.009725
O O2 0.764155 0.011803 0.084813
O O3 0.439983 0.008577 0.873756
O O4 0.500000 0.000000 0.000000
O O5 0.426381 0.250000 0.658168
O O6 0.234213 0.992653 0.557580
O O7 0.581797 0.994957 0.777451
O O8 0.437179 0.028423 0.597087
O O9 0.126501 0.750000 0.906791
O O10 0.956791 0.014998 0.803448
O O11 0.253926 0.990110 0.031581
O O12 0.375935 0.250000 0.137460
O O13 0.604634 0.016948 0.250006
O O14 0.556294 0.250000 0.436464
O O15 0.714517 0.472782 0.584073
O O16 0.368616 0.470026 0.368378
O O17 0.082549 0.250000 0.499264
O O18 0.886651 0.015972 0.346070
O O19 0.000000 0.000000 0.500000
O O20 0.263963 0.750000 0.332928
O O21 0.330443 0.750000 0.771656
#
# Coordination Sequence:
#
# PCOD8070899 Si02
#       8
#     4   4   4   4   4   4   4   4
#     4  10  20  35  53  78 112 151 192 237 286 336
#     4  11  22  34  54  86 122 155 194 242 292 348
#     4  11  22  37  60  87 115 151 194 238 290 351
#     4  10  19  35  57  79 112 154 195 238 285 341
#     4  10  22  40  63  89 117 152 189 234 292 349
#     4  10  19  32  50  76 107 145 189 232 276 329
#     4  10  21  41  66  90 117 147 190 239 290 352
#     4   8  16  31  50  71 102 144 186 227 277 330
#
# _framework density 19.149459
#
# number of rings (size 3 to 8) (size 9 to 14) (size 15 to 20)
#    0.000    2.000    1.250    3.750    0.000    3.000 
#    0.000    2.500    0.000    0.000    0.000    0.000 
#    0.000    0.000    0.000    0.000    0.000    0.000 
#
# Total GULP energy -396422.726758 kJ/mol
# GULP energy per Si atom -12388.210211 kJ/mol
# Density = 1.910587 g / cm^3
# Si number density = 19.149459 Si / 1000 Ang^3
#
#
#
# Elastic Constant Matrix: (Units=GPa)
#
#
# Indices 1 2 3 4 5 6 
#
# 1 76.6819 0.3606 37.2693 0.0000 -10.9348 0.0000
# 2 0.3606 40.4924 15.8126 0.0000 -2.7551 0.0000
# 3 37.2693 15.8126 104.5591 0.0000 3.4072 0.0000
# 4 0.0000 0.0000 0.0000 27.0304 0.0000 -1.7887
# 5 -10.9348 -2.7551 3.4072 0.0000 23.9051 0.0000
# 6 0.0000 0.0000 0.0000 -1.7887 0.0000 32.0291
#
#
#
# Elastic Compliance Matrix: (Units=1/GPa)
#
#
# Indices 1 2 3 4 5 6 
#
# 1 0.017885 0.003299 -0.007186 0.000000 0.009586 0.000000
# 2 0.003299 0.027168 -0.005461 0.000000 0.005419 0.000000
# 3 -0.007186 -0.005461 0.013140 0.000000 -0.005789 0.000000
# 4 0.000000 0.000000 0.000000 0.037133 0.000000 0.002074
# 5 0.009586 0.005419 -0.005789 0.000000 0.047666 0.000000
# 6 0.000000 0.000000 0.000000 0.002074 0.000000 0.031337
#
#
# Mechanical properties :
#
#
# Convention : Reuss Voigt Hill
#
# Bulk Modulus (GPa) = 25.31874 36.51315 30.91595
# Shear Modulus (GPa) = 24.24932 27.81232 26.03082
#
# Velocity S-wave (km/s) = 3.56240 3.81515 3.69094
# Velocity P-wave (km/s) = 5.49284 6.20612 5.86034
#
# Compressibility (1/GPa) = 0.03949644
#
# Stress axis : x y z
#
# Youngs Moduli (GPa) = 55.91285 36.80812 76.10337
#
# Poissons Ratio (x) = -0.12144 0.54690
# Poissons Ratio (y) = -0.18447 0.41562
# Poissons Ratio (z) = 0.40180 0.20102
#
# Static dielectric constant tensor:
#      x y z
#    x 4.002630 0.000000 -0.489330 
#    y 0.000000 3.455270 0.000000 
#    z -0.489330 0.000000 4.461790 
# 
# 
# High freq. dielectric constant tensor:
#      x y z
#    x 1.732370 0.000000 -0.006490 
#    y 0.000000 1.744910 0.000000 
#    z -0.006490 0.000000 1.753630 
# 
# From -- ./inp_files/69147.got.cif
#   From: 2010.06.25/outbox.cif.g09.slc.cpg/sg11_35_cif.got.tgz:69147.got - 2010.06.27 23:14:04.
