data_PCOD8070799
_publ_section_title
;
Structure prediction by ZEFSAII (Michael W. Deem and Ramdas Pophale) SiO2 
 PCOD8070799
Probable space group: P 21/M
;
_chemical_formula_sum "Si O2"
_cell_formula_units_Z 32
_cell_length_a 17.016325
_cell_length_b 9.296061
_cell_length_c 23.283532
_cell_angle_alpha 90.000000
_cell_angle_beta 148.934176
_cell_angle_gamma 90.000000
_cell_volume 1900.562806
_symmetry_space_group_name_H-M "P 21/M"
_symmetry_group_IT_number 11
_symmetry_cell_setting 'monoclinic'
loop_
_space_group_symop_operation_xyz
x,y,z
-x,1/2+y,-z
-x,-y,-z
x,1/2-y,z
loop_
_atom_site_type_symbol
_atom_site_label
_atom_site_fract_x
_atom_site_fract_y
_atom_site_fract_z
Si Si1 0.851800 0.089581 0.396981
Si Si2 0.582828 0.418706 0.920381
Si Si3 0.161318 0.582146 0.834400
Si Si4 0.177809 0.080494 0.366232
Si Si5 0.558275 0.082030 0.400487
Si Si6 0.624987 0.586331 0.610551
Si Si7 0.544041 0.079801 0.261545
Si Si8 0.328282 0.585557 0.827554
O O1 0.890065 0.250000 0.440713
O O2 0.712590 0.030639 0.348180
O O3 0.809366 0.082364 0.303742
O O4 0.000000 0.000000 0.500000
O O5 0.547616 0.250000 0.891461
O O6 0.575555 0.496113 0.853870
O O7 0.464927 0.485195 0.892123
O O8 0.752003 0.445904 0.051322
O O9 0.143582 0.750000 0.811329
O O10 0.261138 0.518802 0.844378
O O11 0.991130 0.515546 0.729805
O O12 0.185159 0.250000 0.384490
O O13 0.214790 0.051682 0.320929
O O14 0.297938 0.002756 0.483312
O O15 0.602639 0.250000 0.428245
O O16 0.399854 0.052732 0.337058
O O17 0.520896 0.031051 0.312644
O O18 0.500000 0.500000 0.500000
O O19 0.583095 0.750000 0.573297
O O20 0.520692 0.250000 0.237195
O O21 0.388165 0.750000 0.872307
#
# Coordination Sequence:
#
# PCOD8070799 Si02
#       8
#     4   4   4   4   4   4   4   4
#     4   9  18  29  42  60  86 118 146 178 221 264
#     4  10  19  32  49  68  88 116 158 200 229 261
#     4   9  18  31  48  69  94 120 150 191 232 270
#     4   9  17  29  47  72  98 122 147 180 229 279
#     4   9  17  30  48  70  96 122 151 187 222 269
#     4   8  14  26  45  68  93 121 149 178 219 270
#     4   9  19  34  48  63  89 124 155 186 228 271
#     4   9  18  33  48  63  88 123 154 185 230 274
#
# _framework density 16.837118
#
# number of rings (size 3 to 8) (size 9 to 14) (size 15 to 20)
#    0.000    3.000    0.000    1.500    1.750    2.500 
#    0.000    2.500    0.000    0.750    0.000    0.000 
#    0.000    0.000    0.000    0.000    0.000    0.125 
#
# Total GULP energy -396462.901778 kJ/mol
# GULP energy per Si atom -12389.465681 kJ/mol
# Density = 1.679880 g / cm^3
# Si number density = 16.837118 Si / 1000 Ang^3
#
#
#
# Elastic Constant Matrix: (Units=GPa)
#
#
# Indices 1 2 3 4 5 6 
#
# 1 127.1881 29.6615 54.0254 0.0000 -20.4612 0.0000
# 2 29.6615 42.2991 27.8922 0.0000 -3.8879 0.0000
# 3 54.0254 27.8922 72.0137 0.0000 -8.3667 0.0000
# 4 0.0000 0.0000 0.0000 21.7775 0.0000 -1.9898
# 5 -20.4612 -3.8879 -8.3667 0.0000 20.5308 0.0000
# 6 0.0000 0.0000 0.0000 -1.9898 0.0000 18.9857
#
#
#
# Elastic Compliance Matrix: (Units=1/GPa)
#
#
# Indices 1 2 3 4 5 6 
#
# 1 0.013477 -0.003540 -0.007618 0.000000 0.009657 0.000000
# 2 -0.003540 0.032702 -0.010183 0.000000 -0.001485 0.000000
# 3 -0.007618 -0.010183 0.023554 0.000000 0.000079 0.000000
# 4 0.000000 0.000000 0.000000 0.046363 0.000000 0.004859
# 5 0.009657 -0.001485 0.000079 0.000000 0.058082 0.000000
# 6 0.000000 0.000000 0.000000 0.004859 0.000000 0.053180
#
#
# Mechanical properties :
#
#
# Convention : Reuss Voigt Hill
#
# Bulk Modulus (GPa) = 36.96551 51.62878 44.29714
# Shear Modulus (GPa) = 17.91753 20.92027 19.41890
#
# Velocity S-wave (km/s) = 3.26570 3.52875 3.39977
# Velocity P-wave (km/s) = 6.01848 6.87990 6.46356
#
# Compressibility (1/GPa) = 0.02705224
#
# Stress axis : x y z
#
# Youngs Moduli (GPa) = 74.19942 30.57962 42.45532
#
# Poissons Ratio (x) = 0.10825 0.32341
# Poissons Ratio (y) = 0.26266 0.43231
# Poissons Ratio (z) = 0.56523 0.31138
#
# Static dielectric constant tensor:
#      x y z
#    x 4.012070 0.000000 -0.033250 
#    y 0.000000 3.057640 0.000000 
#    z -0.033250 0.000000 2.962530 
# 
# 
# High freq. dielectric constant tensor:
#      x y z
#    x 1.655380 0.000000 -0.007490 
#    y 0.000000 1.638090 0.000000 
#    z -0.007490 0.000000 1.624160 
# 
# From -- ./inp_files/61734.got.cif
#   From: 2010.06.25/outbox.cif.g09.slc.cpg/sg11_31_cif.got.tgz:61734.got - 2010.06.27 23:14:04.
