data_PCOD8070649
_publ_section_title
;
Structure prediction by ZEFSAII (Michael W. Deem and Ramdas Pophale) SiO2 
 PCOD8070649
Probable space group: P 21/M
;
_chemical_formula_sum "Si O2"
_cell_formula_units_Z 28
_cell_length_a 18.072603
_cell_length_b 8.925323
_cell_length_c 21.772202
_cell_angle_alpha 90.000000
_cell_angle_beta 154.605918
_cell_angle_gamma 90.000000
_cell_volume 1506.066481
_symmetry_space_group_name_H-M "P 21/M"
_symmetry_group_IT_number 11
_symmetry_cell_setting 'monoclinic'
loop_
_space_group_symop_operation_xyz
x,y,z
-x,1/2+y,-z
-x,-y,-z
x,1/2-y,z
loop_
_atom_site_type_symbol
_atom_site_label
_atom_site_fract_x
_atom_site_fract_y
_atom_site_fract_z
Si Si1 0.831800 0.421951 0.080890
Si Si2 0.271058 0.922368 0.210520
Si Si3 0.965362 0.576698 0.065515
Si Si4 0.102551 0.573361 0.521938
Si Si5 0.491655 0.920291 0.796663
Si Si6 0.413614 0.578390 0.597740
Si Si7 0.928776 0.577390 0.628143
O O1 0.843118 0.250000 0.068281
O O2 0.946354 0.522277 0.120918
O O3 0.905507 0.443103 0.204375
O O4 0.632836 0.472646 0.933048
O O5 0.316536 0.750000 0.232986
O O6 0.163926 0.944863 0.193201
O O7 0.449531 0.014117 0.348799
O O8 0.158347 0.978125 0.069132
O O9 0.909176 0.750000 0.017719
O O10 0.074228 0.750000 0.500591
O O11 0.303949 0.532352 0.680804
O O12 0.031444 0.511174 0.404370
O O13 0.000000 0.500000 0.500000
O O14 0.533951 0.750000 0.846908
O O15 0.497739 0.938653 0.727954
O O16 0.372080 0.750000 0.550944
O O17 0.237221 0.486631 0.460869
O O18 0.894226 0.750000 0.586111
#
# Coordination Sequence:
#
# PCOD8070649 Si02
#       7
#     4   4   4   4   4   4   4
#     4  11  22  35  54  81 111 146 186 226 274 325
#     4  10  19  31  50  76 105 141 185 233 280 324
#     4  10  20  32  49  75 108 144 183 230 280 327
#     4  10  21  39  63  89 113 142 178 219 267 322
#     4   9  19  34  55  82 110 140 179 222 266 321
#     4  10  19  33  54  80 106 141 187 232 276 326
#     4  10  22  38  56  81 113 146 182 225 270 325
#
# _framework density 18.591476
#
# number of rings (size 3 to 8) (size 9 to 14) (size 15 to 20)
#    0.000    2.000    1.429    3.429    0.000    6.857 
#    0.000    1.429    0.000    0.000    0.000    0.000 
#    0.000    0.000    0.000    0.000    0.000    0.000 
#
# Total GULP energy -347272.770940 kJ/mol
# GULP energy per Si atom -12402.598962 kJ/mol
# Density = 1.854916 g / cm^3
# Si number density = 18.591476 Si / 1000 Ang^3
#
#
#
# Elastic Constant Matrix: (Units=GPa)
#
#
# Indices 1 2 3 4 5 6 
#
# 1 111.6273 51.9666 41.5412 0.0000 18.5717 0.0000
# 2 51.9666 108.3733 47.8109 0.0000 5.7629 0.0000
# 3 41.5412 47.8109 83.8715 0.0000 5.0104 0.0000
# 4 0.0000 0.0000 0.0000 30.7500 0.0000 4.7232
# 5 18.5717 5.7629 5.0104 0.0000 23.1622 0.0000
# 6 0.0000 0.0000 0.0000 4.7232 0.0000 33.5719
#
#
#
# Elastic Compliance Matrix: (Units=1/GPa)
#
#
# Indices 1 2 3 4 5 6 
#
# 1 0.014045 -0.004564 -0.003799 0.000000 -0.009304 0.000000
# 2 -0.004564 0.013867 -0.005731 0.000000 0.001449 0.000000
# 3 -0.003799 -0.005731 0.017024 0.000000 0.000789 0.000000
# 4 0.000000 0.000000 0.000000 0.033239 0.000000 -0.004676
# 5 -0.009304 0.001449 0.000789 0.000000 0.050103 0.000000
# 6 0.000000 0.000000 0.000000 -0.004676 0.000000 0.030445
#
#
# Mechanical properties :
#
#
# Convention : Reuss Voigt Hill
#
# Bulk Modulus (GPa) = 59.70631 65.16773 62.43702
# Shear Modulus (GPa) = 25.97504 28.33370 27.15437
#
# Velocity S-wave (km/s) = 3.74190 3.90810 3.82590
# Velocity P-wave (km/s) = 7.13118 7.44936 7.29200
#
# Compressibility (1/GPa) = 0.01674865
#
# Stress axis : x y z
#
# Youngs Moduli (GPa) = 71.20141 72.11282 58.73944
#
# Poissons Ratio (x) = 0.32912 0.22314
# Poissons Ratio (y) = 0.32496 0.33664
# Poissons Ratio (z) = 0.27048 0.41328
#
# Static dielectric constant tensor:
#      x y z
#    x 3.379220 0.000000 0.213100 
#    y 0.000000 3.558620 0.000000 
#    z 0.213100 0.000000 3.239310 
# 
# 
# High freq. dielectric constant tensor:
#      x y z
#    x 1.707810 0.000000 0.018130 
#    y 0.000000 1.738700 0.000000 
#    z 0.018130 0.000000 1.705440 
# 
# From -- ./inp_files/69838.got.cif
#   From: 2010.06.25/outbox.cif.g09.slc.cpg/sg11_35_cif.got.tgz:69838.got - 2010.06.27 23:14:04.
