data_PCOD8070209
_publ_section_title
;
Structure prediction by ZEFSAII (Michael W. Deem and Ramdas Pophale) SiO2 
 PCOD8070209
Probable space group: P 21/M
;
_chemical_formula_sum "Si O2"
_cell_formula_units_Z 32
_cell_length_a 15.520695
_cell_length_b 9.155442
_cell_length_c 14.143511
_cell_angle_alpha 90.000000
_cell_angle_beta 92.247747
_cell_angle_gamma 90.000000
_cell_volume 2008.229901
_symmetry_space_group_name_H-M "P 21/M"
_symmetry_group_IT_number 11
_symmetry_cell_setting 'monoclinic'
loop_
_space_group_symop_operation_xyz
x,y,z
-x,1/2+y,-z
-x,-y,-z
x,1/2-y,z
loop_
_atom_site_type_symbol
_atom_site_label
_atom_site_fract_x
_atom_site_fract_y
_atom_site_fract_z
Si Si1 0.836395 0.579154 0.620347
Si Si2 0.663489 0.421522 0.287677
Si Si3 0.669702 0.579127 0.717354
Si Si4 0.585366 0.918219 0.901598
Si Si5 0.496663 0.077509 0.400397
Si Si6 0.408291 0.080402 0.885418
Si Si7 0.997947 0.081869 0.598021
Si Si8 0.188799 0.084562 0.601115
O O1 0.852101 0.750000 0.638289
O O2 0.758650 0.513485 0.680651
O O3 0.923305 0.494614 0.657387
O O4 0.814722 0.546573 0.510148
O O5 0.668712 0.250000 0.271570
O O6 0.580258 0.467619 0.344281
O O7 0.658764 0.498431 0.185268
O O8 0.748540 0.472426 0.345277
O O9 0.672992 0.750000 0.698118
O O10 0.659831 0.543846 0.828625
O O11 0.587051 0.516657 0.658056
O O12 0.554990 0.750000 0.887910
O O13 0.503938 0.018613 0.876194
O O14 0.622719 0.945790 0.007843
O O15 0.492867 0.250000 0.415956
O O16 0.500000 0.000000 0.500000
O O17 0.409473 0.250000 0.859264
O O18 0.973483 0.250000 0.580402
O O19 0.094141 0.068365 0.645664
O O20 0.000000 0.000000 0.500000
O O21 0.222888 0.250000 0.615716
#
# Coordination Sequence:
#
# PCOD8070209 Si02
#       8
#     4   4   4   4   4   4   4   4
#     4   9  17  29  48  70  93 124 155 188 228 272
#     4  11  21  32  47  66  91 124 157 192 231 273
#     4   9  16  30  48  65  91 124 154 185 225 273
#     4   9  17  32  50  67  90 120 156 194 234 277
#     4  10  20  32  44  60  89 126 157 185 219 262
#     4  10  19  30  48  69  90 119 154 197 238 273
#     4   9  17  30  47  66  92 122 152 192 233 271
#     4   9  18  31  46  66  93 123 155 189 227 270
#
# _framework density 15.934431
#
# number of rings (size 3 to 8) (size 9 to 14) (size 15 to 20)
#    0.000    2.500    1.250    2.625    0.000    5.000 
#    0.000    1.250    0.000    0.000    0.000    0.875 
#    0.000    0.000    0.000    0.000    0.000    0.000 
#
# Total GULP energy -396694.845365 kJ/mol
# GULP energy per Si atom -12396.713918 kJ/mol
# Density = 1.589816 g / cm^3
# Si number density = 15.934431 Si / 1000 Ang^3
#
#
#
# Elastic Constant Matrix: (Units=GPa)
#
#
# Indices 1 2 3 4 5 6 
#
# 1 117.4301 45.0409 50.8795 0.0000 -16.5471 0.0000
# 2 45.0409 68.3528 38.9191 0.0000 0.0141 0.0000
# 3 50.8795 38.9191 91.0330 0.0000 -11.5175 0.0000
# 4 0.0000 0.0000 0.0000 21.7893 0.0000 3.4487
# 5 -16.5471 0.0141 -11.5175 0.0000 13.9657 0.0000
# 6 0.0000 0.0000 0.0000 3.4487 0.0000 27.5276
#
#
#
# Elastic Compliance Matrix: (Units=1/GPa)
#
#
# Indices 1 2 3 4 5 6 
#
# 1 0.015182 -0.008322 -0.002959 0.000000 0.015556 0.000000
# 2 -0.008322 0.024657 -0.007973 0.000000 -0.016461 0.000000
# 3 -0.002959 -0.007973 0.017423 0.000000 0.010870 0.000000
# 4 0.000000 0.000000 0.000000 0.046823 0.000000 -0.005866
# 5 0.015556 -0.016461 0.010870 0.000000 0.099017 0.000000
# 6 0.000000 0.000000 0.000000 -0.005866 0.000000 0.037062
#
#
# Mechanical properties :
#
#
# Convention : Reuss Voigt Hill
#
# Bulk Modulus (GPa) = 53.32397 60.72165 57.02281
# Shear Modulus (GPa) = 17.54864 22.12162 19.83513
#
# Velocity S-wave (km/s) = 3.32219 3.73002 3.53200
# Velocity P-wave (km/s) = 6.94645 7.53264 7.24548
#
# Compressibility (1/GPa) = 0.01875329
#
# Stress axis : x y z
#
# Youngs Moduli (GPa) = 65.86773 40.55669 57.39616
#
# Poissons Ratio (x) = 0.33753 0.16984
# Poissons Ratio (y) = 0.54818 0.45760
# Poissons Ratio (z) = 0.19491 0.32334
#
# Static dielectric constant tensor:
#      x y z
#    x 3.368250 0.000000 -0.156890 
#    y 0.000000 3.039580 0.000000 
#    z -0.156890 0.000000 2.992620 
# 
# 
# High freq. dielectric constant tensor:
#      x y z
#    x 1.602940 0.000000 -0.006720 
#    y 0.000000 1.609880 0.000000 
#    z -0.006720 0.000000 1.591670 
# 
# From -- ./inp_files/51192.got.cif
#   From: 2010.06.25/outbox.cif.g09.slc.cpg/sg11_26_cif.got.tgz:51192.got - 2010.06.27 23:14:04.
