data_PCOD8070224
_publ_section_title
;
Structure prediction by ZEFSAII (Michael W. Deem and Ramdas Pophale) SiO2 
 PCOD8070224
Probable space group: P 21/M
;
_chemical_formula_sum "Si O2"
_cell_formula_units_Z 28
_cell_length_a 11.866643
_cell_length_b 9.035329
_cell_length_c 16.663984
_cell_angle_alpha 90.000000
_cell_angle_beta 87.743317
_cell_angle_gamma 90.000000
_cell_volume 1785.310422
_symmetry_space_group_name_H-M "P 21/M"
_symmetry_group_IT_number 11
_symmetry_cell_setting 'monoclinic'
loop_
_space_group_symop_operation_xyz
x,y,z
-x,1/2+y,-z
-x,-y,-z
x,1/2-y,z
loop_
_atom_site_type_symbol
_atom_site_label
_atom_site_fract_x
_atom_site_fract_y
_atom_site_fract_z
Si Si1 0.528790 0.418151 0.080322
Si Si2 0.998352 0.077886 0.415224
Si Si3 0.362053 0.075481 0.786426
Si Si4 0.227033 0.577317 0.662020
Si Si5 0.379893 0.577218 0.506741
Si Si6 0.424692 0.083378 0.240826
Si Si7 0.246595 0.078892 0.371607
O O1 0.564527 0.250000 0.059975
O O2 0.631358 0.500568 0.124781
O O3 0.418900 0.423004 0.143146
O O4 0.500000 0.500000 0.000000
O O5 0.981081 0.250000 0.433237
O O6 0.894748 0.019843 0.364585
O O7 0.114381 0.044046 0.364810
O O8 0.000000 0.000000 0.500000
O O9 0.354735 0.250000 0.795981
O O10 0.254123 0.014785 0.741605
O O11 0.474908 0.026725 0.733371
O O12 0.223906 0.750000 0.683884
O O13 0.320565 0.542189 0.592548
O O14 0.500000 0.500000 0.500000
O O15 0.398368 0.750000 0.493657
O O16 0.298455 0.519952 0.439567
O O17 0.459250 0.250000 0.266751
O O18 0.306764 0.038817 0.285166
O O19 0.265314 0.250000 0.394281
#
# Coordination Sequence:
#
# PCOD8070224 Si02
#       7
#     4   4   4   4   4   4   4
#     4   9  17  31  51  75 104 130 151 184 233 291
#     4  10  20  34  51  67  89 125 171 213 248 288
#     4  10  19  30  48  73  98 126 161 195 234 284
#     4  10  20  34  46  63  94 129 162 203 249 284
#     4  11  22  32  45  65  92 126 162 201 247 288
#     4   8  17  31  47  69 100 127 150 191 241 285
#     4  10  19  33  50  68  91 125 166 204 244 289
#
# _framework density 15.683547000000001
#
# number of rings (size 3 to 8) (size 9 to 14) (size 15 to 20)
#    0.857    1.429    1.429    2.571    0.000    5.714 
#    0.000    0.000    0.000    0.000    0.000    1.000 
#    0.000    0.000    0.000    0.000    0.000    0.000 
#
# Total GULP energy -346979.854294 kJ/mol
# GULP energy per Si atom -12392.137653 kJ/mol
# Density = 1.564785 g / cm^3
# Si number density = 15.683547 Si / 1000 Ang^3
#
#
#
# Elastic Constant Matrix: (Units=GPa)
#
#
# Indices 1 2 3 4 5 6 
#
# 1 98.5932 44.1837 43.9909 0.0000 21.8667 0.0000
# 2 44.1837 90.5407 51.1962 0.0000 15.7587 0.0000
# 3 43.9909 51.1962 97.9912 0.0000 24.0176 0.0000
# 4 0.0000 0.0000 0.0000 27.5075 0.0000 5.9969
# 5 21.8667 15.7587 24.0176 0.0000 19.1454 0.0000
# 6 0.0000 0.0000 0.0000 5.9969 0.0000 19.9764
#
#
#
# Elastic Compliance Matrix: (Units=1/GPa)
#
#
# Indices 1 2 3 4 5 6 
#
# 1 0.015592 -0.004581 -0.001683 0.000000 -0.011926 0.000000
# 2 -0.004581 0.017215 -0.006855 0.000000 -0.000338 0.000000
# 3 -0.001683 -0.006855 0.018321 0.000000 -0.015419 0.000000
# 4 0.000000 0.000000 0.000000 0.038900 0.000000 -0.011678
# 5 -0.011926 -0.000338 -0.015419 0.000000 0.085474 0.000000
# 6 0.000000 0.000000 0.000000 -0.011678 0.000000 0.053565
#
#
# Mechanical properties :
#
#
# Convention : Reuss Voigt Hill
#
# Bulk Modulus (GPa) = 40.17672 62.87407 51.52540
# Shear Modulus (GPa) = 18.96807 23.17615 21.07211
#
# Velocity S-wave (km/s) = 3.48145 3.84830 3.66947
# Velocity P-wave (km/s) = 6.46787 7.74094 7.13287
#
# Compressibility (1/GPa) = 0.02489004
#
# Stress axis : x y z
#
# Youngs Moduli (GPa) = 64.13681 58.08784 54.58223
#
# Poissons Ratio (x) = 0.26612 0.09186
# Poissons Ratio (y) = 0.29384 0.37414
# Poissons Ratio (z) = 0.10794 0.39817
#
# Static dielectric constant tensor:
#      x y z
#    x 3.085670 0.000000 -0.030580 
#    y 0.000000 3.012590 0.000000 
#    z -0.030580 0.000000 2.874370 
# 
# 
# High freq. dielectric constant tensor:
#      x y z
#    x 1.584320 0.000000 0.005520 
#    y 0.000000 1.608820 0.000000 
#    z 0.005520 0.000000 1.582640 
# 
# From -- ./inp_files/58546.got.cif
#   From: 2010.06.25/outbox.cif.g09.slc.cpg/sg11_30_cif.got.tgz:58546.got - 2010.06.27 23:14:04.
