data_PCOD8070395
_publ_section_title
;
Structure prediction by ZEFSAII (Michael W. Deem and Ramdas Pophale) SiO2 
 PCOD8070395
Probable space group: P 21/M
;
_chemical_formula_sum "Si O2"
_cell_formula_units_Z 32
_cell_length_a 11.625713
_cell_length_b 9.152336
_cell_length_c 21.722837
_cell_angle_alpha 90.000000
_cell_angle_beta 125.482117
_cell_angle_gamma 90.000000
_cell_volume 1882.135062
_symmetry_space_group_name_H-M "P 21/M"
_symmetry_group_IT_number 11
_symmetry_cell_setting 'monoclinic'
loop_
_space_group_symop_operation_xyz
x,y,z
-x,1/2+y,-z
-x,-y,-z
x,1/2-y,z
loop_
_atom_site_type_symbol
_atom_site_label
_atom_site_fract_x
_atom_site_fract_y
_atom_site_fract_z
Si Si1 0.089094 0.088877 0.943758
Si Si2 0.625040 0.083411 0.379467
Si Si3 0.072142 0.418466 0.345552
Si Si4 0.076694 0.917809 0.578386
Si Si5 0.210011 0.587438 0.082956
Si Si6 0.624247 0.918064 0.504544
Si Si7 0.921245 0.423244 0.776495
Si Si8 0.325463 0.422003 0.229851
O O1 0.157872 0.250000 0.964079
O O2 0.944368 0.094657 0.936399
O O3 0.050597 0.037048 0.862721
O O4 0.199617 0.980158 0.010932
O O5 0.617882 0.250000 0.401207
O O6 0.754912 0.061152 0.372919
O O7 0.483651 0.041630 0.299639
O O8 0.649573 0.979994 0.444832
O O9 0.038327 0.250000 0.319216
O O10 0.236039 0.438853 0.411976
O O11 0.033230 0.519766 0.275916
O O12 0.976433 0.476417 0.372216
O O13 0.030726 0.750000 0.557923
O O14 0.000000 0.000000 0.500000
O O15 0.275048 0.750000 0.098247
O O16 0.308714 0.487157 0.156282
O O17 0.581853 0.750000 0.485129
O O18 0.500000 0.000000 0.500000
O O19 0.892826 0.250000 0.767379
O O20 0.778492 0.502985 0.753585
O O21 0.293259 0.250000 0.218182
#
# Coordination Sequence:
#
# PCOD8070395 Si02
#       8
#     4   4   4   4   4   4   4   4
#     4   8  15  27  42  64  95 128 161 194 232 281
#     4  10  21  35  52  72  95 126 164 204 246 290
#     4  10  21  35  50  70  96 126 160 200 248 294
#     4  10  20  37  56  73  93 121 163 211 251 291
#     4   9  16  26  43  68  96 129 164 194 231 283
#     4  11  22  34  49  71  98 129 162 196 242 294
#     4  10  20  32  48  72 100 131 164 199 239 287
#     4  10  19  31  47  70 101 133 161 196 243 290
#
# _framework density 17.001968999999999
#
# number of rings (size 3 to 8) (size 9 to 14) (size 15 to 20)
#    0.000    2.250    1.250    3.000    0.000    9.000 
#    0.000    0.000    0.000    0.000    0.000    0.875 
#    0.000    0.000    0.000    0.000    0.000    0.000 
#
# Total GULP energy -396804.107963 kJ/mol
# GULP energy per Si atom -12400.128374 kJ/mol
# Density = 1.696327 g / cm^3
# Si number density = 17.001969 Si / 1000 Ang^3
#
#
#
# Elastic Constant Matrix: (Units=GPa)
#
#
# Indices 1 2 3 4 5 6 
#
# 1 72.1968 32.0812 36.7830 0.0000 -19.0455 0.0000
# 2 32.0812 93.9530 57.5995 0.0000 -16.9522 0.0000
# 3 36.7830 57.5995 113.6196 0.0000 -28.0603 0.0000
# 4 0.0000 0.0000 0.0000 31.3665 0.0000 -5.6113
# 5 -19.0455 -16.9522 -28.0603 0.0000 16.3262 0.0000
# 6 0.0000 0.0000 0.0000 -5.6113 0.0000 19.2403
#
#
#
# Elastic Compliance Matrix: (Units=1/GPa)
#
#
# Indices 1 2 3 4 5 6 
#
# 1 0.020837 -0.003435 0.000205 0.000000 0.021094 0.000000
# 2 -0.003435 0.016201 -0.006839 0.000000 0.001061 0.000000
# 3 0.000205 -0.006839 0.018257 0.000000 0.024516 0.000000
# 4 0.000000 0.000000 0.000000 0.033636 0.000000 0.009810
# 5 0.021094 0.001061 0.024516 0.000000 0.129096 0.000000
# 6 0.000000 0.000000 0.000000 0.009810 0.000000 0.054835
#
#
# Mechanical properties :
#
#
# Convention : Reuss Voigt Hill
#
# Bulk Modulus (GPa) = 28.44391 59.18854 43.81623
# Shear Modulus (GPa) = 16.40858 23.60699 20.00779
#
# Velocity S-wave (km/s) = 3.10997 3.73028 3.43416
# Velocity P-wave (km/s) = 5.44628 7.31038 6.44607
#
# Compressibility (1/GPa) = 0.03515691
#
# Stress axis : x y z
#
# Youngs Moduli (GPa) = 47.99045 61.72618 54.77448
#
# Poissons Ratio (x) = 0.21201 -0.01122
# Poissons Ratio (y) = 0.16483 0.37460
# Poissons Ratio (z) = -0.00983 0.42215
#
# Static dielectric constant tensor:
#      x y z
#    x 3.010730 0.000000 -0.104610 
#    y 0.000000 3.374310 0.000000 
#    z -0.104610 0.000000 3.332040 
# 
# 
# High freq. dielectric constant tensor:
#      x y z
#    x 1.618080 0.000000 -0.010080 
#    y 0.000000 1.666940 0.000000 
#    z -0.010080 0.000000 1.659430 
# 
# From -- ./inp_files/42423.got.cif
#   From: 2010.06.25/outbox.cif.g09.slc.cpg/sg11_22_cif.got.tgz:42423.got - 2010.06.27 23:14:04.
