data_PCOD8070553
_publ_section_title
;
Structure prediction by ZEFSAII (Michael W. Deem and Ramdas Pophale) SiO2 
 PCOD8070553
Probable space group: P 21/M
;
_chemical_formula_sum "Si O2"
_cell_formula_units_Z 32
_cell_length_a 17.303681
_cell_length_b 18.855157
_cell_length_c 11.048865
_cell_angle_alpha 90.000000
_cell_angle_beta 150.040776
_cell_angle_gamma 90.000000
_cell_volume 1800.199131
_symmetry_space_group_name_H-M "P 21/M"
_symmetry_group_IT_number 11
_symmetry_cell_setting 'monoclinic'
loop_
_space_group_symop_operation_xyz
x,y,z
-x,1/2+y,-z
-x,-y,-z
x,1/2-y,z
loop_
_atom_site_type_symbol
_atom_site_label
_atom_site_fract_x
_atom_site_fract_y
_atom_site_fract_z
Si Si1 0.764101 0.331802 0.839863
Si Si2 0.810719 0.408161 0.141806
Si Si3 0.719158 0.943254 0.087795
Si Si4 0.561859 0.830203 0.728662
Si Si5 0.133272 0.038388 0.475740
Si Si6 0.038120 0.422576 0.099572
Si Si7 0.142209 0.172164 0.028379
Si Si8 0.041281 0.608650 0.418666
O O1 0.819122 0.250000 0.912929
O O2 0.603281 0.341811 0.554214
O O3 0.885814 0.380023 0.933316
O O4 0.737739 0.355536 0.943691
O O5 0.695502 0.474997 0.011781
O O6 0.848424 0.366566 0.319848
O O7 0.970306 0.436382 0.306004
O O8 0.727654 0.938346 0.246012
O O9 0.881826 0.918877 0.256641
O O10 0.583122 0.889991 0.861391
O O11 0.577350 0.750000 0.803268
O O12 0.691582 0.843040 0.803846
O O13 0.128701 0.953152 0.463617
O O14 0.156402 0.070809 0.373601
O O15 0.000000 0.500000 0.000000
O O16 0.127418 0.383431 0.114974
O O17 0.134606 0.250000 0.075325
O O18 0.003307 0.168354 0.740056
#
# Coordination Sequence:
#
# PCOD8070553 Si02
#       8
#     4   4   4   4   4   4   4   4
#     4  10  21  35  50  74 104 133 164 204 254 305
#     4   8  15  26  47  73  98 124 157 206 250 291
#     4   8  14  27  48  72  96 123 166 205 244 288
#     4   9  19  34  51  72 102 134 166 207 254 301
#     4   8  14  27  46  70  97 126 158 205 245 286
#     4  11  20  33  52  74 101 135 168 203 252 298
#     4  10  19  31  49  74 100 130 168 207 247 301
#     4   8  13  26  45  70  98 124 156 202 252 288
#
# _framework density 17.775811000000001
#
# number of rings (size 3 to 8) (size 9 to 14) (size 15 to 20)
#    0.000    3.000    1.250    1.875    1.750    1.000 
#    0.000    6.875    0.000    2.250    0.000    3.500 
#    0.000    0.000    0.000    0.000    0.000    0.000 
#
# Total GULP energy -396449.321428 kJ/mol
# GULP energy per Si atom -12389.041295 kJ/mol
# Density = 1.773535 g / cm^3
# Si number density = 17.775811 Si / 1000 Ang^3
#
#
#
# Elastic Constant Matrix: (Units=GPa)
#
#
# Indices 1 2 3 4 5 6 
#
# 1 58.0513 40.2694 32.0878 0.0000 -21.6012 0.0000
# 2 40.2694 100.9802 46.7273 0.0000 -12.8942 0.0000
# 3 32.0878 46.7273 78.0609 0.0000 -18.1220 0.0000
# 4 0.0000 0.0000 0.0000 27.5522 0.0000 -5.7183
# 5 -21.6012 -12.8942 -18.1220 0.0000 22.4444 0.0000
# 6 0.0000 0.0000 0.0000 -5.7183 0.0000 20.0407
#
#
#
# Elastic Compliance Matrix: (Units=1/GPa)
#
#
# Indices 1 2 3 4 5 6 
#
# 1 0.034881 -0.009333 -0.002711 0.000000 0.026020 0.000000
# 2 -0.009333 0.016237 -0.007142 0.000000 -0.005420 0.000000
# 3 -0.002711 -0.007142 0.020481 0.000000 0.009825 0.000000
# 4 0.000000 0.000000 0.000000 0.038579 0.000000 0.011008
# 5 0.026020 -0.005420 0.009825 0.000000 0.074415 0.000000
# 6 0.000000 0.000000 0.000000 0.011008 0.000000 0.053039
#
#
# Mechanical properties :
#
#
# Convention : Reuss Voigt Hill
#
# Bulk Modulus (GPa) = 30.09524 52.80685 41.45105
# Shear Modulus (GPa) = 17.41674 21.87467 19.64571
#
# Velocity S-wave (km/s) = 3.13357 3.51178 3.32805
# Velocity P-wave (km/s) = 5.48266 6.79817 6.17554
#
# Compressibility (1/GPa) = 0.03322784
#
# Stress axis : x y z
#
# Youngs Moduli (GPa) = 28.66894 61.58630 48.82678
#
# Poissons Ratio (x) = 0.57479 0.13236
# Poissons Ratio (y) = 0.26757 0.34870
# Poissons Ratio (z) = 0.07772 0.43982
#
# Static dielectric constant tensor:
#      x y z
#    x 3.291140 0.000000 -0.538100 
#    y 0.000000 3.413620 0.000000 
#    z -0.538100 0.000000 3.363830 
# 
# 
# High freq. dielectric constant tensor:
#      x y z
#    x 1.663760 0.000000 -0.033970 
#    y 0.000000 1.684930 0.000000 
#    z -0.033970 0.000000 1.670640 
# 
# From -- ./inp_files/35889.got.cif
#   From: 2010.06.25/outbox.cif.g09.slc.cpg/sg11_18_cif.got.tgz:35889.got - 2010.06.27 23:14:04.
