data_PCOD8070500
_publ_section_title
;
Structure prediction by ZEFSAII (Michael W. Deem and Ramdas Pophale) SiO2 
 PCOD8070500
Probable space group: P 21/M
;
_chemical_formula_sum "Si O2"
_cell_formula_units_Z 32
_cell_length_a 17.348106
_cell_length_b 17.754832
_cell_length_c 13.530397
_cell_angle_alpha 90.000000
_cell_angle_beta 25.110175
_cell_angle_gamma 90.000000
_cell_volume 1768.535792
_symmetry_space_group_name_H-M "P 21/M"
_symmetry_group_IT_number 11
_symmetry_cell_setting 'monoclinic'
loop_
_space_group_symop_operation_xyz
x,y,z
-x,1/2+y,-z
-x,-y,-z
x,1/2-y,z
loop_
_atom_site_type_symbol
_atom_site_label
_atom_site_fract_x
_atom_site_fract_y
_atom_site_fract_z
Si Si1 0.988565 0.884450 0.149513
Si Si2 0.669489 0.960623 0.092036
Si Si3 0.068983 0.960627 0.692546
Si Si4 0.560195 0.511967 0.819409
Si Si5 0.373358 0.615545 0.764716
Si Si6 0.412788 0.335646 0.667930
Si Si7 0.006518 0.335647 0.074193
Si Si8 0.613815 0.667630 0.658548
O O1 0.045173 0.868234 0.971866
O O2 0.819293 0.835155 0.380621
O O3 0.942910 0.972805 0.212976
O O4 0.160307 0.863310 0.019084
O O5 0.588753 0.883276 0.229254
O O6 0.590824 0.972799 0.074107
O O7 0.598790 0.027193 0.245321
O O8 0.889218 0.958179 0.832349
O O9 0.093223 0.883279 0.724792
O O10 0.244253 0.972799 0.420684
O O11 0.571600 0.601580 0.785189
O O12 0.500000 0.500000 0.000000
O O13 0.437780 0.631762 0.579256
O O14 0.480802 0.664842 0.719101
O O15 0.458873 0.250000 0.643360
O O16 0.221860 0.342695 0.834442
O O17 0.938918 0.250000 0.163324
O O18 0.586540 0.750000 0.740360
#
# Coordination Sequence:
#
# PCOD8070500 Si02
#       8
#     4   4   4   4   4   4   4   4
#     4  10  19  31  51  76 107 144 177 203 247 311
#     4   9  20  36  53  75 103 137 174 217 260 310
#     4   9  20  36  53  75 103 137 174 217 260 310
#     4  10  22  40  60  78  96 132 184 225 266 313
#     4  10  19  31  51  76 107 144 177 203 247 311
#     4  10  19  31  48  75 112 147 173 203 249 306
#     4  10  19  31  48  75 112 147 173 203 249 306
#     4  10  20  36  54  78 110 136 167 221 266 301
#
# _framework density 18.094063999999999
#
# number of rings (size 3 to 8) (size 9 to 14) (size 15 to 20)
#    0.000    2.250    1.250    1.500    1.750    2.500 
#    0.000    1.250    0.000    0.000    0.000    0.000 
#    0.000    0.000    0.000    0.000    0.000    0.000 
#
# Total GULP energy -396814.435745 kJ/mol
# GULP energy per Si atom -12400.451117 kJ/mol
# Density = 1.805288 g / cm^3
# Si number density = 18.094064 Si / 1000 Ang^3
#
#
#
# Elastic Constant Matrix: (Units=GPa)
#
#
# Indices 1 2 3 4 5 6 
#
# 1 106.9768 59.8527 63.6100 0.0000 3.9956 0.0000
# 2 59.8527 118.0648 58.2074 0.0000 9.9630 0.0000
# 3 63.6100 58.2074 105.8457 0.0000 2.7710 0.0000
# 4 0.0000 0.0000 0.0000 9.9944 0.0000 3.5298
# 5 3.9956 9.9630 2.7710 0.0000 28.7722 0.0000
# 6 0.0000 0.0000 0.0000 3.5298 0.0000 10.5759
#
#
#
# Elastic Compliance Matrix: (Units=1/GPa)
#
#
# Indices 1 2 3 4 5 6 
#
# 1 0.016244 -0.004701 -0.007179 0.000000 0.000063 0.000000
# 2 -0.004701 0.013326 -0.004411 0.000000 -0.003537 0.000000
# 3 -0.007179 -0.004411 0.016162 0.000000 0.000968 0.000000
# 4 0.000000 0.000000 0.000000 0.113427 0.000000 -0.037858
# 5 0.000063 -0.003537 0.000968 0.000000 0.035878 0.000000
# 6 0.000000 0.000000 0.000000 -0.037858 0.000000 0.107190
#
#
# Mechanical properties :
#
#
# Convention : Reuss Voigt Hill
#
# Bulk Modulus (GPa) = 76.03617 77.13640 76.58628
# Shear Modulus (GPa) = 14.74087 19.81629 17.27858
#
# Velocity S-wave (km/s) = 2.85736 3.31294 3.09355
# Velocity P-wave (km/s) = 7.28010 7.57347 7.42824
#
# Compressibility (1/GPa) = 0.01315164
#
# Stress axis : x y z
#
# Youngs Moduli (GPa) = 61.56023 75.04082 61.87358
#
# Poissons Ratio (x) = 0.35278 0.44417
# Poissons Ratio (y) = 0.28941 0.27289
# Poissons Ratio (z) = 0.44192 0.33097
#
# Static dielectric constant tensor:
#      x y z
#    x 3.194280 0.000000 -0.384520 
#    y 0.000000 3.493620 0.000000 
#    z -0.384520 0.000000 3.257590 
# 
# 
# High freq. dielectric constant tensor:
#      x y z
#    x 1.681570 0.000000 -0.033140 
#    y 0.000000 1.708100 0.000000 
#    z -0.033140 0.000000 1.687030 
# 
# From -- ./inp_files/39971.got.cif
#   From: 2010.06.25/outbox.cif.g09.slc.cpg/sg11_20_cif.got.tgz:39971.got - 2010.06.27 23:14:04.
