data_PCOD8070624
_publ_section_title
;
Structure prediction by ZEFSAII (Michael W. Deem and Ramdas Pophale) SiO2 
 PCOD8070624
Probable space group: P 21/M
;
_chemical_formula_sum "Si O2"
_cell_formula_units_Z 32
_cell_length_a 14.462398
_cell_length_b 8.959465
_cell_length_c 14.994267
_cell_angle_alpha 90.000000
_cell_angle_beta 58.153613
_cell_angle_gamma 90.000000
_cell_volume 1650.416355
_symmetry_space_group_name_H-M "P 21/M"
_symmetry_group_IT_number 11
_symmetry_cell_setting 'monoclinic'
loop_
_space_group_symop_operation_xyz
x,y,z
-x,1/2+y,-z
-x,-y,-z
x,1/2-y,z
loop_
_atom_site_type_symbol
_atom_site_label
_atom_site_fract_x
_atom_site_fract_y
_atom_site_fract_z
Si Si1 0.124756 0.926339 0.670860
Si Si2 0.882278 0.572847 0.825244
Si Si3 0.719906 0.427940 0.255126
Si Si4 0.729247 0.074859 0.565307
Si Si5 0.482485 0.912721 0.869239
Si Si6 0.749645 0.071167 0.040215
Si Si7 0.284564 0.071407 0.240168
Si Si8 0.516790 0.585502 0.642499
O O1 0.124729 0.750000 0.682458
O O2 0.198610 0.995607 0.712494
O O3 0.172495 0.970333 0.550416
O O4 0.002106 0.987679 0.740374
O O5 0.879366 0.750000 0.835904
O O6 0.800847 0.516505 0.789683
O O7 0.848736 0.500696 0.936097
O O8 0.718897 0.250000 0.256723
O O9 0.759738 0.482825 0.137426
O O10 0.595967 0.481070 0.340821
O O11 0.723886 0.250000 0.585881
O O12 0.752564 0.991985 0.645872
O O13 0.616913 0.025928 0.574311
O O14 0.476183 0.750000 0.917507
O O15 0.365243 0.992095 0.943991
O O16 0.593662 0.991874 0.848747
O O17 0.497193 0.895776 0.756761
O O18 0.752434 0.250000 0.032491
O O19 0.288715 0.250000 0.246379
O O20 0.543719 0.750000 0.588937
#
# Coordination Sequence:
#
# PCOD8070624 Si02
#       8
#     4   4   4   4   4   4   4   4
#     4   9  19  34  49  70 101 134 167 200 242 295
#     4  10  21  35  50  70  98 132 169 207 244 285
#     4   8  15  31  54  74  98 135 165 188 237 306
#     4  10  19  31  50  75 101 128 160 204 250 287
#     4   7  12  26  47  69  93 120 152 190 236 293
#     4   9  17  31  52  74  95 124 163 203 242 290
#     4   9  18  34  53  71  96 132 167 198 242 299
#     4   8  14  28  51  75  98 127 161 193 235 298
#
# _framework density 19.389047000000001
#
# number of rings (size 3 to 8) (size 9 to 14) (size 15 to 20)
#    0.000    3.250    0.000    2.625    0.000    2.500 
#    0.000    6.875    0.000    3.000    0.000    0.000 
#    0.000    0.000    0.000    0.000    0.000    0.000 
#
# Total GULP energy -396467.874727 kJ/mol
# GULP energy per Si atom -12389.621085 kJ/mol
# Density = 1.934492 g / cm^3
# Si number density = 19.389047 Si / 1000 Ang^3
#
#
#
# Elastic Constant Matrix: (Units=GPa)
#
#
# Indices 1 2 3 4 5 6 
#
# 1 83.8882 6.4470 7.6784 0.0000 -6.2586 0.0000
# 2 6.4470 24.0314 13.1283 0.0000 -2.0172 0.0000
# 3 7.6784 13.1283 62.0884 0.0000 -14.8569 0.0000
# 4 0.0000 0.0000 0.0000 25.6820 0.0000 -2.1617
# 5 -6.2586 -2.0172 -14.8569 0.0000 32.0250 0.0000
# 6 0.0000 0.0000 0.0000 -2.1617 0.0000 13.3661
#
#
#
# Elastic Compliance Matrix: (Units=1/GPa)
#
#
# Indices 1 2 3 4 5 6 
#
# 1 0.012334 -0.002906 -0.000425 0.000000 0.002030 0.000000
# 2 -0.002906 0.047830 -0.010314 0.000000 -0.002340 0.000000
# 3 -0.000425 -0.010314 0.020432 0.000000 0.008746 0.000000
# 4 0.000000 0.000000 0.000000 0.039475 0.000000 0.006384
# 5 0.002030 -0.002340 0.008746 0.000000 0.035532 0.000000
# 6 0.000000 0.000000 0.000000 0.006384 0.000000 0.075849
#
#
# Mechanical properties :
#
#
# Convention : Reuss Voigt Hill
#
# Bulk Modulus (GPa) = 18.75963 24.94617 21.85290
# Shear Modulus (GPa) = 18.08239 23.73160 20.90699
#
# Velocity S-wave (km/s) = 3.05718 3.50232 3.28729
# Velocity P-wave (km/s) = 4.70724 5.40824 5.06987
#
# Compressibility (1/GPa) = 0.05330596
#
# Stress axis : x y z
#
# Youngs Moduli (GPa) = 81.07436 20.90734 48.94211
#
# Poissons Ratio (x) = 0.06076 0.02080
# Poissons Ratio (y) = 0.23563 0.50479
# Poissons Ratio (z) = 0.03446 0.21564
#
# Static dielectric constant tensor:
#      x y z
#    x 4.031570 0.000000 -0.206130 
#    y 0.000000 3.071440 0.000000 
#    z -0.206130 0.000000 3.444310 
# 
# 
# High freq. dielectric constant tensor:
#      x y z
#    x 1.762420 0.000000 -0.007390 
#    y 0.000000 1.705150 0.000000 
#    z -0.007390 0.000000 1.747520 
# 
# From -- ./inp_files/51711.got.cif
#   From: 2010.06.25/outbox.cif.g09.slc.cpg/sg11_26_cif.got.tgz:51711.got - 2010.06.27 23:14:04.
