data_PCOD8070595
_publ_section_title
;
Structure prediction by ZEFSAII (Michael W. Deem and Ramdas Pophale) SiO2 
 PCOD8070595
Probable space group: P 21/M
;
_chemical_formula_sum "Si O2"
_cell_formula_units_Z 32
_cell_length_a 11.770233
_cell_length_b 8.952355
_cell_length_c 18.167812
_cell_angle_alpha 90.000000
_cell_angle_beta 68.921233
_cell_angle_gamma 90.000000
_cell_volume 1786.269842
_symmetry_space_group_name_H-M "P 21/M"
_symmetry_group_IT_number 11
_symmetry_cell_setting 'monoclinic'
loop_
_space_group_symop_operation_xyz
x,y,z
-x,1/2+y,-z
-x,-y,-z
x,1/2-y,z
loop_
_atom_site_type_symbol
_atom_site_label
_atom_site_fract_x
_atom_site_fract_y
_atom_site_fract_z
Si Si1 0.255625 0.073906 0.348061
Si Si2 0.733402 0.926584 0.140781
Si Si3 0.827115 0.579139 0.963743
Si Si4 0.030426 0.573858 0.317078
Si Si5 0.407542 0.077886 0.076401
Si Si6 0.539306 0.427821 0.784782
Si Si7 0.033651 0.073549 0.829471
Si Si8 0.107834 0.421148 0.514507
O O1 0.268384 0.250000 0.330067
O O2 0.231605 0.037020 0.441170
O O3 0.381882 0.992119 0.300773
O O4 0.146635 0.012313 0.322235
O O5 0.725539 0.750000 0.134888
O O6 0.599227 0.986329 0.192696
O O7 0.828808 0.975742 0.181547
O O8 0.774803 0.990462 0.051732
O O9 0.866624 0.750000 0.966535
O O10 0.727513 0.565013 0.923455
O O11 0.945223 0.487800 0.912727
O O12 0.061249 0.750000 0.308225
O O13 0.999974 0.510413 0.243250
O O14 0.906616 0.543288 0.394910
O O15 0.446177 0.250000 0.078200
O O16 0.404912 0.991143 0.153372
O O17 0.500000 0.000000 0.000000
O O18 0.547652 0.250000 0.784116
O O19 0.022513 0.250000 0.832196
O O20 0.083031 0.250000 0.506013
O O21 0.000000 0.500000 0.500000
#
# Coordination Sequence:
#
# PCOD8070595 Si02
#       8
#     4   4   4   4   4   4   4   4
#     4  10  19  31  49  76 104 130 159 197 245 298
#     4   9  19  36  51  66  93 130 168 206 245 285
#     4  10  20  35  51  69  97 128 159 200 250 291
#     4   9  17  31  51  76 101 128 160 198 245 297
#     4  11  21  34  52  74 100 130 162 200 246 293
#     4  11  21  35  52  70  98 134 168 205 244 288
#     4  10  20  33  52  74  94 122 166 209 243 288
#     4   8  15  28  47  71 101 129 155 191 241 296
#
# _framework density 17.914425999999999
#
# number of rings (size 3 to 8) (size 9 to 14) (size 15 to 20)
#    0.000    2.250    1.250    2.250    0.000    4.000 
#    0.000    1.250    0.000    0.750    0.000    0.000 
#    0.000    0.000    0.000    0.000    0.000    0.750 
#
# Total GULP energy -396576.550806 kJ/mol
# GULP energy per Si atom -12393.017213 kJ/mol
# Density = 1.787365 g / cm^3
# Si number density = 17.914426 Si / 1000 Ang^3
#
#
#
# Elastic Constant Matrix: (Units=GPa)
#
#
# Indices 1 2 3 4 5 6 
#
# 1 88.3182 25.4985 52.2771 0.0000 -12.7602 0.0000
# 2 25.4985 50.3626 31.7106 0.0000 -8.9404 0.0000
# 3 52.2771 31.7106 134.8579 0.0000 -24.2877 0.0000
# 4 0.0000 0.0000 0.0000 27.4804 0.0000 -4.7566
# 5 -12.7602 -8.9404 -24.2877 0.0000 21.1907 0.0000
# 6 0.0000 0.0000 0.0000 -4.7566 0.0000 18.5111
#
#
#
# Elastic Compliance Matrix: (Units=1/GPa)
#
#
# Indices 1 2 3 4 5 6 
#
# 1 0.015710 -0.004668 -0.004591 0.000000 0.002229 0.000000
# 2 -0.004668 0.025035 -0.003379 0.000000 0.003879 0.000000
# 3 -0.004591 -0.003379 0.011637 0.000000 0.009148 0.000000
# 4 0.000000 0.000000 0.000000 0.038083 0.000000 0.009786
# 5 0.002229 0.003879 0.009148 0.000000 0.060654 0.000000
# 6 0.000000 0.000000 0.000000 0.009786 0.000000 0.056536
#
#
# Mechanical properties :
#
#
# Convention : Reuss Voigt Hill
#
# Bulk Modulus (GPa) = 36.89043 54.72345 45.80694
# Shear Modulus (GPa) = 20.66411 24.37327 22.51869
#
# Velocity S-wave (km/s) = 3.39999 3.69255 3.54929
# Velocity P-wave (km/s) = 6.00421 6.98522 6.51321
#
# Compressibility (1/GPa) = 0.02710730
#
# Stress axis : x y z
#
# Youngs Moduli (GPa) = 63.65500 39.94364 85.93417
#
# Poissons Ratio (x) = 0.18644 0.39451
# Poissons Ratio (y) = 0.29711 0.29036
# Poissons Ratio (z) = 0.29223 0.13496
#
# Static dielectric constant tensor:
#      x y z
#    x 3.245070 0.000000 -0.055690 
#    y 0.000000 3.220740 0.000000 
#    z -0.055690 0.000000 3.857040 
# 
# 
# High freq. dielectric constant tensor:
#      x y z
#    x 1.666830 0.000000 -0.009750 
#    y 0.000000 1.685490 0.000000 
#    z -0.009750 0.000000 1.706590 
# 
# From -- ./inp_files/61766.got.cif
#   From: 2010.06.25/outbox.cif.g09.slc.cpg/sg11_31_cif.got.tgz:61766.got - 2010.06.27 23:14:04.
