data_PCOD8070745
_publ_section_title
;
Structure prediction by ZEFSAII (Michael W. Deem and Ramdas Pophale) SiO2 
 PCOD8070745
Probable space group: P 21/M
;
_chemical_formula_sum "Si O2"
_cell_formula_units_Z 32
_cell_length_a 5.254520
_cell_length_b 9.314709
_cell_length_c 32.186751
_cell_angle_alpha 90.000000
_cell_angle_beta 84.154448
_cell_angle_gamma 90.000000
_cell_volume 1567.167008
_symmetry_space_group_name_H-M "P 21/M"
_symmetry_group_IT_number 11
_symmetry_cell_setting 'monoclinic'
loop_
_space_group_symop_operation_xyz
x,y,z
-x,1/2+y,-z
-x,-y,-z
x,1/2-y,z
loop_
_atom_site_type_symbol
_atom_site_label
_atom_site_fract_x
_atom_site_fract_y
_atom_site_fract_z
Si Si1 0.021211 0.092819 0.562870
Si Si2 0.688521 0.593978 0.522750
Si Si3 0.641327 0.579500 0.770507
Si Si4 0.889499 0.079287 0.181014
Si Si5 0.242823 0.920318 0.627943
Si Si6 0.945452 0.582225 0.094442
Si Si7 0.476895 0.582750 0.043007
Si Si8 0.291820 0.080246 0.323001
O O1 0.962652 0.250000 0.584162
O O2 0.083166 0.121309 0.513632
O O3 0.775280 0.985917 0.564103
O O4 0.245019 0.007761 0.584233
O O5 0.500000 0.500000 0.500000
O O6 0.575979 0.750000 0.538180
O O7 0.646103 0.750000 0.768440
O O8 0.875472 0.524190 0.794753
O O9 0.672788 0.515124 0.723682
O O10 0.373436 0.525543 0.793724
O O11 0.893281 0.250000 0.175823
O O12 0.912461 0.009312 0.136031
O O13 0.250318 0.750000 0.619746
O O14 0.478716 0.975363 0.651624
O O15 0.980534 0.969196 0.654689
O O16 0.938406 0.750000 0.105837
O O17 0.715300 0.539613 0.067753
O O18 0.213751 0.537938 0.069496
O O19 0.479241 0.750000 0.032516
O O20 0.500000 0.500000 0.000000
O O21 0.306205 0.250000 0.319940
#
# Coordination Sequence:
#
# PCOD8070745 Si02
#       8
#     4   4   4   4   4   4   4   4
#     4  10  22  38  54  78 109 144 180 223 275 324
#     4  10  21  37  58  81 107 141 181 224 273 326
#     4   9  17  31  52  79 108 136 173 223 271 315
#     4  10  19  31  53  81 105 136 177 222 269 315
#     4  10  20  34  55  82 107 141 183 223 266 320
#     4  10  21  36  52  75 108 140 173 215 268 322
#     4  10  21  36  54  75 102 140 180 219 265 314
#     4   9  18  33  54  80 109 140 178 222 270 320
#
# _framework density 20.419011000000001
#
# number of rings (size 3 to 8) (size 9 to 14) (size 15 to 20)
#    0.000    2.250    0.000    2.625    1.750    5.500 
#    0.000    0.000    0.000    4.500    0.000    0.000 
#    0.000    0.000    0.000    0.000    0.000    0.000 
#
# Total GULP energy -396686.973901 kJ/mol
# GULP energy per Si atom -12396.467934 kJ/mol
# Density = 2.037254 g / cm^3
# Si number density = 20.419011 Si / 1000 Ang^3
#
#
#
# Elastic Constant Matrix: (Units=GPa)
#
#
# Indices 1 2 3 4 5 6 
#
# 1 130.0210 14.6655 37.7079 0.0000 11.4910 0.0000
# 2 14.6655 69.9808 20.8008 0.0000 14.4652 0.0000
# 3 37.7079 20.8008 113.3481 0.0000 8.6132 0.0000
# 4 0.0000 0.0000 0.0000 24.5656 0.0000 1.3769
# 5 11.4910 14.4652 8.6132 0.0000 37.2748 0.0000
# 6 0.0000 0.0000 0.0000 1.3769 0.0000 10.9304
#
#
#
# Elastic Compliance Matrix: (Units=1/GPa)
#
#
# Indices 1 2 3 4 5 6 
#
# 1 0.008689 -0.000664 -0.002631 0.000000 -0.001813 0.000000
# 2 -0.000664 0.016277 -0.002343 0.000000 -0.005570 0.000000
# 3 -0.002631 -0.002343 0.010176 0.000000 -0.000631 0.000000
# 4 0.000000 0.000000 0.000000 0.040997 0.000000 -0.005164
# 5 -0.001813 -0.005570 -0.000631 0.000000 0.029694 0.000000
# 6 0.000000 0.000000 0.000000 -0.005164 0.000000 0.092138
#
#
# Mechanical properties :
#
#
# Convention : Reuss Voigt Hill
#
# Bulk Modulus (GPa) = 41.90151 51.07759 46.48955
# Shear Modulus (GPa) = 23.02010 30.56588 26.79299
#
# Velocity S-wave (km/s) = 3.36130 3.87322 3.62630
# Velocity P-wave (km/s) = 5.96907 6.71353 6.35222
#
# Compressibility (1/GPa) = 0.02386549
#
# Stress axis : x y z
#
# Youngs Moduli (GPa) = 115.08483 61.43808 98.27507
#
# Poissons Ratio (x) = 0.04081 0.25856
# Poissons Ratio (y) = 0.07644 0.23023
# Poissons Ratio (z) = 0.30279 0.14393
#
# Static dielectric constant tensor:
#      x y z
#    x 3.592590 0.000000 -0.058630 
#    y 0.000000 3.793850 0.000000 
#    z -0.058630 0.000000 3.901660 
# 
# 
# High freq. dielectric constant tensor:
#      x y z
#    x 1.814360 0.000000 0.005660 
#    y 0.000000 1.767020 0.000000 
#    z 0.005660 0.000000 1.800190 
# 
# From -- ./inp_files/72597.got.cif
#   From: 2010.06.25/outbox.cif.g09.slc.cpg/sg11_37_cif.got.tgz:72597.got - 2010.06.27 23:14:04.
