data_PCOD8070545
_publ_section_title
;
Structure prediction by ZEFSAII (Michael W. Deem and Ramdas Pophale) SiO2 
 PCOD8070545
Probable space group: P 21/M
;
_chemical_formula_sum "Si O2"
_cell_formula_units_Z 32
_cell_length_a 28.799072
_cell_length_b 8.764425
_cell_length_c 21.098533
_cell_angle_alpha 90.000000
_cell_angle_beta 159.870968
_cell_angle_gamma 90.000000
_cell_volume 1832.667376
_symmetry_space_group_name_H-M "P 21/M"
_symmetry_group_IT_number 11
_symmetry_cell_setting 'monoclinic'
loop_
_space_group_symop_operation_xyz
x,y,z
-x,1/2+y,-z
-x,-y,-z
x,1/2-y,z
loop_
_atom_site_type_symbol
_atom_site_label
_atom_site_fract_x
_atom_site_fract_y
_atom_site_fract_z
Si Si1 0.618104 0.070956 0.110674
Si Si2 0.883597 0.930748 0.507842
Si Si3 0.968729 0.928969 0.056112
Si Si4 0.927835 0.571513 0.346940
Si Si5 0.875240 0.930354 0.642015
Si Si6 0.358705 0.573124 0.574371
Si Si7 0.794617 0.571299 0.722838
Si Si8 0.376570 0.074771 0.013530
O O1 0.623607 0.250000 0.129748
O O2 0.758680 0.995971 0.309058
O O3 0.589169 0.036521 0.000371
O O4 0.500000 0.000000 0.000000
O O5 0.881961 0.750000 0.500211
O O6 0.876618 0.986106 0.571345
O O7 0.018719 0.995550 0.649071
O O8 0.993521 0.750000 0.094042
O O9 0.986557 0.005752 0.148033
O O10 0.083488 0.001723 0.160300
O O11 0.823966 0.961314 0.835583
O O12 0.959944 0.750000 0.387661
O O13 0.769087 0.536892 0.144567
O O14 0.000000 0.500000 0.500000
O O15 0.875086 0.750000 0.646491
O O16 0.740737 0.992865 0.502947
O O17 0.322350 0.750000 0.528008
O O18 0.339795 0.507017 0.478254
O O19 0.513218 0.542646 0.790969
O O20 0.786826 0.750000 0.699813
O O21 0.383625 0.250000 0.998959
#
# Coordination Sequence:
#
# PCOD8070545 Si02
#       8
#     4   4   4   4   4   4   4   4
#     4  12  24  36  54  76 101 135 169 204 253 306
#     4  11  23  38  54  75 103 132 170 214 256 305
#     4   9  16  26  43  67  97 133 168 201 240 292
#     4  11  22  38  59  78  98 129 170 217 262 303
#     4  10  20  32  48  72 103 136 166 206 251 296
#     4  10  19  31  49  73 102 136 167 203 249 299
#     4   9  16  26  42  67  99 133 166 201 241 290
#     4  10  22  38  54  74 102 131 168 213 254 302
#
# _framework density 17.460888000000001
#
# number of rings (size 3 to 8) (size 9 to 14) (size 15 to 20)
#    0.000    1.750    1.250    5.625    0.000    7.000 
#    0.000    0.000    0.000    0.000    0.000    0.875 
#    0.000    0.000    0.000    0.000    0.000    0.000 
#
# Total GULP energy -396677.975728 kJ/mol
# GULP energy per Si atom -12396.186742 kJ/mol
# Density = 1.742115 g / cm^3
# Si number density = 17.460888 Si / 1000 Ang^3
#
#
#
# Elastic Constant Matrix: (Units=GPa)
#
#
# Indices 1 2 3 4 5 6 
#
# 1 43.3302 26.2699 54.0031 0.0000 -5.2404 0.0000
# 2 26.2699 86.7138 42.5507 0.0000 -4.4569 0.0000
# 3 54.0031 42.5507 123.1903 0.0000 -18.5034 0.0000
# 4 0.0000 0.0000 0.0000 25.7328 0.0000 -3.7604
# 5 -5.2404 -4.4569 -18.5034 0.0000 32.0562 0.0000
# 6 0.0000 0.0000 0.0000 -3.7604 0.0000 27.8369
#
#
#
# Elastic Compliance Matrix: (Units=1/GPa)
#
#
# Indices 1 2 3 4 5 6 
#
# 1 0.053740 -0.005552 -0.022377 0.000000 -0.004903 0.000000
# 2 -0.005552 0.014484 -0.002631 0.000000 -0.000412 0.000000
# 3 -0.022377 -0.002631 0.019962 0.000000 0.007499 0.000000
# 4 0.000000 0.000000 0.000000 0.039643 0.000000 0.005355
# 5 -0.004903 -0.000412 0.007499 0.000000 0.034665 0.000000
# 6 0.000000 0.000000 0.000000 0.005355 0.000000 0.036647
#
#
# Mechanical properties :
#
#
# Convention : Reuss Voigt Hill
#
# Bulk Modulus (GPa) = 36.94634 55.43130 46.18882
# Shear Modulus (GPa) = 18.56777 25.81922 22.19349
#
# Velocity S-wave (km/s) = 3.26451 3.84954 3.56903
# Velocity P-wave (km/s) = 5.95103 7.18147 6.59501
#
# Compressibility (1/GPa) = 0.02706628
#
# Stress axis : x y z
#
# Youngs Moduli (GPa) = 18.60795 69.04162 50.09533
#
# Poissons Ratio (x) = 0.38334 1.12098
# Poissons Ratio (y) = 0.10332 0.13179
# Poissons Ratio (z) = 0.41639 0.18164
#
# Static dielectric constant tensor:
#      x y z
#    x 3.398310 0.000000 -0.491000 
#    y 0.000000 3.371050 0.000000 
#    z -0.491000 0.000000 3.701300 
# 
# 
# High freq. dielectric constant tensor:
#      x y z
#    x 1.649440 0.000000 -0.031570 
#    y 0.000000 1.693260 0.000000 
#    z -0.031570 0.000000 1.669970 
# 
# From -- ./inp_files/67144.got.cif
#   From: 2010.06.25/outbox.cif.g09.slc.cpg/sg11_34_cif.got.tgz:67144.got - 2010.06.27 23:14:04.
