data_PCOD8070154
_publ_section_title
;
Structure prediction by ZEFSAII (Michael W. Deem and Ramdas Pophale) SiO2 
 PCOD8070154
Probable space group: P 21/M
;
_chemical_formula_sum "Si O2"
_cell_formula_units_Z 32
_cell_length_a 20.969641
_cell_length_b 9.084434
_cell_length_c 30.342497
_cell_angle_alpha 90.000000
_cell_angle_beta 160.416324
_cell_angle_gamma 90.000000
_cell_volume 1937.413734
_symmetry_space_group_name_H-M "P 21/M"
_symmetry_group_IT_number 11
_symmetry_cell_setting 'monoclinic'
loop_
_space_group_symop_operation_xyz
x,y,z
-x,1/2+y,-z
-x,-y,-z
x,1/2-y,z
loop_
_atom_site_type_symbol
_atom_site_label
_atom_site_fract_x
_atom_site_fract_y
_atom_site_fract_z
Si Si1 0.423363 0.923350 0.107597
Si Si2 0.777762 0.079586 0.192824
Si Si3 0.814794 0.577611 0.502655
Si Si4 0.175456 0.422843 0.591622
Si Si5 0.225075 0.082607 0.054922
Si Si6 0.553002 0.577507 0.711076
Si Si7 0.877886 0.420041 0.884005
Si Si8 0.591057 0.578191 0.993294
O O1 0.406374 0.750000 0.091095
O O2 0.634170 0.971693 0.259346
O O3 0.273310 0.974436 0.046560
O O4 0.371570 0.998382 0.028150
O O5 0.764465 0.250000 0.170480
O O6 0.621857 0.042819 0.128663
O O7 0.981279 0.037395 0.344717
O O8 0.743759 0.981545 0.127684
O O9 0.769273 0.750000 0.476713
O O10 0.809824 0.524117 0.449042
O O11 0.658612 0.487470 0.428199
O O12 0.140885 0.250000 0.571475
O O13 0.000000 0.500000 0.500000
O O14 0.272696 0.250000 0.072278
O O15 0.349536 0.039173 0.178727
O O16 0.998537 0.065941 0.917275
O O17 0.547584 0.750000 0.698273
O O18 0.672568 0.500104 0.749251
O O19 0.850254 0.250000 0.878952
O O20 0.000000 0.500000 0.000000
O O21 0.625225 0.750000 0.008923
#
# Coordination Sequence:
#
# PCOD8070154 Si02
#       8
#     4   4   4   4   4   4   4   4
#     4  11  21  32  49  72  99 130 166 203 243 294
#     4   9  19  35  54  73  95 126 167 211 253 295
#     4  10  19  33  50  70  99 132 165 203 248 293
#     4  10  21  33  46  68  97 132 165 197 242 294
#     4   9  18  31  46  68  98 131 165 200 241 287
#     4  10  19  30  46  71 100 132 167 202 242 292
#     4   9  17  29  46  68  96 130 166 201 241 290
#     4  10  20  35  54  72  96 127 164 212 256 294
#
# _framework density 16.516864999999999
#
# number of rings (size 3 to 8) (size 9 to 14) (size 15 to 20)
#    0.000    2.250    1.250    3.000    0.000    6.000 
#    0.000    0.000    0.000    0.000    0.000    0.875 
#    0.000    0.000    0.000    0.000    0.000    0.000 
#
# Total GULP energy -396824.130017 kJ/mol
# GULP energy per Si atom -12400.754063 kJ/mol
# Density = 1.647927 g / cm^3
# Si number density = 16.516865 Si / 1000 Ang^3
#
#
#
# Elastic Constant Matrix: (Units=GPa)
#
#
# Indices 1 2 3 4 5 6 
#
# 1 81.5491 47.2967 34.2756 0.0000 5.7332 0.0000
# 2 47.2967 79.9277 34.1958 0.0000 2.8307 0.0000
# 3 34.2756 34.1958 56.6516 0.0000 4.8134 0.0000
# 4 0.0000 0.0000 0.0000 25.1036 0.0000 5.9908
# 5 5.7332 2.8307 4.8134 0.0000 25.5505 0.0000
# 6 0.0000 0.0000 0.0000 5.9908 0.0000 30.0866
#
#
#
# Elastic Compliance Matrix: (Units=1/GPa)
#
#
# Indices 1 2 3 4 5 6 
#
# 1 0.020599 -0.009248 -0.006682 0.000000 -0.002339 0.000000
# 2 -0.009248 0.021019 -0.007186 0.000000 0.001100 0.000000
# 3 -0.006682 -0.007186 0.026257 0.000000 -0.002651 0.000000
# 4 0.000000 0.000000 0.000000 0.041822 0.000000 -0.008328
# 5 -0.002339 0.001100 -0.002651 0.000000 0.040041 0.000000
# 6 0.000000 0.000000 0.000000 -0.008328 0.000000 0.034896
#
#
# Mechanical properties :
#
#
# Convention : Reuss Voigt Hill
#
# Bulk Modulus (GPa) = 46.20204 49.96275 48.08239
# Shear Modulus (GPa) = 21.00141 22.97215 21.98678
#
# Velocity S-wave (km/s) = 3.56970 3.73343 3.65248
# Velocity P-wave (km/s) = 6.70997 6.99284 6.85287
#
# Compressibility (1/GPa) = 0.02164407
#
# Stress axis : x y z
#
# Youngs Moduli (GPa) = 48.54623 47.57628 38.08468
#
# Poissons Ratio (x) = 0.43997 0.25449
# Poissons Ratio (y) = 0.44894 0.27367
# Poissons Ratio (z) = 0.32439 0.34187
#
# Static dielectric constant tensor:
#      x y z
#    x 3.120410 0.000000 0.200070 
#    y 0.000000 3.213150 0.000000 
#    z 0.200070 0.000000 3.018750 
# 
# 
# High freq. dielectric constant tensor:
#      x y z
#    x 1.624680 0.000000 0.021050 
#    y 0.000000 1.646640 0.000000 
#    z 0.021050 0.000000 1.615400 
# 
# From -- ./inp_files/42793.got.cif
#   From: 2010.06.25/outbox.cif.g09.slc.cpg/sg11_22_cif.got.tgz:42793.got - 2010.06.27 23:14:04.
