data_PCOD8070810
_publ_section_title
;
Structure prediction by ZEFSAII (Michael W. Deem and Ramdas Pophale) SiO2 
 PCOD8070810
Probable space group: P 21/M
;
_chemical_formula_sum "Si O2"
_cell_formula_units_Z 32
_cell_length_a 12.111668
_cell_length_b 9.126539
_cell_length_c 21.958456
_cell_angle_alpha 90.000000
_cell_angle_beta 46.465698
_cell_angle_gamma 90.000000
_cell_volume 1759.653651
_symmetry_space_group_name_H-M "P 21/M"
_symmetry_group_IT_number 11
_symmetry_cell_setting 'monoclinic'
loop_
_space_group_symop_operation_xyz
x,y,z
-x,1/2+y,-z
-x,-y,-z
x,1/2-y,z
loop_
_atom_site_type_symbol
_atom_site_label
_atom_site_fract_x
_atom_site_fract_y
_atom_site_fract_z
Si Si1 0.099322 0.923311 0.911028
Si Si2 0.375929 0.420799 0.207149
Si Si3 0.429067 0.921024 0.754539
Si Si4 0.728865 0.078356 0.427366
Si Si5 0.493302 0.578115 0.596481
Si Si6 0.938778 0.576521 0.728080
Si Si7 0.897612 0.921550 0.878029
Si Si8 0.564521 0.577194 0.034315
O O1 0.086214 0.750000 0.926831
O O2 0.273936 0.981172 0.844985
O O3 0.035510 0.969700 0.868965
O O4 0.000000 0.000000 0.000000
O O5 0.398762 0.250000 0.181737
O O6 0.425094 0.453002 0.258027
O O7 0.200381 0.468318 0.263653
O O8 0.484819 0.516892 0.124273
O O9 0.401906 0.750000 0.755252
O O10 0.458395 0.989128 0.676605
O O11 0.722014 0.250000 0.443656
O O12 0.648996 0.041963 0.393198
O O13 0.901814 0.017770 0.359296
O O14 0.646057 0.996840 0.513879
O O15 0.525584 0.750000 0.587432
O O16 0.950686 0.750000 0.728979
O O17 0.911359 0.506043 0.805614
O O18 0.900475 0.750000 0.865985
O O19 0.741728 0.965996 0.970777
O O20 0.537942 0.750000 0.039284
O O21 0.500000 0.500000 0.000000
#
# Coordination Sequence:
#
# PCOD8070810 Si02
#       8
#     4   4   4   4   4   4   4   4
#     4  10  19  32  49  70  97 126 161 199 237 283
#     4  10  19  33  51  71  98 130 167 204 240 288
#     4   9  18  32  52  74  97 132 167 197 239 294
#     4   9  17  30  52  76  96 122 160 204 245 289
#     4   9  17  32  52  74  98 125 159 198 245 295
#     4   9  16  29  49  71  93 122 162 200 236 286
#     4   9  17  29  48  70  92 124 163 199 235 283
#     4  11  20  32  49  71  98 130 168 205 245 287
#
# _framework density 18.185396000000001
#
# number of rings (size 3 to 8) (size 9 to 14) (size 15 to 20)
#    0.000    2.500    1.250    1.875    0.000    3.000 
#    0.000    3.125    0.000    1.500    0.000    0.000 
#    0.000    0.000    0.000    0.000    0.000    0.000 
#
# Total GULP energy -396692.361385 kJ/mol
# GULP energy per Si atom -12396.636293 kJ/mol
# Density = 1.814401 g / cm^3
# Si number density = 18.185396 Si / 1000 Ang^3
#
#
#
# Elastic Constant Matrix: (Units=GPa)
#
#
# Indices 1 2 3 4 5 6 
#
# 1 130.0627 24.1960 79.5088 0.0000 -13.9525 0.0000
# 2 24.1960 32.0611 31.0764 0.0000 -1.1019 0.0000
# 3 79.5088 31.0764 154.2179 0.0000 -7.3207 0.0000
# 4 0.0000 0.0000 0.0000 27.9129 0.0000 -0.8830
# 5 -13.9525 -1.1019 -7.3207 0.0000 33.2009 0.0000
# 6 0.0000 0.0000 0.0000 -0.8830 0.0000 15.3068
#
#
#
# Elastic Compliance Matrix: (Units=1/GPa)
#
#
# Indices 1 2 3 4 5 6 
#
# 1 0.012012 -0.003860 -0.005236 0.000000 0.003765 0.000000
# 2 -0.003860 0.040008 -0.006150 0.000000 -0.001651 0.000000
# 3 -0.005236 -0.006150 0.010418 0.000000 -0.000107 0.000000
# 4 0.000000 0.000000 0.000000 0.035891 0.000000 0.002070
# 5 0.003765 -0.001651 -0.000107 0.000000 0.031624 0.000000
# 6 0.000000 0.000000 0.000000 0.002070 0.000000 0.065450
#
#
# Mechanical properties :
#
#
# Convention : Reuss Voigt Hill
#
# Bulk Modulus (GPa) = 31.30399 65.10046 48.20222
# Shear Modulus (GPa) = 21.13776 27.38816 24.26296
#
# Velocity S-wave (km/s) = 3.41302 3.88500 3.65663
# Velocity P-wave (km/s) = 5.72563 7.48333 6.66269
#
# Compressibility (1/GPa) = 0.03194481
#
# Stress axis : x y z
#
# Youngs Moduli (GPa) = 83.25353 24.99486 95.98701
#
# Poissons Ratio (x) = 0.09649 0.50259
# Poissons Ratio (y) = 0.32138 0.59034
# Poissons Ratio (z) = 0.43592 0.15372
#
# Static dielectric constant tensor:
#      x y z
#    x 2.814050 0.000000 -1.651290 
#    y 0.000000 3.476960 0.000000 
#    z -1.651290 0.000000 0.129530 
# 
# 
# High freq. dielectric constant tensor:
#      x y z
#    x 1.713200 0.000000 -0.004710 
#    y 0.000000 1.660640 0.000000 
#    z -0.004710 0.000000 1.704560 
# 
# From -- ./inp_files/64392.got.cif
#   From: 2010.06.25/outbox.cif.g09.slc.cpg/sg11_33_cif.got.tgz:64392.got - 2010.06.27 23:14:04.
