data_PCOD8070298
_publ_section_title
;
Structure prediction by ZEFSAII (Michael W. Deem and Ramdas Pophale) SiO2 
 PCOD8070298
Probable space group: P 21/M
;
_chemical_formula_sum "Si O2"
_cell_formula_units_Z 32
_cell_length_a 20.719941
_cell_length_b 8.992082
_cell_length_c 14.276753
_cell_angle_alpha 90.000000
_cell_angle_beta 136.745777
_cell_angle_gamma 90.000000
_cell_volume 1822.715207
_symmetry_space_group_name_H-M "P 21/M"
_symmetry_group_IT_number 11
_symmetry_cell_setting 'monoclinic'
loop_
_space_group_symop_operation_xyz
x,y,z
-x,1/2+y,-z
-x,-y,-z
x,1/2-y,z
loop_
_atom_site_type_symbol
_atom_site_label
_atom_site_fract_x
_atom_site_fract_y
_atom_site_fract_z
Si Si1 0.051117 0.576406 0.850485
Si Si2 0.194158 0.077532 0.865727
Si Si3 0.196199 0.575698 0.148964
Si Si4 0.848845 0.575589 0.572054
Si Si5 0.333518 0.922632 0.134340
Si Si6 0.903641 0.577678 0.425013
Si Si7 0.717466 0.072938 0.571723
Si Si8 0.473610 0.425036 0.569995
O O1 0.066843 0.750000 0.846715
O O2 0.106361 0.490734 0.828339
O O3 0.941509 0.535174 0.731011
O O4 0.093417 0.533353 0.997955
O O5 0.198038 0.250000 0.893608
O O6 0.176799 0.048107 0.737406
O O7 0.294425 0.005834 0.000720
O O8 0.209419 0.750000 0.170532
O O9 0.276187 0.513909 0.163289
O O10 0.214523 0.512781 0.272272
O O11 0.825758 0.750000 0.551725
O O12 0.863992 0.519134 0.482082
O O13 0.761351 0.485000 0.521411
O O14 0.311539 0.750000 0.096976
O O15 0.443311 0.952553 0.266983
O O16 0.928575 0.750000 0.460760
O O17 0.000000 0.500000 0.500000
O O18 0.707439 0.250000 0.558378
O O19 0.615798 0.001684 0.478197
O O20 0.500000 0.500000 0.500000
O O21 0.457111 0.250000 0.535773
#
# Coordination Sequence:
#
# PCOD8070298 Si02
#       8
#     4   4   4   4   4   4   4   4
#     4   9  17  32  52  71 102 146 181 210 255 318
#     4  10  19  30  50  82 110 132 171 226 270 309
#     4   8  15  30  49  72 103 138 174 209 252 306
#     4  10  21  36  52  74 105 146 185 219 264 321
#     4   9  18  34  54  76 106 141 172 210 264 321
#     4  10  20  34  54  79 108 139 178 224 271 315
#     4  11  22  36  52  76 110 144 179 225 268 313
#     4  11  21  36  58  82 108 140 179 221 265 317
#
# _framework density 17.556227
#
# number of rings (size 3 to 8) (size 9 to 14) (size 15 to 20)
#    0.000    2.250    2.500    1.875    0.000    3.000 
#    0.000    0.625    0.000    0.750    0.000    0.000 
#    0.000    0.000    0.000    0.000    0.000    0.000 
#
# Total GULP energy -396694.037473 kJ/mol
# GULP energy per Si atom -12396.688671 kJ/mol
# Density = 1.751627 g / cm^3
# Si number density = 17.556227 Si / 1000 Ang^3
#
#
#
# Elastic Constant Matrix: (Units=GPa)
#
#
# Indices 1 2 3 4 5 6 
#
# 1 120.2162 48.7029 64.5810 0.0000 1.8561 0.0000
# 2 48.7029 73.4936 49.5094 0.0000 3.8653 0.0000
# 3 64.5810 49.5094 104.9763 0.0000 0.8221 0.0000
# 4 0.0000 0.0000 0.0000 27.0845 0.0000 1.7515
# 5 1.8561 3.8653 0.8221 0.0000 23.5837 0.0000
# 6 0.0000 0.0000 0.0000 1.7515 0.0000 26.5005
#
#
#
# Elastic Compliance Matrix: (Units=1/GPa)
#
#
# Indices 1 2 3 4 5 6 
#
# 1 0.013541 -0.004924 -0.006008 0.000000 -0.000049 0.000000
# 2 -0.004924 0.021939 -0.007295 0.000000 -0.002954 0.000000
# 3 -0.006008 -0.007295 0.016654 0.000000 0.001088 0.000000
# 4 0.000000 0.000000 0.000000 0.037080 0.000000 -0.002451
# 5 -0.000049 -0.002954 0.001088 0.000000 0.042852 0.000000
# 6 0.000000 0.000000 0.000000 -0.002451 0.000000 0.037897
#
#
# Mechanical properties :
#
#
# Convention : Reuss Voigt Hill
#
# Bulk Modulus (GPa) = 63.77044 69.36363 66.56703
# Shear Modulus (GPa) = 23.62457 24.49326 24.05892
#
# Velocity S-wave (km/s) = 3.67229 3.73920 3.70590
# Velocity P-wave (km/s) = 7.37451 7.63134 7.50402
#
# Compressibility (1/GPa) = 0.01568125
#
# Stress axis : x y z
#
# Youngs Moduli (GPa) = 73.84745 45.58094 60.04560
#
# Poissons Ratio (x) = 0.22443 0.36076
# Poissons Ratio (y) = 0.36360 0.43802
# Poissons Ratio (z) = 0.44368 0.33250
#
# Static dielectric constant tensor:
#      x y z
#    x 3.060670 0.000000 -0.108900 
#    y 0.000000 3.198790 0.000000 
#    z -0.108900 0.000000 3.626410 
# 
# 
# High freq. dielectric constant tensor:
#      x y z
#    x 1.650490 0.000000 -0.002840 
#    y 0.000000 1.672500 0.000000 
#    z -0.002840 0.000000 1.687590 
# 
# From -- ./inp_files/54342.got.cif
#   From: 2010.06.25/outbox.cif.g09.slc.cpg/sg11_28_cif.got.tgz:54342.got - 2010.06.27 23:14:04.
