data_PCOD8070689
_publ_section_title
;
Structure prediction by ZEFSAII (Michael W. Deem and Ramdas Pophale) SiO2 
 PCOD8070689
Probable space group: P 21/M
;
_chemical_formula_sum "Si O2"
_cell_formula_units_Z 32
_cell_length_a 17.402862
_cell_length_b 9.448575
_cell_length_c 28.646832
_cell_angle_alpha 90.000000
_cell_angle_beta 22.683704
_cell_angle_gamma 90.000000
_cell_volume 1816.560076
_symmetry_space_group_name_H-M "P 21/M"
_symmetry_group_IT_number 11
_symmetry_cell_setting 'monoclinic'
loop_
_space_group_symop_operation_xyz
x,y,z
-x,1/2+y,-z
-x,-y,-z
x,1/2-y,z
loop_
_atom_site_type_symbol
_atom_site_label
_atom_site_fract_x
_atom_site_fract_y
_atom_site_fract_z
Si Si1 0.115115 0.417497 0.168751
Si Si2 0.525860 0.084397 0.289750
Si Si3 0.797260 0.911396 0.778483
Si Si4 0.745440 0.409224 0.494020
Si Si5 0.631793 0.586597 0.138100
Si Si6 0.051067 0.908657 0.928003
Si Si7 0.674937 0.084017 0.426837
Si Si8 0.526439 0.583402 0.095109
O O1 0.099410 0.250000 0.182692
O O2 0.202807 0.473523 0.168838
O O3 0.888599 0.470724 0.286726
O O4 0.262806 0.467501 0.045051
O O5 0.483387 0.250000 0.305717
O O6 0.720264 0.057596 0.214746
O O7 0.340516 0.016469 0.419796
O O8 0.556559 0.013087 0.221884
O O9 0.719488 0.750000 0.820725
O O10 0.018107 0.921080 0.634098
O O11 0.656586 0.006811 0.826051
O O12 0.675955 0.250000 0.545025
O O13 0.670398 0.449212 0.484442
O O14 0.587897 0.750000 0.176084
O O15 0.520721 0.543544 0.152911
O O16 0.870930 0.567938 0.992235
O O17 0.047990 0.750000 0.948521
O O18 0.000000 0.000000 0.000000
O O19 0.644987 0.250000 0.433868
O O20 0.500000 0.000000 0.500000
O O21 0.502785 0.750000 0.100455
#
# Coordination Sequence:
#
# PCOD8070689 Si02
#       8
#     4   4   4   4   4   4   4   4
#     4   8  16  32  52  73  99 132 164 193 238 300
#     4  10  19  31  51  76  97 124 167 211 241 274
#     4   9  18  34  53  71  95 128 163 201 246 292
#     4   9  19  35  52  70  97 135 169 195 239 299
#     4   9  18  32  48  69 101 134 159 191 243 301
#     4   8  15  28  45  66  92 122 155 190 232 281
#     4   9  18  33  52  75 105 136 164 197 237 285
#     4  10  19  31  51  76  98 125 162 202 245 292
#
# _framework density 17.615713
#
# number of rings (size 3 to 8) (size 9 to 14) (size 15 to 20)
#    0.000    3.000    0.000    2.250    0.000    3.000 
#    0.000    5.625    0.000    0.000    0.000    0.000 
#    0.000    0.000    0.000    0.000    0.000    0.000 
#
# Total GULP energy -396482.370919 kJ/mol
# GULP energy per Si atom -12390.074091 kJ/mol
# Density = 1.757562 g / cm^3
# Si number density = 17.615713 Si / 1000 Ang^3
#
#
#
# Elastic Constant Matrix: (Units=GPa)
#
#
# Indices 1 2 3 4 5 6 
#
# 1 110.7618 50.2670 55.1617 0.0000 -13.2342 0.0000
# 2 50.2670 67.2761 48.0687 0.0000 0.4908 0.0000
# 3 55.1617 48.0687 92.9123 0.0000 2.4075 0.0000
# 4 0.0000 0.0000 0.0000 23.4204 0.0000 -4.7409
# 5 -13.2342 0.4908 2.4075 0.0000 23.8974 0.0000
# 6 0.0000 0.0000 0.0000 -4.7409 0.0000 29.7606
#
#
#
# Elastic Compliance Matrix: (Units=1/GPa)
#
#
# Indices 1 2 3 4 5 6 
#
# 1 0.017146 -0.008602 -0.005995 0.000000 0.010276 0.000000
# 2 -0.008602 0.027910 -0.009218 0.000000 -0.004408 0.000000
# 3 -0.005995 -0.009218 0.019222 0.000000 -0.005067 0.000000
# 4 0.000000 0.000000 0.000000 0.044121 0.000000 0.007029
# 5 0.010276 -0.004408 -0.005067 0.000000 0.048137 0.000000
# 6 0.000000 0.000000 0.000000 0.007029 0.000000 0.034721
#
#
# Mechanical properties :
#
#
# Convention : Reuss Voigt Hill
#
# Bulk Modulus (GPa) = 60.07014 64.21610 62.14312
# Shear Modulus (GPa) = 20.45509 23.24586 21.85048
#
# Velocity S-wave (km/s) = 3.41131 3.63658 3.52575
# Velocity P-wave (km/s) = 7.04914 7.35976 7.20612
#
# Compressibility (1/GPa) = 0.01664720
#
# Stress axis : x y z
#
# Youngs Moduli (GPa) = 58.32270 35.82947 52.02241
#
# Poissons Ratio (x) = 0.30822 0.31189
# Poissons Ratio (y) = 0.50171 0.47954
# Poissons Ratio (z) = 0.34966 0.33027
#
# Static dielectric constant tensor:
#      x y z
#    x 3.464040 0.000000 -0.304840 
#    y 0.000000 3.142240 0.000000 
#    z -0.304840 0.000000 3.351060 
# 
# 
# High freq. dielectric constant tensor:
#      x y z
#    x 1.672600 0.000000 -0.010790 
#    y 0.000000 1.668660 0.000000 
#    z -0.010790 0.000000 1.678890 
# 
# From -- ./inp_files/51418.got.cif
#   From: 2010.06.25/outbox.cif.g09.slc.cpg/sg11_26_cif.got.tgz:51418.got - 2010.06.27 23:14:04.
