data_PCOD8070543
_publ_section_title
;
Structure prediction by ZEFSAII (Michael W. Deem and Ramdas Pophale) SiO2 
 PCOD8070543
Probable space group: P 21/M
;
_chemical_formula_sum "Si O2"
_cell_formula_units_Z 28
_cell_length_a 9.010692
_cell_length_b 9.274016
_cell_length_c 25.492531
_cell_angle_alpha 90.000000
_cell_angle_beta 134.995619
_cell_angle_gamma 90.000000
_cell_volume 1506.458420
_symmetry_space_group_name_H-M "P 21/M"
_symmetry_group_IT_number 11
_symmetry_cell_setting 'monoclinic'
loop_
_space_group_symop_operation_xyz
x,y,z
-x,1/2+y,-z
-x,-y,-z
x,1/2-y,z
loop_
_atom_site_type_symbol
_atom_site_label
_atom_site_fract_x
_atom_site_fract_y
_atom_site_fract_z
Si Si1 0.459005 0.909295 0.567353
Si Si2 0.815537 0.588820 0.569022
Si Si3 0.357879 0.919151 0.005798
Si Si4 0.114409 0.419325 0.134462
Si Si5 0.914077 0.582205 0.287089
Si Si6 0.563273 0.415304 0.856467
Si Si7 0.181245 0.419823 0.269973
O O1 0.360911 0.750000 0.549648
O O2 0.628955 0.906350 0.563778
O O3 0.582758 0.956700 0.650943
O O4 0.271103 0.019118 0.506755
O O5 0.897836 0.750000 0.577365
O O6 0.003596 0.492668 0.639149
O O7 0.382544 0.750000 0.001830
O O8 0.434225 0.964644 0.082520
O O9 0.118743 0.969374 0.938505
O O10 0.500000 0.000000 0.000000
O O11 0.141673 0.250000 0.135211
O O12 0.273851 0.491338 0.134789
O O13 0.166169 0.469225 0.206343
O O14 0.978465 0.750000 0.303483
O O15 0.665921 0.560588 0.224526
O O16 0.009705 0.508586 0.259459
O O17 0.634326 0.250000 0.870068
O O18 0.133429 0.250000 0.265886
#
# Coordination Sequence:
#
# PCOD8070543 Si02
#       7
#     4   4   4   4   4   4   4
#     4   8  14  25  42  66  98 130 160 203 257 305
#     4   9  16  26  43  69  99 129 165 210 256 301
#     4  10  21  37  57  82 108 134 169 211 253 299
#     4  10  21  36  55  78 104 136 173 210 251 301
#     4  10  19  31  49  73 101 135 173 211 254 303
#     4  10  22  37  52  75 107 139 172 209 251 302
#     4   9  18  32  50  75 103 131 169 214 256 301
#
# _framework density 18.586639999999999
#
# number of rings (size 3 to 8) (size 9 to 14) (size 15 to 20)
#    0.000    2.571    0.000    3.000    0.000    6.286 
#    0.000    0.000    0.000    0.857    0.000    0.000 
#    0.000    0.000    0.000    0.000    0.000    0.000 
#
# Total GULP energy -347201.814347 kJ/mol
# GULP energy per Si atom -12400.064798 kJ/mol
# Density = 1.854434 g / cm^3
# Si number density = 18.586640 Si / 1000 Ang^3
#
#
#
# Elastic Constant Matrix: (Units=GPa)
#
#
# Indices 1 2 3 4 5 6 
#
# 1 69.2132 40.5078 30.4998 0.0000 14.9517 0.0000
# 2 40.5078 84.1281 49.1767 0.0000 8.6410 0.0000
# 3 30.4998 49.1767 121.7672 0.0000 7.3364 0.0000
# 4 0.0000 0.0000 0.0000 26.5448 0.0000 0.6711
# 5 14.9517 8.6410 7.3364 0.0000 9.7924 0.0000
# 6 0.0000 0.0000 0.0000 0.6711 0.0000 29.4732
#
#
#
# Elastic Compliance Matrix: (Units=1/GPa)
#
#
# Indices 1 2 3 4 5 6 
#
# 1 0.027432 -0.009123 -0.001202 0.000000 -0.032933 0.000000
# 2 -0.009123 0.019476 -0.005639 0.000000 0.000968 0.000000
# 3 -0.001202 -0.005639 0.010871 0.000000 -0.001333 0.000000
# 4 0.000000 0.000000 0.000000 0.037694 0.000000 -0.000858
# 5 -0.032933 0.000968 -0.001333 0.000000 0.152550 0.000000
# 6 0.000000 0.000000 0.000000 -0.000858 0.000000 0.033949
#
#
# Mechanical properties :
#
#
# Convention : Reuss Voigt Hill
#
# Bulk Modulus (GPa) = 38.68369 57.27522 47.97945
# Shear Modulus (GPa) = 15.50312 23.49035 19.49673
#
# Velocity S-wave (km/s) = 2.89121 3.55890 3.24229
# Velocity P-wave (km/s) = 5.65714 6.91157 6.31558
#
# Compressibility (1/GPa) = 0.02585069
#
# Stress axis : x y z
#
# Youngs Moduli (GPa) = 36.45434 51.34519 91.98647
#
# Poissons Ratio (x) = 0.46841 0.11061
# Poissons Ratio (y) = 0.33257 0.51870
# Poissons Ratio (z) = 0.04383 0.28953
#
# Static dielectric constant tensor:
#      x y z
#    x 2.971760 0.000000 -0.118730 
#    y 0.000000 3.511670 0.000000 
#    z -0.118730 0.000000 3.824350 
# 
# 
# High freq. dielectric constant tensor:
#      x y z
#    x 1.681990 0.000000 -0.005570 
#    y 0.000000 1.722490 0.000000 
#    z -0.005570 0.000000 1.743360 
# 
# From -- ./inp_files/70799.got.cif
#   From: 2010.06.25/outbox.cif.g09.slc.cpg/sg11_36_cif.got.tgz:70799.got - 2010.06.27 23:14:04.
