data_PCOD8070247
_publ_section_title
;
Structure prediction by ZEFSAII (Michael W. Deem and Ramdas Pophale) SiO2 
 PCOD8070247
Probable space group: P 21/M
;
_chemical_formula_sum "Si O2"
_cell_formula_units_Z 32
_cell_length_a 12.045859
_cell_length_b 14.336836
_cell_length_c 17.762645
_cell_angle_alpha 90.000000
_cell_angle_beta 28.126745
_cell_angle_gamma 90.000000
_cell_volume 1446.139024
_symmetry_space_group_name_H-M "P 21/M"
_symmetry_group_IT_number 11
_symmetry_cell_setting 'monoclinic'
loop_
_space_group_symop_operation_xyz
x,y,z
-x,1/2+y,-z
-x,-y,-z
x,1/2-y,z
loop_
_atom_site_type_symbol
_atom_site_label
_atom_site_fract_x
_atom_site_fract_y
_atom_site_fract_z
Si Si1 0.077188 0.027271 0.175207
Si Si2 0.350411 0.857914 0.966507
Si Si3 0.020175 0.892695 0.473026
Si Si4 0.538026 0.855239 0.691534
Si Si5 0.856067 0.648012 0.728883
Si Si6 0.173796 0.142622 0.893107
Si Si7 0.541659 0.853269 0.133847
Si Si8 0.771659 0.038151 0.222984
O O1 0.034990 0.065710 0.284458
O O2 0.840096 0.051846 0.269624
O O3 0.312121 0.076159 0.003799
O O4 0.138389 0.917511 0.130860
O O5 0.275745 0.750000 0.014275
O O6 0.397507 0.888695 0.851209
O O7 0.585602 0.876246 0.873416
O O8 0.265832 0.869742 0.286454
O O9 0.816884 0.858837 0.538413
O O10 0.000723 0.842405 0.565076
O O11 0.000000 0.000000 0.500000
O O12 0.465517 0.750000 0.715079
O O13 0.480473 0.921610 0.653696
O O14 0.875174 0.750000 0.757030
O O15 0.134081 0.250000 0.889745
O O16 0.397390 0.135154 0.814517
O O17 0.217907 0.073321 0.796933
O O18 0.945351 0.103375 0.071184
O O19 0.609181 0.750000 0.065920
#
# Coordination Sequence:
#
# PCOD8070247 Si02
#       8
#     4   4   4   4   4   4   4   4
#     4  11  21  34  55  85 118 147 180 226 280 334
#     4   9  18  32  51  75 106 145 186 230 278 327
#     4  11  21  36  59  83 109 144 188 235 278 327
#     4  10  19  33  53  79 113 150 188 230 276 329
#     4  10  21  37  55  80 115 152 186 220 275 341
#     4   9  17  29  47  74 109 143 181 234 283 321
#     4  10  19  32  53  83 113 141 181 232 281 324
#     4  10  19  30  48  78 111 146 186 224 270 332
#
# _framework density 22.127886
#
# number of rings (size 3 to 8) (size 9 to 14) (size 15 to 20)
#    0.000    2.000    0.000    7.500    0.000    3.000 
#    0.000    0.000    0.000    4.500    0.000    5.250 
#    0.000    8.000    0.000    0.000    0.000    0.000 
#
# Total GULP energy -396664.905055 kJ/mol
# GULP energy per Si atom -12395.778283 kJ/mol
# Density = 2.207752 g / cm^3
# Si number density = 22.127886 Si / 1000 Ang^3
#
#
#
# Elastic Constant Matrix: (Units=GPa)
#
#
# Indices 1 2 3 4 5 6 
#
# 1 116.7208 38.2151 20.0553 0.0000 -13.8371 0.0000
# 2 38.2151 126.0235 5.0185 0.0000 -6.7095 0.0000
# 3 20.0553 5.0185 38.5110 0.0000 -12.6492 0.0000
# 4 0.0000 0.0000 0.0000 21.2587 0.0000 -4.3871
# 5 -13.8371 -6.7095 -12.6492 0.0000 15.2909 0.0000
# 6 0.0000 0.0000 0.0000 -4.3871 0.0000 30.8255
#
#
#
# Elastic Compliance Matrix: (Units=1/GPa)
#
#
# Indices 1 2 3 4 5 6 
#
# 1 0.010744 -0.002820 -0.003351 0.000000 0.005713 0.000000
# 2 -0.002820 0.008866 0.001034 0.000000 0.002193 0.000000
# 3 -0.003351 0.001034 0.036702 0.000000 0.027783 0.000000
# 4 0.000000 0.000000 0.000000 0.048463 0.000000 0.006897
# 5 0.005713 0.002193 0.027783 0.000000 0.094513 0.000000
# 6 0.000000 0.000000 0.000000 0.006897 0.000000 0.033422
#
#
# Mechanical properties :
#
#
# Convention : Reuss Voigt Hill
#
# Bulk Modulus (GPa) = 21.72175 45.31478 33.51827
# Shear Modulus (GPa) = 19.35496 28.00613 23.68055
#
# Velocity S-wave (km/s) = 2.96072 3.56146 3.27489
# Velocity P-wave (km/s) = 4.63957 6.11841 5.42957
#
# Compressibility (1/GPa) = 0.04603680
#
# Stress axis : x y z
#
# Youngs Moduli (GPa) = 93.07612 112.79202 27.24612
#
# Poissons Ratio (x) = 0.31811 0.09131
# Poissons Ratio (y) = 0.26251 -0.02817
# Poissons Ratio (z) = 0.31191 -0.11661
#
# Static dielectric constant tensor:
#      x y z
#    x 4.080910 0.000000 -0.196960 
#    y 0.000000 4.209920 0.000000 
#    z -0.196960 0.000000 3.415470 
# 
# 
# High freq. dielectric constant tensor:
#      x y z
#    x 1.868680 0.000000 -0.026650 
#    y 0.000000 1.890500 0.000000 
#    z -0.026650 0.000000 1.812350 
# 
# From -- ./inp_files/59463.got.cif
#   From: 2010.06.25/outbox.cif.g09.slc.cpg/sg11_30_cif.got.tgz:59463.got - 2010.06.27 23:14:04.
