data_PCOD8070969
_publ_section_title
;
Structure prediction by ZEFSAII (Michael W. Deem and Ramdas Pophale) SiO2 
 PCOD8070969
Probable space group: P 21/M
;
_chemical_formula_sum "Si O2"
_cell_formula_units_Z 20
_cell_length_a 9.260047
_cell_length_b 8.566081
_cell_length_c 22.681684
_cell_angle_alpha 90.000000
_cell_angle_beta 35.653394
_cell_angle_gamma 90.000000
_cell_volume 1048.697300
_symmetry_space_group_name_H-M "P 21/M"
_symmetry_group_IT_number 11
_symmetry_cell_setting 'monoclinic'
loop_
_space_group_symop_operation_xyz
x,y,z
-x,1/2+y,-z
-x,-y,-z
x,1/2-y,z
loop_
_atom_site_type_symbol
_atom_site_label
_atom_site_fract_x
_atom_site_fract_y
_atom_site_fract_z
Si Si1 0.334723 0.434558 0.003116
Si Si2 0.932445 0.571911 0.616169
Si Si3 0.485736 0.568017 0.182853
Si Si4 0.225397 0.933846 0.803202
Si Si5 0.652547 0.432230 0.601329
O O1 0.343785 0.250000 0.001910
O O2 0.055143 0.496180 0.103342
O O3 0.500000 0.500000 0.000000
O O4 0.442055 0.495371 0.905337
O O5 0.898832 0.750000 0.647149
O O6 0.808694 0.465425 0.708180
O O7 0.787467 0.543185 0.603467
O O8 0.223876 0.536130 0.504450
O O9 0.541507 0.750000 0.170932
O O10 0.648694 0.476290 0.176463
O O11 0.235022 0.750000 0.790417
O O12 0.363798 0.018500 0.701807
O O13 0.685578 0.250000 0.607260
#
# Coordination Sequence:
#
# PCOD8070969 Si02
#       5
#     4   4   4   4   4
#     4  10  23  38  52  72  98 130 167 206 248 294
#     4   9  16  26  43  70 101 130 160 196 240 287
#     4  10  19  32  51  76 102 129 164 202 243 291
#     4  10  19  32  51  76 102 129 164 202 243 291
#     4   9  16  26  43  70 101 130 160 196 240 287
#
# _framework density 19.071278
#
# number of rings (size 3 to 8) (size 9 to 14) (size 15 to 20)
#    0.000    2.400    0.000    5.400    0.000    5.600 
#    0.000    0.000    0.000    1.200    0.000    0.000 
#    0.000    0.000    0.000    0.000    0.000    0.000 
#
# Total GULP energy -247825.782186 kJ/mol
# GULP energy per Si atom -12391.289109 kJ/mol
# Density = 1.902787 g / cm^3
# Si number density = 19.071278 Si / 1000 Ang^3
#
#
#
# Elastic Constant Matrix: (Units=GPa)
#
#
# Indices 1 2 3 4 5 6 
#
# 1 61.4175 13.7962 61.7958 0.0000 -4.7918 0.0000
# 2 13.7962 44.7431 34.3409 0.0000 -3.8118 0.0000
# 3 61.7958 34.3409 212.3925 0.0000 -18.8582 0.0000
# 4 0.0000 0.0000 0.0000 33.9771 0.0000 -1.1894
# 5 -4.7918 -3.8118 -18.8582 0.0000 5.5283 0.0000
# 6 0.0000 0.0000 0.0000 -1.1894 0.0000 20.8256
#
#
#
# Elastic Compliance Matrix: (Units=1/GPa)
#
#
# Indices 1 2 3 4 5 6 
#
# 1 0.023302 -0.002353 -0.006814 0.000000 -0.004668 0.000000
# 2 -0.002353 0.025853 -0.003003 0.000000 0.005540 0.000000
# 3 -0.006814 -0.003003 0.009278 0.000000 0.023673 0.000000
# 4 0.000000 0.000000 0.000000 0.029491 0.000000 0.001684
# 5 -0.004668 0.005540 0.023673 0.000000 0.261415 0.000000
# 6 0.000000 0.000000 0.000000 0.001684 0.000000 0.048114
#
#
# Mechanical properties :
#
#
# Convention : Reuss Voigt Hill
#
# Bulk Modulus (GPa) = 29.33203 59.82433 44.57818
# Shear Modulus (GPa) = 11.54315 25.97420 18.75868
#
# Velocity S-wave (km/s) = 2.46288 3.69447 3.13966
# Velocity P-wave (km/s) = 4.84781 7.04526 6.04719
#
# Compressibility (1/GPa) = 0.03409243
#
# Stress axis : x y z
#
# Youngs Moduli (GPa) = 42.91454 38.68091 107.77847
#
# Poissons Ratio (x) = 0.09102 0.73438
# Poissons Ratio (y) = 0.10098 0.32371
# Poissons Ratio (z) = 0.29241 0.11618
#
# Static dielectric constant tensor:
#      x y z
#    x 4.851710 0.000000 -0.540840 
#    y 0.000000 3.411500 0.000000 
#    z -0.540840 0.000000 4.684120 
# 
# 
# High freq. dielectric constant tensor:
#      x y z
#    x 1.665850 0.000000 -0.009500 
#    y 0.000000 1.745740 0.000000 
#    z -0.009500 0.000000 1.779660 
# 
# From -- ./inp_files/53117.got.cif
#   From: 2010.06.25/outbox.cif.g09.slc.cpg/sg11_27_cif.got.tgz:53117.got - 2010.06.27 23:14:04.
