data_PCOD8070275
_publ_section_title
;
Structure prediction by ZEFSAII (Michael W. Deem and Ramdas Pophale) SiO2 
 PCOD8070275
Probable space group: P 21/M
;
_chemical_formula_sum "Si O2"
_cell_formula_units_Z 28
_cell_length_a 9.554350
_cell_length_b 9.030232
_cell_length_c 28.443872
_cell_angle_alpha 90.000000
_cell_angle_beta 38.704964
_cell_angle_gamma 90.000000
_cell_volume 1534.561616
_symmetry_space_group_name_H-M "P 21/M"
_symmetry_group_IT_number 11
_symmetry_cell_setting 'monoclinic'
loop_
_space_group_symop_operation_xyz
x,y,z
-x,1/2+y,-z
-x,-y,-z
x,1/2-y,z
loop_
_atom_site_type_symbol
_atom_site_label
_atom_site_fract_x
_atom_site_fract_y
_atom_site_fract_z
Si Si1 0.310162 0.919674 0.195213
Si Si2 0.919215 0.425042 0.246179
Si Si3 0.182169 0.920015 0.561260
Si Si4 0.245276 0.581785 0.321775
Si Si5 0.249963 0.424021 0.798592
Si Si6 0.366489 0.420698 0.603424
Si Si7 0.191302 0.075941 0.920304
O O1 0.280641 0.750000 0.186712
O O2 0.234886 0.937305 0.268545
O O3 0.567289 0.971187 0.122317
O O4 0.158915 0.024210 0.202769
O O5 0.905776 0.250000 0.251079
O O6 0.897552 0.481980 0.198709
O O7 0.714064 0.490873 0.329994
O O8 0.167738 0.750000 0.581439
O O9 0.365353 0.938948 0.471945
O O10 0.246394 0.020039 0.588584
O O11 0.941480 0.975917 0.605589
O O12 0.192562 0.750000 0.349972
O O13 0.488650 0.535923 0.277007
O O14 0.212023 0.250000 0.800317
O O15 0.171858 0.471722 0.871036
O O16 0.296935 0.250000 0.627858
O O17 0.163588 0.250000 0.931699
O O18 0.000000 0.000000 0.000000
#
# Coordination Sequence:
#
# PCOD8070275 Si02
#       7
#     4   4   4   4   4   4   4
#     4   9  18  34  56  80 107 143 178 213 263 324
#     4  12  23  34  52  82 110 139 182 229 271 312
#     4  10  19  30  49  78 105 134 181 232 273 310
#     4   9  17  32  55  77 100 139 185 222 267 322
#     4   9  20  38  57  78 108 147 180 211 265 330
#     4  10  20  33  49  71 106 147 179 219 273 325
#     4   9  19  37  62  88 111 139 176 213 260 317
#
# _framework density 18.246251999999998
#
# number of rings (size 3 to 8) (size 9 to 14) (size 15 to 20)
#    0.000    2.286    1.429    3.857    0.000    3.429 
#    0.000    4.286    0.000    0.000    0.000    0.000 
#    0.000    0.000    0.000    0.000    0.000    0.000 
#
# Total GULP energy -347202.997255 kJ/mol
# GULP energy per Si atom -12400.107045 kJ/mol
# Density = 1.820472 g / cm^3
# Si number density = 18.246252 Si / 1000 Ang^3
#
#
#
# Elastic Constant Matrix: (Units=GPa)
#
#
# Indices 1 2 3 4 5 6 
#
# 1 95.6470 52.8962 43.8244 0.0000 -0.7153 0.0000
# 2 52.8962 104.5698 53.0920 0.0000 -2.1573 0.0000
# 3 43.8244 53.0920 116.9700 0.0000 -12.8307 0.0000
# 4 0.0000 0.0000 0.0000 33.9048 0.0000 -4.4293
# 5 -0.7153 -2.1573 -12.8307 0.0000 22.3209 0.0000
# 6 0.0000 0.0000 0.0000 -4.4293 0.0000 25.5403
#
#
#
# Elastic Compliance Matrix: (Units=1/GPa)
#
#
# Indices 1 2 3 4 5 6 
#
# 1 0.015298 -0.006187 -0.003133 0.000000 -0.001908 0.000000
# 2 -0.006187 0.015029 -0.004660 0.000000 -0.001424 0.000000
# 3 -0.003133 -0.004660 0.012570 0.000000 0.006675 0.000000
# 4 0.000000 0.000000 0.000000 0.030178 0.000000 0.005234
# 5 -0.001908 -0.001424 0.006675 0.000000 0.048439 0.000000
# 6 0.000000 0.000000 0.000000 0.005234 0.000000 0.040061
#
#
# Mechanical properties :
#
#
# Convention : Reuss Voigt Hill
#
# Bulk Modulus (GPa) = 66.94315 68.53465 67.73890
# Shear Modulus (GPa) = 25.70500 27.51147 26.60823
#
# Velocity S-wave (km/s) = 3.75745 3.88724 3.82289
# Velocity P-wave (km/s) = 7.45606 7.60197 7.52937
#
# Compressibility (1/GPa) = 0.01493805
#
# Stress axis : x y z
#
# Youngs Moduli (GPa) = 65.36822 66.53671 79.55409
#
# Poissons Ratio (x) = 0.41169 0.24921
# Poissons Ratio (y) = 0.40446 0.37070
# Poissons Ratio (z) = 0.20477 0.31005
#
# Static dielectric constant tensor:
#      x y z
#    x 3.246820 0.000000 -0.238820 
#    y 0.000000 3.291030 0.000000 
#    z -0.238820 0.000000 5.152130 
# 
# 
# High freq. dielectric constant tensor:
#      x y z
#    x 1.692280 0.000000 -0.016130 
#    y 0.000000 1.705880 0.000000 
#    z -0.016130 0.000000 1.700320 
# 
# From -- ./inp_files/28292.got.cif
#   From: 2010.06.25/outbox.cif.g09.slc.cpg/sg11_15_cif.got.tgz:28292.got - 2010.06.27 23:14:04.
