data_PCOD8070193
_publ_section_title
;
Structure prediction by ZEFSAII (Michael W. Deem and Ramdas Pophale) SiO2 
 PCOD8070193
Probable space group: P 21/M
;
_chemical_formula_sum "Si O2"
_cell_formula_units_Z 32
_cell_length_a 25.030856
_cell_length_b 9.082155
_cell_length_c 19.995088
_cell_angle_alpha 90.000000
_cell_angle_beta 22.965965
_cell_angle_gamma 90.000000
_cell_volume 1773.608150
_symmetry_space_group_name_H-M "P 21/M"
_symmetry_group_IT_number 11
_symmetry_cell_setting 'monoclinic'
loop_
_space_group_symop_operation_xyz
x,y,z
-x,1/2+y,-z
-x,-y,-z
x,1/2-y,z
loop_
_atom_site_type_symbol
_atom_site_label
_atom_site_fract_x
_atom_site_fract_y
_atom_site_fract_z
Si Si1 0.570002 0.922464 0.129288
Si Si2 0.102650 0.423562 0.750959
Si Si3 0.597912 0.079038 0.231936
Si Si4 0.687286 0.577003 0.377716
Si Si5 0.368506 0.916238 0.071402
Si Si6 0.741382 0.077182 0.544226
Si Si7 0.207718 0.919780 0.871110
Si Si8 0.312856 0.083676 0.262447
O O1 0.598047 0.750000 0.092244
O O2 0.409094 0.959495 0.310471
O O3 0.628587 0.985049 0.130752
O O4 0.652377 0.000027 0.974438
O O5 0.116123 0.250000 0.721346
O O6 0.194995 0.473840 0.706869
O O7 0.147539 0.510174 0.633514
O O8 0.948817 0.472054 0.945093
O O9 0.583737 0.250000 0.228271
O O10 0.458354 0.022098 0.426902
O O11 0.723710 0.050638 0.136437
O O12 0.687670 0.750000 0.367274
O O13 0.710820 0.507609 0.278647
O O14 0.312672 0.750000 0.129401
O O15 0.282804 0.001072 0.227273
O O16 0.526605 0.915595 0.908675
O O17 0.764784 0.250000 0.525071
O O18 0.764690 0.002747 0.589337
O O19 0.217158 0.750000 0.840242
O O20 0.256185 0.250000 0.323556
#
# Coordination Sequence:
#
# PCOD8070193 Si02
#       8
#     4   4   4   4   4   4   4   4
#     4  10  19  30  47  72  99 130 169 210 250 296
#     4  10  20  35  52  73 100 132 167 206 252 301
#     4  10  20  35  52  73 100 132 167 206 252 301
#     4  10  20  34  54  74  97 130 167 206 252 304
#     4   9  16  26  42  66  99 135 167 204 249 296
#     4  10  19  30  47  72  99 130 169 210 250 296
#     4  10  22  36  52  74 101 130 165 208 254 302
#     4   9  16  26  42  66  99 135 167 204 249 296
#
# _framework density 18.042318000000002
#
# number of rings (size 3 to 8) (size 9 to 14) (size 15 to 20)
#    0.000    2.250    1.250    2.250    0.000    6.000 
#    0.000    0.000    0.000    0.000    0.000    0.875 
#    0.000    0.000    0.000    0.000    0.000    0.000 
#
# Total GULP energy -396909.161304 kJ/mol
# GULP energy per Si atom -12403.411291 kJ/mol
# Density = 1.800125 g / cm^3
# Si number density = 18.042318 Si / 1000 Ang^3
#
#
#
# Elastic Constant Matrix: (Units=GPa)
#
#
# Indices 1 2 3 4 5 6 
#
# 1 84.8697 42.4296 32.8332 0.0000 22.6093 0.0000
# 2 42.4296 85.4230 22.0364 0.0000 19.4317 0.0000
# 3 32.8332 22.0364 28.3871 0.0000 6.8432 0.0000
# 4 0.0000 0.0000 0.0000 23.0892 0.0000 14.7782
# 5 22.6093 19.4317 6.8432 0.0000 36.8171 0.0000
# 6 0.0000 0.0000 0.0000 14.7782 0.0000 31.1847
#
#
#
# Elastic Compliance Matrix: (Units=1/GPa)
#
#
# Indices 1 2 3 4 5 6 
#
# 1 0.025768 -0.004542 -0.024122 0.000000 -0.008943 0.000000
# 2 -0.004542 0.016763 -0.006595 0.000000 -0.004832 0.000000
# 3 -0.024122 -0.006595 0.066831 0.000000 0.005872 0.000000
# 4 0.000000 0.000000 0.000000 0.062166 0.000000 -0.029460
# 5 -0.008943 -0.004832 0.005872 0.000000 0.034112 0.000000
# 6 0.000000 0.000000 0.000000 -0.029460 0.000000 0.046028
#
#
# Mechanical properties :
#
#
# Convention : Reuss Voigt Hill
#
# Bulk Modulus (GPa) = 25.74340 43.69757 34.72048
# Shear Modulus (GPa) = 14.91942 24.97691 19.94817
#
# Velocity S-wave (km/s) = 2.87873 3.72472 3.32871
# Velocity P-wave (km/s) = 5.03475 6.53989 5.83605
#
# Compressibility (1/GPa) = 0.03884491
#
# Stress axis : x y z
#
# Youngs Moduli (GPa) = 38.80806 59.65592 14.96309
#
# Poissons Ratio (x) = 0.27094 0.36094
# Poissons Ratio (y) = 0.17626 0.09868
# Poissons Ratio (z) = 0.93613 0.39341
#
# Static dielectric constant tensor:
#      x y z
#    x 3.281640 0.000000 0.173880 
#    y 0.000000 3.351550 0.000000 
#    z 0.173880 0.000000 3.123120 
# 
# 
# High freq. dielectric constant tensor:
#      x y z
#    x 1.693990 0.000000 0.028220 
#    y 0.000000 1.703990 0.000000 
#    z 0.028220 0.000000 1.670600 
# 
# From -- ./inp_files/66954.got.cif
#   From: 2010.06.25/outbox.cif.g09.slc.cpg/sg11_34_cif.got.tgz:66954.got - 2010.06.27 23:14:04.
