data_PCOD8070961
_publ_section_title
;
Structure prediction by ZEFSAII (Michael W. Deem and Ramdas Pophale) SiO2 
 PCOD8070961
Probable space group: P 21/M
;
_chemical_formula_sum "Si O2"
_cell_formula_units_Z 32
_cell_length_a 12.062043
_cell_length_b 8.949137
_cell_length_c 31.241816
_cell_angle_alpha 90.000000
_cell_angle_beta 150.270449
_cell_angle_gamma 90.000000
_cell_volume 1672.392442
_symmetry_space_group_name_H-M "P 21/M"
_symmetry_group_IT_number 11
_symmetry_cell_setting 'monoclinic'
loop_
_space_group_symop_operation_xyz
x,y,z
-x,1/2+y,-z
-x,-y,-z
x,1/2-y,z
loop_
_atom_site_type_symbol
_atom_site_label
_atom_site_fract_x
_atom_site_fract_y
_atom_site_fract_z
Si Si1 0.155136 0.077223 0.113712
Si Si2 0.802018 0.576078 0.226203
Si Si3 0.534937 0.424563 0.466884
Si Si4 0.035044 0.425166 0.628352
Si Si5 0.691697 0.079647 0.916982
Si Si6 0.194773 0.073612 0.592539
Si Si7 0.869385 0.926994 0.726688
Si Si8 0.698343 0.425915 0.751235
O O1 0.204512 0.250000 0.140322
O O2 0.297939 0.028867 0.120282
O O3 0.224788 0.975757 0.176446
O O4 0.893250 0.047788 0.017152
O O5 0.867126 0.750000 0.243829
O O6 0.888046 0.506254 0.300354
O O7 0.536754 0.550594 0.133976
O O8 0.911810 0.487222 0.223905
O O9 0.500000 0.500000 0.500000
O O10 0.507450 0.250000 0.464779
O O11 0.351337 0.483903 0.372131
O O12 0.779494 0.467045 0.531623
O O13 0.070635 0.250000 0.645047
O O14 0.180450 0.484437 0.637075
O O15 0.701582 0.250000 0.903212
O O16 0.155259 0.250000 0.577903
O O17 0.438545 0.028798 0.656634
O O18 0.000000 0.000000 0.500000
O O19 0.883616 0.750000 0.734563
O O20 0.855806 0.993211 0.769645
O O21 0.730502 0.250000 0.757879
#
# Coordination Sequence:
#
# PCOD8070961 Si02
#       8
#     4   4   4   4   4   4   4   4
#     4  10  20  36  60  89 118 147 183 231 283 334
#     4  10  19  35  58  81 109 145 186 229 277 337
#     4  10  19  32  51  75 106 143 182 224 269 323
#     4   9  17  31  53  77 104 139 176 219 270 322
#     4   9  19  36  60  89 118 147 182 228 283 341
#     4  10  21  37  56  80 110 144 184 229 277 330
#     4  11  23  37  54  80 114 148 188 239 285 330
#     4  11  23  39  59  81 111 153 195 230 276 343
#
# _framework density 19.134264000000002
#
# number of rings (size 3 to 8) (size 9 to 14) (size 15 to 20)
#    0.000    2.000    1.250    2.625    0.000    5.500 
#    0.000    1.875    0.000    0.000    0.000    0.000 
#    0.000    0.000    0.000    0.000    0.000    0.000 
#
# Total GULP energy -396845.157374 kJ/mol
# GULP energy per Si atom -12401.411168 kJ/mol
# Density = 1.909071 g / cm^3
# Si number density = 19.134264 Si / 1000 Ang^3
#
#
#
# Elastic Constant Matrix: (Units=GPa)
#
#
# Indices 1 2 3 4 5 6 
#
# 1 127.2210 44.3658 44.2075 0.0000 8.3698 0.0000
# 2 44.3658 58.0287 36.1904 0.0000 5.4914 0.0000
# 3 44.2075 36.1904 89.8706 0.0000 5.5952 0.0000
# 4 0.0000 0.0000 0.0000 26.9443 0.0000 -3.2595
# 5 8.3698 5.4914 5.5952 0.0000 25.7605 0.0000
# 6 0.0000 0.0000 0.0000 -3.2595 0.0000 31.6961
#
#
#
# Elastic Compliance Matrix: (Units=1/GPa)
#
#
# Indices 1 2 3 4 5 6 
#
# 1 0.011273 -0.006769 -0.002718 0.000000 -0.001629 0.000000
# 2 -0.006769 0.027298 -0.007540 0.000000 -0.001982 0.000000
# 3 -0.002718 -0.007540 0.015555 0.000000 -0.000888 0.000000
# 4 0.000000 0.000000 0.000000 0.037581 0.000000 0.003865
# 5 -0.001629 -0.001982 -0.000888 0.000000 0.039964 0.000000
# 6 0.000000 0.000000 0.000000 0.003865 0.000000 0.031947
#
#
# Mechanical properties :
#
#
# Convention : Reuss Voigt Hill
#
# Bulk Modulus (GPa) = 49.81812 58.29420 54.05616
# Shear Modulus (GPa) = 24.46639 26.90395 25.68517
#
# Velocity S-wave (km/s) = 3.57973 3.75382 3.66780
# Velocity P-wave (km/s) = 6.57104 7.02283 6.80069
#
# Compressibility (1/GPa) = 0.02007302
#
# Stress axis : x y z
#
# Youngs Moduli (GPa) = 88.71128 36.63262 64.28672
#
# Poissons Ratio (x) = 0.24798 0.17470
# Poissons Ratio (y) = 0.60052 0.48469
# Poissons Ratio (z) = 0.24108 0.27619
#
# Static dielectric constant tensor:
#      x y z
#    x 3.531730 0.000000 0.062350 
#    y 0.000000 3.183750 0.000000 
#    z 0.062350 0.000000 3.371950 
# 
# 
# High freq. dielectric constant tensor:
#      x y z
#    x 1.748130 0.000000 0.005320 
#    y 0.000000 1.730450 0.000000 
#    z 0.005320 0.000000 1.742040 
# 
# From -- ./inp_files/45134.got.cif
#   From: 2010.06.25/outbox.cif.g09.slc.cpg/sg11_23_cif.got.tgz:45134.got - 2010.06.27 23:14:04.
