data_PCOD8070939
_publ_section_title
;
Structure prediction by ZEFSAII (Michael W. Deem and Ramdas Pophale) SiO2 
 PCOD8070939
Probable space group: P 21/M
;
_chemical_formula_sum "Si O2"
_cell_formula_units_Z 32
_cell_length_a 28.293165
_cell_length_b 12.153719
_cell_length_c 9.594953
_cell_angle_alpha 90.000000
_cell_angle_beta 149.300139
_cell_angle_gamma 90.000000
_cell_volume 1684.473010
_symmetry_space_group_name_H-M "P 21/M"
_symmetry_group_IT_number 11
_symmetry_cell_setting 'monoclinic'
loop_
_space_group_symop_operation_xyz
x,y,z
-x,1/2+y,-z
-x,-y,-z
x,1/2-y,z
loop_
_atom_site_type_symbol
_atom_site_label
_atom_site_fract_x
_atom_site_fract_y
_atom_site_fract_z
Si Si1 0.505727 0.126920 0.692444
Si Si2 0.232066 0.119622 0.389009
Si Si3 0.595466 0.976892 0.322071
Si Si4 0.619830 0.529157 0.839775
Si Si5 0.804879 0.623468 0.393812
Si Si6 0.696222 0.119024 0.795498
Si Si7 0.071161 0.377324 0.785872
Si Si8 0.112396 0.983476 0.633257
O O1 0.546267 0.250000 0.806327
O O2 0.429937 0.110570 0.621643
O O3 0.587495 0.034178 0.900797
O O4 0.459232 0.108033 0.423187
O O5 0.240692 0.250000 0.406708
O O6 0.332505 0.072311 0.605548
O O7 0.196883 0.082442 0.451766
O O8 0.155050 0.071755 0.088728
O O9 0.644915 0.081380 0.522179
O O10 0.500000 0.000000 0.000000
O O11 0.643259 0.431237 0.792292
O O12 0.701481 0.613846 0.073909
O O13 0.838375 0.750000 0.463444
O O14 0.867838 0.540110 0.465135
O O15 0.693388 0.250000 0.794239
O O16 0.802218 0.078032 0.076160
O O17 0.088795 0.250000 0.820388
O O18 0.074771 0.422270 0.639202
O O19 0.971809 0.399085 0.605676
#
# Coordination Sequence:
#
# PCOD8070939 Si02
#       8
#     4   4   4   4   4   4   4   4
#     4  10  19  32  51  74 102 138 186 234 277 323
#     4  10  21  37  56  82 114 149 186 230 281 332
#     4  11  22  36  53  77 110 149 193 232 275 330
#     4   9  19  33  50  78 106 140 181 235 279 325
#     4  10  20  35  56  81 113 149 184 224 274 332
#     4  10  20  35  55  79 110 146 186 233 285 334
#     4  10  20  36  60  86 114 144 182 231 283 333
#     4  10  20  36  59  88 110 144 186 233 275 334
#
# _framework density 18.997039000000001
#
# number of rings (size 3 to 8) (size 9 to 14) (size 15 to 20)
#    0.000    2.000    1.250    2.625    0.000    1.500 
#    0.000    3.125    0.000    1.500    0.000    0.000 
#    0.000    0.000    0.000    0.000    0.000    0.000 
#
# Total GULP energy -396617.290404 kJ/mol
# GULP energy per Si atom -12394.290325 kJ/mol
# Density = 1.895380 g / cm^3
# Si number density = 18.997039 Si / 1000 Ang^3
#
#
#
# Elastic Constant Matrix: (Units=GPa)
#
#
# Indices 1 2 3 4 5 6 
#
# 1 96.7865 23.8798 33.4787 0.0000 -1.2832 0.0000
# 2 23.8798 61.9234 16.9316 0.0000 -6.4673 0.0000
# 3 33.4787 16.9316 89.0449 0.0000 10.0044 0.0000
# 4 0.0000 0.0000 0.0000 21.6150 0.0000 2.5593
# 5 -1.2832 -6.4673 10.0044 0.0000 32.5114 0.0000
# 6 0.0000 0.0000 0.0000 2.5593 0.0000 24.4775
#
#
#
# Elastic Compliance Matrix: (Units=1/GPa)
#
#
# Indices 1 2 3 4 5 6 
#
# 1 0.012697 -0.003635 -0.004203 0.000000 0.001071 0.000000
# 2 -0.003635 0.018749 -0.002694 0.000000 0.004415 0.000000
# 3 -0.004203 -0.002694 0.013882 0.000000 -0.004973 0.000000
# 4 0.000000 0.000000 0.000000 0.046844 0.000000 -0.004898
# 5 0.001071 0.004415 -0.004973 0.000000 0.033209 0.000000
# 6 0.000000 0.000000 0.000000 -0.004898 0.000000 0.041366
#
#
# Mechanical properties :
#
#
# Convention : Reuss Voigt Hill
#
# Bulk Modulus (GPa) = 41.21620 44.03723 42.62672
# Shear Modulus (GPa) = 25.52335 27.28509 26.40422
#
# Velocity S-wave (km/s) = 3.66941 3.79394 3.73220
# Velocity P-wave (km/s) = 6.30048 6.51333 6.40779
#
# Compressibility (1/GPa) = 0.02426230
#
# Stress axis : x y z
#
# Youngs Moduli (GPa) = 78.75920 53.33698 72.03809
#
# Poissons Ratio (x) = 0.19390 0.30277
# Poissons Ratio (y) = 0.28631 0.19409
# Poissons Ratio (z) = 0.33101 0.14370
#
# Static dielectric constant tensor:
#      x y z
#    x 3.681280 0.000000 0.031900 
#    y 0.000000 3.299490 0.000000 
#    z 0.031900 0.000000 3.571380 
# 
# 
# High freq. dielectric constant tensor:
#      x y z
#    x 1.747900 0.000000 0.005820 
#    y 0.000000 1.726750 0.000000 
#    z 0.005820 0.000000 1.730700 
# 
# From -- ./inp_files/29274.got.cif
#   From: 2010.06.25/outbox.cif.g09.slc.cpg/sg11_15_cif.got.tgz:29274.got - 2010.06.27 23:14:04.
