data_PCOD8070731
_publ_section_title
;
Structure prediction by ZEFSAII (Michael W. Deem and Ramdas Pophale) SiO2 
 PCOD8070731
Probable space group: P 21/M
;
_chemical_formula_sum "Si O2"
_cell_formula_units_Z 28
_cell_length_a 29.555493
_cell_length_b 8.929816
_cell_length_c 9.445014
_cell_angle_alpha 90.000000
_cell_angle_beta 142.170874
_cell_angle_gamma 90.000000
_cell_volume 1528.841317
_symmetry_space_group_name_H-M "P 21/M"
_symmetry_group_IT_number 11
_symmetry_cell_setting 'monoclinic'
loop_
_space_group_symop_operation_xyz
x,y,z
-x,1/2+y,-z
-x,-y,-z
x,1/2-y,z
loop_
_atom_site_type_symbol
_atom_site_label
_atom_site_fract_x
_atom_site_fract_y
_atom_site_fract_z
Si Si1 0.721305 0.585712 0.136702
Si Si2 0.868440 0.927185 0.824371
Si Si3 0.707186 0.915782 0.437002
Si Si4 0.439974 0.427834 0.251765
Si Si5 0.437790 0.927397 0.940997
Si Si6 0.999997 0.073451 0.652187
Si Si7 0.865782 0.074728 0.516397
O O1 0.743103 0.750000 0.131920
O O2 0.712164 0.593822 0.281437
O O3 0.785954 0.471057 0.255036
O O4 0.640758 0.537531 0.878673
O O5 0.872459 0.750000 0.811276
O O6 0.787830 0.972559 0.688388
O O7 0.883707 0.998793 0.709800
O O8 0.929260 0.984635 0.085188
O O9 0.689337 0.750000 0.454197
O O10 0.642475 0.029279 0.322589
O O11 0.500000 0.500000 0.500000
O O12 0.451829 0.250000 0.263747
O O13 0.447613 0.506535 0.120368
O O14 0.445934 0.750000 0.963601
O O15 0.500000 0.000000 0.000000
O O16 0.003379 0.250000 0.640916
O O17 0.926869 0.023527 0.554849
O O18 0.000000 0.000000 0.500000
O O19 0.866920 0.250000 0.544808
#
# Coordination Sequence:
#
# PCOD8070731 Si02
#       7
#     4   4   4   4   4   4   4
#     4   8  16  31  51  74 102 135 168 203 251 305
#     4   9  18  34  55  76 100 131 168 208 253 304
#     4   8  15  30  51  74  99 129 168 213 254 299
#     4  10  20  35  54  78 106 137 174 214 256 307
#     4  11  21  34  53  77 106 139 173 213 259 307
#     4  10  22  37  51  73 104 137 169 204 250 302
#     4  10  19  31  52  80 103 126 168 217 252 290
#
# _framework density 18.314523000000001
#
# number of rings (size 3 to 8) (size 9 to 14) (size 15 to 20)
#    0.000    2.571    0.000    4.286    0.000    7.429 
#    0.000    1.429    0.000    5.143    0.000    0.000 
#    0.000    0.000    0.000    0.000    0.000    0.000 
#
# Total GULP energy -347067.612824 kJ/mol
# GULP energy per Si atom -12395.271887 kJ/mol
# Density = 1.827284 g / cm^3
# Si number density = 18.314523 Si / 1000 Ang^3
#
#
#
# Elastic Constant Matrix: (Units=GPa)
#
#
# Indices 1 2 3 4 5 6 
#
# 1 119.6295 62.5952 75.9080 0.0000 22.5300 0.0000
# 2 62.5952 96.1634 54.9649 0.0000 11.9275 0.0000
# 3 75.9080 54.9649 139.6883 0.0000 27.5668 0.0000
# 4 0.0000 0.0000 0.0000 30.3460 0.0000 2.5070
# 5 22.5300 11.9275 27.5668 0.0000 28.9942 0.0000
# 6 0.0000 0.0000 0.0000 2.5070 0.0000 30.9047
#
#
#
# Elastic Compliance Matrix: (Units=1/GPa)
#
#
# Indices 1 2 3 4 5 6 
#
# 1 0.016159 -0.007025 -0.005058 0.000000 -0.004857 0.000000
# 2 -0.007025 0.016479 -0.002962 0.000000 0.001496 0.000000
# 3 -0.005058 -0.002962 0.012380 0.000000 -0.006621 0.000000
# 4 0.000000 0.000000 0.000000 0.033176 0.000000 -0.002691
# 5 -0.004857 0.001496 -0.006621 0.000000 0.043944 0.000000
# 6 0.000000 0.000000 0.000000 -0.002691 0.000000 0.032576
#
#
# Mechanical properties :
#
#
# Convention : Reuss Voigt Hill
#
# Bulk Modulus (GPa) = 66.98982 82.49081 74.74032
# Shear Modulus (GPa) = 26.34631 28.84986 27.59809
#
# Velocity S-wave (km/s) = 3.79693 3.97324 3.88609
# Velocity P-wave (km/s) = 7.47523 8.13559 7.81239
#
# Compressibility (1/GPa) = 0.01492764
#
# Stress axis : x y z
#
# Youngs Moduli (GPa) = 61.88397 60.68305 80.77683
#
# Poissons Ratio (x) = 0.42628 0.40860
# Poissons Ratio (y) = 0.43472 0.23927
# Poissons Ratio (z) = 0.31304 0.17975
#
# Static dielectric constant tensor:
#      x y z
#    x 3.349860 0.000000 0.534070 
#    y 0.000000 3.392730 0.000000 
#    z 0.534070 0.000000 3.854360 
# 
# 
# High freq. dielectric constant tensor:
#      x y z
#    x 1.693890 0.000000 0.031770 
#    y 0.000000 1.709470 0.000000 
#    z 0.031770 0.000000 1.709620 
# 
# From -- ./inp_files/29122.got.cif
#   From: 2010.06.25/outbox.cif.g09.slc.cpg/sg11_15_cif.got.tgz:29122.got - 2010.06.27 23:14:04.
