data_PCOD8070226
_publ_section_title
;
Structure prediction by ZEFSAII (Michael W. Deem and Ramdas Pophale) SiO2 
 PCOD8070226
Probable space group: P 21/M
;
_chemical_formula_sum "Si O2"
_cell_formula_units_Z 32
_cell_length_a 19.946186
_cell_length_b 9.323739
_cell_length_c 12.044098
_cell_angle_alpha 90.000000
_cell_angle_beta 55.959547
_cell_angle_gamma 90.000000
_cell_volume 1856.057752
_symmetry_space_group_name_H-M "P 21/M"
_symmetry_group_IT_number 11
_symmetry_cell_setting 'monoclinic'
loop_
_space_group_symop_operation_xyz
x,y,z
-x,1/2+y,-z
-x,-y,-z
x,1/2-y,z
loop_
_atom_site_type_symbol
_atom_site_label
_atom_site_fract_x
_atom_site_fract_y
_atom_site_fract_z
Si Si1 0.954440 0.413175 0.894537
Si Si2 0.733167 0.584572 0.381422
Si Si3 0.895314 0.416667 0.194651
Si Si4 0.632333 0.581711 0.689514
Si Si5 0.208530 0.585850 0.055654
Si Si6 0.324494 0.586532 0.138828
Si Si7 0.550350 0.418217 0.167689
Si Si8 0.669043 0.583279 0.201925
O O1 0.986064 0.250000 0.864175
O O2 0.888014 0.440842 0.859694
O O3 0.030459 0.516372 0.803943
O O4 0.909847 0.447482 0.051744
O O5 0.760195 0.750000 0.363762
O O6 0.812597 0.488455 0.308724
O O7 0.679333 0.537228 0.535387
O O8 0.678039 0.558382 0.324694
O O9 0.890597 0.250000 0.227244
O O10 0.633138 0.750000 0.708503
O O11 0.676838 0.511794 0.752482
O O12 0.540432 0.525759 0.765834
O O13 0.228771 0.750000 0.000685
O O14 0.240435 0.559549 0.150842
O O15 0.251812 0.479803 0.930435
O O16 0.332143 0.750000 0.171012
O O17 0.399171 0.545450 0.989695
O O18 0.553486 0.250000 0.192735
O O19 0.588344 0.502360 0.236577
O O20 0.661931 0.750000 0.177967
#
# Coordination Sequence:
#
# PCOD8070226 Si02
#       8
#     4   4   4   4   4   4   4   4
#     4   9  17  30  50  75 104 133 160 195 245 297
#     4  10  21  35  49  69 103 138 167 202 245 295
#     4  10  19  30  49  76 103 133 166 199 239 293
#     4  10  21  36  52  70  96 135 173 204 247 300
#     4   9  17  32  52  75 103 132 161 198 251 301
#     4   9  18  32  52  76  99 124 162 212 252 289
#     4   9  19  35  53  72  98 129 163 208 258 301
#     4  10  19  30  48  74 101 129 164 205 247 291
#
# _framework density 17.240843000000002
#
# number of rings (size 3 to 8) (size 9 to 14) (size 15 to 20)
#    0.000    2.500    1.250    1.875    0.000    5.000 
#    0.000    0.000    0.000    0.750    0.000    0.000 
#    0.000    0.000    0.000    0.000    0.000    0.000 
#
# Total GULP energy -396836.007616 kJ/mol
# GULP energy per Si atom -12401.125238 kJ/mol
# Density = 1.720160 g / cm^3
# Si number density = 17.240843 Si / 1000 Ang^3
#
#
#
# Elastic Constant Matrix: (Units=GPa)
#
#
# Indices 1 2 3 4 5 6 
#
# 1 130.4468 56.4258 48.7270 0.0000 5.4285 0.0000
# 2 56.4258 72.8869 41.9673 0.0000 5.7010 0.0000
# 3 48.7270 41.9673 65.7621 0.0000 14.6068 0.0000
# 4 0.0000 0.0000 0.0000 23.0827 0.0000 0.0612
# 5 5.4285 5.7010 14.6068 0.0000 16.8688 0.0000
# 6 0.0000 0.0000 0.0000 0.0612 0.0000 33.4331
#
#
#
# Elastic Compliance Matrix: (Units=1/GPa)
#
#
# Indices 1 2 3 4 5 6 
#
# 1 0.012570 -0.006654 -0.005780 0.000000 0.003209 0.000000
# 2 -0.006654 0.025674 -0.012385 0.000000 0.004188 0.000000
# 3 -0.005780 -0.012385 0.032253 0.000000 -0.021883 0.000000
# 4 0.000000 0.000000 0.000000 0.043323 0.000000 -0.000079
# 5 0.003209 0.004188 -0.021883 0.000000 0.075781 0.000000
# 6 0.000000 0.000000 0.000000 -0.000079 0.000000 0.029911
#
#
# Mechanical properties :
#
#
# Convention : Reuss Voigt Hill
#
# Bulk Modulus (GPa) = 47.93847 62.59289 55.26568
# Shear Modulus (GPa) = 18.10926 22.80862 20.45894
#
# Velocity S-wave (km/s) = 3.24446 3.64117 3.44852
# Velocity P-wave (km/s) = 6.47309 7.35264 6.92684
#
# Compressibility (1/GPa) = 0.02086008
#
# Stress axis : x y z
#
# Youngs Moduli (GPa) = 79.55662 38.94962 31.00478
#
# Poissons Ratio (x) = 0.25916 0.17921
# Poissons Ratio (y) = 0.52935 0.38398
# Poissons Ratio (z) = 0.45985 0.48237
#
# Static dielectric constant tensor:
#      x y z
#    x 3.398200 0.000000 -0.051290 
#    y 0.000000 3.220740 0.000000 
#    z -0.051290 0.000000 2.911570 
# 
# 
# High freq. dielectric constant tensor:
#      x y z
#    x 1.677480 0.000000 -0.004300 
#    y 0.000000 1.668320 0.000000 
#    z -0.004300 0.000000 1.629410 
# 
# From -- ./inp_files/42798.got.cif
#   From: 2010.06.25/outbox.cif.g09.slc.cpg/sg11_22_cif.got.tgz:42798.got - 2010.06.27 23:14:04.
