data_PCOD8070231
_publ_section_title
;
Structure prediction by ZEFSAII (Michael W. Deem and Ramdas Pophale) SiO2 
 PCOD8070231
Probable space group: P 21/M
;
_chemical_formula_sum "Si O2"
_cell_formula_units_Z 24
_cell_length_a 20.135758
_cell_length_b 8.552197
_cell_length_c 10.269742
_cell_angle_alpha 90.000000
_cell_angle_beta 131.665069
_cell_angle_gamma 90.000000
_cell_volume 1321.147073
_symmetry_space_group_name_H-M "P 21/M"
_symmetry_group_IT_number 11
_symmetry_cell_setting 'monoclinic'
loop_
_space_group_symop_operation_xyz
x,y,z
-x,1/2+y,-z
-x,-y,-z
x,1/2-y,z
loop_
_atom_site_type_symbol
_atom_site_label
_atom_site_fract_x
_atom_site_fract_y
_atom_site_fract_z
Si Si1 0.406119 0.428417 0.536328
Si Si2 0.230756 0.571826 0.302344
Si Si3 0.951417 0.431726 0.812051
Si Si4 0.043708 0.566152 0.685552
Si Si5 0.595810 0.432827 0.746951
Si Si6 0.225471 0.067427 0.013956
O O1 0.382213 0.250000 0.534582
O O2 0.326267 0.531249 0.494174
O O3 0.506848 0.468078 0.718182
O O4 0.407430 0.457754 0.383768
O O5 0.230503 0.750000 0.253934
O O6 0.154275 0.543336 0.308735
O O7 0.213975 0.467908 0.152543
O O8 0.976447 0.250000 0.828187
O O9 0.980590 0.526147 0.724070
O O10 0.000000 0.500000 0.000000
O O11 0.055172 0.750000 0.689929
O O12 0.000000 0.500000 0.500000
O O13 0.140029 0.489978 0.825098
O O14 0.596311 0.250000 0.708368
O O15 0.688167 0.480230 0.937099
O O16 0.236913 0.250000 0.007688
#
# Coordination Sequence:
#
# PCOD8070231 Si02
#       6
#     4   4   4   4   4   4
#     4   9  16  25  40  65  98 134 170 211 259 310
#     4  10  19  30  48  74 105 138 174 216 263 312
#     4  11  22  36  56  81 108 143 182 222 268 318
#     4  12  25  41  58  78 107 141 180 226 271 321
#     4   9  16  26  41  64  97 134 171 211 259 311
#     4  11  20  31  50  74 102 137 177 217 264 318
#
# _framework density 18.166032999999999
#
# number of rings (size 3 to 8) (size 9 to 14) (size 15 to 20)
#    0.000    1.667    1.667    7.000    0.000    4.000 
#    0.000    0.000    0.000    0.000    0.000    1.167 
#    0.000    0.000    0.000    0.000    0.000    0.000 
#
# Total GULP energy -297455.089689 kJ/mol
# GULP energy per Si atom -12393.962070 kJ/mol
# Density = 1.812469 g / cm^3
# Si number density = 18.166033 Si / 1000 Ang^3
#
#
#
# Elastic Constant Matrix: (Units=GPa)
#
#
# Indices 1 2 3 4 5 6 
#
# 1 106.3027 30.3478 56.8292 0.0000 36.2711 0.0000
# 2 30.3478 88.8497 24.1412 0.0000 12.4441 0.0000
# 3 56.8292 24.1412 80.6957 0.0000 18.6460 0.0000
# 4 0.0000 0.0000 0.0000 25.5611 0.0000 7.2600
# 5 36.2711 12.4441 18.6460 0.0000 36.4354 0.0000
# 6 0.0000 0.0000 0.0000 7.2600 0.0000 30.5826
#
#
#
# Elastic Compliance Matrix: (Units=1/GPa)
#
#
# Indices 1 2 3 4 5 6 
#
# 1 0.020520 -0.002151 -0.010499 0.000000 -0.014320 0.000000
# 2 -0.002151 0.012700 -0.002016 0.000000 -0.001165 0.000000
# 3 -0.010499 -0.002016 0.020204 0.000000 0.000800 0.000000
# 4 0.000000 0.000000 0.000000 0.041950 0.000000 -0.009959
# 5 -0.014320 -0.001165 0.000800 0.000000 0.041690 0.000000
# 6 0.000000 0.000000 0.000000 -0.009959 0.000000 0.035062
#
#
# Mechanical properties :
#
#
# Convention : Reuss Voigt Hill
#
# Bulk Modulus (GPa) = 41.50383 55.38716 48.44550
# Shear Modulus (GPa) = 23.86780 29.48448 26.67614
#
# Velocity S-wave (km/s) = 3.62867 4.03309 3.83621
# Velocity P-wave (km/s) = 6.36025 7.22795 6.80794
#
# Compressibility (1/GPa) = 0.02409416
#
# Stress axis : x y z
#
# Youngs Moduli (GPa) = 48.73394 78.73755 49.49549
#
# Poissons Ratio (x) = 0.16933 0.51963
# Poissons Ratio (y) = 0.10481 0.09977
# Poissons Ratio (z) = 0.51163 0.15871
#
# Static dielectric constant tensor:
#      x y z
#    x 3.810850 0.000000 0.791630 
#    y 0.000000 3.524000 0.000000 
#    z 0.791630 0.000000 3.223820 
# 
# 
# High freq. dielectric constant tensor:
#      x y z
#    x 1.705740 0.000000 0.055420 
#    y 0.000000 1.723660 0.000000 
#    z 0.055420 0.000000 1.653250 
# 
# From -- ./inp_files/25940.got.cif
#   From: 2010.06.25/outbox.cif.g09.slc.cpg/sg11_13_cif.got.tgz:25940.got - 2010.06.27 23:14:04.
