data_PCOD8070182
_publ_section_title
;
Structure prediction by ZEFSAII (Michael W. Deem and Ramdas Pophale) SiO2 
 PCOD8070182
Probable space group: P 21/M
;
_chemical_formula_sum "Si O2"
_cell_formula_units_Z 28
_cell_length_a 20.893290
_cell_length_b 9.163524
_cell_length_c 17.716017
_cell_angle_alpha 90.000000
_cell_angle_beta 152.421264
_cell_angle_gamma 90.000000
_cell_volume 1570.310667
_symmetry_space_group_name_H-M "P 21/M"
_symmetry_group_IT_number 11
_symmetry_cell_setting 'monoclinic'
loop_
_space_group_symop_operation_xyz
x,y,z
-x,1/2+y,-z
-x,-y,-z
x,1/2-y,z
loop_
_atom_site_type_symbol
_atom_site_label
_atom_site_fract_x
_atom_site_fract_y
_atom_site_fract_z
Si Si1 0.198745 0.419580 0.418248
Si Si2 0.811429 0.085027 0.445547
Si Si3 0.145589 0.078889 0.650615
Si Si4 0.120289 0.580197 0.932208
Si Si5 0.138909 0.411775 0.807768
Si Si6 0.327724 0.079753 0.249672
Si Si7 0.400399 0.419158 0.494909
O O1 0.213026 0.250000 0.453075
O O2 0.251584 0.509818 0.545810
O O3 0.291752 0.465777 0.444852
O O4 0.041349 0.457666 0.232467
O O5 0.755658 0.250000 0.381507
O O6 0.975953 0.079623 0.622969
O O7 0.762970 0.995870 0.319952
O O8 0.125139 0.250000 0.611500
O O9 0.214018 0.056644 0.805556
O O10 0.000000 0.000000 0.500000
O O11 0.151167 0.750000 0.972672
O O12 0.183934 0.526997 0.918524
O O13 0.190780 0.495954 0.074703
O O14 0.178719 0.250000 0.878260
O O15 0.322250 0.250000 0.226207
O O16 0.330662 0.046446 0.341700
O O17 0.462234 0.013519 0.349621
O O18 0.441816 0.250000 0.544207
#
# Coordination Sequence:
#
# PCOD8070182 Si02
#       7
#     4   4   4   4   4   4   4
#     4   9  18  32  49  70  97 127 159 197 240 283
#     4   9  16  25  39  62  92 124 157 193 234 280
#     4   9  15  23  37  58  87 123 159 194 234 278
#     4  10  19  30  47  71  98 127 158 194 238 285
#     4   8  15  26  39  59  89 123 157 193 232 273
#     4  10  20  34  52  72  95 124 158 197 239 284
#     4   9  19  36  54  71  93 123 160 199 238 283
#
# _framework density 17.830867000000001
#
# number of rings (size 3 to 8) (size 9 to 14) (size 15 to 20)
#    0.000    2.857    0.000    2.571    0.000    6.286 
#    0.000    0.000    0.000    0.000    0.000    1.000 
#    0.000    0.000    0.000    0.000    0.000    0.000 
#
# Total GULP energy -347101.436390 kJ/mol
# GULP energy per Si atom -12396.479871 kJ/mol
# Density = 1.779028 g / cm^3
# Si number density = 17.830867 Si / 1000 Ang^3
#
#
#
# Elastic Constant Matrix: (Units=GPa)
#
#
# Indices 1 2 3 4 5 6 
#
# 1 139.7319 61.6317 35.0094 0.0000 -9.4111 0.0000
# 2 61.6317 96.4061 19.6561 0.0000 -1.2740 0.0000
# 3 35.0094 19.6561 17.4838 0.0000 1.7610 0.0000
# 4 0.0000 0.0000 0.0000 26.1185 0.0000 -7.6003
# 5 -9.4111 -1.2740 1.7610 0.0000 11.3855 0.0000
# 6 0.0000 0.0000 0.0000 -7.6003 0.0000 30.0953
#
#
#
# Elastic Compliance Matrix: (Units=1/GPa)
#
#
# Indices 1 2 3 4 5 6 
#
# 1 0.019991 -0.005046 -0.036534 0.000000 0.021610 0.000000
# 2 -0.005046 0.014904 -0.006502 0.000000 -0.001497 0.000000
# 3 -0.036534 -0.006502 0.143004 0.000000 -0.053045 0.000000
# 4 0.000000 0.000000 0.000000 0.041324 0.000000 0.010436
# 5 0.021610 -0.001497 -0.053045 0.000000 0.113731 0.000000
# 6 0.000000 0.000000 0.000000 0.010436 0.000000 0.035863
#
#
# Mechanical properties :
#
#
# Convention : Reuss Voigt Hill
#
# Bulk Modulus (GPa) = 12.23450 54.02402 33.12926
# Shear Modulus (GPa) = 10.15794 22.67482 16.41638
#
# Velocity S-wave (km/s) = 2.38939 3.56990 3.03755
# Velocity P-wave (km/s) = 3.80639 6.88158 5.56079
#
# Compressibility (1/GPa) = 0.08173605
#
# Stress axis : x y z
#
# Youngs Moduli (GPa) = 50.02249 67.09459 6.99281
#
# Poissons Ratio (x) = 0.33854 0.25548
# Poissons Ratio (y) = 0.25240 0.04547
# Poissons Ratio (z) = 1.82752 0.43625
#
# Static dielectric constant tensor:
#      x y z
#    x 3.612960 0.000000 -0.360140 
#    y 0.000000 3.425660 0.000000 
#    z -0.360140 0.000000 2.959810 
# 
# 
# High freq. dielectric constant tensor:
#      x y z
#    x 1.692190 0.000000 -0.029490 
#    y 0.000000 1.701010 0.000000 
#    z -0.029490 0.000000 1.641850 
# 
# From -- ./inp_files/28403.got.cif
#   From: 2010.06.25/outbox.cif.g09.slc.cpg/sg11_15_cif.got.tgz:28403.got - 2010.06.27 23:14:04.
