data_PCOD8070868
_publ_section_title
;
Structure prediction by ZEFSAII (Michael W. Deem and Ramdas Pophale) SiO2 
 PCOD8070868
Probable space group: P 21/M
;
_chemical_formula_sum "Si O2"
_cell_formula_units_Z 32
_cell_length_a 11.885620
_cell_length_b 8.924783
_cell_length_c 19.983507
_cell_angle_alpha 90.000000
_cell_angle_beta 58.511542
_cell_angle_gamma 90.000000
_cell_volume 1807.634410
_symmetry_space_group_name_H-M "P 21/M"
_symmetry_group_IT_number 11
_symmetry_cell_setting 'monoclinic'
loop_
_space_group_symop_operation_xyz
x,y,z
-x,1/2+y,-z
-x,-y,-z
x,1/2-y,z
loop_
_atom_site_type_symbol
_atom_site_label
_atom_site_fract_x
_atom_site_fract_y
_atom_site_fract_z
Si Si1 0.280187 0.072374 0.964273
Si Si2 0.432484 0.577577 0.430129
Si Si3 0.421746 0.925955 0.144932
Si Si4 0.692081 0.425488 0.399148
Si Si5 0.254746 0.576177 0.835630
Si Si6 0.923117 0.075548 0.235409
Si Si7 0.810440 0.428018 0.875105
Si Si8 0.523136 0.076094 0.727797
O O1 0.266040 0.250000 0.972450
O O2 0.432860 0.018810 0.922163
O O3 0.218866 0.015755 0.913574
O O4 0.197555 0.998724 0.049126
O O5 0.468958 0.750000 0.430795
O O6 0.564516 0.486536 0.401563
O O7 0.316698 0.532038 0.518665
O O8 0.388158 0.549976 0.366639
O O9 0.413305 0.750000 0.139435
O O10 0.309389 0.995942 0.132548
O O11 0.396589 0.972632 0.230534
O O12 0.691155 0.250000 0.386656
O O13 0.825685 0.487345 0.323966
O O14 0.268797 0.750000 0.849636
O O15 0.140038 0.548591 0.817687
O O16 0.390978 0.519822 0.761363
O O17 0.956707 0.250000 0.235556
O O18 0.054652 0.978473 0.201536
O O19 0.805434 0.250000 0.881925
O O20 0.481038 0.250000 0.748181
#
# Coordination Sequence:
#
# PCOD8070868 Si02
#       8
#     4   4   4   4   4   4   4   4
#     4  10  20  36  56  75  98 123 154 204 255 296
#     4   9  16  26  48  77 101 127 161 197 240 290
#     4   8  17  33  52  74  98 124 158 204 248 286
#     4   9  17  30  46  70 103 134 161 196 238 285
#     4  10  19  32  50  73 100 131 163 197 241 290
#     4  10  21  35  49  67 101 139 166 197 239 288
#     4  11  22  35  52  72  94 127 170 206 241 289
#     4   9  16  29  50  76 103 127 157 200 249 294
#
# _framework density 17.702694000000001
#
# number of rings (size 3 to 8) (size 9 to 14) (size 15 to 20)
#    0.000    2.500    1.250    2.250    0.000    2.000 
#    0.000    5.625    0.000    0.750    0.000    0.000 
#    0.000    0.000    0.000    0.000    0.000    0.125 
#
# Total GULP energy -396640.333749 kJ/mol
# GULP energy per Si atom -12395.010430 kJ/mol
# Density = 1.766240 g / cm^3
# Si number density = 17.702694 Si / 1000 Ang^3
#
#
#
# Elastic Constant Matrix: (Units=GPa)
#
#
# Indices 1 2 3 4 5 6 
#
# 1 46.5343 20.0821 32.5173 0.0000 -6.1215 0.0000
# 2 20.0821 48.2665 28.1798 0.0000 -3.5295 0.0000
# 3 32.5173 28.1798 141.4284 0.0000 -0.8367 0.0000
# 4 0.0000 0.0000 0.0000 23.4894 0.0000 -2.1642
# 5 -6.1215 -3.5295 -0.8367 0.0000 20.9754 0.0000
# 6 0.0000 0.0000 0.0000 -2.1642 0.0000 18.9964
#
#
#
# Elastic Compliance Matrix: (Units=1/GPa)
#
#
# Indices 1 2 3 4 5 6 
#
# 1 0.029779 -0.008947 -0.005023 0.000000 0.006985 0.000000
# 2 -0.008947 0.026434 -0.003200 0.000000 0.001709 0.000000
# 3 -0.005023 -0.003200 0.008853 0.000000 -0.001651 0.000000
# 4 0.000000 0.000000 0.000000 0.043024 0.000000 0.004902
# 5 0.006985 0.001709 -0.001651 0.000000 0.049935 0.000000
# 6 0.000000 0.000000 0.000000 0.004902 0.000000 0.053200
#
#
# Mechanical properties :
#
#
# Convention : Reuss Voigt Hill
#
# Bulk Modulus (GPa) = 32.54406 44.19861 38.37133
# Shear Modulus (GPa) = 19.54593 23.05556 21.30075
#
# Velocity S-wave (km/s) = 3.32644 3.61276 3.47255
# Velocity P-wave (km/s) = 5.75996 6.51338 6.14822
#
# Compressibility (1/GPa) = 0.03072758
#
# Stress axis : x y z
#
# Youngs Moduli (GPa) = 33.58028 37.83018 112.95123
#
# Poissons Ratio (x) = 0.33846 0.56734
# Poissons Ratio (y) = 0.30044 0.36142
# Poissons Ratio (z) = 0.16867 0.12105
#
# Static dielectric constant tensor:
#      x y z
#    x 3.209100 0.000000 0.195460 
#    y 0.000000 3.188410 0.000000 
#    z 0.195460 0.000000 3.613340 
# 
# 
# High freq. dielectric constant tensor:
#      x y z
#    x 1.652500 0.000000 0.015900 
#    y 0.000000 1.676940 0.000000 
#    z 0.015900 0.000000 1.697010 
# 
# From -- ./inp_files/58691.got.cif
#   From: 2010.06.25/outbox.cif.g09.slc.cpg/sg11_30_cif.got.tgz:58691.got - 2010.06.27 23:14:04.
