data_PCOD8070077
_publ_section_title
;
Structure prediction by ZEFSAII (Michael W. Deem and Ramdas Pophale) SiO2 
 PCOD8070077
Probable space group: P 21/M
;
_chemical_formula_sum "Si O2"
_cell_formula_units_Z 32
_cell_length_a 21.618122
_cell_length_b 8.906746
_cell_length_c 18.023920
_cell_angle_alpha 90.000000
_cell_angle_beta 147.891414
_cell_angle_gamma 90.000000
_cell_volume 1844.634816
_symmetry_space_group_name_H-M "P 21/M"
_symmetry_group_IT_number 11
_symmetry_cell_setting 'monoclinic'
loop_
_space_group_symop_operation_xyz
x,y,z
-x,1/2+y,-z
-x,-y,-z
x,1/2-y,z
loop_
_atom_site_type_symbol
_atom_site_label
_atom_site_fract_x
_atom_site_fract_y
_atom_site_fract_z
Si Si1 0.125744 0.071108 0.125242
Si Si2 0.393128 0.572817 0.664210
Si Si3 0.268313 0.426521 0.126372
Si Si4 0.646048 0.084298 0.085315
Si Si5 0.628935 0.583639 0.209091
Si Si6 0.645636 0.428542 0.920922
Si Si7 0.275944 0.085139 0.416874
Si Si8 0.477719 0.914872 0.403343
O O1 0.119787 0.250000 0.118947
O O2 0.185951 0.015199 0.109568
O O3 0.195262 0.015488 0.269214
O O4 0.000000 0.000000 0.000000
O O5 0.411566 0.750000 0.679897
O O6 0.343876 0.525183 0.694513
O O7 0.516926 0.494293 0.773510
O O8 0.291231 0.525798 0.502328
O O9 0.255709 0.250000 0.103565
O O10 0.252247 0.506977 0.029813
O O11 0.399687 0.473553 0.276661
O O12 0.696753 0.250000 0.151794
O O13 0.690880 0.977405 0.197016
O O14 0.507449 0.091359 0.943734
O O15 0.687209 0.026558 0.046118
O O16 0.677811 0.750000 0.275742
O O17 0.634596 0.250000 0.899834
O O18 0.227226 0.250000 0.391967
O O19 0.402127 0.112000 0.513603
O O20 0.418980 0.750000 0.355955
O O21 0.500000 0.000000 0.500000
#
# Coordination Sequence:
#
# PCOD8070077 Si02
#       8
#     4   4   4   4   4   4   4   4
#     4  10  23  41  56  71  93 124 161 203 245 290
#     4  11  20  28  43  68  96 127 164 200 239 286
#     4  11  21  34  50  72  99 125 160 202 244 287
#     4   8  15  26  39  57  87 125 164 198 229 275
#     4   9  16  26  40  58  87 127 165 197 234 278
#     4  10  19  30  44  67  97 129 162 199 243 285
#     4  10  20  35  50  68  98 127 158 201 246 286
#     4  11  20  31  49  71  98 125 155 194 242 293
#
# _framework density 17.347607
#
# number of rings (size 3 to 8) (size 9 to 14) (size 15 to 20)
#    0.000    2.000    2.500    3.375    0.000    5.500 
#    0.000    0.000    0.000    0.000    0.000    0.000 
#    0.000    1.000    0.000    3.250    0.000    5.000 
#
# Total GULP energy -396466.114074 kJ/mol
# GULP energy per Si atom -12389.566065 kJ/mol
# Density = 1.730812 g / cm^3
# Si number density = 17.347607 Si / 1000 Ang^3
#
#
#
# Elastic Constant Matrix: (Units=GPa)
#
#
# Indices 1 2 3 4 5 6 
#
# 1 100.3464 46.7687 57.7426 0.0000 -32.2204 0.0000
# 2 46.7687 84.8133 30.6060 0.0000 -17.4188 0.0000
# 3 57.7426 30.6060 56.4551 0.0000 -13.4381 0.0000
# 4 0.0000 0.0000 0.0000 20.8803 0.0000 -6.3198
# 5 -32.2204 -17.4188 -13.4381 0.0000 29.2574 0.0000
# 6 0.0000 0.0000 0.0000 -6.3198 0.0000 27.3835
#
#
#
# Elastic Compliance Matrix: (Units=1/GPa)
#
#
# Indices 1 2 3 4 5 6 
#
# 1 0.036872 -0.004749 -0.029355 0.000000 0.024296 0.000000
# 2 -0.004749 0.016169 -0.003213 0.000000 0.002920 0.000000
# 3 -0.029355 -0.003213 0.046402 0.000000 -0.012928 0.000000
# 4 0.000000 0.000000 0.000000 0.051489 0.000000 0.011883
# 5 0.024296 0.002920 -0.012928 0.000000 0.056736 0.000000
# 6 0.000000 0.000000 0.000000 0.011883 0.000000 0.039261
#
#
# Mechanical properties :
#
#
# Convention : Reuss Voigt Hill
#
# Bulk Modulus (GPa) = 40.30855 56.87214 48.59035
# Shear Modulus (GPa) = 15.15922 22.60406 18.88164
#
# Velocity S-wave (km/s) = 2.95930 3.61364 3.30271
# Velocity P-wave (km/s) = 5.91294 7.08986 6.52798
#
# Compressibility (1/GPa) = 0.02480863
#
# Stress axis : x y z
#
# Youngs Moduli (GPa) = 27.12085 61.84800 21.55075
#
# Poissons Ratio (x) = 0.29375 0.63262
# Poissons Ratio (y) = 0.12881 0.06923
# Poissons Ratio (z) = 0.79613 0.19869
#
# Static dielectric constant tensor:
#      x y z
#    x 3.354370 0.000000 -0.444570 
#    y 0.000000 3.445310 0.000000 
#    z -0.444570 0.000000 3.004280 
# 
# 
# High freq. dielectric constant tensor:
#      x y z
#    x 1.658650 0.000000 -0.049060 
#    y 0.000000 1.679180 0.000000 
#    z -0.049060 0.000000 1.620970 
# 
# From -- ./inp_files/61813.got.cif
#   From: 2010.06.25/outbox.cif.g09.slc.cpg/sg11_31_cif.got.tgz:61813.got - 2010.06.27 23:14:04.
