data_PCOD8070875
_publ_section_title
;
Structure prediction by ZEFSAII (Michael W. Deem and Ramdas Pophale) SiO2 
 PCOD8070875
Probable space group: P 21/M
;
_chemical_formula_sum "Si O2"
_cell_formula_units_Z 32
_cell_length_a 11.972668
_cell_length_b 9.220915
_cell_length_c 31.186908
_cell_angle_alpha 90.000000
_cell_angle_beta 30.125756
_cell_angle_gamma 90.000000
_cell_volume 1728.041321
_symmetry_space_group_name_H-M "P 21/M"
_symmetry_group_IT_number 11
_symmetry_cell_setting 'monoclinic'
loop_
_space_group_symop_operation_xyz
x,y,z
-x,1/2+y,-z
-x,-y,-z
x,1/2-y,z
loop_
_atom_site_type_symbol
_atom_site_label
_atom_site_fract_x
_atom_site_fract_y
_atom_site_fract_z
Si Si1 0.311806 0.421068 0.089419
Si Si2 0.466163 0.081557 0.127829
Si Si3 0.694382 0.921207 0.727988
Si Si4 0.368160 0.422102 0.774598
Si Si5 0.033455 0.917392 0.032367
Si Si6 0.607675 0.080841 0.402796
Si Si7 0.808417 0.419694 0.245861
Si Si8 0.795715 0.081736 0.430749
O O1 0.360404 0.250000 0.071483
O O2 0.323252 0.476582 0.135104
O O3 0.067901 0.458937 0.152571
O O4 0.500000 0.500000 0.000000
O O5 0.416634 0.250000 0.149971
O O6 0.396605 0.012753 0.196614
O O7 0.721827 0.048530 0.031051
O O8 0.643889 0.750000 0.740204
O O9 0.954553 0.955940 0.638690
O O10 0.579696 0.006987 0.727394
O O11 0.399762 0.250000 0.761555
O O12 0.345193 0.487128 0.734784
O O13 0.145149 0.469294 0.873647
O O14 0.001983 0.750000 0.032033
O O15 0.000000 0.000000 0.000000
O O16 0.558075 0.250000 0.419553
O O17 0.741634 0.035203 0.316060
O O18 0.756010 0.034389 0.394524
O O19 0.369299 0.002446 0.482784
O O20 0.766485 0.250000 0.251418
O O21 0.744956 0.250000 0.453171
#
# Coordination Sequence:
#
# PCOD8070875 Si02
#       8
#     4   4   4   4   4   4   4   4
#     4  10  20  35  54  78 108 140 177 219 263 312
#     4   9  17  31  53  76 101 136 174 215 261 310
#     4  10  19  34  56  79 105 140 179 216 263 326
#     4  11  23  36  52  78 110 142 180 229 273 310
#     4  10  19  32  50  73 102 138 177 216 259 308
#     4   9  18  35  58  84 110 139 176 216 264 322
#     4  10  21  37  57  78 105 147 188 216 255 323
#     4   9  18  33  57  87 112 135 170 219 272 322
#
# _framework density 18.518075
#
# number of rings (size 3 to 8) (size 9 to 14) (size 15 to 20)
#    0.000    2.250    1.250    1.875    0.000    6.000 
#    0.000    1.875    0.000    3.000    0.000    0.000 
#    0.000    0.000    0.000    0.000    0.000    0.000 
#
# Total GULP energy -396806.828521 kJ/mol
# GULP energy per Si atom -12400.213391 kJ/mol
# Density = 1.847593 g / cm^3
# Si number density = 18.518075 Si / 1000 Ang^3
#
#
#
# Elastic Constant Matrix: (Units=GPa)
#
#
# Indices 1 2 3 4 5 6 
#
# 1 126.0782 47.2907 48.7673 0.0000 -5.4128 0.0000
# 2 47.2907 48.9399 45.0551 0.0000 -3.4780 0.0000
# 3 48.7673 45.0551 111.0824 0.0000 -3.1015 0.0000
# 4 0.0000 0.0000 0.0000 30.0963 0.0000 -0.5620
# 5 -5.4128 -3.4780 -3.1015 0.0000 24.9369 0.0000
# 6 0.0000 0.0000 0.0000 -0.5620 0.0000 25.9949
#
#
#
# Elastic Compliance Matrix: (Units=1/GPa)
#
#
# Indices 1 2 3 4 5 6 
#
# 1 0.012529 -0.011164 -0.000943 0.000000 0.001045 0.000000
# 2 -0.011164 0.042770 -0.012391 0.000000 0.002001 0.000000
# 3 -0.000943 -0.012391 0.014438 0.000000 -0.000137 0.000000
# 4 0.000000 0.000000 0.000000 0.033240 0.000000 0.000719
# 5 0.001045 0.002001 -0.000137 0.000000 0.040590 0.000000
# 6 0.000000 0.000000 0.000000 0.000719 0.000000 0.038485
#
#
# Mechanical properties :
#
#
# Convention : Reuss Voigt Hill
#
# Bulk Modulus (GPa) = 48.21171 63.14742 55.67956
# Shear Modulus (GPa) = 21.01179 25.87145 23.44162
#
# Velocity S-wave (km/s) = 3.37213 3.74182 3.56178
# Velocity P-wave (km/s) = 6.42286 7.26930 6.85915
#
# Compressibility (1/GPa) = 0.02074185
#
# Stress axis : x y z
#
# Youngs Moduli (GPa) = 79.81622 23.38060 69.26107
#
# Poissons Ratio (x) = 0.26103 0.06531
# Poissons Ratio (y) = 0.89108 0.85819
# Poissons Ratio (z) = 0.07527 0.28970
#
# Static dielectric constant tensor:
#      x y z
#    x 3.410760 0.000000 -0.026050 
#    y 0.000000 3.255070 0.000000 
#    z -0.026050 0.000000 3.392890 
# 
# 
# High freq. dielectric constant tensor:
#      x y z
#    x 1.723580 0.000000 -0.003150 
#    y 0.000000 1.697440 0.000000 
#    z -0.003150 0.000000 1.716570 
# 
# From -- ./inp_files/42774.got.cif
#   From: 2010.06.25/outbox.cif.g09.slc.cpg/sg11_22_cif.got.tgz:42774.got - 2010.06.27 23:14:04.
