data_PCOD8070741
_publ_section_title
;
Structure prediction by ZEFSAII (Michael W. Deem and Ramdas Pophale) SiO2 
 PCOD8070741
Probable space group: P 21/M
;
_chemical_formula_sum "Si O2"
_cell_formula_units_Z 28
_cell_length_a 14.868615
_cell_length_b 9.305391
_cell_length_c 12.230129
_cell_angle_alpha 90.000000
_cell_angle_beta 51.721742
_cell_angle_gamma 90.000000
_cell_volume 1328.349021
_symmetry_space_group_name_H-M "P 21/M"
_symmetry_group_IT_number 11
_symmetry_cell_setting 'monoclinic'
loop_
_space_group_symop_operation_xyz
x,y,z
-x,1/2+y,-z
-x,-y,-z
x,1/2-y,z
loop_
_atom_site_type_symbol
_atom_site_label
_atom_site_fract_x
_atom_site_fract_y
_atom_site_fract_z
Si Si1 0.259649 0.916534 0.862013
Si Si2 0.172518 0.420870 0.312625
Si Si3 0.471238 0.408309 0.736755
Si Si4 0.598611 0.594989 0.968729
Si Si5 0.911303 0.419429 0.819873
Si Si6 0.269390 0.584895 0.438357
Si Si7 0.117653 0.914102 0.760216
O O1 0.288589 0.750000 0.833037
O O2 0.168191 0.960430 0.838864
O O3 0.381563 0.991823 0.739815
O O4 0.204112 0.953148 0.022676
O O5 0.148143 0.250000 0.338646
O O6 0.282645 0.468436 0.160730
O O7 0.078239 0.499231 0.306645
O O8 0.188426 0.488885 0.420475
O O9 0.481866 0.250000 0.673473
O O10 0.599112 0.473949 0.655949
O O11 0.405616 0.393036 0.899586
O O12 0.583494 0.750000 0.924313
O O13 0.500000 0.500000 0.000000
O O14 0.924362 0.250000 0.789023
O O15 0.016833 0.475354 0.811846
O O16 0.269703 0.750000 0.395455
O O17 0.219478 0.571722 0.596275
O O18 0.070833 0.750000 0.796989
#
# Coordination Sequence:
#
# PCOD8070741 Si02
#       7
#     4   4   4   4   4   4   4
#     4  10  22  39  61  89 117 149 192 243 293 340
#     4  11  22  36  58  88 119 152 191 236 289 346
#     4  10  20  35  57  87 120 153 189 232 287 345
#     4  10  19  31  52  83 117 151 187 232 287 340
#     4  11  23  39  62  89 115 148 194 245 294 342
#     4  10  22  40  60  85 120 159 193 231 284 346
#     4  10  23  43  62  82 115 156 197 241 288 339
#
# _framework density 21.078797000000002
#
# number of rings (size 3 to 8) (size 9 to 14) (size 15 to 20)
#    0.000    1.714    2.857    1.286    0.000    4.571 
#    0.000    0.000    0.000    0.000    0.000    0.000 
#    0.000    0.000    0.000    0.000    0.000    0.000 
#
# Total GULP energy -347027.353840 kJ/mol
# GULP energy per Si atom -12393.834066 kJ/mol
# Density = 2.103082 g / cm^3
# Si number density = 21.078797 Si / 1000 Ang^3
#
#
#
# Elastic Constant Matrix: (Units=GPa)
#
#
# Indices 1 2 3 4 5 6 
#
# 1 106.5443 57.1344 3.6871 0.0000 4.0423 0.0000
# 2 57.1344 91.9570 15.0701 0.0000 3.2066 0.0000
# 3 3.6871 15.0701 34.8366 0.0000 1.9603 0.0000
# 4 0.0000 0.0000 0.0000 21.1177 0.0000 0.1342
# 5 4.0423 3.2066 1.9603 0.0000 24.0739 0.0000
# 6 0.0000 0.0000 0.0000 0.1342 0.0000 42.2838
#
#
#
# Elastic Compliance Matrix: (Units=1/GPa)
#
#
# Indices 1 2 3 4 5 6 
#
# 1 0.014321 -0.009271 0.002573 0.000000 -0.001379 0.000000
# 2 -0.009271 0.017739 -0.006678 0.000000 -0.000262 0.000000
# 3 0.002573 -0.006678 0.031440 0.000000 -0.002103 0.000000
# 4 0.000000 0.000000 0.000000 0.047355 0.000000 -0.000150
# 5 -0.001379 -0.000262 -0.002103 0.000000 0.041977 0.000000
# 6 0.000000 0.000000 0.000000 -0.000150 0.000000 0.023650
#
#
# Mechanical properties :
#
#
# Convention : Reuss Voigt Hill
#
# Bulk Modulus (GPa) = 27.21309 42.79124 35.00216
# Shear Modulus (GPa) = 23.20378 27.99150 25.59764
#
# Velocity S-wave (km/s) = 3.32145 3.64805 3.48857
# Velocity P-wave (km/s) = 5.25809 6.17163 5.73309
#
# Compressibility (1/GPa) = 0.03674702
#
# Stress axis : x y z
#
# Youngs Moduli (GPa) = 69.82862 56.37449 31.80646
#
# Poissons Ratio (x) = 0.52266 -0.08182
# Poissons Ratio (y) = 0.64740 0.21239
# Poissons Ratio (z) = -0.17964 0.37644
#
# Static dielectric constant tensor:
#      x y z
#    x 3.733870 0.000000 0.031690 
#    y 0.000000 3.894770 0.000000 
#    z 0.031690 0.000000 3.660060 
# 
# 
# High freq. dielectric constant tensor:
#      x y z
#    x 1.827840 0.000000 -0.003700 
#    y 0.000000 1.820620 0.000000 
#    z -0.003700 0.000000 1.820120 
# 
# From -- ./inp_files/37845.got.cif
#   From: 2010.06.25/outbox.cif.g09.slc.cpg/sg11_19_cif.got.tgz:37845.got - 2010.06.27 23:14:04.
