data_PCOD8070049
_publ_section_title
;
Structure prediction by ZEFSAII (Michael W. Deem and Ramdas Pophale) SiO2 
 PCOD8070049
Probable space group: P 21/M
;
_chemical_formula_sum "Si O2"
_cell_formula_units_Z 28
_cell_length_a 27.994155
_cell_length_b 9.085868
_cell_length_c 9.553959
_cell_angle_alpha 90.000000
_cell_angle_beta 38.960371
_cell_angle_gamma 90.000000
_cell_volume 1527.980314
_symmetry_space_group_name_H-M "P 21/M"
_symmetry_group_IT_number 11
_symmetry_cell_setting 'monoclinic'
loop_
_space_group_symop_operation_xyz
x,y,z
-x,1/2+y,-z
-x,-y,-z
x,1/2-y,z
loop_
_atom_site_type_symbol
_atom_site_label
_atom_site_fract_x
_atom_site_fract_y
_atom_site_fract_z
Si Si1 0.205610 0.421124 0.730031
Si Si2 0.560414 0.081571 0.193023
Si Si3 0.817052 0.081484 0.647863
Si Si4 0.078648 0.421823 0.792882
Si Si5 0.757042 0.423993 0.084448
Si Si6 0.308103 0.583756 0.296795
Si Si7 0.606335 0.580059 0.362602
O O1 0.213597 0.250000 0.744775
O O2 0.133613 0.457593 0.797506
O O3 0.193920 0.508990 0.900615
O O4 0.282548 0.473712 0.477099
O O5 0.575785 0.250000 0.207549
O O6 0.470860 0.055671 0.372114
O O7 0.592492 0.972343 0.236411
O O8 0.604857 0.050869 0.946289
O O9 0.844589 0.250000 0.583319
O O10 0.741349 0.059870 0.730083
O O11 0.885154 0.982673 0.432811
O O12 0.798306 0.028387 0.847223
O O13 0.064721 0.250000 0.806260
O O14 0.000000 0.500000 0.000000
O O15 0.752363 0.250000 0.109209
O O16 0.672147 0.487930 0.286803
O O17 0.298436 0.750000 0.375438
O O18 0.630620 0.750000 0.303478
#
# Coordination Sequence:
#
# PCOD8070049 Si02
#       7
#     4   4   4   4   4   4   4
#     4  10  22  37  54  81 111 138 174 221 268 315
#     4   9  17  31  49  74 105 140 185 228 272 320
#     4   9  18  33  56  81 106 138 179 220 259 310
#     4  10  21  38  61  86 112 138 171 213 259 314
#     4  11  21  36  55  78 109 146 183 219 267 325
#     4   9  16  32  54  75 102 139 182 225 266 317
#     4  10  19  29  48  76 108 142 178 229 277 315
#
# _framework density 18.324843999999999
#
# number of rings (size 3 to 8) (size 9 to 14) (size 15 to 20)
#    0.000    2.286    1.429    1.714    0.000    4.000 
#    0.000    1.429    0.000    0.000    0.000    0.000 
#    0.000    0.000    0.000    0.000    0.000    0.000 
#
# Total GULP energy -347245.713761 kJ/mol
# GULP energy per Si atom -12401.632634 kJ/mol
# Density = 1.828314 g / cm^3
# Si number density = 18.324844 Si / 1000 Ang^3
#
#
#
# Elastic Constant Matrix: (Units=GPa)
#
#
# Indices 1 2 3 4 5 6 
#
# 1 68.1110 48.0315 53.8916 0.0000 8.6406 0.0000
# 2 48.0315 97.9302 63.1163 0.0000 0.1407 0.0000
# 3 53.8916 63.1163 130.8450 0.0000 -3.2636 0.0000
# 4 0.0000 0.0000 0.0000 32.7819 0.0000 0.4963
# 5 8.6406 0.1407 -3.2636 0.0000 28.6519 0.0000
# 6 0.0000 0.0000 0.0000 0.4963 0.0000 30.9942
#
#
#
# Elastic Compliance Matrix: (Units=1/GPa)
#
#
# Indices 1 2 3 4 5 6 
#
# 1 0.028086 -0.008935 -0.007489 0.000000 -0.009279 0.000000
# 2 -0.008935 0.017683 -0.004799 0.000000 0.002061 0.000000
# 3 -0.007489 -0.004799 0.013136 0.000000 0.003778 0.000000
# 4 0.000000 0.000000 0.000000 0.030512 0.000000 -0.000489
# 5 -0.009279 0.002061 0.003778 0.000000 0.038120 0.000000
# 6 0.000000 0.000000 0.000000 -0.000489 0.000000 0.032272
#
#
# Mechanical properties :
#
#
# Convention : Reuss Voigt Hill
#
# Bulk Modulus (GPa) = 60.75396 69.66279 65.20837
# Shear Modulus (GPa) = 24.06844 27.27540 25.67192
#
# Velocity S-wave (km/s) = 3.62806 3.86221 3.74697
# Velocity P-wave (km/s) = 7.12575 7.61492 7.37439
#
# Compressibility (1/GPa) = 0.01645983
#
# Stress axis : x y z
#
# Youngs Moduli (GPa) = 35.60551 56.55044 76.12569
#
# Poissons Ratio (x) = 0.50527 0.57012
# Poissons Ratio (y) = 0.31813 0.36529
# Poissons Ratio (z) = 0.26666 0.27136
#
# Static dielectric constant tensor:
#      x y z
#    x 3.153430 0.000000 -0.011730 
#    y 0.000000 3.447270 0.000000 
#    z -0.011730 0.000000 3.470320 
# 
# 
# High freq. dielectric constant tensor:
#      x y z
#    x 1.681050 0.000000 -0.000160 
#    y 0.000000 1.718390 0.000000 
#    z -0.000160 0.000000 1.713610 
# 
# From -- ./inp_files/28433.got.cif
#   From: 2010.06.25/outbox.cif.g09.slc.cpg/sg11_15_cif.got.tgz:28433.got - 2010.06.27 23:14:04.
