data_PCOD8070848
_publ_section_title
;
Structure prediction by ZEFSAII (Michael W. Deem and Ramdas Pophale) SiO2 
 PCOD8070848
Probable space group: P 21/M
;
_chemical_formula_sum "Si O2"
_cell_formula_units_Z 32
_cell_length_a 15.499623
_cell_length_b 8.885612
_cell_length_c 21.308382
_cell_angle_alpha 90.000000
_cell_angle_beta 138.480914
_cell_angle_gamma 90.000000
_cell_volume 1945.301806
_symmetry_space_group_name_H-M "P 21/M"
_symmetry_group_IT_number 11
_symmetry_cell_setting 'monoclinic'
loop_
_space_group_symop_operation_xyz
x,y,z
-x,1/2+y,-z
-x,-y,-z
x,1/2-y,z
loop_
_atom_site_type_symbol
_atom_site_label
_atom_site_fract_x
_atom_site_fract_y
_atom_site_fract_z
Si Si1 0.604606 0.571908 0.602504
Si Si2 0.447300 0.573478 0.292250
Si Si3 0.707941 0.077237 0.397631
Si Si4 0.982704 0.078446 0.900767
Si Si5 0.049518 0.574887 0.382714
Si Si6 0.208644 0.424111 0.111924
Si Si7 0.099461 0.577114 0.600273
Si Si8 0.869397 0.076249 0.709302
O O1 0.500000 0.500000 0.500000
O O2 0.589236 0.750000 0.592946
O O3 0.581139 0.513981 0.659490
O O4 0.746442 0.527136 0.655971
O O5 0.437689 0.750000 0.299622
O O6 0.588331 0.533782 0.342410
O O7 0.339712 0.522824 0.182544
O O8 0.665270 0.250000 0.385978
O O9 0.820240 0.031675 0.508145
O O10 0.757369 0.055873 0.352429
O O11 0.945320 0.250000 0.898948
O O12 0.976380 0.055923 0.822471
O O13 0.879769 0.967533 0.876659
O O14 0.128646 0.042614 0.004308
O O15 0.021972 0.750000 0.372547
O O16 0.064857 0.521742 0.319387
O O17 0.921037 0.494602 0.341913
O O18 0.247091 0.250000 0.138982
O O19 0.062278 0.750000 0.584337
O O20 0.000000 0.500000 0.500000
O O21 0.823432 0.250000 0.678978
#
# Coordination Sequence:
#
# PCOD8070848 Si02
#       8
#     4   4   4   4   4   4   4   4
#     4  12  24  36  49  67  95 133 168 200 237 283
#     4  12  23  34  49  71  97 129 165 204 246 293
#     4   9  18  32  48  69  97 130 164 199 239 287
#     4   9  18  32  51  72  96 126 164 205 247 290
#     4   9  18  31  49  72 100 130 159 194 239 287
#     4  10  19  32  50  71  95 127 164 206 249 290
#     4   9  17  30  49  70  95 125 159 199 241 282
#     4  10  19  33  51  73 100 130 163 201 240 286
#
# _framework density 16.449888999999999
#
# number of rings (size 3 to 8) (size 9 to 14) (size 15 to 20)
#    0.000    2.000    1.250    4.500    0.000    4.500 
#    0.000    0.000    0.000    0.000    0.000    0.875 
#    0.000    0.000    0.000    0.000    0.000    0.000 
#
# Total GULP energy -396747.393017 kJ/mol
# GULP energy per Si atom -12398.356032 kJ/mol
# Density = 1.641245 g / cm^3
# Si number density = 16.449889 Si / 1000 Ang^3
#
#
#
# Elastic Constant Matrix: (Units=GPa)
#
#
# Indices 1 2 3 4 5 6 
#
# 1 116.0153 50.2510 48.1905 0.0000 -15.4573 0.0000
# 2 50.2510 97.0029 37.9665 0.0000 -1.5530 0.0000
# 3 48.1905 37.9665 88.0858 0.0000 -13.4186 0.0000
# 4 0.0000 0.0000 0.0000 22.2751 0.0000 2.7299
# 5 -15.4573 -1.5530 -13.4186 0.0000 9.3700 0.0000
# 6 0.0000 0.0000 0.0000 2.7299 0.0000 29.4299
#
#
#
# Elastic Compliance Matrix: (Units=1/GPa)
#
#
# Indices 1 2 3 4 5 6 
#
# 1 0.015214 -0.006648 -0.002306 0.000000 0.020694 0.000000
# 2 -0.006648 0.015693 -0.005630 0.000000 -0.016427 0.000000
# 3 -0.002306 -0.005630 0.018314 0.000000 0.021491 0.000000
# 4 0.000000 0.000000 0.000000 0.045409 0.000000 -0.004212
# 5 0.020694 -0.016427 0.021491 0.000000 0.168916 0.000000
# 6 0.000000 0.000000 0.000000 -0.004212 0.000000 0.034370
#
#
# Mechanical properties :
#
#
# Convention : Reuss Voigt Hill
#
# Bulk Modulus (GPa) = 49.86184 63.76887 56.81535
# Shear Modulus (GPa) = 14.98050 23.19474 19.08762
#
# Velocity S-wave (km/s) = 3.02101 3.75910 3.41009
# Velocity P-wave (km/s) = 6.52272 7.59545 7.07943
#
# Compressibility (1/GPa) = 0.02005542
#
# Stress axis : x y z
#
# Youngs Moduli (GPa) = 65.73007 63.72237 54.60232
#
# Poissons Ratio (x) = 0.42360 0.12589
# Poissons Ratio (y) = 0.43694 0.30739
# Poissons Ratio (z) = 0.15155 0.35874
#
# Static dielectric constant tensor:
#      x y z
#    x 3.319670 0.000000 -0.081000 
#    y 0.000000 3.244780 0.000000 
#    z -0.081000 0.000000 3.193310 
# 
# 
# High freq. dielectric constant tensor:
#      x y z
#    x 1.620650 0.000000 -0.005170 
#    y 0.000000 1.642800 0.000000 
#    z -0.005170 0.000000 1.612880 
# 
# From -- ./inp_files/65227.got.cif
#   From: 2010.06.25/outbox.cif.g09.slc.cpg/sg11_33_cif.got.tgz:65227.got - 2010.06.27 23:14:04.
