data_PCOD8070216
_publ_section_title
;
Structure prediction by ZEFSAII (Michael W. Deem and Ramdas Pophale) SiO2 
 PCOD8070216
Probable space group: P 21/M
;
_chemical_formula_sum "Si O2"
_cell_formula_units_Z 28
_cell_length_a 21.808978
_cell_length_b 8.716456
_cell_length_c 22.824703
_cell_angle_alpha 90.000000
_cell_angle_beta 160.733640
_cell_angle_gamma 90.000000
_cell_volume 1431.666800
_symmetry_space_group_name_H-M "P 21/M"
_symmetry_group_IT_number 11
_symmetry_cell_setting 'monoclinic'
loop_
_space_group_symop_operation_xyz
x,y,z
-x,1/2+y,-z
-x,-y,-z
x,1/2-y,z
loop_
_atom_site_type_symbol
_atom_site_label
_atom_site_fract_x
_atom_site_fract_y
_atom_site_fract_z
Si Si1 0.429051 0.931522 0.017578
Si Si2 0.747253 0.067160 0.021861
Si Si3 0.134285 0.072148 0.331204
Si Si4 0.876118 0.568818 0.806423
Si Si5 0.746718 0.930596 0.810737
Si Si6 0.204103 0.568718 0.699661
Si Si7 0.468433 0.927596 0.285254
O O1 0.459896 0.750000 0.045735
O O2 0.278189 0.977061 0.831494
O O3 0.344390 0.996932 0.001669
O O4 0.632843 0.007508 0.195766
O O5 0.738440 0.250000 0.016524
O O6 0.639880 0.004352 0.867902
O O7 0.956954 0.001286 0.204873
O O8 0.088252 0.250000 0.280044
O O9 0.175290 0.999904 0.303665
O O10 0.314541 0.047677 0.533815
O O11 0.875825 0.750000 0.803933
O O12 0.735551 0.516415 0.732029
O O13 0.081758 0.513769 0.004787
O O14 0.773475 0.750000 0.839551
O O15 0.569472 0.984193 0.687996
O O16 0.185791 0.750000 0.676288
O O17 0.000000 0.500000 0.500000
O O18 0.420108 0.750000 0.251909
#
# Coordination Sequence:
#
# PCOD8070216 Si02
#       7
#     4   4   4   4   4   4   4
#     4   9  19  35  57  84 110 142 183 223 264 309
#     4   9  17  32  54  78 103 132 173 219 253 296
#     4   9  17  30  51  76  97 125 170 215 257 304
#     4   9  17  32  51  70  95 128 169 215 261 312
#     4  10  19  30  48  72  98 129 167 213 264 315
#     4  10  20  35  57  85 117 147 178 218 262 311
#     4  10  19  32  53  75  98 132 170 212 262 311
#
# _framework density 19.557624000000001
#
# number of rings (size 3 to 8) (size 9 to 14) (size 15 to 20)
#    0.000    2.571    1.429    0.857    0.000    2.857 
#    0.000    5.714    0.000    0.000    0.000    0.000 
#    0.000    0.000    0.000    0.000    0.000    0.000 
#
# Total GULP energy -346909.967393 kJ/mol
# GULP energy per Si atom -12389.641693 kJ/mol
# Density = 1.951311 g / cm^3
# Si number density = 19.557624 Si / 1000 Ang^3
#
#
#
# Elastic Constant Matrix: (Units=GPa)
#
#
# Indices 1 2 3 4 5 6 
#
# 1 146.6444 13.6337 62.3431 0.0000 27.9709 0.0000
# 2 13.6337 -92.3319 -35.5121 0.0000 -7.3287 0.0000
# 3 62.3431 -35.5121 111.3234 0.0000 13.6103 0.0000
# 4 0.0000 0.0000 0.0000 21.0889 0.0000 4.3035
# 5 27.9709 -7.3287 13.6103 0.0000 17.6110 0.0000
# 6 0.0000 0.0000 0.0000 4.3035 0.0000 21.6774
#
#
#
# Elastic Compliance Matrix: (Units=1/GPa)
#
#
# Indices 1 2 3 4 5 6 
#
# 1 0.010087 0.003613 -0.003005 0.000000 -0.012194 0.000000
# 2 0.003613 -0.008301 -0.003918 0.000000 -0.006165 0.000000
# 3 -0.003005 -0.003918 0.009974 0.000000 -0.004565 0.000000
# 4 0.000000 0.000000 0.000000 0.049420 0.000000 -0.009811
# 5 -0.012194 -0.006165 -0.004565 0.000000 0.077113 0.000000
# 6 0.000000 0.000000 0.000000 -0.009811 0.000000 0.048079
#
#
# Mechanical properties :
#
#
# Convention : Reuss Voigt Hill
#
# Bulk Modulus (GPa) = 194.51682 27.39616 110.95649
# Shear Modulus (GPa) = 25.67973 20.42021 23.04997
#
# Velocity S-wave (km/s) = 3.62751 3.23477 3.43675
# Velocity P-wave (km/s) = 10.82679 5.29055 8.52083
#
# Compressibility (1/GPa) = 0.00514094
#
# Stress axis : x y z
#
# Youngs Moduli (GPa) = 99.13823 -120.47035 100.25737
#
# Poissons Ratio (x) = 0.43529 0.30131
# Poissons Ratio (y) = -0.35821 0.39277
# Poissons Ratio (z) = 0.29795 -0.47196
#
# Static dielectric constant tensor:
#      x y z
#    x 3.905150 0.000000 0.068660 
#    y 0.000000 3.209590 0.000000 
#    z 0.068660 0.000000 3.532260 
# 
# 
# High freq. dielectric constant tensor:
#      x y z
#    x 1.766340 0.000000 0.006380 
#    y 0.000000 1.721330 0.000000 
#    z 0.006380 0.000000 1.763130 
# 
# From -- ./inp_files/69837.got.cif
#   From: 2010.06.25/outbox.cif.g09.slc.cpg/sg11_35_cif.got.tgz:69837.got - 2010.06.27 23:14:04.
