data_PCOD8070069
_publ_section_title
;
Structure prediction by ZEFSAII (Michael W. Deem and Ramdas Pophale) SiO2 
 PCOD8070069
Probable space group: P 21/M
;
_chemical_formula_sum "Si O2"
_cell_formula_units_Z 32
_cell_length_a 15.738117
_cell_length_b 8.898624
_cell_length_c 14.388090
_cell_angle_alpha 90.000000
_cell_angle_beta 89.931642
_cell_angle_gamma 90.000000
_cell_volume 2015.015833
_symmetry_space_group_name_H-M "P 21/M"
_symmetry_group_IT_number 11
_symmetry_cell_setting 'monoclinic'
loop_
_space_group_symop_operation_xyz
x,y,z
-x,1/2+y,-z
-x,-y,-z
x,1/2-y,z
loop_
_atom_site_type_symbol
_atom_site_label
_atom_site_fract_x
_atom_site_fract_y
_atom_site_fract_z
Si Si1 0.501376 0.422679 0.597101
Si Si2 0.914587 0.076042 0.102430
Si Si3 0.007510 0.071481 0.600300
Si Si4 0.907385 0.073155 0.898242
Si Si5 0.682026 0.927234 0.388675
Si Si6 0.685314 0.072467 0.590703
Si Si7 0.159283 0.572095 0.290129
Si Si8 0.163056 0.574478 0.706077
O O1 0.500000 0.500000 0.500000
O O2 0.495897 0.250000 0.573223
O O3 0.413786 0.465634 0.650732
O O4 0.593734 0.459423 0.642430
O O5 0.940010 0.250000 0.098098
O O6 0.846845 0.044394 0.183505
O O7 0.876458 0.024795 0.001762
O O8 0.999305 0.986202 0.124493
O O9 0.012174 0.250000 0.591934
O O10 0.925763 0.016922 0.658340
O O11 0.092222 0.013135 0.648860
O O12 0.000000 0.000000 0.500000
O O13 0.913917 0.250000 0.889398
O O14 0.843738 0.014211 0.817361
O O15 0.701300 0.750000 0.386562
O O16 0.693421 0.985907 0.493560
O O17 0.744771 0.013323 0.320090
O O18 0.697362 0.250000 0.571253
O O19 0.757368 0.006617 0.659195
O O20 0.164901 0.750000 0.293767
O O21 0.155866 0.750000 0.682049
#
# Coordination Sequence:
#
# PCOD8070069 Si02
#       8
#     4   4   4   4   4   4   4   4
#     4   8  15  27  44  64  87 112 144 182 222 263
#     4   9  18  30  46  65  85 110 145 187 227 262
#     4  11  21  32  44  63  91 125 154 180 212 257
#     4   9  16  30  48  65  85 110 142 184 227 268
#     4  10  19  30  44  65  89 118 152 186 221 262
#     4   9  16  29  47  67  91 118 144 179 222 268
#     4   9  17  28  45  66  87 113 145 175 215 265
#     4  11  21  32  44  63  88 119 154 187 221 262
#
# _framework density 15.880768
#
# number of rings (size 3 to 8) (size 9 to 14) (size 15 to 20)
#    0.000    2.500    1.250    1.875    0.000    2.000 
#    0.000    1.250    0.000    0.000    0.000    0.875 
#    0.000    0.000    0.000    0.000    0.000    0.000 
#
# Total GULP energy -396441.487698 kJ/mol
# GULP energy per Si atom -12388.796491 kJ/mol
# Density = 1.584462 g / cm^3
# Si number density = 15.880768 Si / 1000 Ang^3
#
#
#
# Elastic Constant Matrix: (Units=GPa)
#
#
# Indices 1 2 3 4 5 6 
#
# 1 122.3890 28.4173 58.6046 0.0000 -9.6390 0.0000
# 2 28.4173 38.1930 27.1072 0.0000 -4.0078 0.0000
# 3 58.6046 27.1072 107.9088 0.0000 -4.0562 0.0000
# 4 0.0000 0.0000 0.0000 16.6069 0.0000 -1.1689
# 5 -9.6390 -4.0078 -4.0562 0.0000 12.3551 0.0000
# 6 0.0000 0.0000 0.0000 -1.1689 0.0000 18.1249
#
#
#
# Elastic Compliance Matrix: (Units=1/GPa)
#
#
# Indices 1 2 3 4 5 6 
#
# 1 0.012281 -0.004757 -0.005237 0.000000 0.006318 0.000000
# 2 -0.004757 0.034468 -0.005866 0.000000 0.005543 0.000000
# 3 -0.005237 -0.005866 0.013527 0.000000 -0.001548 0.000000
# 4 0.000000 0.000000 0.000000 0.060490 0.000000 0.003901
# 5 0.006318 0.005543 -0.001548 0.000000 0.087158 0.000000
# 6 0.000000 0.000000 0.000000 0.003901 0.000000 0.055424
#
#
# Mechanical properties :
#
#
# Convention : Reuss Voigt Hill
#
# Bulk Modulus (GPa) = 35.02173 55.19434 45.10804
# Shear Modulus (GPa) = 16.41565 19.70815 18.06190
#
# Velocity S-wave (km/s) = 3.21858 3.52661 3.37611
# Velocity P-wave (km/s) = 5.99276 7.17033 6.60783
#
# Compressibility (1/GPa) = 0.02855370
#
# Stress axis : x y z
#
# Youngs Moduli (GPa) = 81.42969 29.01251 73.92783
#
# Poissons Ratio (x) = 0.13802 0.38715
# Poissons Ratio (y) = 0.38739 0.43369
# Poissons Ratio (z) = 0.42644 0.17020
#
# Static dielectric constant tensor:
#      x y z
#    x 3.662910 0.000000 0.289950 
#    y 0.000000 2.913350 0.000000 
#    z 0.289950 0.000000 3.550040 
# 
# 
# High freq. dielectric constant tensor:
#      x y z
#    x 1.604930 0.000000 -0.000450 
#    y 0.000000 1.608100 0.000000 
#    z -0.000450 0.000000 1.591950 
# 
# From -- ./inp_files/51261.got.cif
#   From: 2010.06.25/outbox.cif.g09.slc.cpg/sg11_26_cif.got.tgz:51261.got - 2010.06.27 23:14:04.
