data_PCOD8070669
_publ_section_title
;
Structure prediction by ZEFSAII (Michael W. Deem and Ramdas Pophale) SiO2 
 PCOD8070669
Probable space group: P 21/M
;
_chemical_formula_sum "Si O2"
_cell_formula_units_Z 28
_cell_length_a 12.494529
_cell_length_b 8.837622
_cell_length_c 14.639756
_cell_angle_alpha 90.000000
_cell_angle_beta 115.260382
_cell_angle_gamma 90.000000
_cell_volume 1461.972018
_symmetry_space_group_name_H-M "P 21/M"
_symmetry_group_IT_number 11
_symmetry_cell_setting 'monoclinic'
loop_
_space_group_symop_operation_xyz
x,y,z
-x,1/2+y,-z
-x,-y,-z
x,1/2-y,z
loop_
_atom_site_type_symbol
_atom_site_label
_atom_site_fract_x
_atom_site_fract_y
_atom_site_fract_z
Si Si1 0.447960 0.928992 0.260250
Si Si2 0.044190 0.428688 0.330931
Si Si3 0.286741 0.071312 0.330931
Si Si4 0.609474 0.419333 0.465766
Si Si5 0.445537 0.071855 0.891075
Si Si6 0.187710 0.428992 0.739751
Si Si7 0.856291 0.419333 0.465765
O O1 0.442014 0.750000 0.266547
O O2 0.477611 0.981054 0.168236
O O3 0.321596 0.000941 0.245154
O O4 0.550877 0.990591 0.362186
O O5 0.037736 0.250000 0.328308
O O6 0.155952 0.484723 0.311905
O O7 0.046680 0.486927 0.438362
O O8 0.923558 0.499059 0.245154
O O9 0.290572 0.250000 0.328308
O O10 0.391682 0.013073 0.438362
O O11 0.555027 0.250000 0.457404
O O12 0.747294 0.405190 0.494589
O O13 0.451365 0.250000 0.902730
O O14 0.309375 0.018946 0.831764
O O15 0.500000 0.000000 0.000000
O O16 0.175467 0.250000 0.733454
O O17 0.188691 0.490590 0.637814
O O18 0.902377 0.250000 0.457403
#
# Coordination Sequence:
#
# PCOD8070669 Si02
#       7
#     4   4   4   4   4   4   4
#     4  11  21  36  56  79 110 144 182 228 280 331
#     4  10  21  35  52  78 113 151 188 225 267 322
#     4  10  21  35  52  78 113 151 188 225 267 322
#     4  10  19  31  50  78 111 150 190 225 268 325
#     4  10  24  42  62  86 110 140 180 234 289 334
#     4  11  21  36  56  79 110 144 182 228 280 331
#     4  10  19  31  50  78 111 150 190 225 268 325
#
# _framework density 19.152211999999999
#
# number of rings (size 3 to 8) (size 9 to 14) (size 15 to 20)
#    0.000    1.714    1.429    3.429    0.000    5.143 
#    0.000    0.000    0.000    0.857    0.000    0.000 
#    0.000    0.000    0.000    0.000    0.000    0.000 
#
# Total GULP energy -347165.634807 kJ/mol
# GULP energy per Si atom -12398.772672 kJ/mol
# Density = 1.910862 g / cm^3
# Si number density = 19.152212 Si / 1000 Ang^3
#
#
#
# Elastic Constant Matrix: (Units=GPa)
#
#
# Indices 1 2 3 4 5 6 
#
# 1 122.2140 52.8889 76.4744 0.0000 0.0000 0.0000
# 2 52.8889 77.0590 40.8640 0.0000 -0.0001 0.0000
# 3 76.4744 40.8640 112.4984 0.0000 0.0001 0.0000
# 4 0.0000 0.0000 0.0000 28.9440 0.0000 0.0000
# 5 0.0000 -0.0001 0.0001 0.0000 24.7238 0.0000
# 6 0.0000 0.0000 0.0000 0.0000 0.0000 32.4124
#
#
#
# Elastic Compliance Matrix: (Units=1/GPa)
#
#
# Indices 1 2 3 4 5 6 
#
# 1 0.016641 -0.006716 -0.008872 0.000000 0.000000 0.000000
# 2 -0.006716 0.018784 -0.002257 0.000000 0.000000 0.000000
# 3 -0.008872 -0.002257 0.015740 0.000000 0.000000 0.000000
# 4 0.000000 0.000000 0.000000 0.034549 0.000000 0.000000
# 5 0.000000 0.000000 0.000000 0.000000 0.040447 0.000000
# 6 0.000000 0.000000 0.000000 0.000000 0.000000 0.030852
#
#
# Mechanical properties :
#
#
# Convention : Reuss Voigt Hill
#
# Bulk Modulus (GPa) = 64.63045 72.46956 68.55001
# Shear Modulus (GPa) = 25.26996 26.65233 25.96115
#
# Velocity S-wave (km/s) = 3.63633 3.73447 3.68573
# Velocity P-wave (km/s) = 7.17283 7.51771 7.34729
#
# Compressibility (1/GPa) = 0.01547258
#
# Stress axis : x y z
#
# Youngs Moduli (GPa) = 60.09359 53.23727 63.53095
#
# Poissons Ratio (x) = 0.35755 0.56368
# Poissons Ratio (y) = 0.40360 0.14342
# Poissons Ratio (z) = 0.53318 0.12018
#
# Static dielectric constant tensor:
#      x y z
#    x 4.164430 0.000000 0.000000 
#    y 0.000000 3.626740 0.000000 
#    z 0.000000 0.000000 3.729830 
# 
# 
# High freq. dielectric constant tensor:
#      x y z
#    x 1.778920 0.000000 0.000000 
#    y 0.000000 1.757010 0.000000 
#    z 0.000000 0.000000 1.689570 
# 
# From -- ./inp_files/51446.got.cif
#   From: 2010.06.25/outbox.cif.g09.slc.cpg/sg11_26_cif.got.tgz:51446.got - 2010.06.27 23:14:04.
