data_PCOD8070590
_publ_section_title
;
Structure prediction by ZEFSAII (Michael W. Deem and Ramdas Pophale) SiO2 
 PCOD8070590
Probable space group: P 21/M
;
_chemical_formula_sum "Si O2"
_cell_formula_units_Z 32
_cell_length_a 11.602042
_cell_length_b 8.440375
_cell_length_c 20.992497
_cell_angle_alpha 90.000000
_cell_angle_beta 120.108410
_cell_angle_gamma 90.000000
_cell_volume 1778.342640
_symmetry_space_group_name_H-M "P 21/M"
_symmetry_group_IT_number 11
_symmetry_cell_setting 'monoclinic'
loop_
_space_group_symop_operation_xyz
x,y,z
-x,1/2+y,-z
-x,-y,-z
x,1/2-y,z
loop_
_atom_site_type_symbol
_atom_site_label
_atom_site_fract_x
_atom_site_fract_y
_atom_site_fract_z
Si Si1 0.628916 0.932863 0.361119
Si Si2 0.378353 0.934021 0.506119
Si Si3 0.387829 0.436729 0.224522
Si Si4 0.877838 0.566655 0.628180
Si Si5 0.930561 0.564685 0.417884
Si Si6 0.981813 0.935367 0.082965
Si Si7 0.213525 0.430579 0.067235
Si Si8 0.843934 0.431808 0.756530
O O1 0.620038 0.750000 0.378908
O O2 0.774654 0.975000 0.375658
O O3 0.592091 0.040365 0.411415
O O4 0.523771 0.971426 0.276663
O O5 0.358315 0.750000 0.485614
O O6 0.500000 0.000000 0.500000
O O7 0.245623 0.028727 0.451807
O O8 0.416060 0.250000 0.229855
O O9 0.335839 0.508488 0.141172
O O10 0.276692 0.466040 0.248132
O O11 0.879218 0.750000 0.645873
O O12 0.012155 0.520789 0.628613
O O13 0.868130 0.469507 0.690166
O O14 0.960043 0.750000 0.421239
O O15 0.000000 0.500000 0.500000
O O16 0.003583 0.750000 0.070845
O O17 0.015076 0.962022 0.166864
O O18 0.082068 0.047126 0.072852
O O19 0.830229 0.985775 0.017208
O O20 0.255337 0.250000 0.076064
O O21 0.800094 0.250000 0.750899
#
# Coordination Sequence:
#
# PCOD8070590 Si02
#       8
#     4   4   4   4   4   4   4   4
#     4  11  23  38  55  76 102 131 168 209 255 304
#     4  12  24  38  56  76 103 134 169 206 251 305
#     4  10  19  31  49  75 108 141 172 208 253 303
#     4  12  24  38  55  76 103 133 170 211 257 306
#     4  11  23  40  61  79  98 127 168 217 261 305
#     4   8  14  25  43  67  97 134 171 206 245 294
#     4   8  14  25  42  67  99 134 170 205 244 294
#     4  10  19  32  50  74 106 140 174 211 255 303
#
# _framework density 17.994284
#
# number of rings (size 3 to 8) (size 9 to 14) (size 15 to 20)
#    0.000    1.750    1.250    4.500    0.000    2.500 
#    0.000    0.000    0.000    0.000    0.000    0.875 
#    0.000    0.000    0.000    0.000    0.000    0.000 
#
# Total GULP energy -396516.982338 kJ/mol
# GULP energy per Si atom -12391.155698 kJ/mol
# Density = 1.795333 g / cm^3
# Si number density = 17.994284 Si / 1000 Ang^3
#
#
#
# Elastic Constant Matrix: (Units=GPa)
#
#
# Indices 1 2 3 4 5 6 
#
# 1 75.8233 17.7133 34.7931 0.0000 17.0084 0.0000
# 2 17.7133 50.4132 11.4285 0.0000 4.4306 0.0000
# 3 34.7931 11.4285 123.1417 0.0000 32.9918 0.0000
# 4 0.0000 0.0000 0.0000 20.7971 0.0000 2.4988
# 5 17.0084 4.4306 32.9918 0.0000 16.2675 0.0000
# 6 0.0000 0.0000 0.0000 2.4988 0.0000 23.3703
#
#
#
# Elastic Compliance Matrix: (Units=1/GPa)
#
#
# Indices 1 2 3 4 5 6 
#
# 1 0.018328 -0.004878 0.000115 0.000000 -0.018067 0.000000
# 2 -0.004878 0.021665 -0.000915 0.000000 0.001056 0.000000
# 3 0.000115 -0.000915 0.017823 0.000000 -0.036017 0.000000
# 4 0.000000 0.000000 0.000000 0.048709 0.000000 -0.005208
# 5 -0.018067 0.001056 -0.036017 0.000000 0.153119 0.000000
# 6 0.000000 0.000000 0.000000 -0.005208 0.000000 0.043346
#
#
# Mechanical properties :
#
#
# Convention : Reuss Voigt Hill
#
# Bulk Modulus (GPa) = 21.52474 41.91645 31.72059
# Shear Modulus (GPa) = 15.15916 24.44987 19.80451
#
# Velocity S-wave (km/s) = 2.90564 3.69013 3.32113
# Velocity P-wave (km/s) = 4.82130 6.44213 5.68972
#
# Compressibility (1/GPa) = 0.04645817
#
# Stress axis : x y z
#
# Youngs Moduli (GPa) = 54.56060 46.15798 56.10803
#
# Poissons Ratio (x) = 0.22516 -0.00643
# Poissons Ratio (y) = 0.26615 0.05136
# Poissons Ratio (z) = -0.00625 0.04225
#
# Static dielectric constant tensor:
#      x y z
#    x 3.050630 0.000000 0.248990 
#    y 0.000000 3.379390 0.000000 
#    z 0.248990 0.000000 3.896810 
# 
# 
# High freq. dielectric constant tensor:
#      x y z
#    x 1.646520 0.000000 0.016520 
#    y 0.000000 1.704770 0.000000 
#    z 0.016520 0.000000 1.717280 
# 
# From -- ./inp_files/64249.got.cif
#   From: 2010.06.25/outbox.cif.g09.slc.cpg/sg11_33_cif.got.tgz:64249.got - 2010.06.27 23:14:04.
