data_PCOD8070819
_publ_section_title
;
Structure prediction by ZEFSAII (Michael W. Deem and Ramdas Pophale) SiO2 
 PCOD8070819
Probable space group: P 21/M
;
_chemical_formula_sum "Si O2"
_cell_formula_units_Z 32
_cell_length_a 16.806438
_cell_length_b 8.813117
_cell_length_c 30.428166
_cell_angle_alpha 90.000000
_cell_angle_beta 25.429250
_cell_angle_gamma 90.000000
_cell_volume 1935.259578
_symmetry_space_group_name_H-M "P 21/M"
_symmetry_group_IT_number 11
_symmetry_cell_setting 'monoclinic'
loop_
_space_group_symop_operation_xyz
x,y,z
-x,1/2+y,-z
-x,-y,-z
x,1/2-y,z
loop_
_atom_site_type_symbol
_atom_site_label
_atom_site_fract_x
_atom_site_fract_y
_atom_site_fract_z
Si Si1 0.079482 0.924168 0.916277
Si Si2 0.723099 0.927100 0.934149
Si Si3 0.850758 0.427522 0.954658
Si Si4 0.861595 0.426793 0.684173
Si Si5 0.476704 0.075349 0.835336
Si Si6 0.520530 0.422907 0.255362
Si Si7 0.293205 0.929068 0.148848
Si Si8 0.113080 0.071322 0.483666
O O1 0.015378 0.750000 0.949617
O O2 0.302489 0.937702 0.801145
O O3 0.000000 0.000000 0.000000
O O4 0.003957 0.999471 0.909775
O O5 0.760476 0.750000 0.918209
O O6 0.778784 0.985613 0.858230
O O7 0.508465 0.966673 0.051279
O O8 0.859876 0.007797 0.900646
O O9 0.885541 0.250000 0.936377
O O10 0.647648 0.465617 0.073605
O O11 0.884265 0.250000 0.680686
O O12 0.687684 0.463111 0.740107
O O13 0.828908 0.494681 0.749326
O O14 0.036725 0.490795 0.569057
O O15 0.426776 0.250000 0.870942
O O16 0.440887 0.040717 0.802566
O O17 0.504499 0.250000 0.245318
O O18 0.330652 0.469499 0.374504
O O19 0.269102 0.750000 0.153875
O O20 0.077361 0.250000 0.498568
O O21 0.000000 0.000000 0.500000
#
# Coordination Sequence:
#
# PCOD8070819 Si02
#       8
#     4   4   4   4   4   4   4   4
#     4  11  22  35  50  71  98 132 169 210 250 293
#     4  10  19  32  49  72 100 130 162 200 245 294
#     4  12  23  34  49  72  99 133 170 206 247 296
#     4   9  17  30  48  71  99 133 168 198 240 291
#     4  11  19  30  49  71  98 134 169 204 244 289
#     4  10  21  34  48  70 100 130 168 211 249 288
#     4   9  17  31  48  70  99 131 164 198 239 294
#     4  10  19  32  49  72  99 132 168 205 243 289
#
# _framework density 16.535250000000001
#
# number of rings (size 3 to 8) (size 9 to 14) (size 15 to 20)
#    0.000    1.750    3.750    2.250    0.000    1.000 
#    0.000    0.625    0.000    0.000    0.000    0.875 
#    0.000    0.000    0.000    0.000    0.000    0.000 
#
# Total GULP energy -396677.462634 kJ/mol
# GULP energy per Si atom -12396.170707 kJ/mol
# Density = 1.649762 g / cm^3
# Si number density = 16.535250 Si / 1000 Ang^3
#
#
#
# Elastic Constant Matrix: (Units=GPa)
#
#
# Indices 1 2 3 4 5 6 
#
# 1 127.9127 51.0892 47.8870 0.0000 10.5651 0.0000
# 2 51.0892 74.3208 25.3714 0.0000 2.6319 0.0000
# 3 47.8870 25.3714 84.3752 0.0000 8.3397 0.0000
# 4 0.0000 0.0000 0.0000 14.4002 0.0000 1.7141
# 5 10.5651 2.6319 8.3397 0.0000 24.3273 0.0000
# 6 0.0000 0.0000 0.0000 1.7141 0.0000 27.9249
#
#
#
# Elastic Compliance Matrix: (Units=1/GPa)
#
#
# Indices 1 2 3 4 5 6 
#
# 1 0.012636 -0.006946 -0.004777 0.000000 -0.003099 0.000000
# 2 -0.006946 0.018813 -0.001875 0.000000 0.001624 0.000000
# 3 -0.004777 -0.001875 0.015424 0.000000 -0.003010 0.000000
# 4 0.000000 0.000000 0.000000 0.069955 0.000000 -0.004294
# 5 -0.003099 0.001624 -0.003010 0.000000 0.043308 0.000000
# 6 0.000000 0.000000 0.000000 -0.004294 0.000000 0.036074
#
#
# Mechanical properties :
#
#
# Convention : Reuss Voigt Hill
#
# Bulk Modulus (GPa) = 50.82030 59.47822 55.14926
# Shear Modulus (GPa) = 21.74241 24.14788 22.94515
#
# Velocity S-wave (km/s) = 3.63011 3.82565 3.72916
# Velocity P-wave (km/s) = 6.95496 7.45404 7.20882
#
# Compressibility (1/GPa) = 0.01967718
#
# Stress axis : x y z
#
# Youngs Moduli (GPa) = 79.13667 53.15578 64.83270
#
# Poissons Ratio (x) = 0.36922 0.30969
# Poissons Ratio (y) = 0.54968 0.12158
# Poissons Ratio (z) = 0.37802 0.09968
#
# Static dielectric constant tensor:
#      x y z
#    x 3.171580 0.000000 0.153030 
#    y 0.000000 3.099770 0.000000 
#    z 0.153030 0.000000 3.287460 
# 
# 
# High freq. dielectric constant tensor:
#      x y z
#    x 1.628400 0.000000 0.008850 
#    y 0.000000 1.634430 0.000000 
#    z 0.008850 0.000000 1.615390 
# 
# From -- ./inp_files/56462.got.cif
#   From: 2010.06.25/outbox.cif.g09.slc.cpg/sg11_29_cif.got.tgz:56462.got - 2010.06.27 23:14:04.
