data_PCOD8070687
_publ_section_title
;
Structure prediction by ZEFSAII (Michael W. Deem and Ramdas Pophale) SiO2 
 PCOD8070687
Probable space group: P 21/M
;
_chemical_formula_sum "Si O2"
_cell_formula_units_Z 28
_cell_length_a 11.281991
_cell_length_b 9.294297
_cell_length_c 16.455476
_cell_angle_alpha 90.000000
_cell_angle_beta 120.096572
_cell_angle_gamma 90.000000
_cell_volume 1492.862920
_symmetry_space_group_name_H-M "P 21/M"
_symmetry_group_IT_number 11
_symmetry_cell_setting 'monoclinic'
loop_
_space_group_symop_operation_xyz
x,y,z
-x,1/2+y,-z
-x,-y,-z
x,1/2-y,z
loop_
_atom_site_type_symbol
_atom_site_label
_atom_site_fract_x
_atom_site_fract_y
_atom_site_fract_z
Si Si1 0.383072 0.083140 0.664001
Si Si2 0.896649 0.583618 0.521574
Si Si3 0.653291 0.581442 0.730082
Si Si4 0.171475 0.580875 0.887724
Si Si5 0.387428 0.582895 0.827087
Si Si6 0.098525 0.421018 0.293680
Si Si7 0.699769 0.914057 0.929742
O O1 0.416255 0.250000 0.690811
O O2 0.259083 0.062006 0.559354
O O3 0.514680 0.007425 0.669323
O O4 0.340727 0.010617 0.734264
O O5 0.939501 0.750000 0.533713
O O6 0.908305 0.520564 0.616772
O O7 0.000000 0.500000 0.500000
O O8 0.618230 0.750000 0.709073
O O9 0.761910 0.526347 0.701024
O O10 0.717464 0.551039 0.840771
O O11 0.163030 0.750000 0.898012
O O12 0.295939 0.537011 0.871709
O O13 0.031434 0.519851 0.801087
O O14 0.195082 0.510968 0.983650
O O15 0.366287 0.750000 0.796624
O O16 0.544518 0.550973 0.903373
O O17 0.095383 0.250000 0.293101
O O18 0.736859 0.750000 0.961292
#
# Coordination Sequence:
#
# PCOD8070687 Si02
#       7
#     4   4   4   4   4   4   4
#     4  10  20  33  53  81 107 131 166 216 262 295
#     4  10  21  37  57  81 108 136 167 207 255 305
#     4   9  19  37  56  73  99 139 178 207 248 308
#     4  10  19  31  51  76 100 134 177 214 252 301
#     4   9  18  33  52  75 104 139 174 205 250 315
#     4   9  19  36  55  74 101 138 177 211 246 303
#     4   9  18  31  48  72 102 135 172 214 257 302
#
# _framework density 18.755908000000002
#
# number of rings (size 3 to 8) (size 9 to 14) (size 15 to 20)
#    0.000    2.571    0.000    2.571    0.000    6.286 
#    0.000    2.143    0.000    0.000    0.000    0.000 
#    0.000    0.000    0.000    0.000    0.000    0.000 
#
# Total GULP energy -347248.030196 kJ/mol
# GULP energy per Si atom -12401.715364 kJ/mol
# Density = 1.871322 g / cm^3
# Si number density = 18.755908 Si / 1000 Ang^3
#
#
#
# Elastic Constant Matrix: (Units=GPa)
#
#
# Indices 1 2 3 4 5 6 
#
# 1 110.1610 42.2541 57.6580 0.0000 -12.1905 0.0000
# 2 42.2541 58.8406 48.0528 0.0000 2.4027 0.0000
# 3 57.6580 48.0528 115.6504 0.0000 4.9443 0.0000
# 4 0.0000 0.0000 0.0000 28.9383 0.0000 1.4084
# 5 -12.1905 2.4027 4.9443 0.0000 24.2221 0.0000
# 6 0.0000 0.0000 0.0000 1.4084 0.0000 22.7206
#
#
#
# Elastic Compliance Matrix: (Units=1/GPa)
#
#
# Indices 1 2 3 4 5 6 
#
# 1 0.015710 -0.007481 -0.005138 0.000000 0.009697 0.000000
# 2 -0.007481 0.029290 -0.008227 0.000000 -0.004991 0.000000
# 3 -0.005138 -0.008227 0.014832 0.000000 -0.004797 0.000000
# 4 0.000000 0.000000 0.000000 0.034661 0.000000 -0.002149
# 5 0.009697 -0.004991 -0.004797 0.000000 0.047639 0.000000
# 6 0.000000 0.000000 0.000000 -0.002149 0.000000 0.044146
#
#
# Mechanical properties :
#
#
# Convention : Reuss Voigt Hill
#
# Bulk Modulus (GPa) = 55.13037 64.50911 59.81974
# Shear Modulus (GPa) = 21.36612 24.28868 22.82740
#
# Velocity S-wave (km/s) = 3.37882 3.60250 3.49245
# Velocity P-wave (km/s) = 6.68426 7.19532 6.94449
#
# Compressibility (1/GPa) = 0.01813882
#
# Stress axis : x y z
#
# Youngs Moduli (GPa) = 63.65565 34.14192 67.42266
#
# Poissons Ratio (x) = 0.25541 0.34644
# Poissons Ratio (y) = 0.47620 0.55467
# Poissons Ratio (z) = 0.32708 0.28088
#
# Static dielectric constant tensor:
#      x y z
#    x 3.543500 0.000000 -0.022000 
#    y 0.000000 3.248570 0.000000 
#    z -0.022000 0.000000 3.457530 
# 
# 
# High freq. dielectric constant tensor:
#      x y z
#    x 1.731460 0.000000 0.000670 
#    y 0.000000 1.706990 0.000000 
#    z 0.000670 0.000000 1.731780 
# 
# From -- ./inp_files/37385.got.cif
#   From: 2010.06.25/outbox.cif.g09.slc.cpg/sg11_19_cif.got.tgz:37385.got - 2010.06.27 23:14:04.
