data_PCOD8070007
_publ_section_title
;
Structure prediction by ZEFSAII (Michael W. Deem and Ramdas Pophale) SiO2 
 PCOD8070007
Probable space group: P 21/M
;
_chemical_formula_sum "Si O2"
_cell_formula_units_Z 32
_cell_length_a 19.942383
_cell_length_b 9.365823
_cell_length_c 28.474592
_cell_angle_alpha 90.000000
_cell_angle_beta 158.982894
_cell_angle_gamma 90.000000
_cell_volume 1907.424247
_symmetry_space_group_name_H-M "P 21/M"
_symmetry_group_IT_number 11
_symmetry_cell_setting 'monoclinic'
loop_
_space_group_symop_operation_xyz
x,y,z
-x,1/2+y,-z
-x,-y,-z
x,1/2-y,z
loop_
_atom_site_type_symbol
_atom_site_label
_atom_site_fract_x
_atom_site_fract_y
_atom_site_fract_z
Si Si1 0.260202 0.915780 0.099962
Si Si2 0.784997 0.415147 0.187464
Si Si3 0.955957 0.416420 0.778040
Si Si4 0.321972 0.913961 0.035964
Si Si5 0.553096 0.912662 0.101718
Si Si6 0.109762 0.915555 0.158980
Si Si7 0.553086 0.418801 0.684145
Si Si8 0.167033 0.080266 0.389771
O O1 0.212076 0.750000 0.075659
O O2 0.395166 0.972160 0.229612
O O3 0.365325 0.942263 0.119110
O O4 0.066419 0.999046 0.975822
O O5 0.789941 0.250000 0.203008
O O6 0.727517 0.494058 0.198109
O O7 0.987335 0.467594 0.302519
O O8 0.636371 0.452422 0.049908
O O9 0.968684 0.250000 0.773204
O O10 0.860163 0.440358 0.765976
O O11 0.831027 0.500264 0.658783
O O12 0.163358 0.480545 0.913874
O O13 0.254615 0.750000 0.983694
O O14 0.510063 0.942340 0.128658
O O15 0.609346 0.750000 0.129449
O O16 0.073030 0.750000 0.123770
O O17 0.293202 0.974302 0.252543
O O18 0.547652 0.250000 0.679115
O O19 0.348699 0.475590 0.536541
O O20 0.167632 0.250000 0.381135
#
# Coordination Sequence:
#
# PCOD8070007 Si02
#       8
#     4   4   4   4   4   4   4   4
#     4   9  17  30  51  74  91 116 157 196 227 266
#     4   9  17  28  43  65  90 118 150 183 222 271
#     4  10  19  29  44  68  96 123 152 187 230 276
#     4   9  16  29  48  70  95 119 149 189 229 271
#     4   9  16  27  44  67  92 116 145 183 227 271
#     4   9  18  32  48  69  96 121 149 193 239 271
#     4   9  18  32  50  69  90 123 161 191 225 269
#     4  10  19  33  49  64  92 128 157 188 224 270
#
# _framework density 16.776551999999999
#
# number of rings (size 3 to 8) (size 9 to 14) (size 15 to 20)
#    0.000    2.750    1.250    0.750    0.000    2.000 
#    0.000    1.250    0.000    0.750    0.000    0.000 
#    0.000    0.000    0.000    0.000    0.000    0.000 
#
# Total GULP energy -396734.660421 kJ/mol
# GULP energy per Si atom -12397.958138 kJ/mol
# Density = 1.673837 g / cm^3
# Si number density = 16.776552 Si / 1000 Ang^3
#
#
#
# Elastic Constant Matrix: (Units=GPa)
#
#
# Indices 1 2 3 4 5 6 
#
# 1 132.7205 42.1328 68.4450 0.0000 0.6640 0.0000
# 2 42.1328 47.1495 37.1636 0.0000 -2.7915 0.0000
# 3 68.4450 37.1636 103.0051 0.0000 -10.2636 0.0000
# 4 0.0000 0.0000 0.0000 16.6986 0.0000 2.8411
# 5 0.6640 -2.7915 -10.2636 0.0000 19.8459 0.0000
# 6 0.0000 0.0000 0.0000 2.8411 0.0000 22.9172
#
#
#
# Elastic Compliance Matrix: (Units=1/GPa)
#
#
# Indices 1 2 3 4 5 6 
#
# 1 0.013226 -0.006702 -0.006862 0.000000 -0.004934 0.000000
# 2 -0.006702 0.033072 -0.007373 0.000000 0.001063 0.000000
# 3 -0.006862 -0.007373 0.017763 0.000000 0.008379 0.000000
# 4 0.000000 0.000000 0.000000 0.061175 0.000000 -0.007584
# 5 -0.004934 0.001063 0.008379 0.000000 0.055036 0.000000
# 6 0.000000 0.000000 0.000000 -0.007584 0.000000 0.044576
#
#
# Mechanical properties :
#
#
# Convention : Reuss Voigt Hill
#
# Bulk Modulus (GPa) = 45.07094 64.26200 54.66647
# Shear Modulus (GPa) = 18.24038 20.90126 19.57082
#
# Velocity S-wave (km/s) = 3.30093 3.53351 3.41920
# Velocity P-wave (km/s) = 6.43832 7.41858 6.94577
#
# Compressibility (1/GPa) = 0.02218725
#
# Stress axis : x y z
#
# Youngs Moduli (GPa) = 75.61135 30.23664 56.29760
#
# Poissons Ratio (x) = 0.20265 0.38630
# Poissons Ratio (y) = 0.50675 0.41508
# Poissons Ratio (z) = 0.51882 0.22294
#
# Static dielectric constant tensor:
#      x y z
#    x 3.418450 0.000000 -0.015170 
#    y 0.000000 3.058980 0.000000 
#    z -0.015170 0.000000 3.024740 
# 
# 
# High freq. dielectric constant tensor:
#      x y z
#    x 1.659350 0.000000 0.002930 
#    y 0.000000 1.634130 0.000000 
#    z 0.002930 0.000000 1.612320 
# 
# From -- ./inp_files/42491.got.cif
#   From: 2010.06.25/outbox.cif.g09.slc.cpg/sg11_22_cif.got.tgz:42491.got - 2010.06.27 23:14:04.
