data_PCOD8070212
_publ_section_title
;
Structure prediction by ZEFSAII (Michael W. Deem and Ramdas Pophale) SiO2 
 PCOD8070212
Probable space group: P 21/M
;
_chemical_formula_sum "Si O2"
_cell_formula_units_Z 32
_cell_length_a 16.837967
_cell_length_b 9.417466
_cell_length_c 22.977787
_cell_angle_alpha 90.000000
_cell_angle_beta 148.293440
_cell_angle_gamma 90.000000
_cell_volume 1914.968810
_symmetry_space_group_name_H-M "P 21/M"
_symmetry_group_IT_number 11
_symmetry_cell_setting 'monoclinic'
loop_
_space_group_symop_operation_xyz
x,y,z
-x,1/2+y,-z
-x,-y,-z
x,1/2-y,z
loop_
_atom_site_type_symbol
_atom_site_label
_atom_site_fract_x
_atom_site_fract_y
_atom_site_fract_z
Si Si1 0.057386 0.582859 0.895651
Si Si2 0.807860 0.588564 0.321299
Si Si3 0.908365 0.084238 0.569560
Si Si4 0.654944 0.416249 0.327202
Si Si5 0.881296 0.909515 0.892994
Si Si6 0.313130 0.416189 0.126135
Si Si7 0.947986 0.582454 0.224959
Si Si8 0.645203 0.591565 0.100597
O O1 0.093335 0.750000 0.909665
O O2 0.018810 0.509634 0.811000
O O3 0.902277 0.559766 0.837129
O O4 0.201703 0.508329 0.016257
O O5 0.825233 0.750000 0.354869
O O6 0.746502 0.492531 0.334261
O O7 0.689163 0.581302 0.195085
O O8 0.967545 0.522672 0.398569
O O9 0.947960 0.250000 0.596615
O O10 0.739652 0.051529 0.441516
O O11 0.932316 0.030486 0.650732
O O12 0.658334 0.250000 0.316038
O O13 0.483418 0.471864 0.223382
O O14 0.931938 0.750000 0.936310
O O15 0.720671 0.937346 0.825077
O O16 0.000000 0.000000 0.000000
O O17 0.297109 0.250000 0.098826
O O18 0.963542 0.750000 0.220672
O O19 0.781497 0.542786 0.143936
O O20 0.599895 0.750000 0.055203
O O21 0.500000 0.500000 0.000000
#
# Coordination Sequence:
#
# PCOD8070212 Si02
#       8
#     4   4   4   4   4   4   4   4
#     4  10  19  30  48  72  95 120 154 190 227 277
#     4   9  18  32  47  65  91 123 154 189 234 271
#     4   8  16  33  51  66  89 122 160 194 225 266
#     4  10  19  30  49  73  92 117 156 196 227 270
#     4   8  15  29  46  65  92 123 149 181 226 275
#     4   9  18  31  47  70  98 123 149 184 232 281
#     4   9  18  33  50  66  89 123 158 190 227 270
#     4   9  19  32  45  62  89 124 154 184 226 271
#
# _framework density 16.710453999999999
#
# number of rings (size 3 to 8) (size 9 to 14) (size 15 to 20)
#    0.000    3.000    0.000    2.250    1.750    2.000 
#    0.000    2.500    0.000    0.750    0.000    0.000 
#    0.000    0.000    0.000    0.000    0.000    0.625 
#
# Total GULP energy -396427.858277 kJ/mol
# GULP energy per Si atom -12388.370571 kJ/mol
# Density = 1.667242 g / cm^3
# Si number density = 16.710454 Si / 1000 Ang^3
#
#
#
# Elastic Constant Matrix: (Units=GPa)
#
#
# Indices 1 2 3 4 5 6 
#
# 1 108.9026 39.6075 50.4976 0.0000 -20.2669 0.0000
# 2 39.6075 47.4145 26.7583 0.0000 -8.5634 0.0000
# 3 50.4976 26.7583 69.1577 0.0000 -5.7082 0.0000
# 4 0.0000 0.0000 0.0000 17.1655 0.0000 -2.9650
# 5 -20.2669 -8.5634 -5.7082 0.0000 18.1342 0.0000
# 6 0.0000 0.0000 0.0000 -2.9650 0.0000 26.7743
#
#
#
# Elastic Compliance Matrix: (Units=1/GPa)
#
#
# Indices 1 2 3 4 5 6 
#
# 1 0.019419 -0.007973 -0.009871 0.000000 0.014831 0.000000
# 2 -0.007973 0.032030 -0.006220 0.000000 0.004257 0.000000
# 3 -0.009871 -0.006220 0.023532 0.000000 -0.006561 0.000000
# 4 0.000000 0.000000 0.000000 0.059392 0.000000 0.006577
# 5 0.014831 0.004257 -0.006561 0.000000 0.071665 0.000000
# 6 0.000000 0.000000 0.000000 0.006577 0.000000 0.038078
#
#
# Mechanical properties :
#
#
# Convention : Reuss Voigt Hill
#
# Bulk Modulus (GPa) = 37.23785 51.02239 44.13012
# Shear Modulus (GPa) = 16.60062 19.65557 18.12809
#
# Velocity S-wave (km/s) = 3.15529 3.43336 3.29726
# Velocity P-wave (km/s) = 5.96716 6.80564 6.40015
#
# Compressibility (1/GPa) = 0.02685440
#
# Stress axis : x y z
#
# Youngs Moduli (GPa) = 51.49534 31.22113 42.49513
#
# Poissons Ratio (x) = 0.24892 0.41945
# Poissons Ratio (y) = 0.41056 0.26432
# Poissons Ratio (z) = 0.50829 0.19419
#
# Static dielectric constant tensor:
#      x y z
#    x 3.772460 0.000000 0.038770 
#    y 0.000000 3.068530 0.000000 
#    z 0.038770 0.000000 3.050320 
# 
# 
# High freq. dielectric constant tensor:
#      x y z
#    x 1.646480 0.000000 -0.006080 
#    y 0.000000 1.634150 0.000000 
#    z -0.006080 0.000000 1.624450 
# 
# From -- ./inp_files/43783.got.cif
#   From: 2010.06.25/outbox.cif.g09.slc.cpg/sg11_22_cif.got.tgz:43783.got - 2010.06.27 23:14:04.
