data_PCOD8070262
_publ_section_title
;
Structure prediction by ZEFSAII (Michael W. Deem and Ramdas Pophale) SiO2 
 PCOD8070262
Probable space group: P 21/M
;
_chemical_formula_sum "Si O2"
_cell_formula_units_Z 28
_cell_length_a 19.093094
_cell_length_b 8.975367
_cell_length_c 14.218607
_cell_angle_alpha 90.000000
_cell_angle_beta 137.439010
_cell_angle_gamma 90.000000
_cell_volume 1648.059520
_symmetry_space_group_name_H-M "P 21/M"
_symmetry_group_IT_number 11
_symmetry_cell_setting 'monoclinic'
loop_
_space_group_symop_operation_xyz
x,y,z
-x,1/2+y,-z
-x,-y,-z
x,1/2-y,z
loop_
_atom_site_type_symbol
_atom_site_label
_atom_site_fract_x
_atom_site_fract_y
_atom_site_fract_z
Si Si1 0.800393 0.925839 0.585505
Si Si2 0.887204 0.422575 0.498178
Si Si3 0.400231 0.576165 0.290843
Si Si4 0.001094 0.573341 0.900289
Si Si5 0.102750 0.578239 0.702927
Si Si6 0.387151 0.577187 0.495661
Si Si7 0.200949 0.924229 0.988485
O O1 0.791002 0.750000 0.571596
O O2 0.899868 0.978121 0.743296
O O3 0.810123 0.987574 0.489254
O O4 0.698312 0.989843 0.531195
O O5 0.881717 0.250000 0.519405
O O6 0.850851 0.451448 0.354602
O O7 0.004579 0.476059 0.626707
O O8 0.422588 0.750000 0.294400
O O9 0.368007 0.548421 0.366654
O O10 0.501275 0.483695 0.363153
O O11 0.307700 0.509596 0.134875
O O12 0.003897 0.750000 0.914072
O O13 0.101191 0.510878 0.944086
O O14 0.000000 0.500000 0.000000
O O15 0.066233 0.750000 0.677555
O O16 0.190848 0.540343 0.867218
O O17 0.380642 0.750000 0.514864
O O18 0.204293 0.750000 0.011811
#
# Coordination Sequence:
#
# PCOD8070262 Si02
#       7
#     4   4   4   4   4   4   4
#     4  11  21  34  52  72 101 137 170 205 249 303
#     4  10  19  30  49  75 102 132 167 209 251 296
#     4   9  18  33  54  75  98 132 170 206 248 299
#     4  10  20  32  47  70 102 135 163 198 245 296
#     4   9  17  32  51  72 101 134 168 205 250 302
#     4  10  20  34  52  74 102 131 169 215 249 290
#     4   9  16  31  52  72  98 132 166 200 244 300
#
# _framework density 16.989678000000001
#
# number of rings (size 3 to 8) (size 9 to 14) (size 15 to 20)
#    0.000    2.286    1.429    2.143    0.000    3.429 
#    0.000    1.429    0.000    0.857    0.000    0.000 
#    0.000    0.000    0.000    0.000    0.000    0.000 
#
# Total GULP energy -347212.876684 kJ/mol
# GULP energy per Si atom -12400.459882 kJ/mol
# Density = 1.695101 g / cm^3
# Si number density = 16.989678 Si / 1000 Ang^3
#
#
#
# Elastic Constant Matrix: (Units=GPa)
#
#
# Indices 1 2 3 4 5 6 
#
# 1 114.0307 52.9508 74.4211 0.0000 -1.6732 0.0000
# 2 52.9508 61.2483 37.7659 0.0000 0.6978 0.0000
# 3 74.4211 37.7659 134.0506 0.0000 -3.2929 0.0000
# 4 0.0000 0.0000 0.0000 18.0913 0.0000 -1.9496
# 5 -1.6732 0.6978 -3.2929 0.0000 24.3277 0.0000
# 6 0.0000 0.0000 0.0000 -1.9496 0.0000 28.4770
#
#
#
# Elastic Compliance Matrix: (Units=1/GPa)
#
#
# Indices 1 2 3 4 5 6 
#
# 1 0.019059 -0.012067 -0.007164 0.000000 0.000687 0.000000
# 2 -0.012067 0.027442 -0.001075 0.000000 -0.001763 0.000000
# 3 -0.007164 -0.001075 0.011768 0.000000 0.001131 0.000000
# 4 0.000000 0.000000 0.000000 0.055686 0.000000 0.003812
# 5 0.000687 -0.001763 0.001131 0.000000 0.041356 0.000000
# 6 0.000000 0.000000 0.000000 0.003812 0.000000 0.035377
#
#
# Mechanical properties :
#
#
# Convention : Reuss Voigt Hill
#
# Bulk Modulus (GPa) = 56.63886 71.06724 63.85305
# Shear Modulus (GPa) = 21.08036 23.79199 22.43617
#
# Velocity S-wave (km/s) = 3.52628 3.74622 3.63792
# Velocity P-wave (km/s) = 7.07030 7.78670 7.43713
#
# Compressibility (1/GPa) = 0.01765572
#
# Stress axis : x y z
#
# Youngs Moduli (GPa) = 52.46901 36.43988 84.97567
#
# Poissons Ratio (x) = 0.43972 0.60880
# Poissons Ratio (y) = 0.63315 0.09138
# Poissons Ratio (z) = 0.37591 0.03918
#
# Static dielectric constant tensor:
#      x y z
#    x 3.187150 0.000000 -0.102070 
#    y 0.000000 3.125090 0.000000 
#    z -0.102070 0.000000 3.305880 
# 
# 
# High freq. dielectric constant tensor:
#      x y z
#    x 1.650230 0.000000 -0.009290 
#    y 0.000000 1.649030 0.000000 
#    z -0.009290 0.000000 1.648130 
# 
# From -- ./inp_files/42371.got.cif
#   From: 2010.06.25/outbox.cif.g09.slc.cpg/sg11_22_cif.got.tgz:42371.got - 2010.06.27 23:14:04.
