data_PCOD8070846
_publ_section_title
;
Structure prediction by ZEFSAII (Michael W. Deem and Ramdas Pophale) SiO2 
 PCOD8070846
Probable space group: P 21/M
;
_chemical_formula_sum "Si O2"
_cell_formula_units_Z 32
_cell_length_a 21.252366
_cell_length_b 9.303551
_cell_length_c 12.027989
_cell_angle_alpha 90.000000
_cell_angle_beta 52.056080
_cell_angle_gamma 90.000000
_cell_volume 1875.482296
_symmetry_space_group_name_H-M "P 21/M"
_symmetry_group_IT_number 11
_symmetry_cell_setting 'monoclinic'
loop_
_space_group_symop_operation_xyz
x,y,z
-x,1/2+y,-z
-x,-y,-z
x,1/2-y,z
loop_
_atom_site_type_symbol
_atom_site_label
_atom_site_fract_x
_atom_site_fract_y
_atom_site_fract_z
Si Si1 0.905441 0.917280 0.498373
Si Si2 0.329639 0.416472 0.077269
Si Si3 0.728120 0.580180 0.628867
Si Si4 0.055425 0.416417 0.294928
Si Si5 0.667008 0.082277 0.256243
Si Si6 0.784889 0.919151 0.990372
Si Si7 0.454088 0.082118 0.766052
Si Si8 0.634595 0.084143 0.548155
O O1 0.920254 0.750000 0.466764
O O2 0.820444 0.963425 0.541832
O O3 0.908972 0.961538 0.624065
O O4 0.975070 0.997236 0.354281
O O5 0.310083 0.250000 0.112912
O O6 0.320415 0.482232 0.210831
O O7 0.263089 0.477117 0.065282
O O8 0.416961 0.444833 0.929550
O O9 0.717519 0.750000 0.626998
O O10 0.695810 0.506163 0.554125
O O11 0.033202 0.250000 0.318388
O O12 0.121585 0.451268 0.129120
O O13 0.668728 0.250000 0.223654
O O14 0.655743 0.056627 0.398128
O O15 0.751155 0.008236 0.131622
O O16 0.593117 0.008522 0.274158
O O17 0.768794 0.750000 0.027155
O O18 0.447242 0.250000 0.740541
O O19 0.544927 0.029705 0.669721
O O20 0.642965 0.250000 0.571887
#
# Coordination Sequence:
#
# PCOD8070846 Si02
#       8
#     4   4   4   4   4   4   4   4
#     4   9  17  29  46  72 104 131 157 194 237 284
#     4   8  14  28  49  71  95 126 159 194 238 283
#     4  10  19  32  50  70  98 135 167 195 233 289
#     4   9  16  28  49  75 101 129 159 192 237 290
#     4  10  20  33  50  73 100 124 158 211 254 282
#     4   9  16  30  52  74  99 129 161 197 241 294
#     4   9  18  34  55  72  93 127 163 202 249 296
#     4  10  22  36  48  69  99 131 165 204 248 287
#
# _framework density 17.062279
#
# number of rings (size 3 to 8) (size 9 to 14) (size 15 to 20)
#    0.000    2.750    1.250    1.500    0.000    3.000 
#    0.000    2.500    0.000    0.750    0.000    0.000 
#    0.000    0.000    0.000    0.000    0.000    0.000 
#
# Total GULP energy -396709.589272 kJ/mol
# GULP energy per Si atom -12397.174665 kJ/mol
# Density = 1.702344 g / cm^3
# Si number density = 17.062279 Si / 1000 Ang^3
#
#
#
# Elastic Constant Matrix: (Units=GPa)
#
#
# Indices 1 2 3 4 5 6 
#
# 1 101.5817 53.1342 72.8295 0.0000 -12.0841 0.0000
# 2 53.1342 57.7348 47.1747 0.0000 -9.1022 0.0000
# 3 72.8295 47.1747 91.2311 0.0000 -27.6501 0.0000
# 4 0.0000 0.0000 0.0000 26.8066 0.0000 -2.6064
# 5 -12.0841 -9.1022 -27.6501 0.0000 24.3461 0.0000
# 6 0.0000 0.0000 0.0000 -2.6064 0.0000 26.3607
#
#
#
# Elastic Compliance Matrix: (Units=1/GPa)
#
#
# Indices 1 2 3 4 5 6 
#
# 1 0.030796 -0.011894 -0.023101 0.000000 -0.015397 0.000000
# 2 -0.011894 0.036189 -0.010531 0.000000 -0.004334 0.000000
# 3 -0.023101 -0.010531 0.046020 0.000000 0.036862 0.000000
# 4 0.000000 0.000000 0.000000 0.037666 0.000000 0.003724
# 5 -0.015397 -0.004334 0.036862 0.000000 0.073676 0.000000
# 6 0.000000 0.000000 0.000000 0.003724 0.000000 0.038304
#
#
# Mechanical properties :
#
#
# Convention : Reuss Voigt Hill
#
# Bulk Modulus (GPa) = 45.55247 66.31379 55.93313
# Shear Modulus (GPa) = 13.84960 20.66329 17.25644
#
# Velocity S-wave (km/s) = 2.85214 3.48379 3.18367
# Velocity P-wave (km/s) = 6.13205 7.42513 6.80935
#
# Compressibility (1/GPa) = 0.02195271
#
# Stress axis : x y z
#
# Youngs Moduli (GPa) = 32.47141 27.63280 21.72972
#
# Poissons Ratio (x) = 0.32868 0.50197
# Poissons Ratio (y) = 0.38623 0.22884
# Poissons Ratio (z) = 0.75011 0.29101
#
# Static dielectric constant tensor:
#      x y z
#    x 2.990490 0.000000 -0.201790 
#    y 0.000000 3.045040 0.000000 
#    z -0.201790 0.000000 3.380140 
# 
# 
# High freq. dielectric constant tensor:
#      x y z
#    x 1.634720 0.000000 -0.018550 
#    y 0.000000 1.643260 0.000000 
#    z -0.018550 0.000000 1.663590 
# 
# From -- ./inp_files/42490.got.cif
#   From: 2010.06.25/outbox.cif.g09.slc.cpg/sg11_22_cif.got.tgz:42490.got - 2010.06.27 23:14:04.
