data_PCOD8070860
_publ_section_title
;
Structure prediction by ZEFSAII (Michael W. Deem and Ramdas Pophale) SiO2 
 PCOD8070860
Probable space group: P 21/M
;
_chemical_formula_sum "Si O2"
_cell_formula_units_Z 32
_cell_length_a 20.403898
_cell_length_b 10.394945
_cell_length_c 9.966876
_cell_angle_alpha 90.000000
_cell_angle_beta 58.245117
_cell_angle_gamma 90.000000
_cell_volume 1797.505968
_symmetry_space_group_name_H-M "P 21/M"
_symmetry_group_IT_number 11
_symmetry_cell_setting 'monoclinic'
loop_
_space_group_symop_operation_xyz
x,y,z
-x,1/2+y,-z
-x,-y,-z
x,1/2-y,z
loop_
_atom_site_type_symbol
_atom_site_label
_atom_site_fract_x
_atom_site_fract_y
_atom_site_fract_z
Si Si1 0.566154 0.896161 0.945465
Si Si2 0.736384 0.895518 0.267833
Si Si3 0.194434 0.611523 0.148275
Si Si4 0.835950 0.398957 0.528304
Si Si5 0.684441 0.603164 0.040804
Si Si6 0.112880 0.959134 0.978587
Si Si7 0.293635 0.102135 0.402596
Si Si8 0.034255 0.889706 0.800506
O O1 0.533328 0.750000 0.974888
O O2 0.626610 0.917406 0.760757
O O3 0.604531 0.921264 0.050077
O O4 0.500000 0.000000 0.000000
O O5 0.765148 0.750000 0.231327
O O6 0.676862 0.923100 0.208982
O O7 0.692337 0.924493 0.454067
O O8 0.814329 0.976032 0.171580
O O9 0.238882 0.750000 0.108398
O O10 0.141959 0.597353 0.338032
O O11 0.141274 0.622802 0.074123
O O12 0.251827 0.492070 0.085903
O O13 0.816510 0.250000 0.504809
O O14 0.764098 0.493940 0.587235
O O15 0.905956 0.459676 0.365170
O O16 0.711885 0.750000 0.983101
O O17 0.069399 0.877541 0.912372
O O18 0.050996 0.055505 0.107628
O O19 0.263788 0.250000 0.411954
O O20 0.023914 0.750000 0.749788
#
# Coordination Sequence:
#
# PCOD8070860 Si02
#       8
#     4   4   4   4   4   4   4   4
#     4  10  21  36  57  81 110 140 170 209 255 310
#     4   9  17  31  54  78 102 135 177 219 260 304
#     4  10  20  33  52  76 104 138 177 222 266 309
#     4  10  20  34  51  75 107 140 174 220 269 312
#     4   9  18  34  55  80 107 137 173 213 256 309
#     4  10  19  32  50  72 102 140 180 222 264 311
#     4  10  19  35  55  80 106 135 176 215 254 310
#     4  10  20  33  48  70 104 141 180 222 269 316
#
# _framework density 17.802444999999999
#
# number of rings (size 3 to 8) (size 9 to 14) (size 15 to 20)
#    0.000    2.250    2.500    0.750    0.000    2.000 
#    0.000    1.250    0.000    0.000    0.000    0.000 
#    0.000    0.000    0.000    0.000    0.000    0.000 
#
# Total GULP energy -396438.951161 kJ/mol
# GULP energy per Si atom -12388.717224 kJ/mol
# Density = 1.776193 g / cm^3
# Si number density = 17.802445 Si / 1000 Ang^3
#
#
#
# Elastic Constant Matrix: (Units=GPa)
#
#
# Indices 1 2 3 4 5 6 
#
# 1 67.0025 37.0569 31.3322 0.0000 -1.3774 0.0000
# 2 37.0569 80.3544 28.9076 0.0000 -7.1063 0.0000
# 3 31.3322 28.9076 98.5145 0.0000 7.0147 0.0000
# 4 0.0000 0.0000 0.0000 11.7803 0.0000 -0.6762
# 5 -1.3774 -7.1063 7.0147 0.0000 26.1191 0.0000
# 6 0.0000 0.0000 0.0000 -0.6762 0.0000 10.2043
#
#
#
# Elastic Compliance Matrix: (Units=1/GPa)
#
#
# Indices 1 2 3 4 5 6 
#
# 1 0.021628 -0.008379 -0.004424 0.000000 0.000049 0.000000
# 2 -0.008379 0.017824 -0.002936 0.000000 0.005196 0.000000
# 3 -0.004424 -0.002936 0.012736 0.000000 -0.004452 0.000000
# 4 0.000000 0.000000 0.000000 0.085211 0.000000 0.005646
# 5 0.000049 0.005196 -0.004452 0.000000 0.040898 0.000000
# 6 0.000000 0.000000 0.000000 0.005646 0.000000 0.098372
#
#
# Mechanical properties :
#
#
# Convention : Reuss Voigt Hill
#
# Bulk Modulus (GPa) = 48.27820 48.94055 48.60937
# Shear Modulus (GPa) = 15.87045 19.52572 17.69809
#
# Velocity S-wave (km/s) = 2.98900 3.31539 3.15642
# Velocity P-wave (km/s) = 6.25219 6.49664 6.37559
#
# Compressibility (1/GPa) = 0.02071328
#
# Stress axis : x y z
#
# Youngs Moduli (GPa) = 46.23554 56.10298 78.51647
#
# Poissons Ratio (x) = 0.47006 0.34734
# Poissons Ratio (y) = 0.38739 0.23049
# Poissons Ratio (z) = 0.20454 0.16469
#
# Static dielectric constant tensor:
#      x y z
#    x 3.113680 0.000000 0.315340 
#    y 0.000000 3.558050 0.000000 
#    z 0.315340 0.000000 3.522580 
# 
# 
# High freq. dielectric constant tensor:
#      x y z
#    x 1.660390 0.000000 0.024940 
#    y 0.000000 1.694200 0.000000 
#    z 0.024940 0.000000 1.697840 
# 
# From -- ./inp_files/26395.got.cif
#   From: 2010.06.25/outbox.cif.g09.slc.cpg/sg11_14_cif.got.tgz:26395.got - 2010.06.27 23:14:04.
