data_PCOD8070406
_publ_section_title
;
Structure prediction by ZEFSAII (Michael W. Deem and Ramdas Pophale) SiO2 
 PCOD8070406
Probable space group: P 21/M
;
_chemical_formula_sum "Si O2"
_cell_formula_units_Z 32
_cell_length_a 14.281066
_cell_length_b 8.961602
_cell_length_c 25.656684
_cell_angle_alpha 90.000000
_cell_angle_beta 146.621981
_cell_angle_gamma 90.000000
_cell_volume 1806.492425
_symmetry_space_group_name_H-M "P 21/M"
_symmetry_group_IT_number 11
_symmetry_cell_setting 'monoclinic'
loop_
_space_group_symop_operation_xyz
x,y,z
-x,1/2+y,-z
-x,-y,-z
x,1/2-y,z
loop_
_atom_site_type_symbol
_atom_site_label
_atom_site_fract_x
_atom_site_fract_y
_atom_site_fract_z
Si Si1 0.563270 0.578200 0.943892
Si Si2 0.030080 0.424961 0.594886
Si Si3 0.793441 0.923790 0.952810
Si Si4 0.750929 0.575992 0.401256
Si Si5 0.917535 0.926778 0.850875
Si Si6 0.642330 0.073855 0.781520
Si Si7 0.851765 0.077681 0.135398
Si Si8 0.818726 0.423836 0.236444
O O1 0.554536 0.750000 0.955464
O O2 0.645721 0.550962 0.926112
O O3 0.373256 0.511611 0.853458
O O4 0.673353 0.500904 0.039991
O O5 0.013316 0.250000 0.592815
O O6 0.177909 0.470234 0.622594
O O7 0.069943 0.490687 0.669752
O O8 0.849574 0.487858 0.492021
O O9 0.843908 0.750000 0.971520
O O10 0.723850 0.984143 0.866620
O O11 0.958326 0.019383 0.045099
O O12 0.780269 0.750000 0.424781
O O13 0.554778 0.530883 0.314092
O O14 0.889651 0.750000 0.841469
O O15 0.996090 0.977417 0.831692
O O16 0.738237 0.013570 0.774277
O O17 0.667573 0.250000 0.800546
O O18 0.817709 0.250000 0.108874
O O19 0.903311 0.047269 0.219136
O O20 0.817836 0.250000 0.250691
#
# Coordination Sequence:
#
# PCOD8070406 Si02
#       8
#     4   4   4   4   4   4   4   4
#     4   9  18  30  47  72 101 132 165 201 239 283
#     4  10  20  34  54  79 102 126 157 193 237 290
#     4  10  19  31  47  71 102 133 164 199 241 287
#     4   9  20  37  54  74 102 130 155 191 242 295
#     4  10  20  34  49  68  97 132 169 207 243 280
#     4  11  21  33  51  73  96 127 165 201 242 290
#     4   9  19  33  49  69  97 134 169 202 242 285
#     4  10  19  32  50  73 101 132 164 198 242 291
#
# _framework density 17.713885000000001
#
# number of rings (size 3 to 8) (size 9 to 14) (size 15 to 20)
#    0.000    2.250    0.000    3.000    0.000    3.500 
#    0.000    0.000    0.000    0.750    0.000    0.000 
#    0.000    0.000    0.000    0.000    0.000    0.000 
#
# Total GULP energy -396858.496491 kJ/mol
# GULP energy per Si atom -12401.828015 kJ/mol
# Density = 1.767357 g / cm^3
# Si number density = 17.713885 Si / 1000 Ang^3
#
#
#
# Elastic Constant Matrix: (Units=GPa)
#
#
# Indices 1 2 3 4 5 6 
#
# 1 87.2298 33.9024 65.7074 0.0000 2.2330 0.0000
# 2 33.9024 51.1009 36.6288 0.0000 -0.8580 0.0000
# 3 65.7074 36.6288 98.3607 0.0000 -0.5172 0.0000
# 4 0.0000 0.0000 0.0000 28.3360 0.0000 -0.5670
# 5 2.2330 -0.8580 -0.5172 0.0000 30.0019 0.0000
# 6 0.0000 0.0000 0.0000 -0.5670 0.0000 26.1099
#
#
#
# Elastic Compliance Matrix: (Units=1/GPa)
#
#
# Indices 1 2 3 4 5 6 
#
# 1 0.024565 -0.006226 -0.014103 0.000000 -0.002250 0.000000
# 2 -0.006226 0.028283 -0.006367 0.000000 0.001162 0.000000
# 3 -0.014103 -0.006367 0.021966 0.000000 0.001246 0.000000
# 4 0.000000 0.000000 0.000000 0.035306 0.000000 0.000767
# 5 -0.002250 0.001162 0.001246 0.000000 0.033553 0.000000
# 6 0.000000 0.000000 0.000000 0.000767 0.000000 0.038316
#
#
# Mechanical properties :
#
#
# Convention : Reuss Voigt Hill
#
# Bulk Modulus (GPa) = 46.68362 56.57428 51.62895
# Shear Modulus (GPa) = 20.61662 23.58640 22.10151
#
# Velocity S-wave (km/s) = 3.41525 3.65296 3.53610
# Velocity P-wave (km/s) = 6.47792 7.05686 6.77358
#
# Compressibility (1/GPa) = 0.02142079
#
# Stress axis : x y z
#
# Youngs Moduli (GPa) = 40.70858 35.35662 45.52560
#
# Poissons Ratio (x) = 0.22013 0.64206
# Poissons Ratio (y) = 0.25345 0.28987
# Poissons Ratio (z) = 0.57412 0.22512
#
# Static dielectric constant tensor:
#      x y z
#    x 3.553450 0.000000 0.147860 
#    y 0.000000 3.299790 0.000000 
#    z 0.147860 0.000000 3.138640 
# 
# 
# High freq. dielectric constant tensor:
#      x y z
#    x 1.690210 0.000000 0.004450 
#    y 0.000000 1.689570 0.000000 
#    z 0.004450 0.000000 1.662820 
# 
# From -- ./inp_files/51673.got.cif
#   From: 2010.06.25/outbox.cif.g09.slc.cpg/sg11_26_cif.got.tgz:51673.got - 2010.06.27 23:14:04.
