data_PCOD8070584
_publ_section_title
;
Structure prediction by ZEFSAII (Michael W. Deem and Ramdas Pophale) SiO2 
 PCOD8070584
Probable space group: P 21/M
;
_chemical_formula_sum "Si O2"
_cell_formula_units_Z 32
_cell_length_a 25.668942
_cell_length_b 9.090359
_cell_length_c 20.281801
_cell_angle_alpha 90.000000
_cell_angle_beta 22.381772
_cell_angle_gamma 90.000000
_cell_volume 1802.043801
_symmetry_space_group_name_H-M "P 21/M"
_symmetry_group_IT_number 11
_symmetry_cell_setting 'monoclinic'
loop_
_space_group_symop_operation_xyz
x,y,z
-x,1/2+y,-z
-x,-y,-z
x,1/2-y,z
loop_
_atom_site_type_symbol
_atom_site_label
_atom_site_fract_x
_atom_site_fract_y
_atom_site_fract_z
Si Si1 0.861742 0.421454 0.085501
Si Si2 0.162786 0.079399 0.750019
Si Si3 0.602817 0.924178 0.068300
Si Si4 0.908761 0.909440 0.699934
Si Si5 0.141591 0.089284 0.392546
Si Si6 0.406707 0.923999 0.056402
Si Si7 0.456029 0.421905 0.358080
Si Si8 0.587869 0.077762 0.341461
O O1 0.854865 0.250000 0.107731
O O2 0.817776 0.497335 0.204284
O O3 0.749951 0.463625 0.160108
O O4 0.018908 0.466285 0.882383
O O5 0.161507 0.250000 0.769531
O O6 0.293722 0.043349 0.551611
O O7 0.586911 0.750000 0.075215
O O8 0.510879 0.977297 0.235726
O O9 0.761067 0.964862 0.897863
O O10 0.554558 0.008733 0.059650
O O11 0.942165 0.750000 0.693425
O O12 0.914101 0.887138 0.615360
O O13 0.024000 0.031693 0.580923
O O14 0.193417 0.250000 0.357737
O O15 0.255063 0.963629 0.257199
O O16 0.426879 0.750000 0.030904
O O17 0.500000 0.000000 0.000000
O O18 0.482793 0.250000 0.312052
O O19 0.535413 0.472276 0.331218
O O20 0.563398 0.250000 0.378917
O O21 0.500000 0.000000 0.500000
#
# Coordination Sequence:
#
# PCOD8070584 Si02
#       8
#     4   4   4   4   4   4   4   4
#     4   9  17  29  48  73 100 131 170 217 264 311
#     4   9  17  30  48  72 101 134 172 214 263 316
#     4  10  21  36  54  77 104 136 175 214 258 314
#     4   8  15  28  46  70  98 128 162 204 251 298
#     4   9  16  27  47  76 104 129 164 204 248 297
#     4  11  21  35  56  80 107 137 172 214 259 307
#     4  10  20  33  50  73 103 140 176 216 267 319
#     4  10  19  31  49  75 104 133 173 219 266 314
#
# _framework density 17.757615000000001
#
# number of rings (size 3 to 8) (size 9 to 14) (size 15 to 20)
#    0.000    2.500    1.250    2.625    0.000    4.500 
#    0.000    0.000    2.750    0.000    0.000    0.000 
#    0.000    0.000    0.000    0.000    0.000    0.000 
#
# Total GULP energy -396538.334697 kJ/mol
# GULP energy per Si atom -12391.822959 kJ/mol
# Density = 1.771720 g / cm^3
# Si number density = 17.757615 Si / 1000 Ang^3
#
#
#
# Elastic Constant Matrix: (Units=GPa)
#
#
# Indices 1 2 3 4 5 6 
#
# 1 80.9080 42.8102 55.2858 0.0000 -7.1351 0.0000
# 2 42.8102 87.7603 48.4671 0.0000 2.4265 0.0000
# 3 55.2858 48.4671 124.7478 0.0000 -1.7861 0.0000
# 4 0.0000 0.0000 0.0000 27.7194 0.0000 1.7520
# 5 -7.1351 2.4265 -1.7861 0.0000 21.0847 0.0000
# 6 0.0000 0.0000 0.0000 1.7520 0.0000 22.8378
#
#
#
# Elastic Compliance Matrix: (Units=1/GPa)
#
#
# Indices 1 2 3 4 5 6 
#
# 1 0.021163 -0.006884 -0.006599 0.000000 0.007395 0.000000
# 2 -0.006884 0.016845 -0.003559 0.000000 -0.004570 0.000000
# 3 -0.006599 -0.003559 0.012312 0.000000 -0.000780 0.000000
# 4 0.000000 0.000000 0.000000 0.036252 0.000000 -0.002781
# 5 0.007395 -0.004570 -0.000780 0.000000 0.050390 0.000000
# 6 0.000000 0.000000 0.000000 -0.002781 0.000000 0.044001
#
#
# Mechanical properties :
#
#
# Convention : Reuss Voigt Hill
#
# Bulk Modulus (GPa) = 61.58887 65.17135 63.38011
# Shear Modulus (GPa) = 22.68008 24.11858 23.39933
#
# Velocity S-wave (km/s) = 3.57768 3.68939 3.63396
# Velocity P-wave (km/s) = 7.19894 7.41141 7.30595
#
# Compressibility (1/GPa) = 0.01623670
#
# Stress axis : x y z
#
# Youngs Moduli (GPa) = 47.25162 59.36628 81.21997
#
# Poissons Ratio (x) = 0.40867 0.53595
# Poissons Ratio (y) = 0.32527 0.28907
# Poissons Ratio (z) = 0.31180 0.21129
#
# Static dielectric constant tensor:
#      x y z
#    x 3.100350 0.000000 -0.124390 
#    y 0.000000 3.661660 0.000000 
#    z -0.124390 0.000000 3.454880 
# 
# 
# High freq. dielectric constant tensor:
#      x y z
#    x 1.644970 0.000000 -0.020510 
#    y 0.000000 1.694910 0.000000 
#    z -0.020510 0.000000 1.692610 
# 
# From -- ./inp_files/67013.got.cif
#   From: 2010.06.25/outbox.cif.g09.slc.cpg/sg11_34_cif.got.tgz:67013.got - 2010.06.27 23:14:04.
