data_PCOD8070571
_publ_section_title
;
Structure prediction by ZEFSAII (Michael W. Deem and Ramdas Pophale) SiO2 
 PCOD8070571
Probable space group: P 21/M
;
_chemical_formula_sum "Si O2"
_cell_formula_units_Z 28
_cell_length_a 27.978372
_cell_length_b 9.128963
_cell_length_c 9.405725
_cell_angle_alpha 90.000000
_cell_angle_beta 39.448854
_cell_angle_gamma 90.000000
_cell_volume 1526.426749
_symmetry_space_group_name_H-M "P 21/M"
_symmetry_group_IT_number 11
_symmetry_cell_setting 'monoclinic'
loop_
_space_group_symop_operation_xyz
x,y,z
-x,1/2+y,-z
-x,-y,-z
x,1/2-y,z
loop_
_atom_site_type_symbol
_atom_site_label
_atom_site_fract_x
_atom_site_fract_y
_atom_site_fract_z
Si Si1 0.456485 0.580833 0.791558
Si Si2 0.401434 0.578707 0.606071
Si Si3 0.808386 0.416452 0.685343
Si Si4 0.690258 0.081904 0.715977
Si Si5 0.800018 0.582022 0.278044
Si Si6 0.752671 0.582319 0.072871
Si Si7 0.920841 0.078585 0.182285
O O1 0.480390 0.750000 0.735364
O O2 0.417122 0.538897 0.733480
O O3 0.530825 0.484544 0.646287
O O4 0.397356 0.547389 0.053568
O O5 0.395474 0.750000 0.592099
O O6 0.323752 0.507785 0.737317
O O7 0.807494 0.250000 0.742934
O O8 0.735244 0.446833 0.758035
O O9 0.883043 0.448743 0.422548
O O10 0.806512 0.522303 0.824922
O O11 0.702120 0.250000 0.640982
O O12 0.720792 0.977110 0.522131
O O13 0.810058 0.750000 0.302704
O O14 0.799513 0.566820 0.109986
O O15 0.869162 0.487404 0.177130
O O16 0.732155 0.750000 0.087787
O O17 0.930814 0.250000 0.128841
O O18 0.000000 0.000000 0.000000
#
# Coordination Sequence:
#
# PCOD8070571 Si02
#       7
#     4   4   4   4   4   4   4
#     4   9  17  31  49  74 105 135 177 230 276 319
#     4  10  19  31  49  74 105 140 179 226 275 320
#     4   9  18  34  56  82 108 137 177 219 261 313
#     4   9  17  33  54  77 104 138 181 228 273 318
#     4  10  22  37  54  80 112 143 179 220 262 315
#     4  11  22  35  52  78 111 145 181 222 266 314
#     4  10  21  39  63  88 112 139 173 214 260 313
#
# _framework density 18.343495000000001
#
# number of rings (size 3 to 8) (size 9 to 14) (size 15 to 20)
#    0.000    2.286    1.429    2.571    0.000    6.286 
#    0.000    1.429    0.000    0.000    0.000    0.000 
#    0.000    0.000    0.000    0.000    0.000    0.000 
#
# Total GULP energy -347252.365678 kJ/mol
# GULP energy per Si atom -12401.870203 kJ/mol
# Density = 1.830174 g / cm^3
# Si number density = 18.343495 Si / 1000 Ang^3
#
#
#
# Elastic Constant Matrix: (Units=GPa)
#
#
# Indices 1 2 3 4 5 6 
#
# 1 60.1940 53.0226 45.8367 0.0000 -4.2064 0.0000
# 2 53.0226 122.7862 64.8737 0.0000 -5.6161 0.0000
# 3 45.8367 64.8737 106.2812 0.0000 -10.4634 0.0000
# 4 0.0000 0.0000 0.0000 36.7576 0.0000 -2.4780
# 5 -4.2064 -5.6161 -10.4634 0.0000 25.6750 0.0000
# 6 0.0000 0.0000 0.0000 -2.4780 0.0000 28.2397
#
#
#
# Elastic Compliance Matrix: (Units=1/GPa)
#
#
# Indices 1 2 3 4 5 6 
#
# 1 0.030408 -0.009154 -0.007536 0.000000 -0.000092 0.000000
# 2 -0.009154 0.014780 -0.005108 0.000000 -0.000348 0.000000
# 3 -0.007536 -0.005108 0.016195 0.000000 0.004248 0.000000
# 4 0.000000 0.000000 0.000000 0.027367 0.000000 0.002401
# 5 -0.000092 -0.000348 0.004248 0.000000 0.040588 0.000000
# 6 0.000000 0.000000 0.000000 0.002401 0.000000 0.035622
#
#
# Mechanical properties :
#
#
# Convention : Reuss Voigt Hill
#
# Bulk Modulus (GPa) = 56.21831 68.52527 62.37179
# Shear Modulus (GPa) = 23.31152 26.50302 24.90727
#
# Velocity S-wave (km/s) = 3.56874 3.80520 3.68887
# Velocity P-wave (km/s) = 6.90618 7.53285 7.22631
#
# Compressibility (1/GPa) = 0.01778780
#
# Stress axis : x y z
#
# Youngs Moduli (GPa) = 32.88579 67.65888 61.74599
#
# Poissons Ratio (x) = 0.61933 0.46532
# Poissons Ratio (y) = 0.30103 0.31541
# Poissons Ratio (z) = 0.24783 0.34561
#
# Static dielectric constant tensor:
#      x y z
#    x 3.060620 0.000000 -0.071230 
#    y 0.000000 3.472160 0.000000 
#    z -0.071230 0.000000 3.503930 
# 
# 
# High freq. dielectric constant tensor:
#      x y z
#    x 1.682130 0.000000 -0.005430 
#    y 0.000000 1.720550 0.000000 
#    z -0.005430 0.000000 1.713020 
# 
# From -- ./inp_files/29032.got.cif
#   From: 2010.06.25/outbox.cif.g09.slc.cpg/sg11_15_cif.got.tgz:29032.got - 2010.06.27 23:14:04.
