data_PCOD8070841
_publ_section_title
;
Structure prediction by ZEFSAII (Michael W. Deem and Ramdas Pophale) SiO2 
 PCOD8070841
Probable space group: P 21/M
;
_chemical_formula_sum "Si O2"
_cell_formula_units_Z 32
_cell_length_a 12.550142
_cell_length_b 9.051087
_cell_length_c 29.111296
_cell_angle_alpha 90.000000
_cell_angle_beta 29.621090
_cell_angle_gamma 90.000000
_cell_volume 1634.436457
_symmetry_space_group_name_H-M "P 21/M"
_symmetry_group_IT_number 11
_symmetry_cell_setting 'monoclinic'
loop_
_space_group_symop_operation_xyz
x,y,z
-x,1/2+y,-z
-x,-y,-z
x,1/2-y,z
loop_
_atom_site_type_symbol
_atom_site_label
_atom_site_fract_x
_atom_site_fract_y
_atom_site_fract_z
Si Si1 0.310129 0.425007 0.009653
Si Si2 0.752348 0.921421 0.719355
Si Si3 0.572416 0.412233 0.234017
Si Si4 0.973310 0.425998 0.211163
Si Si5 0.926163 0.421149 0.481129
Si Si6 0.223293 0.574946 0.192516
Si Si7 0.044240 0.088207 0.028207
Si Si8 0.553496 0.920422 0.330258
O O1 0.280100 0.250000 0.019466
O O2 0.218860 0.490188 0.995721
O O3 0.164734 0.485912 0.105935
O O4 0.560686 0.470477 0.917327
O O5 0.779271 0.750000 0.723416
O O6 0.521807 0.951701 0.781056
O O7 0.934001 0.973032 0.614968
O O8 0.765340 0.021274 0.759528
O O9 0.478290 0.250000 0.283628
O O10 0.508610 0.536719 0.294216
O O11 0.828006 0.401413 0.138654
O O12 0.969968 0.250000 0.215833
O O13 0.738282 0.479493 0.283506
O O14 0.023638 0.495668 0.242130
O O15 0.964347 0.250000 0.476648
O O16 0.677488 0.450286 0.559452
O O17 0.000000 0.500000 0.500000
O O18 0.189873 0.750000 0.204878
O O19 0.125185 0.250000 0.982942
O O20 0.000000 0.000000 0.000000
O O21 0.624520 0.750000 0.306882
#
# Coordination Sequence:
#
# PCOD8070841 Si02
#       8
#     4   4   4   4   4   4   4   4
#     4   9  19  36  58  82 114 152 194 239 287 344
#     4  10  21  38  59  86 119 158 196 233 286 357
#     4  10  19  34  57  81 115 156 193 231 281 346
#     4  11  22  41  64  83 113 159 201 239 289 351
#     4  10  21  37  61  90 121 153 191 237 288 349
#     4  11  23  39  59  87 119 151 194 251 297 337
#     4  10  19  32  49  77 114 153 192 230 279 341
#     4  11  22  36  58  91 120 145 188 244 292 336
#
# _framework density 19.578614000000002
#
# number of rings (size 3 to 8) (size 9 to 14) (size 15 to 20)
#    0.000    1.750    2.500    2.250    0.000    2.000 
#    0.000    3.125    0.000    0.000    0.000    0.000 
#    0.000    0.000    0.000    0.000    0.000    0.000 
#
# Total GULP energy -396676.165963 kJ/mol
# GULP energy per Si atom -12396.130186 kJ/mol
# Density = 1.953405 g / cm^3
# Si number density = 19.578614 Si / 1000 Ang^3
#
#
#
# Elastic Constant Matrix: (Units=GPa)
#
#
# Indices 1 2 3 4 5 6 
#
# 1 117.1965 43.7735 29.1348 0.0000 -14.9917 0.0000
# 2 43.7735 77.9446 29.6748 0.0000 -6.0898 0.0000
# 3 29.1348 29.6748 77.4168 0.0000 -11.2452 0.0000
# 4 0.0000 0.0000 0.0000 23.1408 0.0000 0.5659
# 5 -14.9917 -6.0898 -11.2452 0.0000 22.4418 0.0000
# 6 0.0000 0.0000 0.0000 0.5659 0.0000 37.7525
#
#
#
# Elastic Compliance Matrix: (Units=1/GPa)
#
#
# Indices 1 2 3 4 5 6 
#
# 1 0.011689 -0.005576 -0.001453 0.000000 0.005567 0.000000
# 2 -0.005576 0.017716 -0.004891 0.000000 -0.001368 0.000000
# 3 -0.001453 -0.004891 0.016183 0.000000 0.005811 0.000000
# 4 0.000000 0.000000 0.000000 0.043230 0.000000 -0.000648
# 5 0.005567 -0.001368 0.005811 0.000000 0.050819 0.000000
# 6 0.000000 0.000000 0.000000 -0.000648 0.000000 0.026498
#
#
# Mechanical properties :
#
#
# Convention : Reuss Voigt Hill
#
# Bulk Modulus (GPa) = 45.98217 53.08044 49.53131
# Shear Modulus (GPa) = 25.35180 27.99866 26.67523
#
# Velocity S-wave (km/s) = 3.60234 3.78572 3.69517
# Velocity P-wave (km/s) = 6.39057 6.80288 6.59994
#
# Compressibility (1/GPa) = 0.02174756
#
# Stress axis : x y z
#
# Youngs Moduli (GPa) = 85.55208 56.44457 61.79415
#
# Poissons Ratio (x) = 0.31475 0.08977
# Poissons Ratio (y) = 0.47707 0.30224
# Poissons Ratio (z) = 0.12429 0.27608
#
# Static dielectric constant tensor:
#      x y z
#    x 3.522590 0.000000 -0.201030 
#    y 0.000000 3.494940 0.000000 
#    z -0.201030 0.000000 3.943270 
# 
# 
# High freq. dielectric constant tensor:
#      x y z
#    x 1.765150 0.000000 -0.013500 
#    y 0.000000 1.750990 0.000000 
#    z -0.013500 0.000000 1.759200 
# 
# From -- ./inp_files/42916.got.cif
#   From: 2010.06.25/outbox.cif.g09.slc.cpg/sg11_22_cif.got.tgz:42916.got - 2010.06.27 23:14:04.
