data_PCOD8070464
_publ_section_title
;
Structure prediction by ZEFSAII (Michael W. Deem and Ramdas Pophale) SiO2 
 PCOD8070464
Probable space group: P 21/M
;
_chemical_formula_sum "Si O2"
_cell_formula_units_Z 32
_cell_length_a 15.674285
_cell_length_b 8.797391
_cell_length_c 20.974843
_cell_angle_alpha 90.000000
_cell_angle_beta 42.310434
_cell_angle_gamma 90.000000
_cell_volume 1946.930250
_symmetry_space_group_name_H-M "P 21/M"
_symmetry_group_IT_number 11
_symmetry_cell_setting 'monoclinic'
loop_
_space_group_symop_operation_xyz
x,y,z
-x,1/2+y,-z
-x,-y,-z
x,1/2-y,z
loop_
_atom_site_type_symbol
_atom_site_label
_atom_site_fract_x
_atom_site_fract_y
_atom_site_fract_z
Si Si1 0.901301 0.928500 0.911235
Si Si2 0.201464 0.425448 0.392905
Si Si3 0.447801 0.571504 0.217052
Si Si4 0.903005 0.075035 0.099907
Si Si5 0.702256 0.428971 0.117270
Si Si6 0.592221 0.928740 0.897740
Si Si7 0.124980 0.428295 0.218709
Si Si8 0.020095 0.574077 0.393387
O O1 0.867141 0.750000 0.935215
O O2 0.896385 0.984447 0.841450
O O3 0.046623 0.960807 0.856212
O O4 0.797659 0.021534 0.008350
O O5 0.238410 0.250000 0.363403
O O6 0.328814 0.523910 0.326579
O O7 0.120094 0.473460 0.376746
O O8 0.121390 0.453062 0.501590
O O9 0.448143 0.750000 0.205754
O O10 0.573160 0.521813 0.184855
O O11 0.442119 0.490539 0.152339
O O12 0.915572 0.250000 0.078393
O O13 0.761354 0.027938 0.155094
O O14 0.000000 0.000000 0.000000
O O15 0.674645 0.250000 0.125721
O O16 0.572650 0.750000 0.909039
O O17 0.734666 0.974242 0.837020
O O18 0.500000 0.000000 0.000000
O O19 0.099320 0.250000 0.239613
O O20 0.024389 0.518890 0.318007
O O21 0.058697 0.750000 0.378550
#
# Coordination Sequence:
#
# PCOD8070464 Si02
#       8
#     4   4   4   4   4   4   4   4
#     4   9  17  31  49  72 100 130 164 199 236 287
#     4  10  20  35  52  71  94 121 157 202 246 289
#     4  12  23  34  49  70  95 129 166 202 242 286
#     4   8  15  28  47  69  95 125 159 199 243 284
#     4  10  19  31  48  71  98 130 164 203 245 286
#     4  11  22  34  47  67  98 135 167 197 231 278
#     4  10  20  32  48  69  97 130 162 195 236 281
#     4  10  20  33  52  73  94 122 157 198 244 290
#
# _framework density 16.436129999999999
#
# number of rings (size 3 to 8) (size 9 to 14) (size 15 to 20)
#    0.000    2.000    1.250    3.375    0.000    4.000 
#    0.000    0.000    0.000    0.000    0.000    0.875 
#    0.000    0.000    0.000    0.000    0.000    0.000 
#
# Total GULP energy -396644.253366 kJ/mol
# GULP energy per Si atom -12395.132918 kJ/mol
# Density = 1.639872 g / cm^3
# Si number density = 16.436130 Si / 1000 Ang^3
#
#
#
# Elastic Constant Matrix: (Units=GPa)
#
#
# Indices 1 2 3 4 5 6 
#
# 1 96.0509 28.4754 38.0467 0.0000 -17.4877 0.0000
# 2 28.4754 49.3682 32.2238 0.0000 -3.0530 0.0000
# 3 38.0467 32.2238 89.0386 0.0000 -6.5685 0.0000
# 4 0.0000 0.0000 0.0000 28.1604 0.0000 -0.7103
# 5 -17.4877 -3.0530 -6.5685 0.0000 12.9031 0.0000
# 6 0.0000 0.0000 0.0000 -0.7103 0.0000 18.5717
#
#
#
# Elastic Compliance Matrix: (Units=1/GPa)
#
#
# Indices 1 2 3 4 5 6 
#
# 1 0.017451 -0.006443 -0.003629 0.000000 0.020279 0.000000
# 2 -0.006443 0.028925 -0.008161 0.000000 -0.006042 0.000000
# 3 -0.003629 -0.008161 0.015824 0.000000 0.001206 0.000000
# 4 0.000000 0.000000 0.000000 0.035545 0.000000 0.001360
# 5 0.020279 -0.006042 0.001206 0.000000 0.104170 0.000000
# 6 0.000000 0.000000 0.000000 0.001360 0.000000 0.053897
#
#
# Mechanical properties :
#
#
# Convention : Reuss Voigt Hill
#
# Bulk Modulus (GPa) = 38.85789 47.99441 43.42615
# Shear Modulus (GPa) = 16.61918 20.97448 18.79683
#
# Velocity S-wave (km/s) = 3.18329 3.57616 3.38543
# Velocity P-wave (km/s) = 6.09952 6.80557 6.46220
#
# Compressibility (1/GPa) = 0.02573480
#
# Stress axis : x y z
#
# Youngs Moduli (GPa) = 57.30358 34.57185 63.19372
#
# Poissons Ratio (x) = 0.22273 0.22934
# Poissons Ratio (y) = 0.36919 0.51573
# Poissons Ratio (z) = 0.20797 0.28214
#
# Static dielectric constant tensor:
#      x y z
#    x 3.545600 0.000000 -0.033440 
#    y 0.000000 3.166750 0.000000 
#    z -0.033440 0.000000 3.025660 
# 
# 
# High freq. dielectric constant tensor:
#      x y z
#    x 1.627220 0.000000 -0.004000 
#    y 0.000000 1.645140 0.000000 
#    z -0.004000 0.000000 1.610320 
# 
# From -- ./inp_files/51302.got.cif
#   From: 2010.06.25/outbox.cif.g09.slc.cpg/sg11_26_cif.got.tgz:51302.got - 2010.06.27 23:14:04.
