data_PCOD8070421
_publ_section_title
;
Structure prediction by ZEFSAII (Michael W. Deem and Ramdas Pophale) SiO2 
 PCOD8070421
Probable space group: P 21/M
;
_chemical_formula_sum "Si O2"
_cell_formula_units_Z 32
_cell_length_a 15.487766
_cell_length_b 9.111062
_cell_length_c 14.193959
_cell_angle_alpha 90.000000
_cell_angle_beta 88.733687
_cell_angle_gamma 90.000000
_cell_volume 2002.420342
_symmetry_space_group_name_H-M "P 21/M"
_symmetry_group_IT_number 11
_symmetry_cell_setting 'monoclinic'
loop_
_space_group_symop_operation_xyz
x,y,z
-x,1/2+y,-z
-x,-y,-z
x,1/2-y,z
loop_
_atom_site_type_symbol
_atom_site_label
_atom_site_fract_x
_atom_site_fract_y
_atom_site_fract_z
Si Si1 0.402931 0.080963 0.912889
Si Si2 0.339131 0.419644 0.711729
Si Si3 0.487836 0.922972 0.599423
Si Si4 0.397502 0.578761 0.098746
Si Si5 0.811672 0.920008 0.593470
Si Si6 0.836744 0.578810 0.382268
Si Si7 0.653878 0.576666 0.717329
Si Si8 0.000894 0.579289 0.599219
O O1 0.394334 0.250000 0.943047
O O2 0.347814 0.043604 0.821684
O O3 0.502002 0.041240 0.888512
O O4 0.366394 0.982605 0.998595
O O5 0.363440 0.250000 0.690736
O O6 0.400077 0.522024 0.648563
O O7 0.240635 0.453663 0.687308
O O8 0.482578 0.750000 0.583480
O O9 0.567292 0.966487 0.664241
O O10 0.500000 0.000000 0.500000
O O11 0.378089 0.750000 0.103023
O O12 0.343782 0.500108 0.181585
O O13 0.789261 0.750000 0.583697
O O14 0.812261 0.983886 0.486852
O O15 0.735132 0.990013 0.657261
O O16 0.904260 0.943908 0.643873
O O17 0.859424 0.750000 0.387651
O O18 0.922505 0.494903 0.341288
O O19 0.661137 0.750000 0.732974
O O20 0.021177 0.750000 0.585756
O O21 0.000000 0.500000 0.500000
#
# Coordination Sequence:
#
# PCOD8070421 Si02
#       8
#     4   4   4   4   4   4   4   4
#     4   9  18  32  49  67  90 121 155 192 236 283
#     4  10  19  33  50  68  93 125 160 195 232 279
#     4  11  22  32  45  65  94 130 163 193 227 270
#     4  10  19  31  48  69  92 117 152 198 240 276
#     4   8  15  28  45  65  90 123 156 186 223 273
#     4   9  17  30  48  68  94 125 156 191 234 277
#     4  10  19  32  48  66  90 124 161 191 229 278
#     4   9  16  28  46  67  92 121 157 195 233 273
#
# _framework density 15.98066
#
# number of rings (size 3 to 8) (size 9 to 14) (size 15 to 20)
#    0.000    2.500    1.250    2.625    0.000    4.000 
#    0.000    3.125    0.000    0.000    0.000    0.875 
#    0.000    0.000    0.000    0.000    0.000    0.000 
#
# Total GULP energy -396719.019454 kJ/mol
# GULP energy per Si atom -12397.469358 kJ/mol
# Density = 1.594429 g / cm^3
# Si number density = 15.980660 Si / 1000 Ang^3
#
#
#
# Elastic Constant Matrix: (Units=GPa)
#
#
# Indices 1 2 3 4 5 6 
#
# 1 86.2962 35.6117 41.8778 0.0000 16.3605 0.0000
# 2 35.6117 57.2824 34.8068 0.0000 5.0263 0.0000
# 3 41.8778 34.8068 93.4716 0.0000 9.7156 0.0000
# 4 0.0000 0.0000 0.0000 24.7046 0.0000 -0.3254
# 5 16.3605 5.0263 9.7156 0.0000 14.7155 0.0000
# 6 0.0000 0.0000 0.0000 -0.3254 0.0000 24.5416
#
#
#
# Elastic Compliance Matrix: (Units=1/GPa)
#
#
# Indices 1 2 3 4 5 6 
#
# 1 0.020397 -0.008673 -0.004144 0.000000 -0.016979 0.000000
# 2 -0.008673 0.026324 -0.006426 0.000000 0.004893 0.000000
# 3 -0.004144 -0.006426 0.015290 0.000000 -0.003293 0.000000
# 4 0.000000 0.000000 0.000000 0.040485 0.000000 0.000537
# 5 -0.016979 0.004893 -0.003293 0.000000 0.087335 0.000000
# 6 0.000000 0.000000 0.000000 0.000537 0.000000 0.040754
#
#
# Mechanical properties :
#
#
# Convention : Reuss Voigt Hill
#
# Bulk Modulus (GPa) = 42.50506 51.29364 46.89935
# Shear Modulus (GPa) = 18.05629 21.10928 19.58278
#
# Velocity S-wave (km/s) = 3.36502 3.63840 3.50438
# Velocity P-wave (km/s) = 6.46169 7.05816 6.76650
#
# Compressibility (1/GPa) = 0.02352661
#
# Stress axis : x y z
#
# Youngs Moduli (GPa) = 49.02727 37.98816 65.40180
#
# Poissons Ratio (x) = 0.32945 0.27103
# Poissons Ratio (y) = 0.42519 0.42024
# Poissons Ratio (z) = 0.20317 0.24410
#
# Static dielectric constant tensor:
#      x y z
#    x 3.331090 0.000000 0.071790 
#    y 0.000000 3.028480 0.000000 
#    z 0.071790 0.000000 2.996600 
# 
# 
# High freq. dielectric constant tensor:
#      x y z
#    x 1.605530 0.000000 0.004560 
#    y 0.000000 1.610590 0.000000 
#    z 0.004560 0.000000 1.592580 
# 
# From -- ./inp_files/51297.got.cif
#   From: 2010.06.25/outbox.cif.g09.slc.cpg/sg11_26_cif.got.tgz:51297.got - 2010.06.27 23:14:04.
