data_PCOD8070514
_publ_section_title
;
Structure prediction by ZEFSAII (Michael W. Deem and Ramdas Pophale) SiO2 
 PCOD8070514
Probable space group: P 21/M
;
_chemical_formula_sum "Si O2"
_cell_formula_units_Z 32
_cell_length_a 10.972516
_cell_length_b 20.489394
_cell_length_c 20.331689
_cell_angle_alpha 90.000000
_cell_angle_beta 157.106342
_cell_angle_gamma 90.000000
_cell_volume 1778.209547
_symmetry_space_group_name_H-M "P 21/M"
_symmetry_group_IT_number 11
_symmetry_cell_setting 'monoclinic'
loop_
_space_group_symop_operation_xyz
x,y,z
-x,1/2+y,-z
-x,-y,-z
x,1/2-y,z
loop_
_atom_site_type_symbol
_atom_site_label
_atom_site_fract_x
_atom_site_fract_y
_atom_site_fract_z
Si Si1 0.577382 0.173209 0.490134
Si Si2 0.374627 0.425497 0.130589
Si Si3 0.848296 0.989584 0.285935
Si Si4 0.821242 0.607076 0.161049
Si Si5 0.802882 0.450443 0.768422
Si Si6 0.215582 0.387775 0.426950
Si Si7 0.452211 0.573337 0.633071
Si Si8 0.389188 0.824306 0.848082
O O1 0.505198 0.250000 0.453021
O O2 0.330893 0.134531 0.412871
O O3 0.536892 0.143611 0.396987
O O4 0.928899 0.161059 0.690893
O O5 0.576619 0.483097 0.197545
O O6 0.431217 0.419728 0.235348
O O7 0.461257 0.356222 0.142060
O O8 0.005713 0.438802 0.935239
O O9 0.703746 0.936941 0.163475
O O10 0.099582 0.954467 0.457989
O O11 0.011488 0.045855 0.323082
O O12 0.977918 0.558839 0.185872
O O13 0.522653 0.642705 0.981076
O O14 0.514398 0.398679 0.623460
O O15 0.672970 0.523770 0.702549
O O16 0.987931 0.331518 0.342044
O O17 0.490615 0.750000 0.897692
#
# Coordination Sequence:
#
# PCOD8070514 Si02
#       8
#     4   4   4   4   4   4   4   4
#     4  10  19  31  49  71  97 128 159 194 236 285
#     4  10  20  32  50  73  99 131 161 196 236 284
#     4   9  18  32  51  74  98 122 156 201 248 286
#     4   9  18  32  51  74  96 121 156 202 248 285
#     4   9  18  32  50  73  98 123 158 202 247 283
#     4   9  18  32  50  72  96 122 157 202 247 284
#     4  10  19  32  49  72 100 131 161 194 235 286
#     4  10  20  33  50  71  97 128 161 197 237 286
#
# _framework density 17.995630999999999
#
# number of rings (size 3 to 8) (size 9 to 14) (size 15 to 20)
#    0.000    2.500    0.000    2.250    0.000    9.000 
#    0.000    0.625    0.000    0.000    0.000    0.000 
#    0.000    0.000    0.000    0.000    0.000    0.000 
#
# Total GULP energy -396706.305450 kJ/mol
# GULP energy per Si atom -12397.072045 kJ/mol
# Density = 1.795467 g / cm^3
# Si number density = 17.995631 Si / 1000 Ang^3
#
#
#
# Elastic Constant Matrix: (Units=GPa)
#
#
# Indices 1 2 3 4 5 6 
#
# 1 54.0849 30.1064 33.6946 0.0000 -13.3626 0.0000
# 2 30.1064 91.7928 37.3922 0.0000 -9.1786 0.0000
# 3 33.6946 37.3922 101.1506 0.0000 -8.4512 0.0000
# 4 0.0000 0.0000 0.0000 17.2587 0.0000 -1.0615
# 5 -13.3626 -9.1786 -8.4512 0.0000 30.1903 0.0000
# 6 0.0000 0.0000 0.0000 -1.0615 0.0000 12.4884
#
#
#
# Elastic Compliance Matrix: (Units=1/GPa)
#
#
# Indices 1 2 3 4 5 6 
#
# 1 0.027807 -0.005612 -0.006453 0.000000 0.008795 0.000000
# 2 -0.005612 0.014166 -0.003292 0.000000 0.000901 0.000000
# 3 -0.006453 -0.003292 0.013240 0.000000 -0.000151 0.000000
# 4 0.000000 0.000000 0.000000 0.058246 0.000000 0.004951
# 5 0.008795 0.000901 -0.000151 0.000000 0.037248 0.000000
# 6 0.000000 0.000000 0.000000 0.004951 0.000000 0.080495
#
#
# Mechanical properties :
#
#
# Convention : Reuss Voigt Hill
#
# Bulk Modulus (GPa) = 40.81913 49.93496 45.37705
# Shear Modulus (GPa) = 18.51287 21.70983 20.11135
#
# Velocity S-wave (km/s) = 3.21088 3.47709 3.34663
# Velocity P-wave (km/s) = 6.03973 6.62788 6.34063
#
# Compressibility (1/GPa) = 0.02449832
#
# Stress axis : x y z
#
# Youngs Moduli (GPa) = 35.96264 70.59258 75.52704
#
# Poissons Ratio (x) = 0.39615 0.48741
# Poissons Ratio (y) = 0.20182 0.24863
# Poissons Ratio (z) = 0.23208 0.23239
#
# Static dielectric constant tensor:
#      x y z
#    x 3.057160 0.000000 0.040990 
#    y 0.000000 3.227220 0.000000 
#    z 0.040990 0.000000 3.575970 
# 
# 
# High freq. dielectric constant tensor:
#      x y z
#    x 1.673490 0.000000 0.002230 
#    y 0.000000 1.684180 0.000000 
#    z 0.002230 0.000000 1.708760 
# 
# From -- ./inp_files/32645.got.cif
#   From: 2010.06.25/outbox.cif.g09.slc.cpg/sg11_17_cif.got.tgz:32645.got - 2010.06.27 23:14:04.
