data_PCOD8070288
_publ_section_title
;
Structure prediction by ZEFSAII (Michael W. Deem and Ramdas Pophale) SiO2 
 PCOD8070288
Probable space group: P 21/M
;
_chemical_formula_sum "Si O2"
_cell_formula_units_Z 24
_cell_length_a 15.080219
_cell_length_b 18.184316
_cell_length_c 12.951723
_cell_angle_alpha 90.000000
_cell_angle_beta 19.470079
_cell_angle_gamma 90.000000
_cell_volume 1183.822077
_symmetry_space_group_name_H-M "P 21/M"
_symmetry_group_IT_number 11
_symmetry_cell_setting 'monoclinic'
loop_
_space_group_symop_operation_xyz
x,y,z
-x,1/2+y,-z
-x,-y,-z
x,1/2-y,z
loop_
_atom_site_type_symbol
_atom_site_label
_atom_site_fract_x
_atom_site_fract_y
_atom_site_fract_z
Si Si1 0.746980 0.455824 0.443158
Si Si2 0.987532 0.913139 0.488343
Si Si3 0.432037 0.575663 0.133927
Si Si4 0.647323 0.931032 0.287860
Si Si5 0.666880 0.621896 0.481636
Si Si6 0.094088 0.831702 0.168724
O O1 0.709455 0.434026 0.602091
O O2 0.552523 0.404676 0.584684
O O3 0.641056 0.537858 0.544874
O O4 0.058810 0.451238 0.074975
O O5 0.231630 0.876421 0.282596
O O6 0.008108 0.894355 0.344739
O O7 0.000000 0.000000 0.500000
O O8 0.710285 0.880749 0.837260
O O9 0.500000 0.500000 0.000000
O O10 0.685595 0.870578 0.336228
O O11 0.500000 0.000000 0.500000
O O12 0.929875 0.656719 0.243511
O O13 0.406239 0.664198 0.804508
O O14 0.034243 0.750000 0.277930
#
# Coordination Sequence:
#
# PCOD8070288 Si02
#       6
#     4   4   4   4   4   4
#     4  11  19  33  54  85 117 143 184 235 287 347
#     4  10  19  34  52  78 109 145 186 230 286 338
#     4  10  19  30  50  78 108 144 181 223 279 331
#     4  10  20  32  52  82 113 146 178 224 284 345
#     4  11  20  36  54  77 116 150 181 227 290 346
#     4  12  24  37  56  84 115 152 194 239 291 357
#
# _framework density 20.273316000000001
#
# number of rings (size 3 to 8) (size 9 to 14) (size 15 to 20)
#    0.000    1.333    0.000   11.500    0.000    0.000 
#    0.000    0.000    0.000    0.000    0.000   23.333 
#    0.000    0.000    0.000    0.000    0.000    0.000 
#
# Total GULP energy -297382.199281 kJ/mol
# GULP energy per Si atom -12390.924970 kJ/mol
# Density = 2.022717 g / cm^3
# Si number density = 20.273316 Si / 1000 Ang^3
#
#
#
# Elastic Constant Matrix: (Units=GPa)
#
#
# Indices 1 2 3 4 5 6 
#
# 1 151.7650 20.9800 75.9285 0.0000 -11.7789 0.0000
# 2 20.9800 45.1077 14.1590 0.0000 4.8306 0.0000
# 3 75.9285 14.1590 162.8805 0.0000 -15.9999 0.0000
# 4 0.0000 0.0000 0.0000 12.8715 0.0000 -1.8761
# 5 -11.7789 4.8306 -15.9999 0.0000 53.0892 0.0000
# 6 0.0000 0.0000 0.0000 -1.8761 0.0000 10.3236
#
#
#
# Elastic Compliance Matrix: (Units=1/GPa)
#
#
# Indices 1 2 3 4 5 6 
#
# 1 0.009020 -0.003117 -0.003823 0.000000 0.001133 0.000000
# 2 -0.003117 0.024265 -0.000970 0.000000 -0.003192 0.000000
# 3 -0.003823 -0.000970 0.008173 0.000000 0.001703 0.000000
# 4 0.000000 0.000000 0.000000 0.079805 0.000000 0.014503
# 5 0.001133 -0.003192 0.001703 0.000000 0.019891 0.000000
# 6 0.000000 0.000000 0.000000 0.014503 0.000000 0.099501
#
#
# Mechanical properties :
#
#
# Convention : Reuss Voigt Hill
#
# Bulk Modulus (GPa) = 39.00217 64.65426 51.82821
# Shear Modulus (GPa) = 18.86641 31.83592 25.35116
#
# Velocity S-wave (km/s) = 3.05389 3.96705 3.54003
# Velocity P-wave (km/s) = 5.63160 7.27625 6.50610
#
# Compressibility (1/GPa) = 0.02563960
#
# Stress axis : x y z
#
# Youngs Moduli (GPa) = 110.85896 41.21148 122.35233
#
# Poissons Ratio (x) = 0.12845 0.46772
# Poissons Ratio (y) = 0.34553 0.11867
# Poissons Ratio (z) = 0.42379 0.03997
#
# Static dielectric constant tensor:
#      x y z
#    x 3.914620 0.000000 0.533210 
#    y 0.000000 3.174770 0.000000 
#    z 0.533210 0.000000 2.846680 
# 
# 
# High freq. dielectric constant tensor:
#      x y z
#    x 1.822050 0.000000 -0.020220 
#    y 0.000000 1.710150 0.000000 
#    z -0.020220 0.000000 1.814440 
# 
# From -- ./inp_files/40139.got.cif
#   From: 2010.06.25/outbox.cif.g09.slc.cpg/sg11_21_cif.got.tgz:40139.got - 2010.06.27 23:14:04.
