data_PCOD8070383
_publ_section_title
;
Structure prediction by ZEFSAII (Michael W. Deem and Ramdas Pophale) SiO2 
 PCOD8070383
Probable space group: P 21/M
;
_chemical_formula_sum "Si O2"
_cell_formula_units_Z 32
_cell_length_a 24.463218
_cell_length_b 9.533695
_cell_length_c 24.463202
_cell_angle_alpha 90.000000
_cell_angle_beta 161.684145
_cell_angle_gamma 90.000000
_cell_volume 1792.959886
_symmetry_space_group_name_H-M "P 21/M"
_symmetry_group_IT_number 11
_symmetry_cell_setting 'monoclinic'
loop_
_space_group_symop_operation_xyz
x,y,z
-x,1/2+y,-z
-x,-y,-z
x,1/2-y,z
loop_
_atom_site_type_symbol
_atom_site_label
_atom_site_fract_x
_atom_site_fract_y
_atom_site_fract_z
Si Si1 0.222358 0.586805 0.167499
Si Si2 0.523152 0.907428 0.074974
Si Si3 0.832499 0.586806 0.777641
Si Si4 0.024540 0.083835 0.354830
Si Si5 0.628396 0.917908 0.371603
Si Si6 0.354828 0.916166 0.024539
Si Si7 0.433547 0.084116 0.566457
Si Si8 0.074973 0.407427 0.523151
O O1 0.244906 0.750000 0.203908
O O2 0.234424 0.500004 0.234424
O O3 0.378227 0.533784 0.276627
O O4 0.037914 0.560197 0.962084
O O5 0.459747 0.750000 0.000729
O O6 0.411663 0.973313 0.018930
O O7 0.719085 0.906072 0.280916
O O8 0.500000 0.000000 0.000000
O O9 0.796093 0.750000 0.755099
O O10 0.723372 0.533791 0.621772
O O11 0.045771 0.250000 0.378560
O O12 0.187065 0.022862 0.475093
O O13 0.018930 0.026685 0.411663
O O14 0.845454 0.040495 0.154547
O O15 0.627923 0.750000 0.372080
O O16 0.475092 0.977138 0.187064
O O17 0.597321 0.979913 0.402679
O O18 0.378559 0.750000 0.045770
O O19 0.431427 0.250000 0.568588
O O20 0.000729 0.250000 0.459748
O O21 0.000000 0.500000 0.500000
#
# Coordination Sequence:
#
# PCOD8070383 Si02
#       8
#     4   4   4   4   4   4   4   4
#     4   9  17  29  45  67  95 124 153 188 229 271
#     4  10  19  31  47  69  96 121 151 192 233 280
#     4   9  17  29  45  67  95 124 153 188 229 271
#     4   9  16  27  43  62  88 120 150 184 228 275
#     4   9  16  27  41  62  90 120 152 188 230 278
#     4   9  16  27  43  62  88 120 150 184 228 275
#     4   9  17  27  42  64  92 122 154 192 230 268
#     4  10  19  31  47  69  96 121 151 192 233 280
#
# _framework density 17.847581000000002
#
# number of rings (size 3 to 8) (size 9 to 14) (size 15 to 20)
#    0.000    2.750    1.250    1.125    0.000    2.500 
#    0.000    5.000    0.000    0.000    0.000    3.500 
#    0.000    4.000    0.000    0.000    0.000    0.000 
#
# Total GULP energy -396685.495394 kJ/mol
# GULP energy per Si atom -12396.421731 kJ/mol
# Density = 1.780696 g / cm^3
# Si number density = 17.847581 Si / 1000 Ang^3
#
#
#
# Elastic Constant Matrix: (Units=GPa)
#
#
# Indices 1 2 3 4 5 6 
#
# 1 164.9188 29.4854 94.1475 0.0000 -2.2101 0.0000
# 2 29.4854 25.9098 19.4609 0.0000 -1.8248 0.0000
# 3 94.1475 19.4609 149.5982 0.0000 -0.5776 0.0000
# 4 0.0000 0.0000 0.0000 13.7145 0.0000 -0.9018
# 5 -2.2101 -1.8248 -0.5776 0.0000 29.6088 0.0000
# 6 0.0000 0.0000 0.0000 -0.9018 0.0000 18.6695
#
#
#
# Elastic Compliance Matrix: (Units=1/GPa)
#
#
# Indices 1 2 3 4 5 6 
#
# 1 0.010759 -0.007918 -0.005740 0.000000 0.000203 0.000000
# 2 -0.007918 0.048792 -0.001355 0.000000 0.002390 0.000000
# 3 -0.005740 -0.001355 0.010472 0.000000 -0.000308 0.000000
# 4 0.000000 0.000000 0.000000 0.073148 0.000000 0.003533
# 5 0.000203 0.002390 -0.000308 0.000000 0.033930 0.000000
# 6 0.000000 0.000000 0.000000 0.003533 0.000000 0.053734
#
#
# Mechanical properties :
#
#
# Convention : Reuss Voigt Hill
#
# Bulk Modulus (GPa) = 25.00190 69.62382 47.31286
# Shear Modulus (GPa) = 18.23532 25.55409 21.89471
#
# Velocity S-wave (km/s) = 3.19991 3.78801 3.50631
# Velocity P-wave (km/s) = 5.26228 7.63066 6.55433
#
# Compressibility (1/GPa) = 0.03999696
#
# Stress axis : x y z
#
# Youngs Moduli (GPa) = 92.94745 20.49519 95.49181
#
# Poissons Ratio (x) = 0.16228 0.54813
# Poissons Ratio (y) = 0.73594 0.12940
# Poissons Ratio (z) = 0.53353 0.02777
#
# Static dielectric constant tensor:
#      x y z
#    x 0.199480 0.000000 0.596890 
#    y 0.000000 2.738630 0.000000 
#    z 0.596890 0.000000 3.478830 
# 
# 
# High freq. dielectric constant tensor:
#      x y z
#    x 1.690910 0.000000 0.003720 
#    y 0.000000 1.623000 0.000000 
#    z 0.003720 0.000000 1.711330 
# 
# From -- ./inp_files/26290.got.cif
#   From: 2010.06.25/outbox.cif.g09.slc.cpg/sg11_14_cif.got.tgz:26290.got - 2010.06.27 23:14:04.
