data_PCOD8070123
_publ_section_title
;
Structure prediction by ZEFSAII (Michael W. Deem and Ramdas Pophale) SiO2 
 PCOD8070123
Probable space group: P 21/M
;
_chemical_formula_sum "Si O2"
_cell_formula_units_Z 28
_cell_length_a 11.366363
_cell_length_b 9.314206
_cell_length_c 21.740764
_cell_angle_alpha 90.000000
_cell_angle_beta 48.345890
_cell_angle_gamma 90.000000
_cell_volume 1719.736949
_symmetry_space_group_name_H-M "P 21/M"
_symmetry_group_IT_number 11
_symmetry_cell_setting 'monoclinic'
loop_
_space_group_symop_operation_xyz
x,y,z
-x,1/2+y,-z
-x,-y,-z
x,1/2-y,z
loop_
_atom_site_type_symbol
_atom_site_label
_atom_site_fract_x
_atom_site_fract_y
_atom_site_fract_z
Si Si1 0.098341 0.083717 0.049047
Si Si2 0.788576 0.912822 0.571987
Si Si3 0.768790 0.916411 0.758792
Si Si4 0.658810 0.918930 0.930012
Si Si5 0.024155 0.914304 0.395165
Si Si6 0.508524 0.912210 0.746917
Si Si7 0.798600 0.582488 0.122684
O O1 0.050706 0.250000 0.069149
O O2 0.212420 0.038053 0.064310
O O3 0.187295 0.048593 0.954567
O O4 0.940426 0.991330 0.110343
O O5 0.837869 0.750000 0.576161
O O6 0.601058 0.928571 0.649386
O O7 0.841204 0.933140 0.481862
O O8 0.872714 0.033060 0.583284
O O9 0.809836 0.750000 0.746396
O O10 0.721302 0.972421 0.842430
O O11 0.627147 0.951137 0.761242
O O12 0.929799 0.995777 0.681483
O O13 0.623888 0.750000 0.942317
O O14 0.500000 0.000000 0.000000
O O15 0.063935 0.750000 0.366836
O O16 0.444905 0.750000 0.777606
O O17 0.365147 0.021366 0.795972
O O18 0.803960 0.750000 0.135036
#
# Coordination Sequence:
#
# PCOD8070123 Si02
#       7
#     4   4   4   4   4   4   4
#     4   9  19  34  48  63  86 117 149 179 217 263
#     4   8  15  26  39  59  88 119 148 179 219 264
#     4   9  18  30  43  63  92 123 150 178 219 267
#     4  10  20  33  49  68  91 119 150 183 218 261
#     4   9  15  24  40  61  86 117 151 183 215 257
#     4   9  16  27  43  63  90 120 145 173 215 264
#     4  10  19  30  46  67  88 111 145 187 222 255
#
# _framework density 16.281559999999999
#
# number of rings (size 3 to 8) (size 9 to 14) (size 15 to 20)
#    0.000    2.857    0.000    2.571    0.000    4.571 
#    0.000    0.000    0.000    0.000    0.000    1.000 
#    0.000    0.000    0.000    0.000    0.000    0.000 
#
# Total GULP energy -347022.306084 kJ/mol
# GULP energy per Si atom -12393.653789 kJ/mol
# Density = 1.624450 g / cm^3
# Si number density = 16.281560 Si / 1000 Ang^3
#
#
#
# Elastic Constant Matrix: (Units=GPa)
#
#
# Indices 1 2 3 4 5 6 
#
# 1 72.7060 40.0756 58.4618 0.0000 -7.4987 0.0000
# 2 40.0756 69.6843 59.4190 0.0000 -10.3342 0.0000
# 3 58.4618 59.4190 152.3263 0.0000 -10.2545 0.0000
# 4 0.0000 0.0000 0.0000 30.9505 0.0000 -5.7174
# 5 -7.4987 -10.3342 -10.2545 0.0000 19.8372 0.0000
# 6 0.0000 0.0000 0.0000 -5.7174 0.0000 20.1943
#
#
#
# Elastic Compliance Matrix: (Units=1/GPa)
#
#
# Indices 1 2 3 4 5 6 
#
# 1 0.022844 -0.008278 -0.005437 0.000000 0.001513 0.000000
# 2 -0.008278 0.025516 -0.006312 0.000000 0.006901 0.000000
# 3 -0.005437 -0.006312 0.011142 0.000000 0.000416 0.000000
# 4 0.000000 0.000000 0.000000 0.034093 0.000000 0.009652
# 5 0.001513 0.006901 0.000416 0.000000 0.054792 0.000000
# 6 0.000000 0.000000 0.000000 0.009652 0.000000 0.052252
#
#
# Mechanical properties :
#
#
# Convention : Reuss Voigt Hill
#
# Bulk Modulus (GPa) = 51.41453 67.84770 59.63112
# Shear Modulus (GPa) = 20.22861 23.31375 21.77118
#
# Velocity S-wave (km/s) = 3.52863 3.78817 3.66070
# Velocity P-wave (km/s) = 6.94612 7.80356 7.38729
#
# Compressibility (1/GPa) = 0.01944975
#
# Stress axis : x y z
#
# Youngs Moduli (GPa) = 43.77470 39.19050 89.75383
#
# Poissons Ratio (x) = 0.32440 0.48797
# Poissons Ratio (y) = 0.36235 0.56652
# Poissons Ratio (z) = 0.23799 0.24737
#
# Static dielectric constant tensor:
#      x y z
#    x 2.739760 0.000000 -0.041750 
#    y 0.000000 3.116700 0.000000 
#    z -0.041750 0.000000 3.471450 
# 
# 
# High freq. dielectric constant tensor:
#      x y z
#    x 1.571850 0.000000 -0.012580 
#    y 0.000000 1.633220 0.000000 
#    z -0.012580 0.000000 1.641250 
# 
# From -- ./inp_files/42375.got.cif
#   From: 2010.06.25/outbox.cif.g09.slc.cpg/sg11_22_cif.got.tgz:42375.got - 2010.06.27 23:14:04.
