data_PCOD8070775
_publ_section_title
;
Structure prediction by ZEFSAII (Michael W. Deem and Ramdas Pophale) SiO2 
 PCOD8070775
Probable space group: P 21/M
;
_chemical_formula_sum "Si O2"
_cell_formula_units_Z 32
_cell_length_a 11.399943
_cell_length_b 8.642878
_cell_length_c 23.542657
_cell_angle_alpha 90.000000
_cell_angle_beta 126.012705
_cell_angle_gamma 90.000000
_cell_volume 1876.308295
_symmetry_space_group_name_H-M "P 21/M"
_symmetry_group_IT_number 11
_symmetry_cell_setting 'monoclinic'
loop_
_space_group_symop_operation_xyz
x,y,z
-x,1/2+y,-z
-x,-y,-z
x,1/2-y,z
loop_
_atom_site_type_symbol
_atom_site_label
_atom_site_fract_x
_atom_site_fract_y
_atom_site_fract_z
Si Si1 0.520602 0.569399 0.774707
Si Si2 0.905577 0.568754 0.348692
Si Si3 0.301977 0.431883 0.802269
Si Si4 0.664663 0.932394 0.366662
Si Si5 0.811834 0.071476 0.893216
Si Si6 0.110633 0.569576 0.956944
Si Si7 0.125448 0.567350 0.496271
Si Si8 0.650257 0.431161 0.062675
O O1 0.489039 0.750000 0.773508
O O2 0.431914 0.472337 0.796377
O O3 0.480140 0.513888 0.698872
O O4 0.689712 0.535597 0.830830
O O5 0.884876 0.750000 0.347310
O O6 0.854104 0.518738 0.270806
O O7 0.789563 0.502499 0.360443
O O8 0.070294 0.525327 0.415563
O O9 0.309875 0.250000 0.818103
O O10 0.315214 0.527130 0.863125
O O11 0.640349 0.750000 0.361247
O O12 0.718140 0.990088 0.444607
O O13 0.777158 0.250000 0.870880
O O14 0.816453 0.036978 0.961567
O O15 0.964194 0.027680 0.907860
O O16 0.073738 0.750000 0.939250
O O17 0.221124 0.507035 0.940837
O O18 0.137794 0.750000 0.508079
O O19 0.000000 0.500000 0.500000
O O20 0.637291 0.250000 0.052137
O O21 0.500000 0.500000 0.000000
#
# Coordination Sequence:
#
# PCOD8070775 Si02
#       8
#     4   4   4   4   4   4   4   4
#     4  11  20  30  46  68  94 125 159 192 232 281
#     4   7  13  24  38  55  80 115 150 186 226 267
#     4  10  19  32  47  66  94 125 159 197 234 274
#     4   9  16  26  38  57  86 118 152 190 230 271
#     4  10  19  33  53  72  91 118 152 192 236 278
#     4   9  20  36  51  69  93 120 152 191 232 276
#     4   9  14  22  36  55  80 114 153 188 226 272
#     4  11  22  35  51  71  96 126 158 192 232 276
#
# _framework density 17.054766000000001
#
# number of rings (size 3 to 8) (size 9 to 14) (size 15 to 20)
#    0.000    2.500    0.000    5.250    0.000    2.500 
#    0.000    1.875    0.000    0.000    0.000    0.000 
#    0.000    1.000    0.000    3.000    0.000    6.250 
#
# Total GULP energy -396493.188951 kJ/mol
# GULP energy per Si atom -12390.412155 kJ/mol
# Density = 1.701595 g / cm^3
# Si number density = 17.054766 Si / 1000 Ang^3
#
#
#
# Elastic Constant Matrix: (Units=GPa)
#
#
# Indices 1 2 3 4 5 6 
#
# 1 55.7151 14.4917 36.5919 0.0000 4.9146 0.0000
# 2 14.4917 57.2184 28.0287 0.0000 7.2292 0.0000
# 3 36.5919 28.0287 137.5785 0.0000 14.3813 0.0000
# 4 0.0000 0.0000 0.0000 30.6598 0.0000 3.8160
# 5 4.9146 7.2292 14.3813 0.0000 14.4580 0.0000
# 6 0.0000 0.0000 0.0000 3.8160 0.0000 18.8049
#
#
#
# Elastic Compliance Matrix: (Units=1/GPa)
#
#
# Indices 1 2 3 4 5 6 
#
# 1 0.022222 -0.002962 -0.005214 0.000000 -0.000886 0.000000
# 2 -0.002962 0.020362 -0.002680 0.000000 -0.006508 0.000000
# 3 -0.005214 -0.002680 0.009906 0.000000 -0.006741 0.000000
# 4 0.000000 0.000000 0.000000 0.033461 0.000000 -0.006790
# 5 -0.000886 -0.006508 -0.006741 0.000000 0.079426 0.000000
# 6 0.000000 0.000000 0.000000 -0.006790 0.000000 0.054556
#
#
# Mechanical properties :
#
#
# Convention : Reuss Voigt Hill
#
# Bulk Modulus (GPa) = 32.49161 45.41516 38.95338
# Shear Modulus (GPa) = 19.84877 24.21119 22.02998
#
# Velocity S-wave (km/s) = 3.41519 3.77186 3.59795
# Velocity P-wave (km/s) = 5.88592 6.75693 6.33641
#
# Compressibility (1/GPa) = 0.03077718
#
# Stress axis : x y z
#
# Youngs Moduli (GPa) = 45.00139 49.11043 100.94790
#
# Poissons Ratio (x) = 0.14546 0.52637
# Poissons Ratio (y) = 0.13329 0.27057
# Poissons Ratio (z) = 0.23465 0.13163
#
# Static dielectric constant tensor:
#      x y z
#    x 2.777040 0.000000 0.073840 
#    y 0.000000 3.157130 0.000000 
#    z 0.073840 0.000000 3.902160 
# 
# 
# High freq. dielectric constant tensor:
#      x y z
#    x 1.587720 0.000000 0.016820 
#    y 0.000000 1.663130 0.000000 
#    z 0.016820 0.000000 1.682690 
# 
# From -- ./inp_files/68333.got.cif
#   From: 2010.06.25/outbox.cif.g09.slc.cpg/sg11_35_cif.got.tgz:68333.got - 2010.06.27 23:14:04.
