data_PCOD8070889
_publ_section_title
;
Structure prediction by ZEFSAII (Michael W. Deem and Ramdas Pophale) SiO2 
 PCOD8070889
Probable space group: P 21/M
;
_chemical_formula_sum "Si O2"
_cell_formula_units_Z 28
_cell_length_a 9.413539
_cell_length_b 8.891100
_cell_length_c 26.458576
_cell_angle_alpha 90.000000
_cell_angle_beta 137.092525
_cell_angle_gamma 90.000000
_cell_volume 1507.665225
_symmetry_space_group_name_H-M "P 21/M"
_symmetry_group_IT_number 11
_symmetry_cell_setting 'monoclinic'
loop_
_space_group_symop_operation_xyz
x,y,z
-x,1/2+y,-z
-x,-y,-z
x,1/2-y,z
loop_
_atom_site_type_symbol
_atom_site_label
_atom_site_fract_x
_atom_site_fract_y
_atom_site_fract_z
Si Si1 0.286318 0.571984 0.716733
Si Si2 0.503824 0.425390 0.580715
Si Si3 0.184871 0.425767 0.411011
Si Si4 0.639342 0.072962 0.151676
Si Si5 0.425751 0.071438 0.297767
Si Si6 0.980082 0.927126 0.168528
Si Si7 0.665199 0.922869 0.008435
O O1 0.293793 0.750000 0.716691
O O2 0.363034 0.514548 0.791467
O O3 0.439478 0.506568 0.713898
O O4 0.051260 0.516556 0.644685
O O5 0.530873 0.250000 0.598283
O O6 0.303259 0.461203 0.493995
O O7 0.713179 0.484225 0.608558
O O8 0.467987 0.510357 0.623783
O O9 0.196995 0.250000 0.400512
O O10 0.695322 0.250000 0.163321
O O11 0.813788 0.981371 0.166727
O O12 0.403939 0.041845 0.067587
O O13 0.427213 0.250000 0.299650
O O14 0.191455 0.015471 0.231563
O O15 0.019816 0.750000 0.185890
O O16 0.896044 0.967351 0.089235
O O17 0.636520 0.750000 0.012519
O O18 0.500000 0.000000 0.000000
#
# Coordination Sequence:
#
# PCOD8070889 Si02
#       7
#     4   4   4   4   4   4   4
#     4   9  19  34  52  73  98 131 171 208 242 292
#     4  10  20  34  54  80 105 129 162 205 251 299
#     4   9  18  35  57  79 103 131 164 203 248 298
#     4   9  16  31  55  78  99 129 168 207 250 299
#     4  11  22  35  50  70  99 136 174 208 246 294
#     4  10  19  32  50  75 104 131 164 208 255 300
#     4   8  15  27  47  74 101 127 159 203 251 298
#
# _framework density 18.571760000000001
#
# number of rings (size 3 to 8) (size 9 to 14) (size 15 to 20)
#    0.000    2.571    0.000    2.143    0.000    2.857 
#    0.000    3.571    0.000    0.000    0.000    0.000 
#    0.000    0.000    0.000    0.000    0.000    0.000 
#
# Total GULP energy -346989.698387 kJ/mol
# GULP energy per Si atom -12392.489228 kJ/mol
# Density = 1.852949 g / cm^3
# Si number density = 18.571760 Si / 1000 Ang^3
#
#
#
# Elastic Constant Matrix: (Units=GPa)
#
#
# Indices 1 2 3 4 5 6 
#
# 1 103.5495 28.2789 60.2699 0.0000 -25.5800 0.0000
# 2 28.2789 49.6928 29.4496 0.0000 -9.6734 0.0000
# 3 60.2699 29.4496 121.9186 0.0000 -30.2349 0.0000
# 4 0.0000 0.0000 0.0000 21.7592 0.0000 -3.7578
# 5 -25.5800 -9.6734 -30.2349 0.0000 16.0357 0.0000
# 6 0.0000 0.0000 0.0000 -3.7578 0.0000 17.5356
#
#
#
# Elastic Compliance Matrix: (Units=1/GPa)
#
#
# Indices 1 2 3 4 5 6 
#
# 1 0.017317 -0.004449 -0.002444 0.000000 0.020334 0.000000
# 2 -0.004449 0.024997 -0.003492 0.000000 0.001399 0.000000
# 3 -0.002444 -0.003492 0.016462 0.000000 0.025034 0.000000
# 4 0.000000 0.000000 0.000000 0.047724 0.000000 0.010227
# 5 0.020334 0.001399 0.025034 0.000000 0.142841 0.000000
# 6 0.000000 0.000000 0.000000 0.010227 0.000000 0.059218
#
#
# Mechanical properties :
#
#
# Convention : Reuss Voigt Hill
#
# Bulk Modulus (GPa) = 26.31036 56.79531 41.55283
# Shear Modulus (GPa) = 14.61999 21.54360 18.08179
#
# Velocity S-wave (km/s) = 2.80878 3.40960 3.12367
# Velocity P-wave (km/s) = 4.97158 6.79326 5.95252
#
# Compressibility (1/GPa) = 0.03800784
#
# Stress axis : x y z
#
# Youngs Moduli (GPa) = 57.74527 40.00484 60.74614
#
# Poissons Ratio (x) = 0.17796 0.14844
# Poissons Ratio (y) = 0.25688 0.21213
# Poissons Ratio (z) = 0.14111 0.13970
#
# Static dielectric constant tensor:
#      x y z
#    x 3.317140 0.000000 -0.194170 
#    y 0.000000 3.270740 0.000000 
#    z -0.194170 0.000000 4.044670 
# 
# 
# High freq. dielectric constant tensor:
#      x y z
#    x 1.690910 0.000000 -0.010770 
#    y 0.000000 1.710970 0.000000 
#    z -0.010770 0.000000 1.746400 
# 
# From -- ./inp_files/24062.got.cif
#   From: 2010.06.25/outbox.cif.g09.slc.cpg/sg11_13_cif.got.tgz:24062.got - 2010.06.27 23:14:04.
