data_PCOD8070082
_publ_section_title
;
Structure prediction by ZEFSAII (Michael W. Deem and Ramdas Pophale) SiO2 
 PCOD8070082
Probable space group: P 21/M
;
_chemical_formula_sum "Si O2"
_cell_formula_units_Z 28
_cell_length_a 21.547993
_cell_length_b 9.471959
_cell_length_c 11.386580
_cell_angle_alpha 90.000000
_cell_angle_beta 48.339597
_cell_angle_gamma 90.000000
_cell_volume 1736.270401
_symmetry_space_group_name_H-M "P 21/M"
_symmetry_group_IT_number 11
_symmetry_cell_setting 'monoclinic'
loop_
_space_group_symop_operation_xyz
x,y,z
-x,1/2+y,-z
-x,-y,-z
x,1/2-y,z
loop_
_atom_site_type_symbol
_atom_site_label
_atom_site_fract_x
_atom_site_fract_y
_atom_site_fract_z
Si Si1 0.625569 0.085587 0.801474
Si Si2 0.547124 0.588056 0.099917
Si Si3 0.940233 0.905080 0.227293
Si Si4 0.431553 0.415429 0.656242
Si Si5 0.736354 0.582635 0.252998
Si Si6 0.085881 0.093628 0.016521
Si Si7 0.755025 0.582900 0.492989
O O1 0.645883 0.250000 0.794749
O O2 0.549319 0.063360 0.808172
O O3 0.705191 0.006092 0.650924
O O4 0.604424 0.016289 0.953090
O O5 0.572583 0.750000 0.041625
O O6 0.561046 0.547813 0.216940
O O7 0.960592 0.750000 0.250703
O O8 0.934563 0.899735 0.094715
O O9 0.851920 0.955719 0.390207
O O10 0.016006 0.004357 0.173080
O O11 0.500000 0.500000 0.500000
O O12 0.444151 0.250000 0.615684
O O13 0.341538 0.467813 0.725520
O O14 0.746069 0.750000 0.243992
O O15 0.821859 0.524413 0.086482
O O16 0.726031 0.531086 0.400219
O O17 0.083351 0.250000 0.074852
O O18 0.738946 0.750000 0.529870
#
# Coordination Sequence:
#
# PCOD8070082 Si02
#       7
#     4   4   4   4   4   4   4
#     4  10  19  30  45  64  85 110 144 183 216 248
#     4   9  19  33  46  62  85 114 145 176 213 254
#     4   8  14  23  36  57  84 112 139 168 205 248
#     4  10  19  31  47  66  89 115 144 176 209 250
#     4   8  15  27  43  63  87 117 146 171 207 255
#     4   8  13  23  38  56  81 112 143 170 200 245
#     4   9  16  27  43  63  89 117 142 170 210 258
#
# _framework density 16.126519999999999
#
# number of rings (size 3 to 8) (size 9 to 14) (size 15 to 20)
#    0.000    3.143    0.000    3.000    0.000    1.714 
#    0.000    2.857    0.000    0.000    0.000    1.000 
#    0.000    0.000    0.000    0.000    0.000    0.000 
#
# Total GULP energy -347068.926565 kJ/mol
# GULP energy per Si atom -12395.318806 kJ/mol
# Density = 1.608981 g / cm^3
# Si number density = 16.126520 Si / 1000 Ang^3
#
#
#
# Elastic Constant Matrix: (Units=GPa)
#
#
# Indices 1 2 3 4 5 6 
#
# 1 83.0337 40.5113 60.4401 0.0000 -13.7553 0.0000
# 2 40.5113 76.8118 69.1010 0.0000 -12.5775 0.0000
# 3 60.4401 69.1010 124.3027 0.0000 -21.3049 0.0000
# 4 0.0000 0.0000 0.0000 30.9446 0.0000 -5.4259
# 5 -13.7553 -12.5775 -21.3049 0.0000 23.9822 0.0000
# 6 0.0000 0.0000 0.0000 -5.4259 0.0000 17.1949
#
#
#
# Elastic Compliance Matrix: (Units=1/GPa)
#
#
# Indices 1 2 3 4 5 6 
#
# 1 0.019276 -0.003411 -0.006946 0.000000 0.003097 0.000000
# 2 -0.003411 0.026665 -0.013097 0.000000 0.000393 0.000000
# 3 -0.006946 -0.013097 0.019868 0.000000 0.006797 0.000000
# 4 0.000000 0.000000 0.000000 0.034209 0.000000 0.010795
# 5 0.003097 0.000393 0.006797 0.000000 0.049718 0.000000
# 6 0.000000 0.000000 0.000000 0.010795 0.000000 0.061563
#
#
# Mechanical properties :
#
#
# Convention : Reuss Voigt Hill
#
# Bulk Modulus (GPa) = 52.90720 69.36147 61.13434
# Shear Modulus (GPa) = 18.90307 22.03073 20.46690
#
# Velocity S-wave (km/s) = 3.42742 3.70011 3.56637
# Velocity P-wave (km/s) = 6.96719 7.83318 7.41284
#
# Compressibility (1/GPa) = 0.01890102
#
# Stress axis : x y z
#
# Youngs Moduli (GPa) = 51.87709 37.50295 50.33183
#
# Poissons Ratio (x) = 0.12791 0.34960
# Poissons Ratio (y) = 0.17694 0.65921
# Poissons Ratio (z) = 0.36033 0.49119
#
# Static dielectric constant tensor:
#      x y z
#    x 3.046740 0.000000 -0.287550 
#    y 0.000000 3.095190 0.000000 
#    z -0.287550 0.000000 2.988030 
# 
# 
# High freq. dielectric constant tensor:
#      x y z
#    x 1.594340 0.000000 -0.025950 
#    y 0.000000 1.609310 0.000000 
#    z -0.025950 0.000000 1.611350 
# 
# From -- ./inp_files/42376.got.cif
#   From: 2010.06.25/outbox.cif.g09.slc.cpg/sg11_22_cif.got.tgz:42376.got - 2010.06.27 23:14:04.
