data_PCOD8070204
_publ_section_title
;
Structure prediction by ZEFSAII (Michael W. Deem and Ramdas Pophale) SiO2 
 PCOD8070204
Probable space group: P 21/M
;
_chemical_formula_sum "Si O2"
_cell_formula_units_Z 32
_cell_length_a 23.946212
_cell_length_b 9.367128
_cell_length_c 17.548015
_cell_angle_alpha 90.000000
_cell_angle_beta 152.001890
_cell_angle_gamma 90.000000
_cell_volume 1847.794293
_symmetry_space_group_name_H-M "P 21/M"
_symmetry_group_IT_number 11
_symmetry_cell_setting 'monoclinic'
loop_
_space_group_symop_operation_xyz
x,y,z
-x,1/2+y,-z
-x,-y,-z
x,1/2-y,z
loop_
_atom_site_type_symbol
_atom_site_label
_atom_site_fract_x
_atom_site_fract_y
_atom_site_fract_z
Si Si1 0.626605 0.082781 0.987115
Si Si2 0.851230 0.917666 0.664441
Si Si3 0.186094 0.916973 0.912860
Si Si4 0.115501 0.410604 0.131016
Si Si5 0.900240 0.917741 0.053320
Si Si6 0.635808 0.580893 0.303753
Si Si7 0.287206 0.412283 0.765187
Si Si8 0.016036 0.410764 0.444225
O O1 0.632367 0.250000 0.011581
O O2 0.695499 0.045582 0.992428
O O3 0.689671 0.008065 0.133971
O O4 0.490542 0.029583 0.814443
O O5 0.876106 0.750000 0.677189
O O6 0.805709 0.938805 0.698008
O O7 0.744513 0.981487 0.484497
O O8 0.971009 0.005483 0.791248
O O9 0.181151 0.750000 0.927936
O O10 0.070578 0.966686 0.726170
O O11 0.186953 0.010761 0.990178
O O12 0.069850 0.250000 0.077050
O O13 0.169634 0.441825 0.112115
O O14 0.000000 0.500000 0.000000
O O15 0.917690 0.750000 0.092022
O O16 0.646652 0.750000 0.319548
O O17 0.641479 0.529466 0.222554
O O18 0.323584 0.250000 0.828952
O O19 0.149662 0.420528 0.574827
O O20 0.978868 0.250000 0.420405
O O21 0.000000 0.500000 0.500000
#
# Coordination Sequence:
#
# PCOD8070204 Si02
#       8
#     4   4   4   4   4   4   4   4
#     4  10  20  34  50  67  90 124 166 202 231 272
#     4   9  16  31  53  73  98 127 153 187 237 286
#     4  10  20  33  48  67  94 129 164 194 231 281
#     4   8  15  27  46  72  98 124 150 183 231 285
#     4  10  19  30  47  75 103 123 153 193 234 283
#     4   9  18  32  51  72  92 120 160 201 233 274
#     4  10  19  31  48  69  94 122 155 195 243 287
#     4  10  19  31  47  67  92 122 155 192 235 282
#
# _framework density 17.317945000000002
#
# number of rings (size 3 to 8) (size 9 to 14) (size 15 to 20)
#    0.000    2.500    1.250    1.500    0.000    3.500 
#    0.000    2.500    0.000    0.750    0.000    0.000 
#    0.000    0.000    0.000    0.000    0.000    0.625 
#
# Total GULP energy -396545.655254 kJ/mol
# GULP energy per Si atom -12392.051727 kJ/mol
# Density = 1.727853 g / cm^3
# Si number density = 17.317945 Si / 1000 Ang^3
#
#
#
# Elastic Constant Matrix: (Units=GPa)
#
#
# Indices 1 2 3 4 5 6 
#
# 1 137.3418 46.8111 41.5697 0.0000 -5.8597 0.0000
# 2 46.8111 49.7751 18.1280 0.0000 -5.0583 0.0000
# 3 41.5697 18.1280 44.9710 0.0000 2.7673 0.0000
# 4 0.0000 0.0000 0.0000 15.7713 0.0000 -3.3224
# 5 -5.8597 -5.0583 2.7673 0.0000 26.6509 0.0000
# 6 0.0000 0.0000 0.0000 -3.3224 0.0000 26.9836
#
#
#
# Elastic Compliance Matrix: (Units=1/GPa)
#
#
# Indices 1 2 3 4 5 6 
#
# 1 0.012986 -0.008891 -0.008546 0.000000 0.002055 0.000000
# 2 -0.008891 0.030461 -0.004323 0.000000 0.004276 0.000000
# 3 -0.008546 -0.004323 0.032251 0.000000 -0.006048 0.000000
# 4 0.000000 0.000000 0.000000 0.065095 0.000000 0.008015
# 5 0.002055 0.004276 -0.006048 0.000000 0.039413 0.000000
# 6 0.000000 0.000000 0.000000 0.008015 0.000000 0.038046
#
#
# Mechanical properties :
#
#
# Convention : Reuss Voigt Hill
#
# Bulk Modulus (GPa) = 31.07813 49.45614 40.26713
# Shear Modulus (GPa) = 18.34862 22.25311 20.30086
#
# Velocity S-wave (km/s) = 3.25855 3.58854 3.42752
# Velocity P-wave (km/s) = 5.66940 6.76682 6.24228
#
# Compressibility (1/GPa) = 0.03217697
#
# Stress axis : x y z
#
# Youngs Moduli (GPa) = 77.00630 32.82860 31.00659
#
# Poissons Ratio (x) = 0.29189 0.26499
# Poissons Ratio (y) = 0.68469 0.13405
# Poissons Ratio (z) = 0.65810 0.14193
#
# Static dielectric constant tensor:
#      x y z
#    x 3.659510 0.000000 -0.314450 
#    y 0.000000 3.124740 0.000000 
#    z -0.314450 0.000000 3.400490 
# 
# 
# High freq. dielectric constant tensor:
#      x y z
#    x 1.675870 0.000000 -0.012070 
#    y 0.000000 1.655890 0.000000 
#    z -0.012070 0.000000 1.646250 
# 
# From -- ./inp_files/43784.got.cif
#   From: 2010.06.25/outbox.cif.g09.slc.cpg/sg11_22_cif.got.tgz:43784.got - 2010.06.27 23:14:04.
