data_PCOD8070975
_publ_section_title
;
Structure prediction by ZEFSAII (Michael W. Deem and Ramdas Pophale) SiO2 
 PCOD8070975
Probable space group: P 21/M
;
_chemical_formula_sum "Si O2"
_cell_formula_units_Z 28
_cell_length_a 20.686086
_cell_length_b 8.862929
_cell_length_c 11.876815
_cell_angle_alpha 90.000000
_cell_angle_beta 53.455812
_cell_angle_gamma 90.000000
_cell_volume 1749.388505
_symmetry_space_group_name_H-M "P 21/M"
_symmetry_group_IT_number 11
_symmetry_cell_setting 'monoclinic'
loop_
_space_group_symop_operation_xyz
x,y,z
-x,1/2+y,-z
-x,-y,-z
x,1/2-y,z
loop_
_atom_site_type_symbol
_atom_site_label
_atom_site_fract_x
_atom_site_fract_y
_atom_site_fract_z
Si Si1 0.777128 0.571282 0.096593
Si Si2 0.917216 0.421055 0.058069
Si Si3 0.761124 0.079620 0.334163
Si Si4 0.412615 0.071998 0.082349
Si Si5 0.649462 0.925903 0.610357
Si Si6 0.347204 0.929140 0.928988
Si Si7 0.497626 0.927836 0.623944
O O1 0.775615 0.750000 0.087993
O O2 0.869579 0.510532 0.008078
O O3 0.729110 0.516923 0.259380
O O4 0.736088 0.496957 0.030484
O O5 0.933708 0.250000 0.001488
O O6 0.859192 0.423508 0.229332
O O7 0.000000 0.500000 0.000000
O O8 0.729013 0.250000 0.353632
O O9 0.729348 0.010182 0.483469
O O10 0.422628 0.250000 0.054291
O O11 0.363556 0.034372 0.246262
O O12 0.500000 0.000000 0.000000
O O13 0.361634 0.998681 0.036085
O O14 0.662652 0.750000 0.578889
O O15 0.573681 0.984590 0.616980
O O16 0.341475 0.750000 0.945182
O O17 0.418528 0.981081 0.772327
O O18 0.498619 0.750000 0.609598
O O19 0.500000 0.000000 0.500000
#
# Coordination Sequence:
#
# PCOD8070975 Si02
#       7
#     4   4   4   4   4   4   4
#     4  10  19  32  51  76 106 137 167 205 253 304
#     4   9  18  32  52  80 109 137 166 201 248 310
#     4   9  19  32  49  76 106 133 166 206 251 303
#     4  11  22  37  53  71  94 133 182 225 264 305
#     4  10  20  35  50  68  97 133 176 217 256 304
#     4  11  21  36  51  70  99 133 175 221 260 302
#     4  10  21  33  46  67  95 129 168 211 256 302
#
# _framework density 16.005590999999999
#
# number of rings (size 3 to 8) (size 9 to 14) (size 15 to 20)
#    0.857    1.143    1.429    3.429    0.000    5.143 
#    0.000    0.000    0.000    0.000    0.000    1.000 
#    0.000    0.000    0.000    0.000    0.000    0.000 
#
# Total GULP energy -347085.738475 kJ/mol
# GULP energy per Si atom -12395.919231 kJ/mol
# Density = 1.596916 g / cm^3
# Si number density = 16.005591 Si / 1000 Ang^3
#
#
#
# Elastic Constant Matrix: (Units=GPa)
#
#
# Indices 1 2 3 4 5 6 
#
# 1 118.0472 54.0715 62.6157 0.0000 6.0810 0.0000
# 2 54.0715 101.2226 51.0967 0.0000 6.7678 0.0000
# 3 62.6157 51.0967 74.7942 0.0000 12.7967 0.0000
# 4 0.0000 0.0000 0.0000 27.6690 0.0000 1.1103
# 5 6.0810 6.7678 12.7967 0.0000 23.6214 0.0000
# 6 0.0000 0.0000 0.0000 1.1103 0.0000 29.6590
#
#
#
# Elastic Compliance Matrix: (Units=1/GPa)
#
#
# Indices 1 2 3 4 5 6 
#
# 1 0.015913 -0.002615 -0.012083 0.000000 0.003198 0.000000
# 2 -0.002615 0.015551 -0.008583 0.000000 0.000867 0.000000
# 3 -0.012083 -0.008583 0.031297 0.000000 -0.011385 0.000000
# 4 0.000000 0.000000 0.000000 0.036196 0.000000 -0.001355
# 5 0.003198 0.000867 -0.011385 0.000000 0.047430 0.000000
# 6 0.000000 0.000000 0.000000 -0.001355 0.000000 0.033767
#
#
# Mechanical properties :
#
#
# Convention : Reuss Voigt Hill
#
# Bulk Modulus (GPa) = 61.73099 69.95909 65.84504
# Shear Modulus (GPa) = 21.54094 24.60855 23.07475
#
# Velocity S-wave (km/s) = 3.67255 3.92535 3.80105
# Velocity P-wave (km/s) = 7.52566 8.02175 7.77766
#
# Compressibility (1/GPa) = 0.01619932
#
# Stress axis : x y z
#
# Youngs Moduli (GPa) = 62.83998 64.30566 31.95206
#
# Poissons Ratio (x) = 0.16817 0.38607
# Poissons Ratio (y) = 0.16434 0.27424
# Poissons Ratio (z) = 0.75929 0.55192
#
# Static dielectric constant tensor:
#      x y z
#    x 2.894140 0.000000 0.003990 
#    y 0.000000 3.094730 0.000000 
#    z 0.003990 0.000000 2.890060 
# 
# 
# High freq. dielectric constant tensor:
#      x y z
#    x 1.599500 0.000000 0.002270 
#    y 0.000000 1.630990 0.000000 
#    z 0.002270 0.000000 1.593320 
# 
# From -- ./inp_files/42143.got.cif
#   From: 2010.06.25/outbox.cif.g09.slc.cpg/sg11_22_cif.got.tgz:42143.got - 2010.06.27 23:14:04.
