data_PCOD8070181
_publ_section_title
;
Structure prediction by ZEFSAII (Michael W. Deem and Ramdas Pophale) SiO2 
 PCOD8070181
Probable space group: P 21/M
;
_chemical_formula_sum "Si O2"
_cell_formula_units_Z 32
_cell_length_a 30.773288
_cell_length_b 9.053094
_cell_length_c 15.033916
_cell_angle_alpha 90.000000
_cell_angle_beta 151.844929
_cell_angle_gamma 90.000000
_cell_volume 1976.313277
_symmetry_space_group_name_H-M "P 21/M"
_symmetry_group_IT_number 11
_symmetry_cell_setting 'monoclinic'
loop_
_space_group_symop_operation_xyz
x,y,z
-x,1/2+y,-z
-x,-y,-z
x,1/2-y,z
loop_
_atom_site_type_symbol
_atom_site_label
_atom_site_fract_x
_atom_site_fract_y
_atom_site_fract_z
Si Si1 0.079022 0.577724 0.939714
Si Si2 0.747513 0.076192 0.258245
Si Si3 0.875819 0.924297 0.632648
Si Si4 0.812760 0.079787 0.691482
Si Si5 0.586677 0.579100 0.043177
Si Si6 0.875142 0.078191 0.328483
Si Si7 0.076711 0.422916 0.755609
Si Si8 0.613418 0.081361 0.272180
O O1 0.082278 0.750000 0.923693
O O2 0.110479 0.491093 0.908909
O O3 0.977257 0.528522 0.785111
O O4 0.150342 0.533625 0.145480
O O5 0.748064 0.250000 0.275145
O O6 0.792220 0.034823 0.244461
O O7 0.802095 0.003125 0.437470
O O8 0.643341 0.013463 0.071694
O O9 0.860923 0.750000 0.600739
O O10 0.862579 0.978014 0.709276
O O11 0.837762 0.250000 0.715706
O O12 0.702730 0.054636 0.494049
O O13 0.611780 0.750000 0.077535
O O14 0.617765 0.528575 0.197223
O O15 0.477684 0.549318 0.833220
O O16 0.875119 0.250000 0.304314
O O17 0.970164 0.033486 0.548239
O O18 0.861967 0.987773 0.213946
O O19 0.092413 0.250000 0.787252
O O20 0.610012 0.250000 0.229906
#
# Coordination Sequence:
#
# PCOD8070181 Si02
#       8
#     4   4   4   4   4   4   4   4
#     4  10  21  34  48  68  97 131 166 199 234 280
#     4  11  20  32  49  70  97 130 160 191 238 293
#     4  11  21  31  45  69  98 129 165 203 233 268
#     4  10  20  34  50  67  93 133 169 197 235 281
#     4  10  19  30  47  71  96 122 158 201 243 284
#     4   9  19  33  49  69  94 124 158 195 238 288
#     4  10  19  32  50  71  94 124 159 197 239 281
#     4   9  18  32  48  67  94 127 161 198 240 285
#
# _framework density 16.191766000000001
#
# number of rings (size 3 to 8) (size 9 to 14) (size 15 to 20)
#    0.000    2.000    2.500    1.875    0.000    3.000 
#    0.000    0.000    0.000    0.000    0.000    0.875 
#    0.000    0.000    0.000    0.000    0.000    0.000 
#
# Total GULP energy -396875.577268 kJ/mol
# GULP energy per Si atom -12402.361790 kJ/mol
# Density = 1.615491 g / cm^3
# Si number density = 16.191766 Si / 1000 Ang^3
#
#
#
# Elastic Constant Matrix: (Units=GPa)
#
#
# Indices 1 2 3 4 5 6 
#
# 1 128.1115 56.1140 51.6296 0.0000 -0.9816 0.0000
# 2 56.1140 67.6130 27.9963 0.0000 -2.2114 0.0000
# 3 51.6296 27.9963 61.9009 0.0000 -0.8215 0.0000
# 4 0.0000 0.0000 0.0000 19.2735 0.0000 1.0050
# 5 -0.9816 -2.2114 -0.8215 0.0000 23.9984 0.0000
# 6 0.0000 0.0000 0.0000 1.0050 0.0000 28.6962
#
#
#
# Elastic Compliance Matrix: (Units=1/GPa)
#
#
# Indices 1 2 3 4 5 6 
#
# 1 0.015270 -0.009121 -0.008618 0.000000 -0.000511 0.000000
# 2 -0.009121 0.023694 -0.003085 0.000000 0.001705 0.000000
# 3 -0.008618 -0.003085 0.024741 0.000000 0.000210 0.000000
# 4 0.000000 0.000000 0.000000 0.051980 0.000000 -0.001820
# 5 -0.000511 0.001705 0.000210 0.000000 0.041813 0.000000
# 6 0.000000 0.000000 0.000000 -0.001820 0.000000 0.034912
#
#
# Mechanical properties :
#
#
# Convention : Reuss Voigt Hill
#
# Bulk Modulus (GPa) = 45.34060 58.78948 52.06504
# Shear Modulus (GPa) = 20.71173 22.51934 21.61553
#
# Velocity S-wave (km/s) = 3.58040 3.73337 3.65769
# Velocity P-wave (km/s) = 6.71978 7.41426 7.07554
#
# Compressibility (1/GPa) = 0.02205529
#
# Stress axis : x y z
#
# Youngs Moduli (GPa) = 65.48782 42.20555 40.41910
#
# Poissons Ratio (x) = 0.38498 0.34832
# Poissons Ratio (y) = 0.59735 0.12471
# Poissons Ratio (z) = 0.56435 0.13022
#
# Static dielectric constant tensor:
#      x y z
#    x 3.108930 0.000000 0.183730 
#    y 0.000000 3.114070 0.000000 
#    z 0.183730 0.000000 2.999610 
# 
# 
# High freq. dielectric constant tensor:
#      x y z
#    x 1.615290 0.000000 0.011840 
#    y 0.000000 1.632550 0.000000 
#    z 0.011840 0.000000 1.597270 
# 
# From -- ./inp_files/51401.got.cif
#   From: 2010.06.25/outbox.cif.g09.slc.cpg/sg11_26_cif.got.tgz:51401.got - 2010.06.27 23:14:04.
