data_PCOD8070073
_publ_section_title
;
Structure prediction by ZEFSAII (Michael W. Deem and Ramdas Pophale) SiO2 
 PCOD8070073
Probable space group: P 21/M
;
_chemical_formula_sum "Si O2"
_cell_formula_units_Z 32
_cell_length_a 13.813952
_cell_length_b 9.203568
_cell_length_c 36.115203
_cell_angle_alpha 90.000000
_cell_angle_beta 24.070187
_cell_angle_gamma 90.000000
_cell_volume 1872.709753
_symmetry_space_group_name_H-M "P 21/M"
_symmetry_group_IT_number 11
_symmetry_cell_setting 'monoclinic'
loop_
_space_group_symop_operation_xyz
x,y,z
-x,1/2+y,-z
-x,-y,-z
x,1/2-y,z
loop_
_atom_site_type_symbol
_atom_site_label
_atom_site_fract_x
_atom_site_fract_y
_atom_site_fract_z
Si Si1 0.786705 0.582710 0.814523
Si Si2 0.188033 0.081852 0.637324
Si Si3 0.800671 0.587427 0.892911
Si Si4 0.278563 0.915593 0.011409
Si Si5 0.849678 0.410183 0.167530
Si Si6 0.340057 0.419070 0.365219
Si Si7 0.636253 0.581175 0.505993
Si Si8 0.849076 0.080761 0.499548
O O1 0.864863 0.750000 0.781647
O O2 0.837564 0.528680 0.838618
O O3 0.503687 0.565160 0.905551
O O4 0.927685 0.480471 0.737122
O O5 0.204297 0.250000 0.642796
O O6 0.230049 0.058620 0.579351
O O7 0.378687 0.993336 0.594877
O O8 0.687319 0.750000 0.930940
O O9 0.062832 0.594090 0.820191
O O10 0.644977 0.482682 0.974734
O O11 0.212251 0.750000 0.040874
O O12 0.041420 0.992568 0.077679
O O13 0.854436 0.250000 0.147947
O O14 0.581450 0.471315 0.260484
O O15 0.358779 0.250000 0.370486
O O16 0.309720 0.515881 0.412205
O O17 0.126032 0.444231 0.411520
O O18 0.602871 0.750000 0.527381
O O19 0.798295 0.503669 0.479644
O O20 0.787616 0.250000 0.516458
#
# Coordination Sequence:
#
# PCOD8070073 Si02
#       8
#     4   4   4   4   4   4   4   4
#     4  10  19  30  44  66  95 126 157 193 239 282
#     4  10  22  36  52  73  93 121 165 204 235 283
#     4   8  16  28  41  59  87 126 161 187 227 278
#     4   9  17  27  41  64  93 125 159 194 231 276
#     4   8  16  29  44  61  90 128 159 186 226 277
#     4   9  18  33  49  72 102 131 162 198 240 286
#     4  10  21  38  54  69  95 127 157 197 248 289
#     4  10  20  32  51  75  99 126 162 202 240 287
#
# _framework density 17.087537999999999
#
# number of rings (size 3 to 8) (size 9 to 14) (size 15 to 20)
#    0.750    2.000    0.000    1.500    1.750    4.000 
#    0.000    0.000    0.000    0.000    0.000    0.875 
#    0.000    0.000    0.000    0.000    0.000    0.000 
#
# Total GULP energy -396593.772441 kJ/mol
# GULP energy per Si atom -12393.555389 kJ/mol
# Density = 1.704865 g / cm^3
# Si number density = 17.087538 Si / 1000 Ang^3
#
#
#
# Elastic Constant Matrix: (Units=GPa)
#
#
# Indices 1 2 3 4 5 6 
#
# 1 55.6311 39.1837 27.9349 0.0000 -4.2416 0.0000
# 2 39.1837 112.1711 63.7036 0.0000 -3.4283 0.0000
# 3 27.9349 63.7036 114.6221 0.0000 -14.7591 0.0000
# 4 0.0000 0.0000 0.0000 32.0989 0.0000 -0.9269
# 5 -4.2416 -3.4283 -14.7591 0.0000 15.1456 0.0000
# 6 0.0000 0.0000 0.0000 -0.9269 0.0000 23.5666
#
#
#
# Elastic Compliance Matrix: (Units=1/GPa)
#
#
# Indices 1 2 3 4 5 6 
#
# 1 0.024280 -0.007730 -0.001111 0.000000 0.003968 0.000000
# 2 -0.007730 0.015786 -0.007671 0.000000 -0.006066 0.000000
# 3 -0.001111 -0.007671 0.014859 0.000000 0.012433 0.000000
# 4 0.000000 0.000000 0.000000 0.031189 0.000000 0.001227
# 5 0.003968 -0.006066 0.012433 0.000000 0.077879 0.000000
# 6 0.000000 0.000000 0.000000 0.001227 0.000000 0.042481
#
#
# Mechanical properties :
#
#
# Convention : Reuss Voigt Hill
#
# Bulk Modulus (GPa) = 45.65524 60.45208 53.05366
# Shear Modulus (GPa) = 20.25952 24.26901 22.26427
#
# Velocity S-wave (km/s) = 3.44704 3.77274 3.61356
# Velocity P-wave (km/s) = 6.52834 7.37786 6.96606
#
# Compressibility (1/GPa) = 0.02190329
#
# Stress axis : x y z
#
# Youngs Moduli (GPa) = 41.18611 63.34748 67.29928
#
# Poissons Ratio (x) = 0.48965 0.07474
# Poissons Ratio (y) = 0.31835 0.51623
# Poissons Ratio (z) = 0.04574 0.48592
#
# Static dielectric constant tensor:
#      x y z
#    x 2.880260 0.000000 -0.191350 
#    y 0.000000 3.266770 0.000000 
#    z -0.191350 0.000000 3.122070 
# 
# 
# High freq. dielectric constant tensor:
#      x y z
#    x 1.618800 0.000000 -0.021680 
#    y 0.000000 1.668310 0.000000 
#    z -0.021680 0.000000 1.655770 
# 
# From -- ./inp_files/73076.got.cif
#   From: 2010.06.25/outbox.cif.g09.slc.cpg/sg11_37_cif.got.tgz:73076.got - 2010.06.27 23:14:04.
