data_PCOD8070870
_publ_section_title
;
Structure prediction by ZEFSAII (Michael W. Deem and Ramdas Pophale) SiO2 
 PCOD8070870
Probable space group: P 21/M
;
_chemical_formula_sum "Si O2"
_cell_formula_units_Z 32
_cell_length_a 28.117759
_cell_length_b 8.717781
_cell_length_c 20.102713
_cell_angle_alpha 90.000000
_cell_angle_beta 159.113895
_cell_angle_gamma 90.000000
_cell_volume 1756.769536
_symmetry_space_group_name_H-M "P 21/M"
_symmetry_group_IT_number 11
_symmetry_cell_setting 'monoclinic'
loop_
_space_group_symop_operation_xyz
x,y,z
-x,1/2+y,-z
-x,-y,-z
x,1/2-y,z
loop_
_atom_site_type_symbol
_atom_site_label
_atom_site_fract_x
_atom_site_fract_y
_atom_site_fract_z
Si Si1 0.078243 0.070172 0.040991
Si Si2 0.896707 0.069378 0.169336
Si Si3 0.114707 0.933157 0.695248
Si Si4 0.607119 0.072222 0.783574
Si Si5 0.327458 0.924505 0.566799
Si Si6 0.620369 0.571428 0.941667
Si Si7 0.660277 0.072284 0.572962
Si Si8 0.929471 0.570148 0.723256
O O1 0.067445 0.250000 0.033139
O O2 0.232086 0.019686 0.243456
O O3 0.000000 0.000000 0.000000
O O4 0.011447 0.018512 0.885812
O O5 0.898842 0.250000 0.179636
O O6 0.912869 0.005182 0.265459
O O7 0.016014 0.013333 0.277364
O O8 0.754089 0.022711 0.948975
O O9 0.121153 0.750000 0.697930
O O10 0.000000 0.000000 0.500000
O O11 0.254487 0.008924 0.851883
O O12 0.576909 0.250000 0.731140
O O13 0.613354 0.040363 0.869873
O O14 0.487366 0.974883 0.594181
O O15 0.279305 0.750000 0.512475
O O16 0.477396 0.946037 0.792174
O O17 0.324200 0.968739 0.484564
O O18 0.227391 0.032362 0.477049
O O19 0.639136 0.750000 0.945401
O O20 0.681877 0.250000 0.614921
O O21 0.952503 0.750000 0.762919
#
# Coordination Sequence:
#
# PCOD8070870 Si02
#       8
#     4   4   4   4   4   4   4   4
#     4  12  23  35  50  72 101 134 175 221 267 309
#     4   8  18  35  53  76 106 138 170 209 253 308
#     4  10  19  34  57  84 111 135 167 208 255 305
#     4   9  16  30  51  73 100 133 172 215 261 308
#     4   9  18  31  48  72 103 134 170 215 260 300
#     4   9  17  30  49  75 106 135 169 210 255 301
#     4  10  19  32  50  73 101 130 171 222 269 309
#     4  11  21  34  53  74 101 139 177 212 259 311
#
# _framework density 18.215253000000001
#
# number of rings (size 3 to 8) (size 9 to 14) (size 15 to 20)
#    0.000    2.250    1.250    4.500    0.000    2.500 
#    0.000    8.125    0.000    0.750    0.000    0.000 
#    0.000    0.000    0.000    0.000    0.000    0.000 
#
# Total GULP energy -396612.054190 kJ/mol
# GULP energy per Si atom -12394.126693 kJ/mol
# Density = 1.817379 g / cm^3
# Si number density = 18.215253 Si / 1000 Ang^3
#
#
#
# Elastic Constant Matrix: (Units=GPa)
#
#
# Indices 1 2 3 4 5 6 
#
# 1 72.2966 33.4032 46.4369 0.0000 13.5976 0.0000
# 2 33.4032 88.1644 45.5101 0.0000 7.9061 0.0000
# 3 46.4369 45.5101 144.7233 0.0000 13.6829 0.0000
# 4 0.0000 0.0000 0.0000 35.7358 0.0000 3.8536
# 5 13.5976 7.9061 13.6829 0.0000 23.7506 0.0000
# 6 0.0000 0.0000 0.0000 3.8536 0.0000 16.0590
#
#
#
# Elastic Compliance Matrix: (Units=1/GPa)
#
#
# Indices 1 2 3 4 5 6 
#
# 1 0.020191 -0.004774 -0.004267 0.000000 -0.007512 0.000000
# 2 -0.004774 0.014776 -0.003076 0.000000 -0.000414 0.000000
# 3 -0.004267 -0.003076 0.009432 0.000000 -0.001967 0.000000
# 4 0.000000 0.000000 0.000000 0.028727 0.000000 -0.006893
# 5 -0.007512 -0.000414 -0.001967 0.000000 0.047676 0.000000
# 6 0.000000 0.000000 0.000000 -0.006893 0.000000 0.063925
#
#
# Mechanical properties :
#
#
# Convention : Reuss Voigt Hill
#
# Bulk Modulus (GPa) = 49.58798 61.76498 55.67648
# Shear Modulus (GPa) = 23.18232 27.09800 25.14016
#
# Velocity S-wave (km/s) = 3.57134 3.86120 3.71910
# Velocity P-wave (km/s) = 6.65496 7.33897 7.00532
#
# Compressibility (1/GPa) = 0.02016618
#
# Stress axis : x y z
#
# Youngs Moduli (GPa) = 49.52614 67.67849 106.02048
#
# Poissons Ratio (x) = 0.32306 0.45243
# Poissons Ratio (y) = 0.23641 0.32608
# Poissons Ratio (z) = 0.21135 0.20816
#
# Static dielectric constant tensor:
#      x y z
#    x 3.159910 0.000000 0.346920 
#    y 0.000000 3.366780 0.000000 
#    z 0.346920 0.000000 3.754230 
# 
# 
# High freq. dielectric constant tensor:
#      x y z
#    x 1.660560 0.000000 0.027230 
#    y 0.000000 1.709160 0.000000 
#    z 0.027230 0.000000 1.714700 
# 
# From -- ./inp_files/66092.got.cif
#   From: 2010.06.25/outbox.cif.g09.slc.cpg/sg11_34_cif.got.tgz:66092.got - 2010.06.27 23:14:04.
