data_PCOD8070951
_publ_section_title
;
Structure prediction by ZEFSAII (Michael W. Deem and Ramdas Pophale) SiO2 
 PCOD8070951
Probable space group: P 21/M
;
_chemical_formula_sum "Si O2"
_cell_formula_units_Z 32
_cell_length_a 25.632698
_cell_length_b 8.998904
_cell_length_c 14.154629
_cell_angle_alpha 90.000000
_cell_angle_beta 146.228935
_cell_angle_gamma 90.000000
_cell_volume 1814.931619
_symmetry_space_group_name_H-M "P 21/M"
_symmetry_group_IT_number 11
_symmetry_cell_setting 'monoclinic'
loop_
_space_group_symop_operation_xyz
x,y,z
-x,1/2+y,-z
-x,-y,-z
x,1/2-y,z
loop_
_atom_site_type_symbol
_atom_site_label
_atom_site_fract_x
_atom_site_fract_y
_atom_site_fract_z
Si Si1 0.753506 0.427244 0.769333
Si Si2 0.751001 0.425275 0.276568
Si Si3 0.748242 0.073939 0.975139
Si Si4 0.900097 0.425229 0.350589
Si Si5 0.602365 0.426784 0.905614
Si Si6 0.609224 0.575468 0.419930
Si Si7 0.900073 0.924507 0.858061
Si Si8 0.246838 0.081013 0.522887
O O1 0.760838 0.250000 0.773175
O O2 0.749010 0.486363 0.869954
O O3 0.659130 0.483043 0.577293
O O4 0.845328 0.499974 0.861852
O O5 0.746788 0.250000 0.272075
O O6 0.843871 0.476349 0.359720
O O7 0.754676 0.479693 0.388313
O O8 0.658316 0.485460 0.082355
O O9 0.745273 0.250000 0.970321
O O10 0.655936 0.015629 0.892089
O O11 0.841918 0.021511 0.170916
O O12 0.914158 0.250000 0.370573
O O13 0.000000 0.500000 0.500000
O O14 0.600736 0.250000 0.904532
O O15 0.496307 0.486948 0.747013
O O16 0.614665 0.750000 0.453717
O O17 0.659998 0.545227 0.396844
O O18 0.910009 0.750000 0.893832
O O19 0.844540 0.953277 0.677415
O O20 0.000000 0.000000 0.000000
O O21 0.246769 0.250000 0.557192
#
# Coordination Sequence:
#
# PCOD8070951 Si02
#       8
#     4   4   4   4   4   4   4   4
#     4  10  19  32  51  75 101 129 163 202 243 289
#     4   9  18  32  51  73  95 125 166 204 237 285
#     4   8  16  31  50  71  97 129 162 198 243 294
#     4   9  18  33  50  70  96 125 159 196 238 289
#     4   8  15  31  52  71  96 131 166 200 244 295
#     4   9  18  33  51  71  98 132 166 201 244 293
#     4  10  21  37  54  73  99 131 165 201 244 292
#     4   9  19  33  48  70 100 129 157 195 245 293
#
# _framework density 17.631518
#
# number of rings (size 3 to 8) (size 9 to 14) (size 15 to 20)
#    0.000    3.000    0.000    3.000    0.000    5.000 
#    0.000    5.625    0.000    3.000    0.000    0.000 
#    0.000    0.000    0.000    0.000    0.000    0.000 
#
# Total GULP energy -396695.644684 kJ/mol
# GULP energy per Si atom -12396.738896 kJ/mol
# Density = 1.759139 g / cm^3
# Si number density = 17.631518 Si / 1000 Ang^3
#
#
#
# Elastic Constant Matrix: (Units=GPa)
#
#
# Indices 1 2 3 4 5 6 
#
# 1 135.4118 39.2099 98.2441 0.0000 -1.1091 0.0000
# 2 39.2099 42.9671 39.3196 0.0000 2.9297 0.0000
# 3 98.2441 39.3196 137.7809 0.0000 22.3983 0.0000
# 4 0.0000 0.0000 0.0000 28.1419 0.0000 -0.2706
# 5 -1.1091 2.9297 22.3983 0.0000 36.9667 0.0000
# 6 0.0000 0.0000 0.0000 -0.2706 0.0000 25.3205
#
#
#
# Elastic Compliance Matrix: (Units=1/GPa)
#
#
# Indices 1 2 3 4 5 6 
#
# 1 0.018591 -0.005567 -0.013122 0.000000 0.008950 0.000000
# 2 -0.005567 0.033528 -0.005701 0.000000 0.000630 0.000000
# 3 -0.013122 -0.005701 0.020224 0.000000 -0.012196 0.000000
# 4 0.000000 0.000000 0.000000 0.035538 0.000000 0.000380
# 5 0.008950 0.000630 -0.012196 0.000000 0.034659 0.000000
# 6 0.000000 0.000000 0.000000 0.000380 0.000000 0.039498
#
#
# Mechanical properties :
#
#
# Convention : Reuss Voigt Hill
#
# Bulk Modulus (GPa) = 42.44069 74.41187 58.42628
# Shear Modulus (GPa) = 20.94926 27.37823 24.16375
#
# Velocity S-wave (km/s) = 3.45073 3.94483 3.70602
# Velocity P-wave (km/s) = 6.32454 7.94005 7.17789
#
# Compressibility (1/GPa) = 0.02356229
#
# Stress axis : x y z
#
# Youngs Moduli (GPa) = 53.79085 29.82592 49.44593
#
# Poissons Ratio (x) = 0.16604 0.64883
# Poissons Ratio (y) = 0.29945 0.28189
# Poissons Ratio (z) = 0.70585 0.17004
#
# Static dielectric constant tensor:
#      x y z
#    x 3.488670 0.000000 0.042110 
#    y 0.000000 3.007660 0.000000 
#    z 0.042110 0.000000 3.487110 
# 
# 
# High freq. dielectric constant tensor:
#      x y z
#    x 1.687460 0.000000 0.002800 
#    y 0.000000 1.658110 0.000000 
#    z 0.002800 0.000000 1.687230 
# 
# From -- ./inp_files/56192.got.cif
#   From: 2010.06.25/outbox.cif.g09.slc.cpg/sg11_29_cif.got.tgz:56192.got - 2010.06.27 23:14:04.
