data_PCOD8070433
_publ_section_title
;
Structure prediction by ZEFSAII (Michael W. Deem and Ramdas Pophale) SiO2 
 PCOD8070433
Probable space group: P 21/M
;
_chemical_formula_sum "Si O2"
_cell_formula_units_Z 32
_cell_length_a 9.372365
_cell_length_b 9.259366
_cell_length_c 23.356164
_cell_angle_alpha 90.000000
_cell_angle_beta 60.263308
_cell_angle_gamma 90.000000
_cell_volume 1759.984274
_symmetry_space_group_name_H-M "P 21/M"
_symmetry_group_IT_number 11
_symmetry_cell_setting 'monoclinic'
loop_
_space_group_symop_operation_xyz
x,y,z
-x,1/2+y,-z
-x,-y,-z
x,1/2-y,z
loop_
_atom_site_type_symbol
_atom_site_label
_atom_site_fract_x
_atom_site_fract_y
_atom_site_fract_z
Si Si1 0.304105 0.915532 0.301415
Si Si2 0.145184 0.909741 0.537969
Si Si3 0.756042 0.583196 0.044500
Si Si4 0.000699 0.914131 0.677910
Si Si5 0.598341 0.416821 0.839706
Si Si6 0.236327 0.412205 0.419005
Si Si7 0.084453 0.083704 0.182718
Si Si8 0.971634 0.081554 0.917527
O O1 0.293531 0.750000 0.322764
O O2 0.429769 0.938901 0.223379
O O3 0.129956 0.964049 0.311141
O O4 0.349707 0.006846 0.349224
O O5 0.207486 0.750000 0.509930
O O6 0.158730 0.939086 0.604277
O O7 0.951944 0.924968 0.562679
O O8 0.254396 0.018586 0.478741
O O9 0.774026 0.750000 0.023194
O O10 0.570069 0.541463 0.095728
O O11 0.866492 0.549645 0.077904
O O12 0.811949 0.485463 0.980208
O O13 0.932517 0.750000 0.679585
O O14 0.039040 0.929296 0.737884
O O15 0.647344 0.250000 0.841673
O O16 0.736753 0.520985 0.837453
O O17 0.300438 0.250000 0.410788
O O18 0.106805 0.250000 0.159942
O O19 0.000764 0.994377 0.148772
O O20 0.939759 0.250000 0.914426
#
# Coordination Sequence:
#
# PCOD8070433 Si02
#       8
#     4   4   4   4   4   4   4   4
#     4   9  15  23  37  56  79 108 141 178 219 261
#     4   8  13  21  32  47  70 103 143 180 211 249
#     4   9  19  36  54  70  91 119 151 189 229 268
#     4   8  15  26  38  54  79 111 144 178 217 259
#     4   9  18  32  49  69  92 119 153 191 229 269
#     4   9  15  21  30  47  74 108 143 176 212 257
#     4  10  19  31  48  70  96 124 152 185 227 273
#     4  10  20  34  52  72  93 119 151 186 226 272
#
# _framework density 18.181978999999998
#
# number of rings (size 3 to 8) (size 9 to 14) (size 15 to 20)
#    0.000    3.000    0.000    2.250    0.000    5.500 
#    0.000    0.000    0.000    0.000    0.000    0.000 
#    0.000    1.000    0.000    2.000    0.000    8.250 
#
# Total GULP energy -396536.090721 kJ/mol
# GULP energy per Si atom -12391.752835 kJ/mol
# Density = 1.814060 g / cm^3
# Si number density = 18.181979 Si / 1000 Ang^3
#
#
#
# Elastic Constant Matrix: (Units=GPa)
#
#
# Indices 1 2 3 4 5 6 
#
# 1 22.3299 15.5557 16.5733 0.0000 12.6600 0.0000
# 2 15.5557 104.2469 44.9718 0.0000 19.2907 0.0000
# 3 16.5733 44.9718 85.7452 0.0000 35.7395 0.0000
# 4 0.0000 0.0000 0.0000 32.5954 0.0000 7.0969
# 5 12.6600 19.2907 35.7395 0.0000 18.7585 0.0000
# 6 0.0000 0.0000 0.0000 7.0969 0.0000 17.2163
#
#
#
# Elastic Compliance Matrix: (Units=1/GPa)
#
#
# Indices 1 2 3 4 5 6 
#
# 1 0.098960 -0.007430 0.045766 0.000000 -0.146342 0.000000
# 2 -0.007430 0.012967 -0.009213 0.000000 0.009233 0.000000
# 3 0.045766 -0.009213 0.080503 0.000000 -0.174789 0.000000
# 4 0.000000 0.000000 0.000000 0.033704 0.000000 -0.013893
# 5 -0.146342 0.009233 -0.174789 0.000000 0.475595 0.000000
# 6 0.000000 0.000000 0.000000 -0.013893 0.000000 0.063812
#
#
# Mechanical properties :
#
#
# Convention : Reuss Voigt Hill
#
# Bulk Modulus (GPa) = 3.98922 40.72486 22.35704
# Shear Modulus (GPa) = 6.32228 22.72878 14.52553
#
# Velocity S-wave (km/s) = 1.86675 3.53947 2.82954
# Velocity P-wave (km/s) = 2.61633 6.25707 4.79563
#
# Compressibility (1/GPa) = 0.25067550
#
# Stress axis : x y z
#
# Youngs Moduli (GPa) = 10.10511 77.11636 12.42192
#
# Poissons Ratio (x) = 0.57296 -0.56850
# Poissons Ratio (y) = 0.07508 0.11445
# Poissons Ratio (z) = -0.46247 0.71051
#
# Static dielectric constant tensor:
#      x y z
#    x 2.704370 0.000000 0.280110 
#    y 0.000000 3.463400 0.000000 
#    z 0.280110 0.000000 3.816570 
# 
# 
# High freq. dielectric constant tensor:
#      x y z
#    x 1.626290 0.000000 0.026280 
#    y 0.000000 1.715520 0.000000 
#    z 0.026280 0.000000 1.724180 
# 
# From -- ./inp_files/66645.got.cif
#   From: 2010.06.25/outbox.cif.g09.slc.cpg/sg11_34_cif.got.tgz:66645.got - 2010.06.27 23:14:04.
