data_PCOD8070917
_publ_section_title
;
Structure prediction by ZEFSAII (Michael W. Deem and Ramdas Pophale) SiO2 
 PCOD8070917
Probable space group: P 21/M
;
_chemical_formula_sum "Si O2"
_cell_formula_units_Z 28
_cell_length_a 16.673279
_cell_length_b 9.313397
_cell_length_c 15.051705
_cell_angle_alpha 90.000000
_cell_angle_beta 133.939711
_cell_angle_gamma 90.000000
_cell_volume 1683.021872
_symmetry_space_group_name_H-M "P 21/M"
_symmetry_group_IT_number 11
_symmetry_cell_setting 'monoclinic'
loop_
_space_group_symop_operation_xyz
x,y,z
-x,1/2+y,-z
-x,-y,-z
x,1/2-y,z
loop_
_atom_site_type_symbol
_atom_site_label
_atom_site_fract_x
_atom_site_fract_y
_atom_site_fract_z
Si Si1 0.975632 0.083776 0.391831
Si Si2 0.347332 0.083753 0.436523
Si Si3 0.209878 0.415078 0.497767
Si Si4 0.590610 0.418925 0.877614
Si Si5 0.740833 0.417555 0.150247
Si Si6 0.406341 0.584720 0.319884
Si Si7 0.634642 0.081061 0.253423
O O1 0.957067 0.250000 0.403407
O O2 0.076881 0.066036 0.400357
O O3 0.864374 0.017631 0.260813
O O4 0.000000 0.000000 0.500000
O O5 0.344270 0.250000 0.410823
O O6 0.249540 0.040796 0.429598
O O7 0.464379 0.038870 0.571498
O O8 0.329565 0.001567 0.330025
O O9 0.245606 0.250000 0.544923
O O10 0.264172 0.518750 0.611677
O O11 0.565922 0.250000 0.872766
O O12 0.633254 0.449033 0.810592
O O13 0.478175 0.504165 0.807289
O O14 0.684207 0.479267 0.017207
O O15 0.755751 0.250000 0.148293
O O16 0.660146 0.452717 0.170383
O O17 0.391103 0.750000 0.331854
O O18 0.624772 0.250000 0.264164
#
# Coordination Sequence:
#
# PCOD8070917 Si02
#       7
#     4   4   4   4   4   4   4
#     4  10  19  33  52  73  97 128 166 201 238 279
#     4   9  17  30  46  69  95 121 158 198 239 287
#     4  10  19  32  51  72  98 132 162 194 241 292
#     4  10  19  34  51  68  99 134 163 195 238 295
#     4   9  19  33  49  71  99 131 165 200 234 282
#     4   9  17  29  47  69  92 123 159 194 240 291
#     4  11  20  30  47  74 103 128 161 200 240 282
#
# _framework density 16.636742000000002
#
# number of rings (size 3 to 8) (size 9 to 14) (size 15 to 20)
#    0.000    2.286    2.857    0.857    0.000    1.143 
#    0.000    1.429    0.000    0.857    0.000    0.000 
#    0.000    0.000    0.000    0.000    0.000    0.000 
#
# Total GULP energy -347169.991342 kJ/mol
# GULP energy per Si atom -12398.928262 kJ/mol
# Density = 1.659888 g / cm^3
# Si number density = 16.636742 Si / 1000 Ang^3
#
#
#
# Elastic Constant Matrix: (Units=GPa)
#
#
# Indices 1 2 3 4 5 6 
#
# 1 76.1438 31.3627 25.0151 0.0000 -13.6080 0.0000
# 2 31.3627 46.4910 29.7378 0.0000 -8.6262 0.0000
# 3 25.0151 29.7378 77.6319 0.0000 -11.2531 0.0000
# 4 0.0000 0.0000 0.0000 17.9634 0.0000 -6.8248
# 5 -13.6080 -8.6262 -11.2531 0.0000 26.4103 0.0000
# 6 0.0000 0.0000 0.0000 -6.8248 0.0000 21.8861
#
#
#
# Elastic Compliance Matrix: (Units=1/GPa)
#
#
# Indices 1 2 3 4 5 6 
#
# 1 0.019096 -0.011142 -0.001051 0.000000 0.005752 0.000000
# 2 -0.011142 0.035615 -0.009804 0.000000 0.001714 0.000000
# 3 -0.001051 -0.009804 0.017515 0.000000 0.003719 0.000000
# 4 0.000000 0.000000 0.000000 0.063151 0.000000 0.019693
# 5 0.005752 0.001714 0.003719 0.000000 0.042972 0.000000
# 6 0.000000 0.000000 0.000000 0.019693 0.000000 0.051832
#
#
# Mechanical properties :
#
#
# Convention : Reuss Voigt Hill
#
# Bulk Modulus (GPa) = 35.42249 41.38867 38.40558
# Shear Modulus (GPa) = 17.63137 20.86204 19.24670
#
# Velocity S-wave (km/s) = 3.25897 3.54499 3.40498
# Velocity P-wave (km/s) = 5.95811 6.45661 6.21236
#
# Compressibility (1/GPa) = 0.02823065
#
# Stress axis : x y z
#
# Youngs Moduli (GPa) = 52.36788 28.07784 57.09507
#
# Poissons Ratio (x) = 0.31285 0.06002
# Poissons Ratio (y) = 0.58350 0.55976
# Poissons Ratio (z) = 0.05505 0.27528
#
# Static dielectric constant tensor:
#      x y z
#    x 3.235500 0.000000 -0.017960 
#    y 0.000000 3.049120 0.000000 
#    z -0.017960 0.000000 3.341840 
# 
# 
# High freq. dielectric constant tensor:
#      x y z
#    x 1.641050 0.000000 -0.008430 
#    y 0.000000 1.628890 0.000000 
#    z -0.008430 0.000000 1.624260 
# 
# From -- ./inp_files/37465.got.cif
#   From: 2010.06.25/outbox.cif.g09.slc.cpg/sg11_19_cif.got.tgz:37465.got - 2010.06.27 23:14:04.
