data_PCOD8070621
_publ_section_title
;
Structure prediction by ZEFSAII (Michael W. Deem and Ramdas Pophale) SiO2 
 PCOD8070621
Probable space group: P 21/M
;
_chemical_formula_sum "Si O2"
_cell_formula_units_Z 24
_cell_length_a 13.579072
_cell_length_b 13.658715
_cell_length_c 9.588929
_cell_angle_alpha 90.000000
_cell_angle_beta 135.077295
_cell_angle_gamma 90.000000
_cell_volume 1255.880631
_symmetry_space_group_name_H-M "P 21/M"
_symmetry_group_IT_number 11
_symmetry_cell_setting 'monoclinic'
loop_
_space_group_symop_operation_xyz
x,y,z
-x,1/2+y,-z
-x,-y,-z
x,1/2-y,z
loop_
_atom_site_type_symbol
_atom_site_label
_atom_site_fract_x
_atom_site_fract_y
_atom_site_fract_z
Si Si1 0.452624 0.861636 0.721116
Si Si2 0.026362 0.957127 0.272122
Si Si3 0.231509 0.861636 0.278884
Si Si4 0.756464 0.861832 0.105291
Si Si5 0.848827 0.361832 0.105291
Si Si6 0.745761 0.042873 0.272124
O O1 0.418518 0.750000 0.729364
O O2 0.379133 0.887748 0.500000
O O3 0.394449 0.931007 0.785558
O O4 0.617872 0.877787 0.872601
O O5 0.885785 0.893088 0.138817
O O6 0.108891 0.931007 0.214441
O O7 0.119934 0.931538 0.499999
O O8 0.987954 0.072073 0.234591
O O9 0.189154 0.750000 0.270635
O O10 0.245272 0.877788 0.127399
O O11 0.772109 0.750000 0.170000
O O12 0.746638 0.927927 0.234592
O O13 0.897891 0.250000 0.169999
O O14 0.753033 0.393088 0.138818
#
# Coordination Sequence:
#
# PCOD8070621 Si02
#       6
#     4   4   4   4   4   4
#     4   9  18  33  52  72  96 128 162 195 236 288
#     4  10  20  33  50  73 100 128 160 198 240 286
#     4   9  18  33  52  72  96 128 162 195 236 288
#     4  10  19  31  50  74  98 125 161 202 240 281
#     4  10  19  31  50  74  98 125 161 202 240 281
#     4  10  20  33  50  73 100 128 160 198 240 286
#
# _framework density 19.110095999999999
#
# number of rings (size 3 to 8) (size 9 to 14) (size 15 to 20)
#    0.000    2.333    0.000    4.000    0.000    4.000 
#    0.000    3.333    0.000    4.000    0.000    9.333 
#    0.000    0.000    0.000    0.000    0.000    0.000 
#
# Total GULP energy -297588.985751 kJ/mol
# GULP energy per Si atom -12399.541073 kJ/mol
# Density = 1.906660 g / cm^3
# Si number density = 19.110096 Si / 1000 Ang^3
#
#
#
# Elastic Constant Matrix: (Units=GPa)
#
#
# Indices 1 2 3 4 5 6 
#
# 1 68.6566 36.7243 60.2576 0.0000 3.0023 0.0000
# 2 36.7243 107.9987 36.4395 0.0000 -0.0130 0.0000
# 3 60.2576 36.4395 103.6895 0.0000 -1.3996 0.0000
# 4 0.0000 0.0000 0.0000 28.4054 0.0000 0.2387
# 5 3.0023 -0.0130 -1.3996 0.0000 36.8104 0.0000
# 6 0.0000 0.0000 0.0000 0.2387 0.0000 23.1891
#
#
#
# Elastic Compliance Matrix: (Units=1/GPa)
#
#
# Indices 1 2 3 4 5 6 
#
# 1 0.032553 -0.005300 -0.017099 0.000000 -0.003307 0.000000
# 2 -0.005300 0.011369 -0.000910 0.000000 0.000402 0.000000
# 3 -0.017099 -0.000910 0.019930 0.000000 0.002152 0.000000
# 4 0.000000 0.000000 0.000000 0.035208 0.000000 -0.000362
# 5 -0.003307 0.000402 0.002152 0.000000 0.027518 0.000000
# 6 0.000000 0.000000 0.000000 -0.000362 0.000000 0.043127
#
#
# Mechanical properties :
#
#
# Convention : Reuss Voigt Hill
#
# Bulk Modulus (GPa) = 58.02989 60.79864 59.41426
# Shear Modulus (GPa) = 22.51573 27.47587 24.99580
#
# Velocity S-wave (km/s) = 3.43623 3.79590 3.62054
# Velocity P-wave (km/s) = 6.79526 7.14814 6.97393
#
# Compressibility (1/GPa) = 0.01723250
#
# Stress axis : x y z
#
# Youngs Moduli (GPa) = 30.71960 87.96100 50.17566
#
# Poissons Ratio (x) = 0.46621 0.85797
# Poissons Ratio (y) = 0.16282 0.04565
# Poissons Ratio (z) = 0.52529 0.08002
#
# Static dielectric constant tensor:
#      x y z
#    x 3.203990 0.000000 0.019830 
#    y 0.000000 3.669670 0.000000 
#    z 0.019830 0.000000 3.637380 
# 
# 
# High freq. dielectric constant tensor:
#      x y z
#    x 1.719670 0.000000 0.001300 
#    y 0.000000 1.746760 0.000000 
#    z 0.001300 0.000000 1.748100 
# 
# From -- ./inp_files/12537.got.cif
#   From: 2010.06.25/outbox.cif.g09.slc.cpg/sg11_7_cif.got.tgz:12537.got - 2010.06.27 23:14:04.
