data_PCOD8070314
_publ_section_title
;
Structure prediction by ZEFSAII (Michael W. Deem and Ramdas Pophale) SiO2 
 PCOD8070314
Probable space group: P 21/M
;
_chemical_formula_sum "Si O2"
_cell_formula_units_Z 24
_cell_length_a 17.499649
_cell_length_b 9.137202
_cell_length_c 25.132161
_cell_angle_alpha 90.000000
_cell_angle_beta 160.644687
_cell_angle_gamma 90.000000
_cell_volume 1331.858718
_symmetry_space_group_name_H-M "P 21/M"
_symmetry_group_IT_number 11
_symmetry_cell_setting 'monoclinic'
loop_
_space_group_symop_operation_xyz
x,y,z
-x,1/2+y,-z
-x,-y,-z
x,1/2-y,z
loop_
_atom_site_type_symbol
_atom_site_label
_atom_site_fract_x
_atom_site_fract_y
_atom_site_fract_z
Si Si1 0.693294 0.078814 0.475869
Si Si2 0.291940 0.577657 0.391629
Si Si3 0.821716 0.577935 0.031668
Si Si4 0.859694 0.420515 0.248060
Si Si5 0.576391 0.580251 0.973245
Si Si6 0.210505 0.075991 0.108696
O O1 0.729963 0.250000 0.490736
O O2 0.708375 0.033340 0.547084
O O3 0.447334 0.027270 0.292046
O O4 0.896927 0.995570 0.578262
O O5 0.500000 0.500000 0.500000
O O6 0.319667 0.750000 0.402784
O O7 0.059751 0.516686 0.212084
O O8 0.841497 0.750000 0.039171
O O9 0.614570 0.536673 0.936407
O O10 0.777316 0.514358 0.943759
O O11 0.898645 0.250000 0.264034
O O12 0.688435 0.450537 0.185273
O O13 0.750687 0.487184 0.123256
O O14 0.642338 0.750000 0.026069
O O15 0.175577 0.250000 0.088470
O O16 0.000000 0.000000 0.000000
#
# Coordination Sequence:
#
# PCOD8070314 Si02
#       6
#     4   4   4   4   4   4
#     4  10  20  35  52  73 105 140 170 206 259 312
#     4  10  19  31  49  71  97 129 165 210 256 296
#     4   9  17  33  54  73  98 136 173 203 251 312
#     4  10  19  30  52  82 105 132 171 215 259 301
#     4   9  17  33  54  76 106 137 168 210 260 312
#     4  10  21  36  55  76 101 139 177 210 255 308
#
# _framework density 18.019929999999999
#
# number of rings (size 3 to 8) (size 9 to 14) (size 15 to 20)
#    0.000    2.333    1.667    1.500    0.000    2.000 
#    0.000    1.667    0.000    0.000    0.000    0.000 
#    0.000    0.000    0.000    0.000    0.000    0.000 
#
# Total GULP energy -297578.695028 kJ/mol
# GULP energy per Si atom -12399.112293 kJ/mol
# Density = 1.797892 g / cm^3
# Si number density = 18.019930 Si / 1000 Ang^3
#
#
#
# Elastic Constant Matrix: (Units=GPa)
#
#
# Indices 1 2 3 4 5 6 
#
# 1 146.4468 42.6363 75.5384 0.0000 11.2778 0.0000
# 2 42.6363 42.6469 44.1633 0.0000 10.4877 0.0000
# 3 75.5384 44.1633 142.5335 0.0000 10.3691 0.0000
# 4 0.0000 0.0000 0.0000 23.1489 0.0000 11.6989
# 5 11.2778 10.4877 10.3691 0.0000 35.5720 0.0000
# 6 0.0000 0.0000 0.0000 11.6989 0.0000 24.8462
#
#
#
# Elastic Compliance Matrix: (Units=1/GPa)
#
#
# Indices 1 2 3 4 5 6 
#
# 1 0.010682 -0.007015 -0.003465 0.000000 -0.000308 0.000000
# 2 -0.007015 0.041046 -0.008461 0.000000 -0.007411 0.000000
# 3 -0.003465 -0.008461 0.011455 0.000000 0.000254 0.000000
# 4 0.000000 0.000000 0.000000 0.056688 0.000000 -0.026692
# 5 -0.000308 -0.007411 0.000254 0.000000 0.030321 0.000000
# 6 0.000000 0.000000 0.000000 -0.026692 0.000000 0.052816
#
#
# Mechanical properties :
#
#
# Convention : Reuss Voigt Hill
#
# Bulk Modulus (GPa) = 39.52397 72.92258 56.22328
# Shear Modulus (GPa) = 20.05423 27.99934 24.02679
#
# Velocity S-wave (km/s) = 3.33962 3.94610 3.65546
# Velocity P-wave (km/s) = 6.07057 7.83057 7.00606
#
# Compressibility (1/GPa) = 0.02530110
#
# Stress axis : x y z
#
# Youngs Moduli (GPa) = 93.61704 24.36278 87.29534
#
# Poissons Ratio (x) = 0.17091 0.30248
# Poissons Ratio (y) = 0.65674 0.73860
# Poissons Ratio (z) = 0.32438 0.20613
#
# Static dielectric constant tensor:
#      x y z
#    x 3.513530 0.000000 0.068210 
#    y 0.000000 3.168440 0.000000 
#    z 0.068210 0.000000 3.371050 
# 
# 
# High freq. dielectric constant tensor:
#      x y z
#    x 1.708130 0.000000 0.013300 
#    y 0.000000 1.677230 0.000000 
#    z 0.013300 0.000000 1.691000 
# 
# From -- ./inp_files/20547.got.cif
#   From: 2010.06.25/outbox.cif.g09.slc.cpg/sg11_11_cif.got.tgz:20547.got - 2010.06.27 23:14:04.
