data_PCOD8070352
_publ_section_title
;
Structure prediction by ZEFSAII (Michael W. Deem and Ramdas Pophale) SiO2 
 PCOD8070352
Probable space group: P 21/M
;
_chemical_formula_sum "Si O2"
_cell_formula_units_Z 28
_cell_length_a 32.360117
_cell_length_b 8.727282
_cell_length_c 31.511052
_cell_angle_alpha 90.000000
_cell_angle_beta 9.228331
_cell_angle_gamma 90.000000
_cell_volume 1427.161644
_symmetry_space_group_name_H-M "P 21/M"
_symmetry_group_IT_number 11
_symmetry_cell_setting 'monoclinic'
loop_
_space_group_symop_operation_xyz
x,y,z
-x,1/2+y,-z
-x,-y,-z
x,1/2-y,z
loop_
_atom_site_type_symbol
_atom_site_label
_atom_site_fract_x
_atom_site_fract_y
_atom_site_fract_z
Si Si1 0.047856 0.432086 0.356184
Si Si2 0.810016 0.429452 0.069830
Si Si3 0.331355 0.567725 0.505821
Si Si4 0.379845 0.567786 0.360384
Si Si5 0.239626 0.928849 0.781117
Si Si6 0.096022 0.432868 0.212034
Si Si7 0.476807 0.568010 0.069811
O O1 0.048505 0.250000 0.354238
O O2 0.784778 0.493494 0.643611
O O3 0.071922 0.497443 0.284177
O O4 0.286462 0.493491 0.141960
O O5 0.814672 0.250000 0.055660
O O6 0.570214 0.505184 0.289774
O O7 0.785258 0.466206 0.144311
O O8 0.069635 0.505125 0.790321
O O9 0.330013 0.750000 0.509689
O O10 0.355756 0.509252 0.432843
O O11 0.380454 0.750000 0.358589
O O12 0.642189 0.503098 0.074066
O O13 0.141361 0.503110 0.574920
O O14 0.244298 0.750000 0.767109
O O15 0.500000 0.000000 0.500000
O O16 0.000000 0.000000 0.000000
O O17 0.095945 0.250000 0.212266
O O18 0.478306 0.750000 0.065254
O O19 0.500000 0.500000 0.000000
#
# Coordination Sequence:
#
# PCOD8070352 Si02
#       7
#     4   4   4   4   4   4   4
#     4   9  17  28  45  69  96 125 162 204 249 305
#     4  11  24  41  59  84 118 155 190 228 278 338
#     4  11  22  37  59  88 117 148 189 235 277 328
#     4   9  17  28  46  75 107 132 164 213 266 310
#     4  11  24  41  62  87 116 149 190 236 283 334
#     4   9  15  26  44  69 102 133 158 203 266 311
#     4  10  19  31  46  68  95 124 161 203 246 300
#
# _framework density 19.61936
#
# number of rings (size 3 to 8) (size 9 to 14) (size 15 to 20)
#    0.000    2.000    0.000    4.286    0.000   11.429 
#    0.000    0.000    0.000    0.000    0.000   20.000 
#    0.000    0.000    0.000    0.000    0.000    0.000 
#
# Total GULP energy -347280.244260 kJ/mol
# GULP energy per Si atom -12402.865866 kJ/mol
# Density = 1.957471 g / cm^3
# Si number density = 19.619360 Si / 1000 Ang^3
#
#
#
# Elastic Constant Matrix: (Units=GPa)
#
#
# Indices 1 2 3 4 5 6 
#
# 1 200.6693 62.2607 121.3925 0.0000 -3.9268 0.0000
# 2 62.2607 43.5374 48.3339 0.0000 2.4816 0.0000
# 3 121.3925 48.3339 233.8163 0.0000 -2.0309 0.0000
# 4 0.0000 0.0000 0.0000 22.8066 0.0000 0.5451
# 5 -3.9268 2.4816 -2.0309 0.0000 50.2405 0.0000
# 6 0.0000 0.0000 0.0000 0.5451 0.0000 25.8597
#
#
#
# Elastic Compliance Matrix: (Units=1/GPa)
#
#
# Indices 1 2 3 4 5 6 
#
# 1 0.010447 -0.011684 -0.002997 0.000000 0.001272 0.000000
# 2 -0.011684 0.043028 -0.002856 0.000000 -0.003154 0.000000
# 3 -0.002997 -0.002856 0.006425 0.000000 0.000167 0.000000
# 4 0.000000 0.000000 0.000000 0.043869 0.000000 -0.000925
# 5 0.001272 -0.003154 0.000167 0.000000 0.020166 0.000000
# 6 0.000000 0.000000 0.000000 -0.000925 0.000000 0.038690
#
#
# Mechanical properties :
#
#
# Convention : Reuss Voigt Hill
#
# Bulk Modulus (GPa) = 40.28233 104.66634 72.47433
# Shear Modulus (GPa) = 24.27489 36.18374 30.22932
#
# Velocity S-wave (km/s) = 3.52133 4.29918 3.92955
# Velocity P-wave (km/s) = 6.09176 8.83788 7.59005
#
# Compressibility (1/GPa) = 0.02482478
#
# Stress axis : x y z
#
# Youngs Moduli (GPa) = 95.72508 23.24065 155.64747
#
# Poissons Ratio (x) = 0.27155 0.46652
# Poissons Ratio (y) = 1.11847 0.44450
# Poissons Ratio (z) = 0.28691 0.06637
#
# Static dielectric constant tensor:
#      x y z
#    x 3.859050 0.000000 -0.004020 
#    y 0.000000 3.197290 0.000000 
#    z -0.004020 0.000000 3.882420 
# 
# 
# High freq. dielectric constant tensor:
#      x y z
#    x 1.786700 0.000000 -0.000410 
#    y 0.000000 1.722080 0.000000 
#    z -0.000410 0.000000 1.789000 
# 
# From -- ./inp_files/73854.got.cif
#   From: 2010.06.25/outbox.cif.g09.slc.cpg/sg11_37_cif.got.tgz:73854.got - 2010.06.27 23:14:04.
