data_PCOD8070478
_publ_section_title
;
Structure prediction by ZEFSAII (Michael W. Deem and Ramdas Pophale) SiO2 
 PCOD8070478
Probable space group: P 21/M
;
_chemical_formula_sum "Si O2"
_cell_formula_units_Z 28
_cell_length_a 18.834791
_cell_length_b 8.987785
_cell_length_c 14.668456
_cell_angle_alpha 90.000000
_cell_angle_beta 37.809857
_cell_angle_gamma 90.000000
_cell_volume 1522.259899
_symmetry_space_group_name_H-M "P 21/M"
_symmetry_group_IT_number 11
_symmetry_cell_setting 'monoclinic'
loop_
_space_group_symop_operation_xyz
x,y,z
-x,1/2+y,-z
-x,-y,-z
x,1/2-y,z
loop_
_atom_site_type_symbol
_atom_site_label
_atom_site_fract_x
_atom_site_fract_y
_atom_site_fract_z
Si Si1 0.647307 0.922158 0.687353
Si Si2 0.111942 0.421812 0.639298
Si Si3 0.925377 0.086023 0.695428
Si Si4 0.031271 0.426963 0.063244
Si Si5 0.587918 0.925109 0.113232
Si Si6 0.738635 0.576322 0.786479
Si Si7 0.226199 0.582230 0.969742
O O1 0.609054 0.750000 0.735005
O O2 0.750885 0.940351 0.509852
O O3 0.687597 0.987641 0.744196
O O4 0.543161 0.020025 0.755594
O O5 0.078094 0.250000 0.696178
O O6 0.052223 0.465662 0.602297
O O7 0.067715 0.527772 0.764205
O O8 0.931298 0.250000 0.646699
O O9 0.868807 0.982449 0.675352
O O10 0.846254 0.082828 0.864822
O O11 0.036196 0.250000 0.049881
O O12 0.157261 0.487781 0.964284
O O13 0.000000 0.500000 0.000000
O O14 0.592240 0.750000 0.124465
O O15 0.651111 0.003567 0.134405
O O16 0.649630 0.970290 0.955954
O O17 0.753754 0.750000 0.761159
O O18 0.247548 0.750000 0.912330
#
# Coordination Sequence:
#
# PCOD8070478 Si02
#       7
#     4   4   4   4   4   4   4
#     4  10  20  33  48  67  98 140 179 215 256 299
#     4   9  19  35  51  71 101 135 170 207 253 307
#     4   8  15  28  46  67  94 128 165 209 256 299
#     4  11  21  35  58  85 108 128 156 197 246 301
#     4  10  19  31  48  72 102 135 177 221 254 291
#     4   9  18  30  45  68  97 132 176 221 258 293
#     4   9  17  32  53  76 102 132 166 203 248 297
#
# _framework density 18.393706000000002
#
# number of rings (size 3 to 8) (size 9 to 14) (size 15 to 20)
#    0.000    2.571    0.000    3.429    0.000    5.714 
#    0.000    0.000    0.000    0.857    0.000    0.000 
#    0.000    0.000    0.000    0.000    0.000    0.000 
#
# Total GULP energy -347155.048915 kJ/mol
# GULP energy per Si atom -12398.394604 kJ/mol
# Density = 1.835184 g / cm^3
# Si number density = 18.393706 Si / 1000 Ang^3
#
#
#
# Elastic Constant Matrix: (Units=GPa)
#
#
# Indices 1 2 3 4 5 6 
#
# 1 132.3272 65.7215 36.8835 0.0000 -7.2002 0.0000
# 2 65.7215 105.4246 34.3500 0.0000 -4.3562 0.0000
# 3 36.8835 34.3500 37.2266 0.0000 -10.0122 0.0000
# 4 0.0000 0.0000 0.0000 22.3834 0.0000 -5.3236
# 5 -7.2002 -4.3562 -10.0122 0.0000 23.3825 0.0000
# 6 0.0000 0.0000 0.0000 -5.3236 0.0000 37.0780
#
#
#
# Elastic Compliance Matrix: (Units=1/GPa)
#
#
# Indices 1 2 3 4 5 6 
#
# 1 0.012174 -0.005207 -0.007356 0.000000 -0.000371 0.000000
# 2 -0.005207 0.016006 -0.010442 0.000000 -0.003093 0.000000
# 3 -0.007356 -0.010442 0.048205 0.000000 0.016430 0.000000
# 4 0.000000 0.000000 0.000000 0.046255 0.000000 0.006641
# 5 -0.000371 -0.003093 0.016430 0.000000 0.049112 0.000000
# 6 0.000000 0.000000 0.000000 0.006641 0.000000 0.027924
#
#
# Mechanical properties :
#
#
# Convention : Reuss Voigt Hill
#
# Bulk Modulus (GPa) = 32.92304 60.98762 46.95533
# Shear Modulus (GPa) = 19.54572 25.77034 22.65803
#
# Velocity S-wave (km/s) = 3.26334 3.74711 3.51356
# Velocity P-wave (km/s) = 5.66896 7.20763 6.48409
#
# Compressibility (1/GPa) = 0.03037387
#
# Stress axis : x y z
#
# Youngs Moduli (GPa) = 82.14543 62.47603 20.74490
#
# Poissons Ratio (x) = 0.32534 0.15260
# Poissons Ratio (y) = 0.42777 0.21661
# Poissons Ratio (z) = 0.60427 0.65235
#
# Static dielectric constant tensor:
#      x y z
#    x 3.564460 0.000000 -0.242400 
#    y 0.000000 3.416920 0.000000 
#    z -0.242400 0.000000 3.156330 
# 
# 
# High freq. dielectric constant tensor:
#      x y z
#    x 1.712680 0.000000 -0.020320 
#    y 0.000000 1.712600 0.000000 
#    z -0.020320 0.000000 1.683710 
# 
# From -- ./inp_files/53191.got.cif
#   From: 2010.06.25/outbox.cif.g09.slc.cpg/sg11_27_cif.got.tgz:53191.got - 2010.06.27 23:14:04.
