data_PCOD8070750
_publ_section_title
;
Structure prediction by ZEFSAII (Michael W. Deem and Ramdas Pophale) SiO2 
 PCOD8070750
Probable space group: P 21/M
;
_chemical_formula_sum "Si O2"
_cell_formula_units_Z 32
_cell_length_a 11.424189
_cell_length_b 8.954119
_cell_length_c 21.109519
_cell_angle_alpha 90.000000
_cell_angle_beta 128.333513
_cell_angle_gamma 90.000000
_cell_volume 1693.837565
_symmetry_space_group_name_H-M "P 21/M"
_symmetry_group_IT_number 11
_symmetry_cell_setting 'monoclinic'
loop_
_space_group_symop_operation_xyz
x,y,z
-x,1/2+y,-z
-x,-y,-z
x,1/2-y,z
loop_
_atom_site_type_symbol
_atom_site_label
_atom_site_fract_x
_atom_site_fract_y
_atom_site_fract_z
Si Si1 0.270289 0.921840 0.441170
Si Si2 0.442294 0.423855 0.387762
Si Si3 0.080692 0.072760 0.087327
Si Si4 0.989738 0.074978 0.313645
Si Si5 0.952386 0.921621 0.168581
Si Si6 0.658235 0.074885 0.226578
Si Si7 0.387165 0.419124 0.917561
Si Si8 0.407375 0.073870 0.234884
O O1 0.226779 0.750000 0.418356
O O2 0.382376 0.945383 0.537580
O O3 0.344239 0.978010 0.401432
O O4 0.119546 0.015664 0.403673
O O5 0.396974 0.250000 0.380056
O O6 0.409505 0.489180 0.307017
O O7 0.058972 0.250000 0.076306
O O8 0.256458 0.028573 0.146837
O O9 0.011887 0.013847 0.129259
O O10 0.000000 0.000000 0.000000
O O11 0.005220 0.250000 0.306742
O O12 0.832861 0.035927 0.295230
O O13 0.010193 0.993758 0.253083
O O14 0.006540 0.750000 0.183179
O O15 0.774892 0.932062 0.106100
O O16 0.635002 0.250000 0.209605
O O17 0.555255 0.013179 0.248989
O O18 0.599231 0.996526 0.144828
O O19 0.437428 0.250000 0.925750
O O20 0.500000 0.500000 0.000000
O O21 0.418517 0.250000 0.244290
#
# Coordination Sequence:
#
# PCOD8070750 Si02
#       8
#     4   4   4   4   4   4   4   4
#     4  10  19  31  53  83 114 141 175 226 273 319
#     4   9  18  34  56  82 108 142 184 223 269 322
#     4  11  23  37  55  80 110 143 180 223 274 331
#     4  10  19  33  55  80 107 140 178 221 268 323
#     4  10  21  37  55  77 106 137 177 225 272 320
#     4   9  19  36  56  77 101 138 184 223 266 320
#     4  10  21  35  54  78 104 135 174 224 274 321
#     4   9  19  37  58  76 103 142 181 222 269 322
#
# _framework density 18.892012000000001
#
# number of rings (size 3 to 8) (size 9 to 14) (size 15 to 20)
#    0.000    2.250    0.000    2.625    1.750    3.500 
#    0.000    2.500    0.000    0.000    0.000    0.000 
#    0.000    0.000    0.000    0.000    0.000    0.000 
#
# Total GULP energy -396770.656348 kJ/mol
# GULP energy per Si atom -12399.083011 kJ/mol
# Density = 1.884901 g / cm^3
# Si number density = 18.892012 Si / 1000 Ang^3
#
#
#
# Elastic Constant Matrix: (Units=GPa)
#
#
# Indices 1 2 3 4 5 6 
#
# 1 86.8137 22.2202 45.9057 0.0000 -4.5559 0.0000
# 2 22.2202 54.6680 38.8320 0.0000 1.5882 0.0000
# 3 45.9057 38.8320 107.6088 0.0000 16.0660 0.0000
# 4 0.0000 0.0000 0.0000 30.5597 0.0000 4.9238
# 5 -4.5559 1.5882 16.0660 0.0000 22.0425 0.0000
# 6 0.0000 0.0000 0.0000 4.9238 0.0000 25.3761
#
#
#
# Elastic Compliance Matrix: (Units=1/GPa)
#
#
# Indices 1 2 3 4 5 6 
#
# 1 0.016572 -0.001338 -0.007981 0.000000 0.009338 0.000000
# 2 -0.001338 0.025263 -0.009238 0.000000 0.004637 0.000000
# 3 -0.007981 -0.009238 0.018154 0.000000 -0.014215 0.000000
# 4 0.000000 0.000000 0.000000 0.033779 0.000000 -0.006554
# 5 0.009338 0.004637 -0.014215 0.000000 0.057324 0.000000
# 6 0.000000 0.000000 0.000000 -0.006554 0.000000 0.040679
#
#
# Mechanical properties :
#
#
# Convention : Reuss Voigt Hill
#
# Bulk Modulus (GPa) = 43.71619 51.44513 47.58066
# Shear Modulus (GPa) = 21.14084 25.07116 23.10600
#
# Velocity S-wave (km/s) = 3.34883 3.64686 3.50102
# Velocity P-wave (km/s) = 6.17601 6.70992 6.44850
#
# Compressibility (1/GPa) = 0.02287482
#
# Stress axis : x y z
#
# Youngs Moduli (GPa) = 60.34431 39.58299 55.08562
#
# Poissons Ratio (x) = 0.05296 0.43963
# Poissons Ratio (y) = 0.08074 0.50888
# Poissons Ratio (z) = 0.48160 0.36567
#
# Static dielectric constant tensor:
#      x y z
#    x 4.272690 0.000000 -0.160100 
#    y 0.000000 3.480250 0.000000 
#    z -0.160100 0.000000 3.788890 
# 
# 
# High freq. dielectric constant tensor:
#      x y z
#    x 1.730420 0.000000 0.015700 
#    y 0.000000 1.732090 0.000000 
#    z 0.015700 0.000000 1.736890 
# 
# From -- ./inp_files/64435.got.cif
#   From: 2010.06.25/outbox.cif.g09.slc.cpg/sg11_33_cif.got.tgz:64435.got - 2010.06.27 23:14:04.
