data_PCOD8070024
_publ_section_title
;
Structure prediction by ZEFSAII (Michael W. Deem and Ramdas Pophale) SiO2 
 PCOD8070024
Probable space group: P 21/M
;
_chemical_formula_sum "Si O2"
_cell_formula_units_Z 32
_cell_length_a 25.679048
_cell_length_b 9.346993
_cell_length_c 14.427561
_cell_angle_alpha 90.000000
_cell_angle_beta 32.260224
_cell_angle_gamma 90.000000
_cell_volume 1848.392473
_symmetry_space_group_name_H-M "P 21/M"
_symmetry_group_IT_number 11
_symmetry_cell_setting 'monoclinic'
loop_
_space_group_symop_operation_xyz
x,y,z
-x,1/2+y,-z
-x,-y,-z
x,1/2-y,z
loop_
_atom_site_type_symbol
_atom_site_label
_atom_site_fract_x
_atom_site_fract_y
_atom_site_fract_z
Si Si1 0.561161 0.914456 0.747045
Si Si2 0.432072 0.583689 0.443294
Si Si3 0.342135 0.412417 0.902137
Si Si4 0.286399 0.415693 0.783689
Si Si5 0.095253 0.416625 0.963060
Si Si6 0.723416 0.583673 0.647563
Si Si7 0.094882 0.083488 0.751101
Si Si8 0.664706 0.083446 0.909047
O O1 0.576548 0.750000 0.693575
O O2 0.623544 0.950851 0.743837
O O3 0.599554 0.012661 0.606023
O O4 0.449007 0.947308 0.939032
O O5 0.405529 0.750000 0.479122
O O6 0.545632 0.556173 0.291652
O O7 0.374299 0.510840 0.613604
O O8 0.330743 0.250000 0.955175
O O9 0.278462 0.439268 0.906029
O O10 0.303902 0.517715 0.039515
O O11 0.308194 0.250000 0.727312
O O12 0.185463 0.466768 0.890086
O O13 0.074070 0.250000 0.007334
O O14 0.119714 0.455864 0.819942
O O15 0.999909 0.499573 0.141559
O O16 0.729278 0.750000 0.665355
O O17 0.813780 0.536307 0.448115
O O18 0.727340 0.491315 0.734786
O O19 0.072450 0.250000 0.774334
O O20 0.689646 0.250000 0.872652
#
# Coordination Sequence:
#
# PCOD8070024 Si02
#       8
#     4   4   4   4   4   4   4   4
#     4   9  18  32  48  68  98 133 163 193 233 282
#     4  10  19  29  45  72 102 129 159 197 237 278
#     4   9  19  34  49  67  95 131 166 198 235 280
#     4  10  19  32  51  71  94 128 165 197 235 286
#     4   9  18  33  52  73  97 124 154 190 234 284
#     4  10  19  32  51  71  95 129 164 196 234 285
#     4   9  18  32  50  73  99 125 152 187 236 287
#     4  10  20  32  48  71  98 128 162 201 240 276
#
# _framework density 17.312341
#
# number of rings (size 3 to 8) (size 9 to 14) (size 15 to 20)
#    0.000    2.500    0.000    2.250    0.000    5.000 
#    0.000    2.500    0.000    0.750    0.000    0.000 
#    0.000    0.000    0.000    0.000    0.000    0.000 
#
# Total GULP energy -396909.667135 kJ/mol
# GULP energy per Si atom -12403.427098 kJ/mol
# Density = 1.727294 g / cm^3
# Si number density = 17.312341 Si / 1000 Ang^3
#
#
#
# Elastic Constant Matrix: (Units=GPa)
#
#
# Indices 1 2 3 4 5 6 
#
# 1 105.0158 47.0781 49.0237 0.0000 4.8175 0.0000
# 2 47.0781 72.3593 46.4426 0.0000 9.9673 0.0000
# 3 49.0237 46.4426 88.3504 0.0000 11.0747 0.0000
# 4 0.0000 0.0000 0.0000 32.4004 0.0000 4.1733
# 5 4.8175 9.9673 11.0747 0.0000 20.6922 0.0000
# 6 0.0000 0.0000 0.0000 4.1733 0.0000 24.1334
#
#
#
# Elastic Compliance Matrix: (Units=1/GPa)
#
#
# Indices 1 2 3 4 5 6 
#
# 1 0.014746 -0.006767 -0.004935 0.000000 0.002467 0.000000
# 2 -0.006767 0.024357 -0.008335 0.000000 -0.005696 0.000000
# 3 -0.004935 -0.008335 0.019070 0.000000 -0.005043 0.000000
# 4 0.000000 0.000000 0.000000 0.031567 0.000000 -0.005459
# 5 0.002467 -0.005696 -0.005043 0.000000 0.053196 0.000000
# 6 0.000000 0.000000 0.000000 -0.005459 0.000000 0.042380
#
#
# Mechanical properties :
#
#
# Convention : Reuss Voigt Hill
#
# Bulk Modulus (GPa) = 55.24619 61.20161 58.22390
# Shear Modulus (GPa) = 21.60559 23.65728 22.63143
#
# Velocity S-wave (km/s) = 3.53652 3.70063 3.61950
# Velocity P-wave (km/s) = 6.97543 7.32719 7.15347
#
# Compressibility (1/GPa) = 0.01810079
#
# Stress axis : x y z
#
# Youngs Moduli (GPa) = 67.81350 41.05656 52.43844
#
# Poissons Ratio (x) = 0.27783 0.25876
# Poissons Ratio (y) = 0.45889 0.43705
# Poissons Ratio (z) = 0.33463 0.34219
#
# Static dielectric constant tensor:
#      x y z
#    x 3.187130 0.000000 0.013040 
#    y 0.000000 3.222020 0.000000 
#    z 0.013040 0.000000 3.050890 
# 
# 
# High freq. dielectric constant tensor:
#      x y z
#    x 1.660830 0.000000 0.008230 
#    y 0.000000 1.670420 0.000000 
#    z 0.008230 0.000000 1.649950 
# 
# From -- ./inp_files/51609.got.cif
#   From: 2010.06.25/outbox.cif.g09.slc.cpg/sg11_26_cif.got.tgz:51609.got - 2010.06.27 23:14:04.
