data_PCOD8070625
_publ_section_title
;
Structure prediction by ZEFSAII (Michael W. Deem and Ramdas Pophale) SiO2 
 PCOD8070625
Probable space group: P 21/M
;
_chemical_formula_sum "Si O2"
_cell_formula_units_Z 28
_cell_length_a 22.062937
_cell_length_b 8.957216
_cell_length_c 24.640033
_cell_angle_alpha 90.000000
_cell_angle_beta 162.071988
_cell_angle_gamma 90.000000
_cell_volume 1498.915169
_symmetry_space_group_name_H-M "P 21/M"
_symmetry_group_IT_number 11
_symmetry_cell_setting 'monoclinic'
loop_
_space_group_symop_operation_xyz
x,y,z
-x,1/2+y,-z
-x,-y,-z
x,1/2-y,z
loop_
_atom_site_type_symbol
_atom_site_label
_atom_site_fract_x
_atom_site_fract_y
_atom_site_fract_z
Si Si1 0.994024 0.575991 0.123086
Si Si2 0.149112 0.925744 0.585721
Si Si3 0.457586 0.074345 0.020920
Si Si4 0.177752 0.927921 0.388777
Si Si5 0.617544 0.575384 0.740981
Si Si6 0.683520 0.427190 0.685374
Si Si7 0.979008 0.572694 0.327648
O O1 0.035638 0.750000 0.163728
O O2 0.059141 0.504819 0.236090
O O3 0.124879 0.516884 0.184445
O O4 0.764882 0.542485 0.916558
O O5 0.116118 0.750000 0.561693
O O6 0.373633 0.969617 0.791860
O O7 0.099414 0.984015 0.482917
O O8 0.000000 0.000000 0.500000
O O9 0.452413 0.250000 0.006605
O O10 0.247118 0.016639 0.863556
O O11 0.500000 0.000000 0.000000
O O12 0.166941 0.750000 0.381527
O O13 0.403418 0.981362 0.576584
O O14 0.082495 0.995411 0.362317
O O15 0.614587 0.750000 0.723084
O O16 0.699800 0.485086 0.760187
O O17 0.500000 0.500000 0.500000
O O18 0.661270 0.250000 0.666493
O O19 0.984787 0.750000 0.330159
#
# Coordination Sequence:
#
# PCOD8070625 Si02
#       7
#     4   4   4   4   4   4   4
#     4   9  18  31  50  77 104 131 168 209 253 301
#     4  10  19  31  50  76 101 129 165 204 252 302
#     4  10  19  31  50  75 101 129 163 203 250 300
#     4   9  17  31  50  74 104 135 166 207 253 299
#     4  10  19  33  54  77 103 134 169 209 256 303
#     4  11  20  33  53  78 106 135 172 215 257 300
#     4   9  18  31  48  74 106 132 164 209 251 298
#
# _framework density 18.680175999999999
#
# number of rings (size 3 to 8) (size 9 to 14) (size 15 to 20)
#    0.000    2.286    2.857    0.857    0.000    1.143 
#    0.000    6.429    0.000    1.714    0.000    2.000 
#    0.000    0.000    0.000    0.000    0.000    0.000 
#
# Total GULP energy -347132.050935 kJ/mol
# GULP energy per Si atom -12397.573248 kJ/mol
# Density = 1.863766 g / cm^3
# Si number density = 18.680176 Si / 1000 Ang^3
#
#
#
# Elastic Constant Matrix: (Units=GPa)
#
#
# Indices 1 2 3 4 5 6 
#
# 1 180.9795 20.5824 96.7190 0.0000 0.0136 0.0000
# 2 20.5824 22.7465 21.7777 0.0000 -3.3532 0.0000
# 3 96.7190 21.7777 176.4381 0.0000 -11.8632 0.0000
# 4 0.0000 0.0000 0.0000 16.5899 0.0000 -0.2945
# 5 0.0136 -3.3532 -11.8632 0.0000 26.2682 0.0000
# 6 0.0000 0.0000 0.0000 -0.2945 0.0000 21.7730
#
#
#
# Elastic Compliance Matrix: (Units=1/GPa)
#
#
# Indices 1 2 3 4 5 6 
#
# 1 0.008189 -0.003753 -0.004186 0.000000 -0.002374 0.000000
# 2 -0.003753 0.051925 -0.004028 0.000000 0.004811 0.000000
# 3 -0.004186 -0.004028 0.008689 0.000000 0.003412 0.000000
# 4 0.000000 0.000000 0.000000 0.060292 0.000000 0.000816
# 5 -0.002374 0.004811 0.003412 0.000000 0.040225 0.000000
# 6 0.000000 0.000000 0.000000 0.000816 0.000000 0.045939
#
#
# Mechanical properties :
#
#
# Convention : Reuss Voigt Hill
#
# Bulk Modulus (GPa) = 22.28696 73.14693 47.71694
# Shear Modulus (GPa) = 19.67347 28.99855 24.33601
#
# Velocity S-wave (km/s) = 3.24878 3.94429 3.61331
# Velocity P-wave (km/s) = 5.10191 7.74505 6.55802
#
# Compressibility (1/GPa) = 0.04486929
#
# Stress axis : x y z
#
# Youngs Moduli (GPa) = 122.11041 19.25865 115.09129
#
# Poissons Ratio (x) = 0.07227 0.48172
# Poissons Ratio (y) = 0.45826 0.46363
# Poissons Ratio (z) = 0.51110 0.07758
#
# Static dielectric constant tensor:
#      x y z
#    x 4.148960 0.000000 -0.186570 
#    y 0.000000 3.005250 0.000000 
#    z -0.186570 0.000000 3.802130 
# 
# 
# High freq. dielectric constant tensor:
#      x y z
#    x 1.726250 0.000000 -0.005060 
#    y 0.000000 1.673500 0.000000 
#    z -0.005060 0.000000 1.744820 
# 
# From -- ./inp_files/66689.got.cif
#   From: 2010.06.25/outbox.cif.g09.slc.cpg/sg11_34_cif.got.tgz:66689.got - 2010.06.27 23:14:04.
