data_PCOD8070449
_publ_section_title
;
Structure prediction by ZEFSAII (Michael W. Deem and Ramdas Pophale) SiO2 
 PCOD8070449
Probable space group: P 21/M
;
_chemical_formula_sum "Si O2"
_cell_formula_units_Z 28
_cell_length_a 11.916551
_cell_length_b 9.322890
_cell_length_c 14.571825
_cell_angle_alpha 90.000000
_cell_angle_beta 108.952432
_cell_angle_gamma 90.000000
_cell_volume 1531.119655
_symmetry_space_group_name_H-M "P 21/M"
_symmetry_group_IT_number 11
_symmetry_cell_setting 'monoclinic'
loop_
_space_group_symop_operation_xyz
x,y,z
-x,1/2+y,-z
-x,-y,-z
x,1/2-y,z
loop_
_atom_site_type_symbol
_atom_site_label
_atom_site_fract_x
_atom_site_fract_y
_atom_site_fract_z
Si Si1 0.512481 0.087797 0.911804
Si Si2 0.364899 0.583440 0.371391
Si Si3 0.217835 0.586335 0.029419
Si Si4 0.876628 0.918375 0.167363
Si Si5 0.137877 0.920006 0.202695
Si Si6 0.600920 0.083687 0.408783
Si Si7 0.695940 0.582236 0.274380
O O1 0.478496 0.250000 0.928110
O O2 0.644186 0.075277 0.906447
O O3 0.420686 0.031397 0.811766
O O4 0.500000 0.000000 0.000000
O O5 0.387293 0.750000 0.352332
O O6 0.245439 0.520615 0.293268
O O7 0.350087 0.562351 0.475972
O O8 0.474813 0.493586 0.361998
O O9 0.182805 0.750000 0.997208
O O10 0.147146 0.527698 0.099484
O O11 0.191437 0.491620 0.934291
O O12 0.871436 0.750000 0.146178
O O13 0.812540 0.956111 0.245921
O O14 0.012191 0.974134 0.209458
O O15 0.145468 0.750000 0.207183
O O16 0.586024 0.250000 0.379856
O O17 0.697990 0.010344 0.367968
O O18 0.692134 0.750000 0.298227
#
# Coordination Sequence:
#
# PCOD8070449 Si02
#       7
#     4   4   4   4   4   4   4
#     4  10  19  31  48  71 100 134 169 206 253 300
#     4   9  18  36  58  78 104 132 164 210 260 309
#     4  10  19  31  50  74 101 135 170 210 260 301
#     4  10  20  34  52  73 100 138 179 209 242 300
#     4   9  18  34  55  75  98 134 175 210 250 305
#     4  10  20  33  55  83 104 129 166 211 260 306
#     4  10  20  34  51  73 105 142 172 204 253 305
#
# _framework density 18.287269999999999
#
# number of rings (size 3 to 8) (size 9 to 14) (size 15 to 20)
#    0.000    2.286    1.429    1.714    0.000    4.000 
#    0.000    3.571    0.000    0.000    0.000    0.000 
#    0.000    0.000    0.000    0.000    0.000    0.000 
#
# Total GULP energy -347224.961651 kJ/mol
# GULP energy per Si atom -12400.891488 kJ/mol
# Density = 1.824565 g / cm^3
# Si number density = 18.287270 Si / 1000 Ang^3
#
#
#
# Elastic Constant Matrix: (Units=GPa)
#
#
# Indices 1 2 3 4 5 6 
#
# 1 115.3312 37.2163 40.4303 0.0000 -17.9927 0.0000
# 2 37.2163 55.9702 32.5399 0.0000 -13.3055 0.0000
# 3 40.4303 32.5399 65.3730 0.0000 -14.7491 0.0000
# 4 0.0000 0.0000 0.0000 27.3027 0.0000 -6.2635
# 5 -17.9927 -13.3055 -14.7491 0.0000 31.7364 0.0000
# 6 0.0000 0.0000 0.0000 -6.2635 0.0000 22.3955
#
#
#
# Elastic Compliance Matrix: (Units=1/GPa)
#
#
# Indices 1 2 3 4 5 6 
#
# 1 0.012265 -0.004849 -0.004537 0.000000 0.002812 0.000000
# 2 -0.004849 0.027877 -0.009898 0.000000 0.004338 0.000000
# 3 -0.004537 -0.009898 0.024033 0.000000 0.004447 0.000000
# 4 0.000000 0.000000 0.000000 0.039138 0.000000 0.010946
# 5 0.002812 0.004338 0.004447 0.000000 0.036989 0.000000
# 6 0.000000 0.000000 0.000000 0.010946 0.000000 0.047713
#
#
# Mechanical properties :
#
#
# Convention : Reuss Voigt Hill
#
# Bulk Modulus (GPa) = 39.05361 50.78304 44.91832
# Shear Modulus (GPa) = 21.26591 24.71944 22.99268
#
# Velocity S-wave (km/s) = 3.41380 3.68058 3.54970
# Velocity P-wave (km/s) = 6.07789 6.77437 6.43556
#
# Compressibility (1/GPa) = 0.02560583
#
# Stress axis : x y z
#
# Youngs Moduli (GPa) = 81.53577 35.87220 41.60930
#
# Poissons Ratio (x) = 0.17394 0.18879
# Poissons Ratio (y) = 0.39535 0.41186
# Poissons Ratio (z) = 0.36994 0.35507
#
# Static dielectric constant tensor:
#      x y z
#    x 3.631410 0.000000 -0.013510 
#    y 0.000000 3.239440 0.000000 
#    z -0.013510 0.000000 3.334770 
# 
# 
# High freq. dielectric constant tensor:
#      x y z
#    x 1.715110 0.000000 -0.009040 
#    y 0.000000 1.689250 0.000000 
#    z -0.009040 0.000000 1.702340 
# 
# From -- ./inp_files/37426.got.cif
#   From: 2010.06.25/outbox.cif.g09.slc.cpg/sg11_19_cif.got.tgz:37426.got - 2010.06.27 23:14:04.
