data_PCOD8070330
_publ_section_title
;
Structure prediction by ZEFSAII (Michael W. Deem and Ramdas Pophale) SiO2 
 PCOD8070330
Probable space group: P 21/M
;
_chemical_formula_sum "Si O2"
_cell_formula_units_Z 32
_cell_length_a 20.821076
_cell_length_b 8.916096
_cell_length_c 16.204237
_cell_angle_alpha 90.000000
_cell_angle_beta 138.030439
_cell_angle_gamma 90.000000
_cell_volume 2011.689761
_symmetry_space_group_name_H-M "P 21/M"
_symmetry_group_IT_number 11
_symmetry_cell_setting 'monoclinic'
loop_
_space_group_symop_operation_xyz
x,y,z
-x,1/2+y,-z
-x,-y,-z
x,1/2-y,z
loop_
_atom_site_type_symbol
_atom_site_label
_atom_site_fract_x
_atom_site_fract_y
_atom_site_fract_z
Si Si1 0.861519 0.917975 0.912145
Si Si2 0.016874 0.424303 0.282059
Si Si3 0.922328 0.081111 0.817325
Si Si4 0.732795 0.573351 0.257962
Si Si5 0.666927 0.074175 0.026345
Si Si6 0.805303 0.423084 0.015398
Si Si7 0.071610 0.927615 0.503544
Si Si8 0.467919 0.078242 0.887989
O O1 0.826432 0.750000 0.860398
O O2 0.850903 0.013155 0.817949
O O3 0.795240 0.986441 0.920663
O O4 0.970736 0.920105 0.045698
O O5 0.038242 0.250000 0.319578
O O6 0.083032 0.479277 0.269502
O O7 0.042214 0.522854 0.384687
O O8 0.905729 0.453741 0.156537
O O9 0.889355 0.250000 0.764960
O O10 0.757558 0.750000 0.280614
O O11 0.821062 0.479950 0.376108
O O12 0.643539 0.535206 0.236193
O O13 0.706948 0.521752 0.140799
O O14 0.687582 0.250000 0.063673
O O15 0.720873 0.021988 0.995274
O O16 0.551721 0.044541 0.900509
O O17 0.795204 0.250000 0.982359
O O18 0.064943 0.750000 0.505021
O O19 0.000000 0.000000 0.500000
O O20 0.468433 0.250000 0.911890
O O21 0.500000 0.000000 0.000000
#
# Coordination Sequence:
#
# PCOD8070330 Si02
#       8
#     4   4   4   4   4   4   4   4
#     4   9  16  25  39  59  83 111 142 176 213 253
#     4  10  19  31  45  63  87 116 149 182 216 254
#     4   9  16  27  42  59  81 111 146 180 213 251
#     4  10  19  31  46  64  86 114 148 185 222 259
#     4   9  16  28  45  65  89 117 147 179 218 262
#     4   9  17  27  41  61  87 116 143 173 212 258
#     4  12  24  36  48  63  85 115 150 186 222 258
#     4   8  15  27  44  64  85 110 142 179 218 260
#
# _framework density 15.907024
#
# number of rings (size 3 to 8) (size 9 to 14) (size 15 to 20)
#    0.000    2.500    0.000    3.375    0.000    5.500 
#    0.000    0.000    0.000    0.000    0.000    0.000 
#    0.000    1.000    0.000    2.750    0.000    4.000 
#
# Total GULP energy -396560.342320 kJ/mol
# GULP energy per Si atom -12392.510697 kJ/mol
# Density = 1.587082 g / cm^3
# Si number density = 15.907024 Si / 1000 Ang^3
#
#
#
# Elastic Constant Matrix: (Units=GPa)
#
#
# Indices 1 2 3 4 5 6 
#
# 1 140.8115 54.8571 46.8403 0.0000 -3.2491 0.0000
# 2 54.8571 96.8279 33.2183 0.0000 0.1773 0.0000
# 3 46.8403 33.2183 41.1668 0.0000 0.2976 0.0000
# 4 0.0000 0.0000 0.0000 21.4137 0.0000 -5.8719
# 5 -3.2491 0.1773 0.2976 0.0000 20.4385 0.0000
# 6 0.0000 0.0000 0.0000 -5.8719 0.0000 25.8724
#
#
#
# Elastic Compliance Matrix: (Units=1/GPa)
#
#
# Indices 1 2 3 4 5 6 
#
# 1 0.012087 -0.002943 -0.011393 0.000000 0.002113 0.000000
# 2 -0.002943 0.014998 -0.008750 0.000000 -0.000471 0.000000
# 3 -0.011393 -0.008750 0.044332 0.000000 -0.002381 0.000000
# 4 0.000000 0.000000 0.000000 0.049798 0.000000 0.011302
# 5 0.002113 -0.000471 -0.002381 0.000000 0.049302 0.000000
# 6 0.000000 0.000000 0.000000 0.011302 0.000000 0.041216
#
#
# Mechanical properties :
#
#
# Convention : Reuss Voigt Hill
#
# Bulk Modulus (GPa) = 39.61205 60.95972 50.28589
# Shear Modulus (GPa) = 18.77439 23.13763 20.95601
#
# Velocity S-wave (km/s) = 3.43922 3.81800 3.63355
# Velocity P-wave (km/s) = 6.38179 7.60538 7.02030
#
# Compressibility (1/GPa) = 0.02524484
#
# Stress axis : x y z
#
# Youngs Moduli (GPa) = 82.73469 66.67746 22.55684
#
# Poissons Ratio (x) = 0.19623 0.25699
# Poissons Ratio (y) = 0.24349 0.19737
# Poissons Ratio (z) = 0.94261 0.58342
#
# Static dielectric constant tensor:
#      x y z
#    x 3.508050 0.000000 0.132280 
#    y 0.000000 3.167160 0.000000 
#    z 0.132280 0.000000 2.756390 
# 
# 
# High freq. dielectric constant tensor:
#      x y z
#    x 1.617950 0.000000 -0.003840 
#    y 0.000000 1.626170 0.000000 
#    z -0.003840 0.000000 1.556450 
# 
# From -- ./inp_files/54315.got.cif
#   From: 2010.06.25/outbox.cif.g09.slc.cpg/sg11_28_cif.got.tgz:54315.got - 2010.06.27 23:14:04.
