data_PCOD8070488
_publ_section_title
;
Structure prediction by ZEFSAII (Michael W. Deem and Ramdas Pophale) SiO2 
 PCOD8070488
Probable space group: P 21/M
;
_chemical_formula_sum "Si O2"
_cell_formula_units_Z 32
_cell_length_a 21.738129
_cell_length_b 9.000718
_cell_length_c 12.243255
_cell_angle_alpha 90.000000
_cell_angle_beta 45.998980
_cell_angle_gamma 90.000000
_cell_volume 1723.149012
_symmetry_space_group_name_H-M "P 21/M"
_symmetry_group_IT_number 11
_symmetry_cell_setting 'monoclinic'
loop_
_space_group_symop_operation_xyz
x,y,z
-x,1/2+y,-z
-x,-y,-z
x,1/2-y,z
loop_
_atom_site_type_symbol
_atom_site_label
_atom_site_fract_x
_atom_site_fract_y
_atom_site_fract_z
Si Si1 0.508580 0.925937 0.781807
Si Si2 0.552054 0.914595 0.347321
Si Si3 0.358060 0.421619 0.043329
Si Si4 0.226685 0.577016 0.047231
Si Si5 0.697892 0.574429 0.493861
Si Si6 0.910067 0.078626 0.604158
Si Si7 0.739909 0.914484 0.204016
Si Si8 0.782638 0.580213 0.608341
O O1 0.509229 0.750000 0.795801
O O2 0.604554 0.989323 0.645071
O O3 0.449662 0.979922 0.754834
O O4 0.451190 0.999969 0.949395
O O5 0.513477 0.750000 0.371928
O O6 0.646165 0.896169 0.274417
O O7 0.500000 0.000000 0.500000
O O8 0.372934 0.250000 0.994153
O O9 0.303271 0.491127 0.012073
O O10 0.307593 0.440130 0.218781
O O11 0.250594 0.750000 0.013894
O O12 0.139859 0.548785 0.221689
O O13 0.209360 0.518124 0.944852
O O14 0.685925 0.750000 0.495392
O O15 0.733213 0.512080 0.334214
O O16 0.766586 0.533661 0.502421
O O17 0.926721 0.250000 0.562969
O O18 0.856504 0.020929 0.566621
O O19 0.000000 0.000000 0.500000
O O20 0.783149 0.750000 0.156669
O O21 0.813504 0.750000 0.579107
#
# Coordination Sequence:
#
# PCOD8070488 Si02
#       8
#     4   4   4   4   4   4   4   4
#     4  11  20  31  47  68  99 141 186 231 270 306
#     4  11  20  30  45  68  98 136 183 233 273 306
#     4  10  19  31  48  73 101 135 180 226 270 312
#     4  10  20  33  52  80 109 135 167 212 263 309
#     4   9  19  35  51  71 101 144 187 218 259 311
#     4  10  21  38  62  90 113 131 160 204 256 315
#     4  10  19  32  50  72 103 141 181 220 260 310
#     4   9  19  37  58  76 104 141 174 212 261 317
#
# _framework density 18.570651000000002
#
# number of rings (size 3 to 8) (size 9 to 14) (size 15 to 20)
#    0.000    2.000    2.500    1.875    0.000    3.000 
#    0.000    1.875    0.000    0.750    0.000    0.000 
#    0.000    0.000    0.000    0.000    0.000    0.000 
#
# Total GULP energy -396563.275860 kJ/mol
# GULP energy per Si atom -12392.602371 kJ/mol
# Density = 1.852838 g / cm^3
# Si number density = 18.570651 Si / 1000 Ang^3
#
#
#
# Elastic Constant Matrix: (Units=GPa)
#
#
# Indices 1 2 3 4 5 6 
#
# 1 84.5626 40.9711 55.8088 0.0000 10.0605 0.0000
# 2 40.9711 87.0772 46.3748 0.0000 -3.5993 0.0000
# 3 55.8088 46.3748 87.9691 0.0000 5.1064 0.0000
# 4 0.0000 0.0000 0.0000 29.4452 0.0000 -2.5140
# 5 10.0605 -3.5993 5.1064 0.0000 24.2225 0.0000
# 6 0.0000 0.0000 0.0000 -2.5140 0.0000 21.0044
#
#
#
# Elastic Compliance Matrix: (Units=1/GPa)
#
#
# Indices 1 2 3 4 5 6 
#
# 1 0.022577 -0.004941 -0.011270 0.000000 -0.007736 0.000000
# 2 -0.004941 0.017481 -0.006430 0.000000 0.006005 0.000000
# 3 -0.011270 -0.006430 0.021959 0.000000 -0.000904 0.000000
# 4 0.000000 0.000000 0.000000 0.034312 0.000000 0.004107
# 5 -0.007736 0.006005 -0.000904 0.000000 0.045580 0.000000
# 6 0.000000 0.000000 0.000000 0.004107 0.000000 0.048101
#
#
# Mechanical properties :
#
#
# Convention : Reuss Voigt Hill
#
# Bulk Modulus (GPa) = 59.74598 60.65760 60.20179
# Shear Modulus (GPa) = 20.75806 22.69801 21.72803
#
# Velocity S-wave (km/s) = 3.34696 3.49986 3.42427
# Velocity P-wave (km/s) = 6.86865 7.00472 6.93702
#
# Compressibility (1/GPa) = 0.01673753
#
# Stress axis : x y z
#
# Youngs Moduli (GPa) = 44.29200 57.20401 45.53872
#
# Poissons Ratio (x) = 0.28264 0.51321
# Poissons Ratio (y) = 0.21884 0.29280
# Poissons Ratio (z) = 0.49916 0.36780
#
# Static dielectric constant tensor:
#      x y z
#    x 3.182600 0.000000 0.225360 
#    y 0.000000 3.441340 0.000000 
#    z 0.225360 0.000000 3.505930 
# 
# 
# High freq. dielectric constant tensor:
#      x y z
#    x 1.689180 0.000000 0.017680 
#    y 0.000000 1.715730 0.000000 
#    z 0.017680 0.000000 1.722970 
# 
# From -- ./inp_files/42560.got.cif
#   From: 2010.06.25/outbox.cif.g09.slc.cpg/sg11_22_cif.got.tgz:42560.got - 2010.06.27 23:14:04.
