data_PCOD8070287
_publ_section_title
;
Structure prediction by ZEFSAII (Michael W. Deem and Ramdas Pophale) SiO2 
 PCOD8070287
Probable space group: P 21/M
;
_chemical_formula_sum "Si O2"
_cell_formula_units_Z 28
_cell_length_a 28.329542
_cell_length_b 8.646367
_cell_length_c 9.580630
_cell_angle_alpha 90.000000
_cell_angle_beta 141.205488
_cell_angle_gamma 90.000000
_cell_volume 1470.308867
_symmetry_space_group_name_H-M "P 21/M"
_symmetry_group_IT_number 11
_symmetry_cell_setting 'monoclinic'
loop_
_space_group_symop_operation_xyz
x,y,z
-x,1/2+y,-z
-x,-y,-z
x,1/2-y,z
loop_
_atom_site_type_symbol
_atom_site_label
_atom_site_fract_x
_atom_site_fract_y
_atom_site_fract_z
Si Si1 0.558360 0.926711 0.307807
Si Si2 0.394121 0.573401 0.865334
Si Si3 0.680236 0.425693 0.748363
Si Si4 0.189785 0.571780 0.172540
Si Si5 0.917518 0.567405 0.297608
Si Si6 0.239684 0.070233 0.571061
Si Si7 0.196334 0.931733 0.755039
O O1 0.573416 0.750000 0.298511
O O2 0.586456 0.038082 0.249931
O O3 0.605807 0.969355 0.555793
O O4 0.469436 0.952643 0.131598
O O5 0.365632 0.750000 0.808049
O O6 0.328625 0.465141 0.772566
O O7 0.653426 0.250000 0.703327
O O8 0.733864 0.447062 0.738486
O O9 0.724903 0.480135 0.989330
O O10 0.173800 0.750000 0.170937
O O11 0.198532 0.476227 0.334152
O O12 0.119870 0.504552 0.926228
O O13 0.920242 0.750000 0.287592
O O14 0.872028 0.522917 0.331869
O O15 0.000000 0.500000 0.500000
O O16 0.227983 0.250000 0.572868
O O17 0.199872 0.974243 0.601690
O O18 0.182076 0.750000 0.744676
#
# Coordination Sequence:
#
# PCOD8070287 Si02
#       7
#     4   4   4   4   4   4   4
#     4  10  19  30  50  78 107 142 191 243 288 333
#     4  10  20  33  49  74 110 150 188 235 290 341
#     4   9  18  33  55  79 107 145 190 234 283 338
#     4  10  20  36  59  86 115 152 190 230 279 335
#     4  11  22  40  65  93 121 150 187 229 271 328
#     4  12  23  36  56  85 115 149 192 239 286 339
#     4  10  22  40  60  83 115 154 188 229 286 342
#
# _framework density 19.043617000000001
#
# number of rings (size 3 to 8) (size 9 to 14) (size 15 to 20)
#    0.000    1.714    1.429    5.143    0.000    4.571 
#    0.000    1.429    0.000    0.000    0.000    0.000 
#    0.000    0.000    0.000    0.000    0.000    0.000 
#
# Total GULP energy -347280.365546 kJ/mol
# GULP energy per Si atom -12402.870198 kJ/mol
# Density = 1.900027 g / cm^3
# Si number density = 19.043617 Si / 1000 Ang^3
#
#
#
# Elastic Constant Matrix: (Units=GPa)
#
#
# Indices 1 2 3 4 5 6 
#
# 1 57.8344 8.9130 41.0481 0.0000 -2.5886 0.0000
# 2 8.9130 78.9739 35.6727 0.0000 10.8976 0.0000
# 3 41.0481 35.6727 115.9418 0.0000 14.2443 0.0000
# 4 0.0000 0.0000 0.0000 34.1729 0.0000 0.0115
# 5 -2.5886 10.8976 14.2443 0.0000 29.2566 0.0000
# 6 0.0000 0.0000 0.0000 0.0115 0.0000 28.0867
#
#
#
# Elastic Compliance Matrix: (Units=1/GPa)
#
#
# Indices 1 2 3 4 5 6 
#
# 1 0.024313 0.000698 -0.009631 0.000000 0.006580 0.000000
# 2 0.000698 0.015068 -0.004469 0.000000 -0.003375 0.000000
# 3 -0.009631 -0.004469 0.014157 0.000000 -0.006080 0.000000
# 4 0.000000 0.000000 0.000000 0.029263 0.000000 -0.000012
# 5 0.006580 -0.003375 -0.006080 0.000000 0.038980 0.000000
# 6 0.000000 0.000000 0.000000 -0.000012 0.000000 0.035604
#
#
# Mechanical properties :
#
#
# Convention : Reuss Voigt Hill
#
# Bulk Modulus (GPa) = 37.40406 47.11307 42.25856
# Shear Modulus (GPa) = 25.89334 29.44430 27.66882
#
# Velocity S-wave (km/s) = 3.69139 3.93638 3.81585
# Velocity P-wave (km/s) = 6.15243 6.74191 6.45390
#
# Compressibility (1/GPa) = 0.02673507
#
# Stress axis : x y z
#
# Youngs Moduli (GPa) = 41.12948 66.36663 70.63744
#
# Poissons Ratio (x) = -0.04635 0.68033
# Poissons Ratio (y) = -0.02873 0.31565
# Poissons Ratio (z) = 0.39613 0.29657
#
# Static dielectric constant tensor:
#      x y z
#    x 3.203260 0.000000 0.037840 
#    y 0.000000 3.539360 0.000000 
#    z 0.037840 0.000000 3.672450 
# 
# 
# High freq. dielectric constant tensor:
#      x y z
#    x 1.707690 0.000000 0.001750 
#    y 0.000000 1.752390 0.000000 
#    z 0.001750 0.000000 1.748200 
# 
# From -- ./inp_files/28140.got.cif
#   From: 2010.06.25/outbox.cif.g09.slc.cpg/sg11_15_cif.got.tgz:28140.got - 2010.06.27 23:14:04.
