data_PCOD8070047
_publ_section_title
;
Structure prediction by ZEFSAII (Michael W. Deem and Ramdas Pophale) SiO2 
 PCOD8070047
Probable space group: P 21/M
;
_chemical_formula_sum "Si O2"
_cell_formula_units_Z 32
_cell_length_a 30.533966
_cell_length_b 8.907425
_cell_length_c 14.883658
_cell_angle_alpha 90.000000
_cell_angle_beta 151.169260
_cell_angle_gamma 90.000000
_cell_volume 1952.062306
_symmetry_space_group_name_H-M "P 21/M"
_symmetry_group_IT_number 11
_symmetry_cell_setting 'monoclinic'
loop_
_space_group_symop_operation_xyz
x,y,z
-x,1/2+y,-z
-x,-y,-z
x,1/2-y,z
loop_
_atom_site_type_symbol
_atom_site_label
_atom_site_fract_x
_atom_site_fract_y
_atom_site_fract_z
Si Si1 0.870963 0.924702 0.131191
Si Si2 0.869460 0.422934 0.827147
Si Si3 0.744859 0.576694 0.734946
Si Si4 0.049848 0.576498 0.212770
Si Si5 0.612106 0.924345 0.787884
Si Si6 0.072054 0.573276 0.451445
Si Si7 0.593391 0.075210 0.565306
Si Si8 0.214112 0.927794 0.850008
O O1 0.868111 0.750000 0.153415
O O2 0.973195 0.986662 0.303225
O O3 0.823918 0.022856 0.122476
O O4 0.819579 0.952214 0.945580
O O5 0.853531 0.250000 0.822819
O O6 0.785316 0.518313 0.713550
O O7 0.874846 0.448154 0.729178
O O8 0.963304 0.473478 0.040408
O O9 0.719143 0.750000 0.679183
O O10 0.652939 0.485025 0.589856
O O11 0.016615 0.750000 0.155021
O O12 0.093497 0.529673 0.386684
O O13 0.635647 0.750000 0.825521
O O14 0.512078 0.954965 0.647498
O O15 0.622303 0.986294 0.705796
O O16 0.685039 0.005452 0.983072
O O17 0.071024 0.750000 0.461322
O O18 0.149731 0.505562 0.655579
O O19 0.611631 0.250000 0.615226
O O20 0.220092 0.750000 0.856653
#
# Coordination Sequence:
#
# PCOD8070047 Si02
#       8
#     4   4   4   4   4   4   4   4
#     4  10  19  32  47  64  94 133 166 194 231 278
#     4  10  19  29  48  73  96 123 160 202 240 285
#     4  11  20  31  50  71  98 132 157 191 242 290
#     4   9  17  33  50  66  94 129 162 200 243 283
#     4  10  20  34  49  68  96 127 154 193 246 286
#     4   9  18  33  49  66  92 130 169 198 234 276
#     4  10  20  33  51  71  93 121 160 200 233 283
#     4  11  21  31  48  70  94 127 167 205 229 270
#
# _framework density 16.392918999999999
#
# number of rings (size 3 to 8) (size 9 to 14) (size 15 to 20)
#    0.000    2.000    2.500    2.250    0.000    2.500 
#    0.000    1.875    0.000    0.000    0.000    0.875 
#    0.000    0.000    0.000    0.000    0.000    0.000 
#
# Total GULP energy -396829.762572 kJ/mol
# GULP energy per Si atom -12400.930080 kJ/mol
# Density = 1.635561 g / cm^3
# Si number density = 16.392919 Si / 1000 Ang^3
#
#
#
# Elastic Constant Matrix: (Units=GPa)
#
#
# Indices 1 2 3 4 5 6 
#
# 1 84.1025 31.5290 39.2974 0.0000 12.5511 0.0000
# 2 31.5290 63.6877 34.7977 0.0000 5.7880 0.0000
# 3 39.2974 34.7977 90.8179 0.0000 12.9516 0.0000
# 4 0.0000 0.0000 0.0000 22.0418 0.0000 5.7278
# 5 12.5511 5.7880 12.9516 0.0000 21.5393 0.0000
# 6 0.0000 0.0000 0.0000 5.7278 0.0000 23.5569
#
#
#
# Elastic Compliance Matrix: (Units=1/GPa)
#
#
# Indices 1 2 3 4 5 6 
#
# 1 0.016822 -0.005409 -0.004393 0.000000 -0.005708 0.000000
# 2 -0.005409 0.021612 -0.006083 0.000000 0.001002 0.000000
# 3 -0.004393 -0.006083 0.016018 0.000000 -0.005437 0.000000
# 4 0.000000 0.000000 0.000000 0.048428 0.000000 -0.011775
# 5 -0.005708 0.001002 -0.005437 0.000000 0.052753 0.000000
# 6 0.000000 0.000000 0.000000 -0.011775 0.000000 0.045314
#
#
# Mechanical properties :
#
#
# Convention : Reuss Voigt Hill
#
# Bulk Modulus (GPa) = 44.08695 49.98404 47.03549
# Shear Modulus (GPa) = 20.80922 22.29320 21.55121
#
# Velocity S-wave (km/s) = 3.56673 3.69172 3.62977
# Velocity P-wave (km/s) = 6.62679 6.98063 6.80601
#
# Compressibility (1/GPa) = 0.02268245
#
# Stress axis : x y z
#
# Youngs Moduli (GPa) = 59.44470 46.27023 62.42982
#
# Poissons Ratio (x) = 0.25029 0.27422
# Poissons Ratio (y) = 0.32155 0.37977
# Poissons Ratio (z) = 0.26111 0.28147
#
# Static dielectric constant tensor:
#      x y z
#    x 3.150970 0.000000 0.061240 
#    y 0.000000 3.088640 0.000000 
#    z 0.061240 0.000000 3.178220 
# 
# 
# High freq. dielectric constant tensor:
#      x y z
#    x 1.622620 0.000000 0.012780 
#    y 0.000000 1.633690 0.000000 
#    z 0.012780 0.000000 1.608210 
# 
# From -- ./inp_files/51220.got.cif
#   From: 2010.06.25/outbox.cif.g09.slc.cpg/sg11_26_cif.got.tgz:51220.got - 2010.06.27 23:14:04.
