data_PCOD8070592
_publ_section_title
;
Structure prediction by ZEFSAII (Michael W. Deem and Ramdas Pophale) SiO2 
 PCOD8070592
Probable space group: P 21/M
;
_chemical_formula_sum "Si O2"
_cell_formula_units_Z 32
_cell_length_a 16.066817
_cell_length_b 8.951974
_cell_length_c 25.007694
_cell_angle_alpha 90.000000
_cell_angle_beta 153.402534
_cell_angle_gamma 90.000000
_cell_volume 1610.379957
_symmetry_space_group_name_H-M "P 21/M"
_symmetry_group_IT_number 11
_symmetry_cell_setting 'monoclinic'
loop_
_space_group_symop_operation_xyz
x,y,z
-x,1/2+y,-z
-x,-y,-z
x,1/2-y,z
loop_
_atom_site_type_symbol
_atom_site_label
_atom_site_fract_x
_atom_site_fract_y
_atom_site_fract_z
Si Si1 0.420750 0.920915 0.403084
Si Si2 0.304429 0.075115 0.805413
Si Si3 0.662545 0.073142 0.944694
Si Si4 0.010345 0.922455 0.197081
Si Si5 0.023103 0.575677 0.711234
Si Si6 0.650973 0.576086 0.435678
Si Si7 0.129836 0.585894 0.613678
Si Si8 0.484990 0.913531 0.748677
O O1 0.481922 0.750000 0.443697
O O2 0.514520 0.986954 0.403441
O O3 0.199232 0.939175 0.271792
O O4 0.500000 0.000000 0.500000
O O5 0.295147 0.250000 0.811587
O O6 0.506399 0.025641 0.899280
O O7 0.148911 0.026444 0.673696
O O8 0.230395 0.986690 0.815283
O O9 0.665655 0.250000 0.941832
O O10 0.632907 0.011317 0.867333
O O11 0.856429 0.012232 0.076473
O O12 0.951157 0.750000 0.168904
O O13 0.044567 0.992078 0.274772
O O14 0.044388 0.750000 0.736050
O O15 0.865763 0.545912 0.575491
O O16 0.615563 0.750000 0.405334
O O17 0.596616 0.493297 0.350185
O O18 0.049357 0.750000 0.585194
O O19 0.323545 0.614693 0.697564
O O20 0.000000 0.500000 0.500000
O O21 0.568939 0.750000 0.781528
#
# Coordination Sequence:
#
# PCOD8070592 Si02
#       8
#     4   4   4   4   4   4   4   4
#     4  10  21  39  62  89 119 151 187 234 291 348
#     4  10  21  36  54  79 112 151 195 241 287 339
#     4  10  22  41  62  82 113 157 199 240 288 342
#     4  11  23  39  62  88 116 151 193 243 292 344
#     4  11  22  36  58  87 120 156 194 239 291 346
#     4  10  21  37  58  87 121 152 188 234 288 348
#     4  10  19  31  49  75 109 149 192 237 286 340
#     4  10  21  36  56  83 114 150 193 239 286 338
#
# _framework density 19.871086999999999
#
# number of rings (size 3 to 8) (size 9 to 14) (size 15 to 20)
#    0.000    1.750    1.250    3.000    0.000    7.500 
#    0.000    0.625    0.000    0.000    0.000    0.000 
#    0.000    0.000    0.000    0.000    0.000    0.000 
#
# Total GULP energy -396630.801684 kJ/mol
# GULP energy per Si atom -12394.712553 kJ/mol
# Density = 1.982586 g / cm^3
# Si number density = 19.871087 Si / 1000 Ang^3
#
#
#
# Elastic Constant Matrix: (Units=GPa)
#
#
# Indices 1 2 3 4 5 6 
#
# 1 73.6738 30.9400 18.2215 0.0000 1.1240 0.0000
# 2 30.9400 79.6240 33.3271 0.0000 1.8357 0.0000
# 3 18.2215 33.3271 85.0223 0.0000 -2.5823 0.0000
# 4 0.0000 0.0000 0.0000 34.3886 0.0000 -5.2188
# 5 1.1240 1.8357 -2.5823 0.0000 28.7950 0.0000
# 6 0.0000 0.0000 0.0000 -5.2188 0.0000 27.6662
#
#
#
# Elastic Compliance Matrix: (Units=1/GPa)
#
#
# Indices 1 2 3 4 5 6 
#
# 1 0.016328 -0.005822 -0.001229 0.000000 -0.000376 0.000000
# 2 -0.005822 0.017164 -0.005522 0.000000 -0.001362 0.000000
# 3 -0.001229 -0.005522 0.014240 0.000000 0.001677 0.000000
# 4 0.000000 0.000000 0.000000 0.029936 0.000000 0.005647
# 5 -0.000376 -0.001362 0.001677 0.000000 0.034980 0.000000
# 6 0.000000 0.000000 0.000000 0.005647 0.000000 0.037210
#
#
# Mechanical properties :
#
#
# Convention : Reuss Voigt Hill
#
# Bulk Modulus (GPa) = 44.27151 44.81080 44.54115
# Shear Modulus (GPa) = 27.39248 28.55873 27.97561
#
# Velocity S-wave (km/s) = 3.71686 3.79516 3.75621
# Velocity P-wave (km/s) = 6.38340 6.46560 6.42463
#
# Compressibility (1/GPa) = 0.02258789
#
# Stress axis : x y z
#
# Youngs Moduli (GPa) = 61.24514 58.26265 70.22361
#
# Poissons Ratio (x) = 0.33918 0.08629
# Poissons Ratio (y) = 0.35655 0.38774
# Poissons Ratio (z) = 0.07525 0.32170
#
# Static dielectric constant tensor:
#      x y z
#    x 2.970240 0.000000 -0.737240 
#    y 0.000000 3.802070 0.000000 
#    z -0.737240 0.000000 2.612250 
# 
# 
# High freq. dielectric constant tensor:
#      x y z
#    x 1.772780 0.000000 -0.001210 
#    y 0.000000 1.785300 0.000000 
#    z -0.001210 0.000000 1.764980 
# 
# From -- ./inp_files/55766.got.cif
#   From: 2010.06.25/outbox.cif.g09.slc.cpg/sg11_28_cif.got.tgz:55766.got - 2010.06.27 23:14:04.
