data_PCOD8070309
_publ_section_title
;
Structure prediction by ZEFSAII (Michael W. Deem and Ramdas Pophale) SiO2 
 PCOD8070309
Probable space group: P 21/M
;
_chemical_formula_sum "Si O2"
_cell_formula_units_Z 20
_cell_length_a 16.347541
_cell_length_b 9.121916
_cell_length_c 7.925554
_cell_angle_alpha 90.000000
_cell_angle_beta 62.066687
_cell_angle_gamma 90.000000
_cell_volume 1044.170576
_symmetry_space_group_name_H-M "P 21/M"
_symmetry_group_IT_number 11
_symmetry_cell_setting 'monoclinic'
loop_
_space_group_symop_operation_xyz
x,y,z
-x,1/2+y,-z
-x,-y,-z
x,1/2-y,z
loop_
_atom_site_type_symbol
_atom_site_label
_atom_site_fract_x
_atom_site_fract_y
_atom_site_fract_z
Si Si1 0.790090 0.579102 0.034855
Si Si2 0.605119 0.419040 0.713442
Si Si3 0.775976 0.923225 0.416948
Si Si4 0.901874 0.575265 0.608096
Si Si5 0.600554 0.918409 0.064127
O O1 0.806926 0.750000 0.003522
O O2 0.819215 0.525267 0.194438
O O3 0.681406 0.542085 0.117343
O O4 0.852621 0.510933 0.824664
O O5 0.633587 0.250000 0.681578
O O6 0.674413 0.507187 0.527513
O O7 0.499367 0.443136 0.751838
O O8 0.613811 0.474706 0.895092
O O9 0.762298 0.750000 0.433077
O O10 0.841805 0.975693 0.504707
O O11 0.913245 0.750000 0.598975
O O12 0.000000 0.500000 0.500000
O O13 0.609916 0.750000 0.991268
#
# Coordination Sequence:
#
# PCOD8070309 Si02
#       5
#     4   4   4   4   4
#     4   9  18  35  58  80 104 141 183 215 255 321
#     4  10  19  30  51  82 113 143 179 221 260 303
#     4  10  20  36  58  79 105 144 181 213 262 322
#     4  10  21  38  58  79 104 136 176 221 270 321
#     4   9  17  33  54  77 109 148 183 214 256 313
#
# _framework density 19.153957999999999
#
# number of rings (size 3 to 8) (size 9 to 14) (size 15 to 20)
#    0.000    2.400    2.000    0.600    0.000    3.200 
#    0.000    2.000    0.000    0.000    0.000    0.000 
#    0.000    0.000    0.000    0.000    0.000    0.000 
#
# Total GULP energy -247900.923493 kJ/mol
# GULP energy per Si atom -12395.046175 kJ/mol
# Density = 1.911036 g / cm^3
# Si number density = 19.153958 Si / 1000 Ang^3
#
#
#
# Elastic Constant Matrix: (Units=GPa)
#
#
# Indices 1 2 3 4 5 6 
#
# 1 105.7943 30.0796 95.9488 0.0000 -5.4326 0.0000
# 2 30.0796 30.8930 31.3609 0.0000 -3.1288 0.0000
# 3 95.9488 31.3609 161.4594 0.0000 4.9112 0.0000
# 4 0.0000 0.0000 0.0000 25.0235 0.0000 -11.6842
# 5 -5.4326 -3.1288 4.9112 0.0000 30.5658 0.0000
# 6 0.0000 0.0000 0.0000 -11.6842 0.0000 21.5627
#
#
#
# Elastic Compliance Matrix: (Units=1/GPa)
#
#
# Indices 1 2 3 4 5 6 
#
# 1 0.023759 -0.010111 -0.012312 0.000000 0.005166 0.000000
# 2 -0.010111 0.045534 -0.002937 0.000000 0.003336 0.000000
# 3 -0.012312 -0.002937 0.014226 0.000000 -0.004775 0.000000
# 4 0.000000 0.000000 0.000000 0.053498 0.000000 0.028989
# 5 0.005166 0.003336 -0.004775 0.000000 0.034743 0.000000
# 6 0.000000 0.000000 0.000000 0.028989 0.000000 0.062085
#
#
# Mechanical properties :
#
#
# Convention : Reuss Voigt Hill
#
# Bulk Modulus (GPa) = 30.48970 68.10280 49.29625
# Shear Modulus (GPa) = 16.92056 24.81422 20.86739
#
# Velocity S-wave (km/s) = 2.97543 3.60323 3.30427
# Velocity P-wave (km/s) = 5.26849 7.27624 6.35219
#
# Compressibility (1/GPa) = 0.03279796
#
# Stress axis : x y z
#
# Youngs Moduli (GPa) = 42.09000 21.96146 70.29538
#
# Poissons Ratio (x) = 0.22206 0.86547
# Poissons Ratio (y) = 0.42559 0.20646
# Poissons Ratio (z) = 0.51821 0.06450
#
# Static dielectric constant tensor:
#      x y z
#    x 3.602490 0.000000 0.057530 
#    y 0.000000 3.263640 0.000000 
#    z 0.057530 0.000000 3.788990 
# 
# 
# High freq. dielectric constant tensor:
#      x y z
#    x 1.742090 0.000000 -0.003230 
#    y 0.000000 1.717640 0.000000 
#    z -0.003230 0.000000 1.746760 
# 
# From -- ./inp_files/20185.got.cif
#   From: 2010.06.25/outbox.cif.g09.slc.cpg/sg11_11_cif.got.tgz:20185.got - 2010.06.27 23:14:04.
