data_PCOD8070918
_publ_section_title
;
Structure prediction by ZEFSAII (Michael W. Deem and Ramdas Pophale) SiO2 
 PCOD8070918
Probable space group: P 21/M
;
_chemical_formula_sum "Si O2"
_cell_formula_units_Z 32
_cell_length_a 14.977363
_cell_length_b 8.596793
_cell_length_c 15.047724
_cell_angle_alpha 90.000000
_cell_angle_beta 77.949296
_cell_angle_gamma 90.000000
_cell_volume 1894.807813
_symmetry_space_group_name_H-M "P 21/M"
_symmetry_group_IT_number 11
_symmetry_cell_setting 'monoclinic'
loop_
_space_group_symop_operation_xyz
x,y,z
-x,1/2+y,-z
-x,-y,-z
x,1/2-y,z
loop_
_atom_site_type_symbol
_atom_site_label
_atom_site_fract_x
_atom_site_fract_y
_atom_site_fract_z
Si Si1 0.926001 0.430843 0.401545
Si Si2 0.240145 0.569867 0.237267
Si Si3 0.397943 0.067976 0.929841
Si Si4 0.585225 0.930007 0.867578
Si Si5 0.200063 0.434409 0.923742
Si Si6 0.082242 0.067209 0.783693
Si Si7 0.891595 0.567334 0.877272
Si Si8 0.130452 0.069497 0.409969
O O1 0.909290 0.250000 0.421366
O O2 0.890960 0.479699 0.312103
O O3 0.868396 0.524742 0.486635
O O4 0.032779 0.473056 0.387138
O O5 0.222907 0.750000 0.219964
O O6 0.347210 0.529908 0.208133
O O7 0.186165 0.462364 0.179110
O O8 0.206844 0.530391 0.343538
O O9 0.413075 0.250000 0.910921
O O10 0.304396 0.005647 0.904991
O O11 0.481334 0.977117 0.866710
O O12 0.392542 0.029482 0.035133
O O13 0.599862 0.750000 0.843284
O O14 0.200789 0.250000 0.929270
O O15 0.152487 0.493980 0.843872
O O16 0.143311 0.494964 0.020383
O O17 0.091662 0.250000 0.766139
O O18 0.980483 0.030164 0.835342
O O19 0.915203 0.750000 0.872497
O O20 0.153277 0.250000 0.394635
#
# Coordination Sequence:
#
# PCOD8070918 Si02
#       8
#     4   4   4   4   4   4   4   4
#     4  10  20  34  51  72 100 132 166 207 253 296
#     4  12  22  32  50  76 103 134 169 204 249 306
#     4   9  17  33  51  70  98 132 169 210 253 295
#     4  10  19  32  51  73 100 130 165 209 256 301
#     4   9  19  34  51  70  99 138 176 212 249 291
#     4  11  21  33  50  73 100 136 177 211 247 294
#     4  11  20  34  49  68 101 139 175 212 249 287
#     4  10  20  34  53  73  99 130 164 207 254 300
#
# _framework density 16.888255000000001
#
# number of rings (size 3 to 8) (size 9 to 14) (size 15 to 20)
#    0.000    1.750    2.500    3.375    0.000    1.500 
#    0.000    3.125    0.000    0.000    0.000    0.875 
#    0.000    0.000    0.000    0.000    0.000    0.000 
#
# Total GULP energy -396923.570578 kJ/mol
# GULP energy per Si atom -12403.861581 kJ/mol
# Density = 1.684982 g / cm^3
# Si number density = 16.888255 Si / 1000 Ang^3
#
#
#
# Elastic Constant Matrix: (Units=GPa)
#
#
# Indices 1 2 3 4 5 6 
#
# 1 76.5526 14.5440 48.7160 0.0000 -5.7070 0.0000
# 2 14.5440 49.3138 23.2985 0.0000 -8.8848 0.0000
# 3 48.7160 23.2985 105.1951 0.0000 -1.9118 0.0000
# 4 0.0000 0.0000 0.0000 25.8286 0.0000 -3.4411
# 5 -5.7070 -8.8848 -1.9118 0.0000 23.0380 0.0000
# 6 0.0000 0.0000 0.0000 -3.4411 0.0000 21.8232
#
#
#
# Elastic Compliance Matrix: (Units=1/GPa)
#
#
# Indices 1 2 3 4 5 6 
#
# 1 0.018909 -0.000913 -0.008489 0.000000 0.003628 0.000000
# 2 -0.000913 0.024410 -0.004824 0.000000 0.008787 0.000000
# 3 -0.008489 -0.004824 0.014455 0.000000 -0.002764 0.000000
# 4 0.000000 0.000000 0.000000 0.039548 0.000000 0.006236
# 5 0.003628 0.008787 -0.002764 0.000000 0.047465 0.000000
# 6 0.000000 0.000000 0.000000 0.006236 0.000000 0.046806
#
#
# Mechanical properties :
#
#
# Convention : Reuss Voigt Hill
#
# Bulk Modulus (GPa) = 34.10226 44.90874 39.50550
# Shear Modulus (GPa) = 21.75645 23.77149 22.76397
#
# Velocity S-wave (km/s) = 3.59313 3.75584 3.67538
# Velocity P-wave (km/s) = 6.11971 6.74224 6.43850
#
# Compressibility (1/GPa) = 0.02932357
#
# Stress axis : x y z
#
# Youngs Moduli (GPa) = 52.88590 40.96726 69.17842
#
# Poissons Ratio (x) = 0.03739 0.58723
# Poissons Ratio (y) = 0.04827 0.33371
# Poissons Ratio (z) = 0.44893 0.19762
#
# Static dielectric constant tensor:
#      x y z
#    x 3.191690 0.000000 -0.048890 
#    y 0.000000 3.071980 0.000000 
#    z -0.048890 0.000000 3.146250 
# 
# 
# High freq. dielectric constant tensor:
#      x y z
#    x 1.630820 0.000000 -0.012610 
#    y 0.000000 1.653990 0.000000 
#    z -0.012610 0.000000 1.638660 
# 
# From -- ./inp_files/51217.got.cif
#   From: 2010.06.25/outbox.cif.g09.slc.cpg/sg11_26_cif.got.tgz:51217.got - 2010.06.27 23:14:04.
