data_PCOD8070329
_publ_section_title
;
Structure prediction by ZEFSAII (Michael W. Deem and Ramdas Pophale) SiO2 
 PCOD8070329
Probable space group: P 21/M
;
_chemical_formula_sum "Si O2"
_cell_formula_units_Z 28
_cell_length_a 15.382250
_cell_length_b 8.906004
_cell_length_c 13.518528
_cell_angle_alpha 90.000000
_cell_angle_beta 97.111315
_cell_angle_gamma 90.000000
_cell_volume 1837.716159
_symmetry_space_group_name_H-M "P 21/M"
_symmetry_group_IT_number 11
_symmetry_cell_setting 'monoclinic'
loop_
_space_group_symop_operation_xyz
x,y,z
-x,1/2+y,-z
-x,-y,-z
x,1/2-y,z
loop_
_atom_site_type_symbol
_atom_site_label
_atom_site_fract_x
_atom_site_fract_y
_atom_site_fract_z
Si Si1 0.060193 0.583662 0.873132
Si Si2 0.896626 0.415869 0.891022
Si Si3 0.234156 0.072062 0.856621
Si Si4 0.714170 0.428814 0.933157
Si Si5 0.531694 0.580187 0.406642
Si Si6 0.370829 0.572407 0.740918
Si Si7 0.538240 0.080434 0.805099
O O1 0.067481 0.750000 0.827883
O O2 0.132818 0.476728 0.834419
O O3 0.962322 0.521121 0.838041
O O4 0.074398 0.590794 0.991554
O O5 0.901741 0.250000 0.844774
O O6 0.796470 0.476458 0.875169
O O7 0.240331 0.250000 0.856562
O O8 0.283076 0.003552 0.769013
O O9 0.280793 0.009460 0.961119
O O10 0.716630 0.250000 0.951393
O O11 0.626369 0.483998 0.866120
O O12 0.500000 0.500000 0.500000
O O13 0.560954 0.750000 0.435902
O O14 0.613424 0.489768 0.368763
O O15 0.452984 0.580361 0.313924
O O16 0.360767 0.750000 0.739448
O O17 0.454157 0.522713 0.821793
O O18 0.520588 0.250000 0.840537
#
# Coordination Sequence:
#
# PCOD8070329 Si02
#       7
#     4   4   4   4   4   4   4
#     4   9  16  26  39  55  77 107 142 177 212 248
#     4   8  14  24  39  57  77 104 140 178 213 244
#     4  11  20  29  41  59  84 114 147 181 213 249
#     4   9  17  30  44  59  83 116 148 178 210 247
#     4   9  17  31  49  67  85 108 136 171 214 252
#     4  10  19  31  45  62  84 112 143 176 210 251
#     4   8  17  31  45  62  85 111 142 176 208 249
#
# _framework density 15.236302999999999
#
# number of rings (size 3 to 8) (size 9 to 14) (size 15 to 20)
#    0.857    2.000    0.000    3.857    0.000    4.571 
#    0.000    0.000    0.000    0.000    0.000    0.000 
#    0.000    1.143    0.000    3.143    0.000    4.857 
#
# Total GULP energy -346909.780939 kJ/mol
# GULP energy per Si atom -12389.635034 kJ/mol
# Density = 1.520162 g / cm^3
# Si number density = 15.236303 Si / 1000 Ang^3
#
#
#
# Elastic Constant Matrix: (Units=GPa)
#
#
# Indices 1 2 3 4 5 6 
#
# 1 75.5859 37.9034 23.9973 0.0000 -26.2710 0.0000
# 2 37.9034 104.5703 28.7427 0.0000 -17.9418 0.0000
# 3 23.9973 28.7427 42.3743 0.0000 -20.5243 0.0000
# 4 0.0000 0.0000 0.0000 20.1403 0.0000 -6.7448
# 5 -26.2710 -17.9418 -20.5243 0.0000 15.8284 0.0000
# 6 0.0000 0.0000 0.0000 -6.7448 0.0000 25.8845
#
#
#
# Elastic Compliance Matrix: (Units=1/GPa)
#
#
# Indices 1 2 3 4 5 6 
#
# 1 0.041823 -0.005905 0.028768 0.000000 0.100024 0.000000
# 2 -0.005905 0.012980 -0.008283 0.000000 -0.005828 0.000000
# 3 0.028768 -0.008283 0.084703 0.000000 0.148190 0.000000
# 4 0.000000 0.000000 0.000000 0.054399 0.000000 0.014175
# 5 0.100024 -0.005828 0.148190 0.000000 0.414740 0.000000
# 6 0.000000 0.000000 0.000000 0.014175 0.000000 0.042327
#
#
# Mechanical properties :
#
#
# Convention : Reuss Voigt Hill
#
# Bulk Modulus (GPa) = 5.92892 44.86856 25.39874
# Shear Modulus (GPa) = 7.37427 21.16311 14.26869
#
# Velocity S-wave (km/s) = 2.20237 3.73096 3.06354
# Velocity P-wave (km/s) = 3.21978 6.93343 5.40553
#
# Compressibility (1/GPa) = 0.16866485
#
# Stress axis : x y z
#
# Youngs Moduli (GPa) = 23.91055 77.04110 11.80595
#
# Poissons Ratio (x) = 0.45491 -0.33963
# Poissons Ratio (y) = 0.14119 0.09779
# Poissons Ratio (z) = -0.68785 0.63815
#
# Static dielectric constant tensor:
#      x y z
#    x 3.066260 0.000000 -0.105620 
#    y 0.000000 3.042140 0.000000 
#    z -0.105620 0.000000 2.470060 
# 
# 
# High freq. dielectric constant tensor:
#      x y z
#    x 1.581430 0.000000 -0.019910 
#    y 0.000000 1.595590 0.000000 
#    z -0.019910 0.000000 1.523150 
# 
# From -- ./inp_files/40388.got.cif
#   From: 2010.06.25/outbox.cif.g09.slc.cpg/sg11_21_cif.got.tgz:40388.got - 2010.06.27 23:14:04.
