data_PCOD8070507
_publ_section_title
;
Structure prediction by ZEFSAII (Michael W. Deem and Ramdas Pophale) SiO2 
 PCOD8070507
Probable space group: P 21/M
;
_chemical_formula_sum "Si O2"
_cell_formula_units_Z 32
_cell_length_a 14.947570
_cell_length_b 8.966929
_cell_length_c 30.535371
_cell_angle_alpha 90.000000
_cell_angle_beta 28.645490
_cell_angle_gamma 90.000000
_cell_volume 1962.028876
_symmetry_space_group_name_H-M "P 21/M"
_symmetry_group_IT_number 11
_symmetry_cell_setting 'monoclinic'
loop_
_space_group_symop_operation_xyz
x,y,z
-x,1/2+y,-z
-x,-y,-z
x,1/2-y,z
loop_
_atom_site_type_symbol
_atom_site_label
_atom_site_fract_x
_atom_site_fract_y
_atom_site_fract_z
Si Si1 0.748369 0.575643 0.426021
Si Si2 0.028621 0.576552 0.918983
Si Si3 0.260183 0.072999 0.748054
Si Si4 0.270749 0.922905 0.899404
Si Si5 0.672948 0.424769 0.370465
Si Si6 0.324368 0.422728 0.301504
Si Si7 0.345704 0.574122 0.383744
Si Si8 0.944116 0.423831 0.418647
O O1 0.773317 0.750000 0.406574
O O2 0.776255 0.489238 0.368614
O O3 0.546593 0.538188 0.533079
O O4 0.905192 0.517914 0.391859
O O5 0.018219 0.750000 0.911989
O O6 0.087854 0.486185 0.850576
O O7 0.178095 0.541488 0.892529
O O8 0.825252 0.520387 0.021493
O O9 0.253397 0.250000 0.747863
O O10 0.452682 0.015813 0.687158
O O11 0.239327 0.005523 0.708916
O O12 0.246799 0.750000 0.921908
O O13 0.485944 0.972597 0.804154
O O14 0.711483 0.250000 0.350864
O O15 0.335442 0.250000 0.309535
O O16 0.291360 0.509691 0.360336
O O17 0.156505 0.456523 0.340591
O O18 0.345480 0.750000 0.379550
O O19 0.191055 0.519625 0.484655
O O20 0.908559 0.250000 0.424165
#
# Coordination Sequence:
#
# PCOD8070507 Si02
#       8
#     4   4   4   4   4   4   4   4
#     4  10  20  33  50  72  97 128 164 205 247 287
#     4  10  19  31  49  70  95 127 163 204 248 295
#     4  11  20  31  49  73 101 132 162 199 245 293
#     4   9  18  32  47  68  95 126 164 206 248 290
#     4  10  20  33  51  72  97 128 163 203 246 293
#     4  10  20  33  50  69  96 133 171 208 244 285
#     4  10  20  31  45  68 100 134 169 203 237 283
#     4  10  20  34  49  69  98 134 171 205 242 286
#
# _framework density 16.309647999999999
#
# number of rings (size 3 to 8) (size 9 to 14) (size 15 to 20)
#    0.000    2.000    2.500    1.875    0.000    3.500 
#    0.000    0.000    0.000    0.000    0.000    0.875 
#    0.000    0.000    0.000    0.000    0.000    0.000 
#
# Total GULP energy -396946.585364 kJ/mol
# GULP energy per Si atom -12404.580793 kJ/mol
# Density = 1.627253 g / cm^3
# Si number density = 16.309648 Si / 1000 Ang^3
#
#
#
# Elastic Constant Matrix: (Units=GPa)
#
#
# Indices 1 2 3 4 5 6 
#
# 1 90.5416 39.4518 52.1641 0.0000 7.3314 0.0000
# 2 39.4518 65.8282 42.4992 0.0000 10.8221 0.0000
# 3 52.1641 42.4992 106.1232 0.0000 7.5445 0.0000
# 4 0.0000 0.0000 0.0000 26.2847 0.0000 6.9090
# 5 7.3314 10.8221 7.5445 0.0000 23.5503 0.0000
# 6 0.0000 0.0000 0.0000 6.9090 0.0000 27.9003
#
#
#
# Elastic Compliance Matrix: (Units=1/GPa)
#
#
# Indices 1 2 3 4 5 6 
#
# 1 0.017294 -0.006494 -0.005863 0.000000 -0.000521 0.000000
# 2 -0.006494 0.024100 -0.005951 0.000000 -0.007147 0.000000
# 3 -0.005863 -0.005951 0.014699 0.000000 -0.000149 0.000000
# 4 0.000000 0.000000 0.000000 0.040694 0.000000 -0.010077
# 5 -0.000521 -0.007147 -0.000149 0.000000 0.045956 0.000000
# 6 0.000000 0.000000 0.000000 -0.010077 0.000000 0.038337
#
#
# Mechanical properties :
#
#
# Convention : Reuss Voigt Hill
#
# Bulk Modulus (GPa) = 51.34344 58.96924 55.15634
# Shear Modulus (GPa) = 22.30255 24.10561 23.20408
#
# Velocity S-wave (km/s) = 3.70191 3.84864 3.77599
# Velocity P-wave (km/s) = 7.05839 7.48224 7.27341
#
# Compressibility (1/GPa) = 0.01947669
#
# Stress axis : x y z
#
# Youngs Moduli (GPa) = 57.82208 41.49396 68.03184
#
# Poissons Ratio (x) = 0.26945 0.39890
# Poissons Ratio (y) = 0.37548 0.40488
# Poissons Ratio (z) = 0.33903 0.24694
#
# Static dielectric constant tensor:
#      x y z
#    x 2.913960 0.000000 -0.004790 
#    y 0.000000 3.061830 0.000000 
#    z -0.004790 0.000000 3.055000 
# 
# 
# High freq. dielectric constant tensor:
#      x y z
#    x 1.606530 0.000000 0.008900 
#    y 0.000000 1.634890 0.000000 
#    z 0.008900 0.000000 1.617460 
# 
# From -- ./inp_files/51200.got.cif
#   From: 2010.06.25/outbox.cif.g09.slc.cpg/sg11_26_cif.got.tgz:51200.got - 2010.06.27 23:14:04.
