data_PCOD8070831
_publ_section_title
;
Structure prediction by ZEFSAII (Michael W. Deem and Ramdas Pophale) SiO2 
 PCOD8070831
Probable space group: P 21/M
;
_chemical_formula_sum "Si O2"
_cell_formula_units_Z 28
_cell_length_a 9.492689
_cell_length_b 9.015334
_cell_length_c 28.383705
_cell_angle_alpha 90.000000
_cell_angle_beta 40.598785
_cell_angle_gamma 90.000000
_cell_volume 1580.737483
_symmetry_space_group_name_H-M "P 21/M"
_symmetry_group_IT_number 11
_symmetry_cell_setting 'monoclinic'
loop_
_space_group_symop_operation_xyz
x,y,z
-x,1/2+y,-z
-x,-y,-z
x,1/2-y,z
loop_
_atom_site_type_symbol
_atom_site_label
_atom_site_fract_x
_atom_site_fract_y
_atom_site_fract_z
Si Si1 0.486015 0.426198 0.355294
Si Si2 0.134674 0.917370 0.902762
Si Si3 0.371777 0.074559 0.074847
Si Si4 0.076060 0.575424 0.433324
Si Si5 0.891099 0.077001 0.196062
Si Si6 0.626846 0.922633 0.510244
Si Si7 0.323126 0.417731 0.939044
O O1 0.458421 0.250000 0.357247
O O2 0.309875 0.501474 0.364404
O O3 0.720039 0.483888 0.277829
O O4 0.461051 0.476229 0.416178
O O5 0.204869 0.750000 0.898864
O O6 0.199440 0.955686 0.833075
O O7 0.253381 0.037350 0.904492
O O8 0.875890 0.932104 0.974007
O O9 0.372371 0.250000 0.066679
O O10 0.129652 0.007155 0.140945
O O11 0.489208 0.029960 0.093322
O O12 0.500000 0.000000 0.000000
O O13 0.103177 0.750000 0.434082
O O14 0.000000 0.500000 0.500000
O O15 0.887685 0.544923 0.441890
O O16 0.918083 0.250000 0.197485
O O17 0.580309 0.750000 0.516349
O O18 0.500000 0.000000 0.500000
O O19 0.410682 0.250000 0.915709
#
# Coordination Sequence:
#
# PCOD8070831 Si02
#       7
#     4   4   4   4   4   4   4
#     4   9  18  34  54  76 101 133 173 215 255 302
#     4   9  17  32  51  71  94 127 166 208 260 311
#     4  11  20  33  52  75 101 135 174 218 265 314
#     4   9  17  31  51  76 103 131 167 206 244 295
#     4   9  18  34  54  74 100 132 172 217 260 309
#     4   9  18  31  51  78 104 132 166 203 244 292
#     4  10  19  32  49  73  99 125 166 216 260 307
#
# _framework density 17.713252000000001
#
# number of rings (size 3 to 8) (size 9 to 14) (size 15 to 20)
#    0.000    2.571    1.429    2.143    0.000    3.429 
#    0.000    3.571    0.000    6.857    0.000    0.000 
#    0.000    0.000    0.000    0.000    0.000    0.000 
#
# Total GULP energy -346989.334642 kJ/mol
# GULP energy per Si atom -12392.476237 kJ/mol
# Density = 1.767294 g / cm^3
# Si number density = 17.713252 Si / 1000 Ang^3
#
#
#
# Elastic Constant Matrix: (Units=GPa)
#
#
# Indices 1 2 3 4 5 6 
#
# 1 105.1077 42.3246 60.6505 0.0000 -17.1791 0.0000
# 2 42.3246 62.1670 32.3023 0.0000 -9.4709 0.0000
# 3 60.6505 32.3023 115.4954 0.0000 -13.3425 0.0000
# 4 0.0000 0.0000 0.0000 19.4672 0.0000 -2.7611
# 5 -17.1791 -9.4709 -13.3425 0.0000 23.5739 0.0000
# 6 0.0000 0.0000 0.0000 -2.7611 0.0000 33.9975
#
#
#
# Elastic Compliance Matrix: (Units=1/GPa)
#
#
# Indices 1 2 3 4 5 6 
#
# 1 0.017073 -0.007509 -0.006181 0.000000 0.005927 0.000000
# 2 -0.007509 0.022669 -0.002115 0.000000 0.002438 0.000000
# 3 -0.006181 -0.002115 0.012708 0.000000 0.001839 0.000000
# 4 0.000000 0.000000 0.000000 0.051967 0.000000 0.004221
# 5 0.005927 0.002438 0.001839 0.000000 0.048759 0.000000
# 6 0.000000 0.000000 0.000000 0.004221 0.000000 0.029757
#
#
# Mechanical properties :
#
#
# Convention : Reuss Voigt Hill
#
# Bulk Modulus (GPa) = 47.98574 61.48055 54.73315
# Shear Modulus (GPa) = 22.57451 25.24055 23.90753
#
# Velocity S-wave (km/s) = 3.57381 3.77895 3.67781
# Velocity P-wave (km/s) = 6.64670 7.33654 7.00012
#
# Compressibility (1/GPa) = 0.02083952
#
# Stress axis : x y z
#
# Youngs Moduli (GPa) = 58.57209 44.11399 78.69035
#
# Poissons Ratio (x) = 0.33126 0.48636
# Poissons Ratio (y) = 0.43983 0.16644
# Poissons Ratio (z) = 0.36202 0.09330
#
# Static dielectric constant tensor:
#      x y z
#    x 3.430060 0.000000 -0.287180 
#    y 0.000000 3.344090 0.000000 
#    z -0.287180 0.000000 3.420070 
# 
# 
# High freq. dielectric constant tensor:
#      x y z
#    x 1.685090 0.000000 -0.013620 
#    y 0.000000 1.674890 0.000000 
#    z -0.013620 0.000000 1.664610 
# 
# From -- ./inp_files/72716.got.cif
#   From: 2010.06.25/outbox.cif.g09.slc.cpg/sg11_37_cif.got.tgz:72716.got - 2010.06.27 23:14:04.
