data_PCOD8070853
_publ_section_title
;
Structure prediction by ZEFSAII (Michael W. Deem and Ramdas Pophale) SiO2 
 PCOD8070853
Probable space group: P 21/M
;
_chemical_formula_sum "Si O2"
_cell_formula_units_Z 28
_cell_length_a 12.425578
_cell_length_b 18.421252
_cell_length_c 7.444944
_cell_angle_alpha 90.000000
_cell_angle_beta 123.389071
_cell_angle_gamma 90.000000
_cell_volume 1422.850041
_symmetry_space_group_name_H-M "P 21/M"
_symmetry_group_IT_number 11
_symmetry_cell_setting 'monoclinic'
loop_
_space_group_symop_operation_xyz
x,y,z
-x,1/2+y,-z
-x,-y,-z
x,1/2-y,z
loop_
_atom_site_type_symbol
_atom_site_label
_atom_site_fract_x
_atom_site_fract_y
_atom_site_fract_z
Si Si1 0.243333 0.167592 0.604574
Si Si2 0.108490 0.957854 0.988607
Si Si3 0.536328 0.582737 0.752154
Si Si4 0.063365 0.333288 0.124138
Si Si5 0.823884 0.596904 0.110185
Si Si6 0.389077 0.925624 0.267646
Si Si7 0.468528 0.664620 0.032729
O O1 0.220289 0.250000 0.639861
O O2 0.193233 0.152179 0.357676
O O3 0.159998 0.121947 0.670917
O O4 0.392816 0.147976 0.751137
O O5 0.051157 0.879310 0.885980
O O6 0.247036 0.946724 0.214717
O O7 0.141501 0.011043 0.852147
O O8 0.000000 0.000000 0.000000
O O9 0.680406 0.613601 0.904835
O O10 0.537471 0.494921 0.753630
O O11 0.472450 0.608195 0.506415
O O12 0.451786 0.617866 0.835229
O O13 0.020735 0.250000 0.088876
O O14 0.082281 0.358606 0.936444
O O15 0.370144 0.865635 0.092825
O O16 0.445242 0.750000 0.973262
#
# Coordination Sequence:
#
# PCOD8070853 Si02
#       7
#     4   4   4   4   4   4   4
#     4   9  18  31  50  77 102 128 166 206 249 301
#     4   9  20  36  52  74 100 132 176 213 245 294
#     4   9  19  34  55  80 104 132 169 215 262 313
#     4  10  19  32  50  71  99 134 169 207 249 294
#     4   9  17  33  53  74 100 128 164 211 256 296
#     4  10  19  35  56  75 103 140 173 211 262 310
#     4  10  20  33  52  81 110 133 165 210 262 319
#
# _framework density 19.678813000000002
#
# number of rings (size 3 to 8) (size 9 to 14) (size 15 to 20)
#    0.000    2.571    0.000    1.714    0.000    3.429 
#    0.000    2.857    0.000    0.000    0.000    0.000 
#    0.000    0.000    0.000    0.000    0.000    0.000 
#
# Total GULP energy -346988.983495 kJ/mol
# GULP energy per Si atom -12392.463696 kJ/mol
# Density = 1.963402 g / cm^3
# Si number density = 19.678813 Si / 1000 Ang^3
#
#
#
# Elastic Constant Matrix: (Units=GPa)
#
#
# Indices 1 2 3 4 5 6 
#
# 1 70.7144 29.5441 18.4325 0.0000 -7.1177 0.0000
# 2 29.5441 93.5928 34.5160 0.0000 -5.8032 0.0000
# 3 18.4325 34.5160 55.4026 0.0000 -14.4525 0.0000
# 4 0.0000 0.0000 0.0000 27.3848 0.0000 -0.9510
# 5 -7.1177 -5.8032 -14.4525 0.0000 22.3581 0.0000
# 6 0.0000 0.0000 0.0000 -0.9510 0.0000 29.9553
#
#
#
# Elastic Compliance Matrix: (Units=1/GPa)
#
#
# Indices 1 2 3 4 5 6 
#
# 1 0.016798 -0.004334 -0.002149 0.000000 0.002833 0.000000
# 2 -0.004334 0.015097 -0.008782 0.000000 -0.003138 0.000000
# 3 -0.002149 -0.008782 0.028222 0.000000 0.015279 0.000000
# 4 0.000000 0.000000 0.000000 0.036557 0.000000 0.001161
# 5 0.002833 -0.003138 0.015279 0.000000 0.054691 0.000000
# 6 0.000000 0.000000 0.000000 0.001161 0.000000 0.033420
#
#
# Mechanical properties :
#
#
# Convention : Reuss Voigt Hill
#
# Bulk Modulus (GPa) = 33.80056 42.74388 38.27222
# Shear Modulus (GPa) = 22.20480 25.08745 23.64613
#
# Velocity S-wave (km/s) = 3.36275 3.57437 3.47018
# Velocity P-wave (km/s) = 5.68251 6.22919 5.96212
#
# Compressibility (1/GPa) = 0.02958531
#
# Stress axis : x y z
#
# Youngs Moduli (GPa) = 59.53242 66.23893 35.43358
#
# Poissons Ratio (x) = 0.28709 0.07616
# Poissons Ratio (y) = 0.25802 0.31118
# Poissons Ratio (z) = 0.12795 0.58171
#
# Static dielectric constant tensor:
#      x y z
#    x 3.529420 0.000000 0.035420 
#    y 0.000000 3.745480 0.000000 
#    z 0.035420 0.000000 3.387120 
# 
# 
# High freq. dielectric constant tensor:
#      x y z
#    x 1.750900 0.000000 -0.004830 
#    y 0.000000 1.771130 0.000000 
#    z -0.004830 0.000000 1.743850 
# 
# From -- ./inp_files/5091.got.cif
#   From: 2010.06.25/outbox.cif.g09.slc.cpg/sg11_3_cif.got.tgz:5091.got - 2010.06.27 23:14:04.
