data_PCOD8070263
_publ_section_title
;
Structure prediction by ZEFSAII (Michael W. Deem and Ramdas Pophale) SiO2 
 PCOD8070263
Probable space group: P 21/M
;
_chemical_formula_sum "Si O2"
_cell_formula_units_Z 32
_cell_length_a 13.680843
_cell_length_b 18.429179
_cell_length_c 7.290587
_cell_angle_alpha 90.000000
_cell_angle_beta 111.170481
_cell_angle_gamma 90.000000
_cell_volume 1714.094795
_symmetry_space_group_name_H-M "P 21/M"
_symmetry_group_IT_number 11
_symmetry_cell_setting 'monoclinic'
loop_
_space_group_symop_operation_xyz
x,y,z
-x,1/2+y,-z
-x,-y,-z
x,1/2-y,z
loop_
_atom_site_type_symbol
_atom_site_label
_atom_site_fract_x
_atom_site_fract_y
_atom_site_fract_z
Si Si1 0.020266 0.917000 0.712576
Si Si2 0.500282 0.522197 0.713949
Si Si3 0.886292 0.928111 0.268753
Si Si4 0.240174 0.625927 0.820079
Si Si5 0.612205 0.169872 0.363750
Si Si6 0.764114 0.165987 0.784269
Si Si7 0.335103 0.022394 0.874207
Si Si8 0.001442 0.335205 0.940638
O O1 0.114863 0.864038 0.706526
O O2 0.928008 0.921168 0.503536
O O3 0.071205 0.996165 0.789337
O O4 0.969836 0.881874 0.859578
O O5 0.500000 0.500000 0.500000
O O6 0.474194 0.607924 0.725368
O O7 0.613609 0.515686 0.888155
O O8 0.423009 0.467209 0.774124
O O9 0.925407 0.860825 0.174935
O O10 0.759276 0.919168 0.186108
O O11 0.309171 0.683610 0.754719
O O12 0.267823 0.625694 0.052704
O O13 0.275573 0.549055 0.766181
O O14 0.561782 0.250000 0.368661
O O15 0.682730 0.140184 0.577673
O O16 0.754053 0.250000 0.819865
O O17 0.881912 0.147328 0.801465
O O18 0.019644 0.250000 0.990818
#
# Coordination Sequence:
#
# PCOD8070263 Si02
#       8
#     4   4   4   4   4   4   4   4
#     4   9  19  32  51  78 106 137 172 206 247 302
#     4  10  20  36  55  73  97 127 162 211 260 301
#     4  10  19  34  53  75 104 136 173 215 252 296
#     4   9  16  30  49  72 101 127 155 199 247 294
#     4  10  19  30  49  75  98 124 159 200 252 304
#     4   9  17  28  44  71 103 131 158 190 239 297
#     4   9  20  34  52  75  93 123 171 207 248 303
#     4  10  20  32  49  75 108 143 173 203 244 297
#
# _framework density 18.668747
#
# number of rings (size 3 to 8) (size 9 to 14) (size 15 to 20)
#    0.000    2.500    0.000    2.250    0.000    3.000 
#    0.000    0.625    0.000    0.750    0.000    0.000 
#    0.000    0.000    0.000    0.000    0.000    0.000 
#
# Total GULP energy -396554.621859 kJ/mol
# GULP energy per Si atom -12392.331933 kJ/mol
# Density = 1.862626 g / cm^3
# Si number density = 18.668747 Si / 1000 Ang^3
#
#
#
# Elastic Constant Matrix: (Units=GPa)
#
#
# Indices 1 2 3 4 5 6 
#
# 1 63.8696 8.0421 32.2449 0.0000 7.8352 0.0000
# 2 8.0421 56.0279 14.4818 0.0000 0.4198 0.0000
# 3 32.2449 14.4818 85.1142 0.0000 6.5376 0.0000
# 4 0.0000 0.0000 0.0000 -72.8915 0.0000 -85.3544
# 5 7.8352 0.4198 6.5376 0.0000 27.2325 0.0000
# 6 0.0000 0.0000 0.0000 -85.3544 0.0000 -48.5406
#
#
#
# Elastic Compliance Matrix: (Units=1/GPa)
#
#
# Indices 1 2 3 4 5 6 
#
# 1 0.019824 -0.000998 -0.007033 0.000000 -0.004000 0.000000
# 2 -0.000998 0.018726 -0.002861 0.000000 0.000685 0.000000
# 3 -0.007033 -0.002861 0.015018 0.000000 -0.001538 0.000000
# 4 0.000000 0.000000 0.000000 0.012954 0.000000 -0.022778
# 5 -0.004000 0.000685 -0.001538 0.000000 0.038230 0.000000
# 6 0.000000 0.000000 0.000000 -0.022778 0.000000 0.019452
#
#
# Mechanical properties :
#
#
# Convention : Reuss Voigt Hill
#
# Bulk Modulus (GPa) = 31.46160 34.94992 33.20576
# Shear Modulus (GPa) = 31.93203 -8.82374 11.55414
#
# Velocity S-wave (km/s) = 4.14025 -2.17641 2.49047
# Velocity P-wave (km/s) = 6.30434 3.52790 5.10836
#
# Compressibility (1/GPa) = 0.03178478
#
# Stress axis : x y z
#
# Youngs Moduli (GPa) = 50.44406 53.40237 66.58563
#
# Poissons Ratio (x) = 0.05328 0.46831
# Poissons Ratio (y) = 0.05032 0.19049
# Poissons Ratio (z) = 0.35478 0.15277
#
# Static dielectric constant tensor:
#      x y z
#    x 3.466250 0.000000 -0.008790 
#    y 0.000000 3.246260 0.000000 
#    z -0.008790 0.000000 3.433040 
# 
# 
# High freq. dielectric constant tensor:
#      x y z
#    x 1.708850 0.000000 -0.003820 
#    y 0.000000 1.706470 0.000000 
#    z -0.003820 0.000000 1.728210 
# 
# From -- ./inp_files/7085.got.cif
#   From: 2010.06.25/outbox.cif.g09.slc.cpg/sg11_4_cif.got.tgz:7085.got - 2010.06.27 23:14:04.
