data_PCOD8070897
_publ_section_title
;
Structure prediction by ZEFSAII (Michael W. Deem and Ramdas Pophale) SiO2 
 PCOD8070897
Probable space group: P 21/M
;
_chemical_formula_sum "Si O2"
_cell_formula_units_Z 32
_cell_length_a 11.355620
_cell_length_b 12.736490
_cell_length_c 12.353033
_cell_angle_alpha 90.000000
_cell_angle_beta 93.660751
_cell_angle_gamma 90.000000
_cell_volume 1782.982857
_symmetry_space_group_name_H-M "P 21/M"
_symmetry_group_IT_number 11
_symmetry_cell_setting 'monoclinic'
loop_
_space_group_symop_operation_xyz
x,y,z
-x,1/2+y,-z
-x,-y,-z
x,1/2-y,z
loop_
_atom_site_type_symbol
_atom_site_label
_atom_site_fract_x
_atom_site_fract_y
_atom_site_fract_z
Si Si1 0.961729 0.987742 0.770664
Si Si2 0.217533 0.629809 0.114190
Si Si3 0.672730 0.002084 0.297757
Si Si4 0.889988 0.869529 0.365832
Si Si5 0.185236 0.131257 0.402191
Si Si6 0.370064 0.536386 0.472340
Si Si7 0.561000 0.131904 0.730396
Si Si8 0.810103 0.128564 0.136775
O O1 0.887950 0.895971 0.709308
O O2 0.069450 0.935369 0.840360
O O3 0.884101 0.052452 0.850879
O O4 0.002965 0.064916 0.677589
O O5 0.182328 0.750000 0.139934
O O6 0.343205 0.600966 0.173877
O O7 0.232968 0.613862 0.987659
O O8 0.680932 0.067080 0.412330
O O9 0.705793 0.083212 0.205717
O O10 0.765292 0.906956 0.309738
O O11 0.544864 0.951664 0.267669
O O12 0.906649 0.750000 0.331022
O O13 0.895601 0.882410 0.495781
O O14 0.230731 0.250000 0.395048
O O15 0.299983 0.059732 0.415377
O O16 0.500000 0.500000 0.500000
O O17 0.373652 0.629026 0.383659
O O18 0.513434 0.250000 0.745515
O O19 0.831390 0.250000 0.167394
#
# Coordination Sequence:
#
# PCOD8070897 Si02
#       8
#     4   4   4   4   4   4   4   4
#     4  11  19  34  55  76 106 141 181 220 264 314
#     4  10  21  36  56  79 106 140 180 226 269 310
#     4   9  19  34  56  78 106 141 177 217 265 319
#     4   9  18  31  50  78 109 139 174 217 264 316
#     4  10  19  32  50  75 109 143 173 213 262 316
#     4   9  18  33  52  80 108 137 172 211 262 318
#     4  10  19  34  56  81 106 137 175 219 268 318
#     4  10  22  38  54  77 106 143 183 221 268 312
#
# _framework density 17.947452999999999
#
# number of rings (size 3 to 8) (size 9 to 14) (size 15 to 20)
#    0.000    2.250    1.250    1.875    0.000    4.000 
#    0.000    1.875    0.000    2.250    0.000    0.000 
#    0.000    0.000    0.000    0.000    0.000    0.000 
#
# Total GULP energy -396729.233083 kJ/mol
# GULP energy per Si atom -12397.788534 kJ/mol
# Density = 1.790660 g / cm^3
# Si number density = 17.947453 Si / 1000 Ang^3
#
#
#
# Elastic Constant Matrix: (Units=GPa)
#
#
# Indices 1 2 3 4 5 6 
#
# 1 80.4355 34.9120 44.2535 0.0000 2.9245 0.0000
# 2 34.9120 77.5284 43.1641 0.0000 -4.2608 0.0000
# 3 44.2535 43.1641 108.6862 0.0000 6.0489 0.0000
# 4 0.0000 0.0000 0.0000 28.6837 0.0000 -1.5109
# 5 2.9245 -4.2608 6.0489 0.0000 27.7871 0.0000
# 6 0.0000 0.0000 0.0000 -1.5109 0.0000 22.8894
#
#
#
# Elastic Compliance Matrix: (Units=1/GPa)
#
#
# Indices 1 2 3 4 5 6 
#
# 1 0.017474 -0.005188 -0.004968 0.000000 -0.001553 0.000000
# 2 -0.005188 0.018556 -0.005513 0.000000 0.004591 0.000000
# 3 -0.004968 -0.005513 0.013596 0.000000 -0.003282 0.000000
# 4 0.000000 0.000000 0.000000 0.034985 0.000000 0.002309
# 5 -0.001553 0.004591 -0.003282 0.000000 0.037570 0.000000
# 6 0.000000 0.000000 0.000000 0.002309 0.000000 0.043841
#
#
# Mechanical properties :
#
#
# Convention : Reuss Voigt Hill
#
# Bulk Modulus (GPa) = 54.67966 56.81213 55.74590
# Shear Modulus (GPa) = 24.57553 25.49340 25.03447
#
# Velocity S-wave (km/s) = 3.70443 3.77297 3.73886
# Velocity P-wave (km/s) = 6.98783 7.12066 7.05456
#
# Compressibility (1/GPa) = 0.01828834
#
# Stress axis : x y z
#
# Youngs Moduli (GPa) = 57.22837 53.89009 73.55362
#
# Poissons Ratio (x) = 0.27959 0.36541
# Poissons Ratio (y) = 0.29691 0.40547
# Poissons Ratio (z) = 0.28430 0.29707
#
# Static dielectric constant tensor:
#      x y z
#    x 3.198880 0.000000 -0.051420 
#    y 0.000000 3.265170 0.000000 
#    z -0.051420 0.000000 3.555380 
# 
# 
# High freq. dielectric constant tensor:
#      x y z
#    x 1.693520 0.000000 0.005660 
#    y 0.000000 1.689460 0.000000 
#    z 0.005660 0.000000 1.696630 
# 
# From -- ./inp_files/34783.got.cif
#   From: 2010.06.25/outbox.cif.g09.slc.cpg/sg11_18_cif.got.tgz:34783.got - 2010.06.27 23:14:04.
