data_PCOD8070265
_publ_section_title
;
Structure prediction by ZEFSAII (Michael W. Deem and Ramdas Pophale) SiO2 
 PCOD8070265
Probable space group: P 21/M
;
_chemical_formula_sum "Si O2"
_cell_formula_units_Z 24
_cell_length_a 10.672095
_cell_length_b 23.597607
_cell_length_c 4.910919
_cell_angle_alpha 90.000000
_cell_angle_beta 90.115785
_cell_angle_gamma 90.000000
_cell_volume 1236.743199
_symmetry_space_group_name_H-M "P 21/M"
_symmetry_group_IT_number 11
_symmetry_cell_setting 'monoclinic'
loop_
_space_group_symop_operation_xyz
x,y,z
-x,1/2+y,-z
-x,-y,-z
x,1/2-y,z
loop_
_atom_site_type_symbol
_atom_site_label
_atom_site_fract_x
_atom_site_fract_y
_atom_site_fract_z
Si Si1 0.195039 0.135507 0.330569
Si Si2 0.011016 0.550838 0.709252
Si Si3 0.400695 0.940712 0.268837
Si Si4 0.929130 0.685714 0.151304
Si Si5 0.870127 0.404195 0.790298
Si Si6 0.564957 0.569279 0.767064
O O1 0.159769 0.154094 0.633397
O O2 0.341228 0.120614 0.303575
O O3 0.124568 0.077781 0.244501
O O4 0.151484 0.185187 0.126505
O O5 0.099616 0.592270 0.530473
O O6 0.000000 0.500000 0.500000
O O7 0.075904 0.543916 0.011102
O O8 0.279565 0.903918 0.183651
O O9 0.444347 0.925259 0.572050
O O10 0.368698 0.007809 0.261900
O O11 0.515630 0.924391 0.073371
O O12 0.958196 0.750000 0.236689
O O13 0.062303 0.653457 0.105425
#
# Coordination Sequence:
#
# PCOD8070265 Si02
#       6
#     4   4   4   4   4   4
#     4  10  20  34  54  79 104 135 175 216 264 318
#     4  10  19  30  49  76 107 134 164 213 263 313
#     4  10  20  33  51  76 112 147 172 201 246 311
#     4  10  21  37  57  77  99 132 175 230 279 307
#     4  10  20  33  51  76 102 136 176 212 259 313
#     4  10  20  33  51  77 109 145 173 201 247 313
#
# _framework density 19.405806999999999
#
# number of rings (size 3 to 8) (size 9 to 14) (size 15 to 20)
#    0.000    2.000    0.000    4.000    0.000    5.333 
#    0.000    0.000    0.000    6.000    0.000    0.000 
#    0.000    0.000    0.000    0.000    0.000    0.000 
#
# Total GULP energy -297458.488131 kJ/mol
# GULP energy per Si atom -12394.103672 kJ/mol
# Density = 1.936164 g / cm^3
# Si number density = 19.405807 Si / 1000 Ang^3
#
#
#
# Elastic Constant Matrix: (Units=GPa)
#
#
# Indices 1 2 3 4 5 6 
#
# 1 98.6322 39.9075 12.1435 0.0000 3.3296 0.0000
# 2 39.9075 59.3164 -5.3450 0.0000 3.5876 0.0000
# 3 12.1435 -5.3450 83.0950 0.0000 2.8805 0.0000
# 4 0.0000 0.0000 0.0000 19.6065 0.0000 -1.4021
# 5 3.3296 3.5876 2.8805 0.0000 18.9609 0.0000
# 6 0.0000 0.0000 0.0000 -1.4021 0.0000 16.0774
#
#
#
# Elastic Compliance Matrix: (Units=1/GPa)
#
#
# Indices 1 2 3 4 5 6 
#
# 1 0.014539 -0.010016 -0.002761 0.000000 -0.000239 0.000000
# 2 -0.010016 0.024077 0.003126 0.000000 -0.003272 0.000000
# 3 -0.002761 0.003126 0.012710 0.000000 -0.002037 0.000000
# 4 0.000000 0.000000 0.000000 0.051323 0.000000 0.004476
# 5 -0.000239 -0.003272 -0.002037 0.000000 0.053711 0.000000
# 6 0.000000 0.000000 0.000000 0.004476 0.000000 0.062589
#
#
# Mechanical properties :
#
#
# Convention : Reuss Voigt Hill
#
# Bulk Modulus (GPa) = 31.22677 37.16173 34.19425
# Shear Modulus (GPa) = 20.08627 23.88481 21.98554
#
# Velocity S-wave (km/s) = 3.22073 3.51209 3.36956
# Velocity P-wave (km/s) = 5.47332 5.96974 5.72691
#
# Compressibility (1/GPa) = 0.03202381
#
# Stress axis : x y z
#
# Youngs Moduli (GPa) = 68.77907 41.53313 78.68076
#
# Poissons Ratio (x) = 0.41601 0.21722
# Poissons Ratio (y) = 0.68891 -0.24595
# Poissons Ratio (z) = 0.18988 -0.12983
#
# Static dielectric constant tensor:
#      x y z
#    x 3.292130 0.000000 -0.061950 
#    y 0.000000 3.248600 0.000000 
#    z -0.061950 0.000000 5.225720 
# 
# 
# High freq. dielectric constant tensor:
#      x y z
#    x 1.741310 0.000000 -0.001180 
#    y 0.000000 1.709310 0.000000 
#    z -0.001180 0.000000 1.782610 
# 
# From -- ./inp_files/2737.got.cif
#   From: 2010.06.25/outbox.cif.g09.slc.cpg/sg11_2_cif.got.tgz:2737.got - 2010.06.27 23:14:04.
