data_PCOD8070116
_publ_section_title
;
Structure prediction by ZEFSAII (Michael W. Deem and Ramdas Pophale) SiO2 
 PCOD8070116
Probable space group: P 21/M
;
_chemical_formula_sum "Si O2"
_cell_formula_units_Z 28
_cell_length_a 30.294640
_cell_length_b 9.358281
_cell_length_c 9.901044
_cell_angle_alpha 90.000000
_cell_angle_beta 143.931908
_cell_angle_gamma 90.000000
_cell_volume 1652.612588
_symmetry_space_group_name_H-M "P 21/M"
_symmetry_group_IT_number 11
_symmetry_cell_setting 'monoclinic'
loop_
_space_group_symop_operation_xyz
x,y,z
-x,1/2+y,-z
-x,-y,-z
x,1/2-y,z
loop_
_atom_site_type_symbol
_atom_site_label
_atom_site_fract_x
_atom_site_fract_y
_atom_site_fract_z
Si Si1 0.833108 0.582005 0.717922
Si Si2 0.276122 0.580613 0.052316
Si Si3 0.841827 0.417697 0.457339
Si Si4 0.004199 0.088550 0.877736
Si Si5 0.552840 0.086713 0.227926
Si Si6 0.726259 0.084203 0.650816
Si Si7 0.556401 0.418275 0.544314
O O1 0.816355 0.750000 0.658554
O O2 0.829949 0.506992 0.564127
O O3 0.771548 0.513415 0.660619
O O4 0.915276 0.555906 0.993233
O O5 0.275568 0.750000 0.056875
O O6 0.256905 0.527497 0.155963
O O7 0.358965 0.530652 0.211787
O O8 0.215298 0.521584 0.796002
O O9 0.826759 0.250000 0.450222
O O10 0.926490 0.440207 0.604053
O O11 0.005023 0.250000 0.929882
O O12 0.000000 0.000000 0.000000
O O13 0.530408 0.250000 0.154380
O O14 0.639078 0.062893 0.401270
O O15 0.538339 0.039257 0.345845
O O16 0.500000 0.000000 0.000000
O O17 0.749434 0.250000 0.691093
O O18 0.500000 0.500000 0.500000
O O19 0.547575 0.250000 0.545791
#
# Coordination Sequence:
#
# PCOD8070116 Si02
#       7
#     4   4   4   4   4   4   4
#     4  10  19  30  45  70 100 125 151 191 235 274
#     4   8  16  32  52  69  89 119 157 194 226 266
#     4   9  16  30  52  72  89 119 160 196 229 273
#     4   8  15  27  44  66  93 121 151 188 231 272
#     4   9  19  34  51  70  94 122 155 192 230 273
#     4   9  18  34  51  67  91 126 160 189 225 275
#     4   9  18  33  50  70  94 120 150 188 231 275
#
# _framework density 16.942871
#
# number of rings (size 3 to 8) (size 9 to 14) (size 15 to 20)
#    0.000    3.143    0.000    2.143    0.000    2.857 
#    0.000    8.571    0.000    0.000    0.000    0.000 
#    0.000    0.000    0.000    0.000    0.000    0.000 
#
# Total GULP energy -346888.403316 kJ/mol
# GULP energy per Si atom -12388.871547 kJ/mol
# Density = 1.690431 g / cm^3
# Si number density = 16.942871 Si / 1000 Ang^3
#
#
#
# Elastic Constant Matrix: (Units=GPa)
#
#
# Indices 1 2 3 4 5 6 
#
# 1 98.9720 44.1340 61.9155 0.0000 5.0589 0.0000
# 2 44.1340 55.1664 46.8003 0.0000 3.4620 0.0000
# 3 61.9155 46.8003 147.4739 0.0000 6.4846 0.0000
# 4 0.0000 0.0000 0.0000 23.0553 0.0000 2.5500
# 5 5.0589 3.4620 6.4846 0.0000 14.6703 0.0000
# 6 0.0000 0.0000 0.0000 2.5500 0.0000 26.0987
#
#
#
# Elastic Compliance Matrix: (Units=1/GPa)
#
#
# Indices 1 2 3 4 5 6 
#
# 1 0.017256 -0.010418 -0.003860 0.000000 -0.001786 0.000000
# 2 -0.010418 0.031180 -0.005461 0.000000 -0.001351 0.000000
# 3 -0.003860 -0.005461 0.010218 0.000000 -0.001897 0.000000
# 4 0.000000 0.000000 0.000000 0.043848 0.000000 -0.004284
# 5 -0.001786 -0.001351 -0.001897 0.000000 0.069938 0.000000
# 6 0.000000 0.000000 0.000000 -0.004284 0.000000 0.038735
#
#
# Mechanical properties :
#
#
# Convention : Reuss Voigt Hill
#
# Bulk Modulus (GPa) = 52.15310 67.47910 59.81610
# Shear Modulus (GPa) = 19.45195 22.68236 21.06715
#
# Velocity S-wave (km/s) = 3.39202 3.66287 3.53005
# Velocity P-wave (km/s) = 6.79630 7.60281 7.21084
#
# Compressibility (1/GPa) = 0.01917431
#
# Stress axis : x y z
#
# Youngs Moduli (GPa) = 57.95239 32.07228 97.86696
#
# Poissons Ratio (x) = 0.33413 0.37776
# Poissons Ratio (y) = 0.60375 0.53449
# Poissons Ratio (z) = 0.22369 0.17516
#
# Static dielectric constant tensor:
#      x y z
#    x 3.168080 0.000000 0.368960 
#    y 0.000000 3.033920 0.000000 
#    z 0.368960 0.000000 3.660500 
# 
# 
# High freq. dielectric constant tensor:
#      x y z
#    x 1.645590 0.000000 0.018960 
#    y 0.000000 1.641360 0.000000 
#    z 0.018960 0.000000 1.656010 
# 
# From -- ./inp_files/28980.got.cif
#   From: 2010.06.25/outbox.cif.g09.slc.cpg/sg11_15_cif.got.tgz:28980.got - 2010.06.27 23:14:04.
