data_PCOD8070412
_publ_section_title
;
Structure prediction by ZEFSAII (Michael W. Deem and Ramdas Pophale) SiO2 
 PCOD8070412
Probable space group: P 21/M
;
_chemical_formula_sum "Si O2"
_cell_formula_units_Z 28
_cell_length_a 30.634301
_cell_length_b 8.678753
_cell_length_c 9.882997
_cell_angle_alpha 90.000000
_cell_angle_beta 36.050878
_cell_angle_gamma 90.000000
_cell_volume 1546.332761
_symmetry_space_group_name_H-M "P 21/M"
_symmetry_group_IT_number 11
_symmetry_cell_setting 'monoclinic'
loop_
_space_group_symop_operation_xyz
x,y,z
-x,1/2+y,-z
-x,-y,-z
x,1/2-y,z
loop_
_atom_site_type_symbol
_atom_site_label
_atom_site_fract_x
_atom_site_fract_y
_atom_site_fract_z
Si Si1 0.059785 0.567864 0.450532
Si Si2 0.216180 0.068142 0.055470
Si Si3 0.340809 0.432534 0.256161
Si Si4 0.223201 0.429851 0.339277
Si Si5 0.501797 0.072105 0.851136
Si Si6 0.338328 0.931254 0.559997
Si Si7 0.944477 0.569035 0.246734
O O1 0.056235 0.750000 0.456638
O O2 0.140422 0.512474 0.198955
O O3 0.040277 0.509360 0.648576
O O4 0.000000 0.500000 0.500000
O O5 0.201716 0.250000 0.095095
O O6 0.238093 0.006590 0.150488
O O7 0.280145 0.028150 0.790876
O O8 0.330488 0.250000 0.308658
O O9 0.279979 0.502887 0.305458
O O10 0.331815 0.521574 0.419565
O O11 0.422098 0.465890 0.981890
O O12 0.238853 0.250000 0.299311
O O13 0.139052 0.467307 0.594001
O O14 0.509427 0.250000 0.858767
O O15 0.579473 0.022084 0.585246
O O16 0.500000 0.000000 0.000000
O O17 0.321863 0.750000 0.616353
O O18 0.957407 0.750000 0.230334
O O19 0.000000 0.500000 0.000000
#
# Coordination Sequence:
#
# PCOD8070412 Si02
#       7
#     4   4   4   4   4   4   4
#     4  11  22  38  58  80 105 136 171 213 260 310
#     4  10  20  36  54  74 101 136 171 207 252 306
#     4   9  16  31  53  74  95 129 172 215 258 303
#     4   8  17  33  53  73  97 128 168 211 253 299
#     4   8  15  27  46  69  97 129 165 208 256 302
#     4  10  19  31  47  74 105 133 167 211 256 304
#     4  10  20  36  55  78 106 139 175 215 261 312
#
# _framework density 18.107357
#
# number of rings (size 3 to 8) (size 9 to 14) (size 15 to 20)
#    0.000    2.571    0.000    3.429    0.000    1.714 
#    0.000    9.286    0.000    0.000    0.000    0.000 
#    0.000    0.000    0.000    0.000    0.000    0.000 
#
# Total GULP energy -346940.162550 kJ/mol
# GULP energy per Si atom -12390.720091 kJ/mol
# Density = 1.806614 g / cm^3
# Si number density = 18.107357 Si / 1000 Ang^3
#
#
#
# Elastic Constant Matrix: (Units=GPa)
#
#
# Indices 1 2 3 4 5 6 
#
# 1 123.9212 38.2876 64.8501 0.0000 -22.8999 0.0000
# 2 38.2876 76.6866 40.8364 0.0000 -7.4276 0.0000
# 3 64.8501 40.8364 135.0715 0.0000 -17.0012 0.0000
# 4 0.0000 0.0000 0.0000 25.7890 0.0000 -0.2776
# 5 -22.8999 -7.4276 -17.0012 0.0000 19.7468 0.0000
# 6 0.0000 0.0000 0.0000 -0.2776 0.0000 21.9383
#
#
#
# Elastic Compliance Matrix: (Units=1/GPa)
#
#
# Indices 1 2 3 4 5 6 
#
# 1 0.013147 -0.003442 -0.003943 0.000000 0.010557 0.000000
# 2 -0.003442 0.016516 -0.003433 0.000000 -0.000735 0.000000
# 3 -0.003943 -0.003433 0.010763 0.000000 0.003402 0.000000
# 4 0.000000 0.000000 0.000000 0.038781 0.000000 0.000491
# 5 0.010557 -0.000735 0.003402 0.000000 0.065537 0.000000
# 6 0.000000 0.000000 0.000000 0.000491 0.000000 0.045589
#
#
# Mechanical properties :
#
#
# Convention : Reuss Voigt Hill
#
# Bulk Modulus (GPa) = 53.22055 69.29195 61.25625
# Shear Modulus (GPa) = 22.91140 26.27519 24.59329
#
# Velocity S-wave (km/s) = 3.56098 3.81343 3.68937
# Velocity P-wave (km/s) = 6.80903 7.59869 7.21467
#
# Compressibility (1/GPa) = 0.01878973
#
# Stress axis : x y z
#
# Youngs Moduli (GPa) = 76.06053 60.54893 92.91335
#
# Poissons Ratio (x) = 0.20841 0.36634
# Poissons Ratio (y) = 0.26180 0.31899
# Poissons Ratio (z) = 0.29989 0.20787
#
# Static dielectric constant tensor:
#      x y z
#    x 3.686730 0.000000 -0.344030 
#    y 0.000000 3.295230 0.000000 
#    z -0.344030 0.000000 3.559200 
# 
# 
# High freq. dielectric constant tensor:
#      x y z
#    x 1.697630 0.000000 -0.021280 
#    y 0.000000 1.698340 0.000000 
#    z -0.021280 0.000000 1.702240 
# 
# From -- ./inp_files/28992.got.cif
#   From: 2010.06.25/outbox.cif.g09.slc.cpg/sg11_15_cif.got.tgz:28992.got - 2010.06.27 23:14:04.
