data_PCOD8070133
_publ_section_title
;
Structure prediction by ZEFSAII (Michael W. Deem and Ramdas Pophale) SiO2 
 PCOD8070133
Probable space group: P 21/M
;
_chemical_formula_sum "Si O2"
_cell_formula_units_Z 32
_cell_length_a 15.640479
_cell_length_b 9.004083
_cell_length_c 21.151657
_cell_angle_alpha 90.000000
_cell_angle_beta 42.062240
_cell_angle_gamma 90.000000
_cell_volume 1995.575726
_symmetry_space_group_name_H-M "P 21/M"
_symmetry_group_IT_number 11
_symmetry_cell_setting 'monoclinic'
loop_
_space_group_symop_operation_xyz
x,y,z
-x,1/2+y,-z
-x,-y,-z
x,1/2-y,z
loop_
_atom_site_type_symbol
_atom_site_label
_atom_site_fract_x
_atom_site_fract_y
_atom_site_fract_z
Si Si1 0.724220 0.922694 0.091509
Si Si2 0.555954 0.421533 0.793522
Si Si3 0.601844 0.574867 0.899019
Si Si4 0.184579 0.920153 0.410810
Si Si5 0.096876 0.079976 0.902590
Si Si6 0.885706 0.925623 0.779608
Si Si7 0.924665 0.075184 0.890163
Si Si8 0.996880 0.577050 0.401613
O O1 0.746269 0.750000 0.061902
O O2 0.576654 0.966023 0.166400
O O3 0.762719 0.953440 0.144728
O O4 0.806632 0.020462 0.997855
O O5 0.557734 0.250000 0.815003
O O6 0.578132 0.525818 0.840797
O O7 0.665679 0.450068 0.681431
O O8 0.586117 0.750000 0.912769
O O9 0.741646 0.522976 0.844212
O O10 0.500000 0.500000 0.000000
O O11 0.156039 0.750000 0.444536
O O12 0.112650 0.961370 0.385298
O O13 0.135877 0.023223 0.494474
O O14 0.063064 0.250000 0.928832
O O15 0.062079 0.037482 0.849097
O O16 0.000000 0.000000 0.000000
O O17 0.898115 0.750000 0.773121
O O18 0.928601 0.988232 0.823000
O O19 0.981292 0.990195 0.675090
O O20 0.907524 0.250000 0.886829
O O21 0.987473 0.750000 0.391542
#
# Coordination Sequence:
#
# PCOD8070133 Si02
#       8
#     4   4   4   4   4   4   4   4
#     4   9  17  30  48  69  95 125 157 190 228 273
#     4  10  19  32  49  69  93 123 156 189 226 271
#     4  11  23  34  45  62  91 128 161 191 224 266
#     4   9  18  32  49  69  93 119 150 190 233 276
#     4   8  15  28  45  66  91 120 153 191 231 271
#     4  11  22  34  47  66  92 124 159 193 232 275
#     4  10  19  30  46  68  95 125 158 194 232 272
#     4  10  19  32  51  70  90 118 153 194 234 273
#
# _framework density 16.035471999999999
#
# number of rings (size 3 to 8) (size 9 to 14) (size 15 to 20)
#    0.000    2.250    1.250    2.250    0.000    6.500 
#    0.000    0.000    0.000    0.000    0.000    0.875 
#    0.000    0.000    0.000    0.000    0.000    0.000 
#
# Total GULP energy -396632.519469 kJ/mol
# GULP energy per Si atom -12394.766233 kJ/mol
# Density = 1.599897 g / cm^3
# Si number density = 16.035472 Si / 1000 Ang^3
#
#
#
# Elastic Constant Matrix: (Units=GPa)
#
#
# Indices 1 2 3 4 5 6 
#
# 1 127.4043 42.1548 54.7726 0.0000 7.1765 0.0000
# 2 42.1548 54.1532 37.0899 0.0000 3.6140 0.0000
# 3 54.7726 37.0899 90.9846 0.0000 9.0702 0.0000
# 4 0.0000 0.0000 0.0000 27.0036 0.0000 4.3437
# 5 7.1765 3.6140 9.0702 0.0000 8.4819 0.0000
# 6 0.0000 0.0000 0.0000 4.3437 0.0000 19.7092
#
#
#
# Elastic Compliance Matrix: (Units=1/GPa)
#
#
# Indices 1 2 3 4 5 6 
#
# 1 0.011912 -0.006056 -0.004426 0.000000 -0.002765 0.000000
# 2 -0.006056 0.028699 -0.008221 0.000000 0.001688 0.000000
# 3 -0.004426 -0.008221 0.018228 0.000000 -0.012244 0.000000
# 4 0.000000 0.000000 0.000000 0.038393 0.000000 -0.008461
# 5 -0.002765 0.001688 -0.012244 0.000000 0.132611 0.000000
# 6 0.000000 0.000000 0.000000 -0.008461 0.000000 0.052602
#
#
# Mechanical properties :
#
#
# Convention : Reuss Voigt Hill
#
# Bulk Modulus (GPa) = 46.66386 60.06408 53.36397
# Shear Modulus (GPa) = 15.29069 20.27392 17.78231
#
# Velocity S-wave (km/s) = 3.09132 3.55958 3.33368
# Velocity P-wave (km/s) = 6.47342 7.37784 6.94038
#
# Compressibility (1/GPa) = 0.02142986
#
# Stress axis : x y z
#
# Youngs Moduli (GPa) = 83.95224 34.84456 54.86207
#
# Poissons Ratio (x) = 0.21103 0.24284
# Poissons Ratio (y) = 0.50844 0.45105
# Poissons Ratio (z) = 0.37160 0.28647
#
# Static dielectric constant tensor:
#      x y z
#    x 3.507960 0.000000 -0.098130 
#    y 0.000000 3.137480 0.000000 
#    z -0.098130 0.000000 2.945780 
# 
# 
# High freq. dielectric constant tensor:
#      x y z
#    x 1.612350 0.000000 0.000390 
#    y 0.000000 1.626980 0.000000 
#    z 0.000390 0.000000 1.592090 
# 
# From -- ./inp_files/51265.got.cif
#   From: 2010.06.25/outbox.cif.g09.slc.cpg/sg11_26_cif.got.tgz:51265.got - 2010.06.27 23:14:04.
