data_PCOD8070829
_publ_section_title
;
Structure prediction by ZEFSAII (Michael W. Deem and Ramdas Pophale) SiO2 
 PCOD8070829
Probable space group: P 21/M
;
_chemical_formula_sum "Si O2"
_cell_formula_units_Z 32
_cell_length_a 15.575409
_cell_length_b 8.590503
_cell_length_c 15.506104
_cell_angle_alpha 90.000000
_cell_angle_beta 56.377816
_cell_angle_gamma 90.000000
_cell_volume 1727.638671
_symmetry_space_group_name_H-M "P 21/M"
_symmetry_group_IT_number 11
_symmetry_cell_setting 'monoclinic'
loop_
_space_group_symop_operation_xyz
x,y,z
-x,1/2+y,-z
-x,-y,-z
x,1/2-y,z
loop_
_atom_site_type_symbol
_atom_site_label
_atom_site_fract_x
_atom_site_fract_y
_atom_site_fract_z
Si Si1 0.586146 0.070005 0.150001
Si Si2 0.649555 0.566177 0.465358
Si Si3 0.132107 0.433424 0.591029
Si Si4 0.454516 0.067973 0.650157
Si Si5 0.825393 0.066973 0.613770
Si Si6 0.631897 0.566204 0.804223
Si Si7 0.730342 0.067353 0.915564
Si Si8 0.921782 0.566862 0.730113
O O1 0.579483 0.250000 0.178707
O O2 0.483731 0.018807 0.156060
O O3 0.599983 0.973904 0.229906
O O4 0.684444 0.034343 0.035517
O O5 0.651998 0.750000 0.469296
O O6 0.762668 0.500797 0.425093
O O7 0.616855 0.505766 0.388646
O O8 0.567699 0.508105 0.581978
O O9 0.121219 0.250000 0.609478
O O10 0.128286 0.475627 0.492701
O O11 0.037210 0.517598 0.692505
O O12 0.468839 0.250000 0.633866
O O13 0.832159 0.250000 0.592714
O O14 0.707324 0.015909 0.693846
O O15 0.892845 0.022326 0.658790
O O16 0.651095 0.750000 0.790411
O O17 0.653238 0.505049 0.888231
O O18 0.740501 0.250000 0.890806
O O19 0.842542 0.986949 0.848785
O O20 0.912910 0.750000 0.720622
#
# Coordination Sequence:
#
# PCOD8070829 Si02
#       8
#     4   4   4   4   4   4   4   4
#     4  10  21  34  51  75 104 137 170 207 252 301
#     4   9  20  37  55  77 106 136 164 201 252 303
#     4  11  21  35  54  74 100 134 170 208 252 300
#     4  10  20  34  55  81 106 133 166 204 247 299
#     4  11  21  33  49  74 106 137 171 207 247 297
#     4  10  19  32  49  73 105 138 171 207 250 295
#     4  10  20  35  52  72 100 136 175 210 250 296
#     4  11  22  36  52  73 101 133 171 212 254 296
#
# _framework density 18.522392
#
# number of rings (size 3 to 8) (size 9 to 14) (size 15 to 20)
#    0.000    1.750    0.000    6.750    0.000    6.500 
#    0.000    0.000    0.000    0.750    0.000    0.000 
#    0.000    0.000    0.000    0.000    0.000    0.000 
#
# Total GULP energy -396908.847338 kJ/mol
# GULP energy per Si atom -12403.401479 kJ/mol
# Density = 1.848023 g / cm^3
# Si number density = 18.522392 Si / 1000 Ang^3
#
#
#
# Elastic Constant Matrix: (Units=GPa)
#
#
# Indices 1 2 3 4 5 6 
#
# 1 92.2711 24.2184 51.7416 0.0000 -21.3637 0.0000
# 2 24.2184 51.8133 19.7759 0.0000 -4.2479 0.0000
# 3 51.7416 19.7759 105.2996 0.0000 -10.8700 0.0000
# 4 0.0000 0.0000 0.0000 31.0933 0.0000 -2.5350
# 5 -21.3637 -4.2479 -10.8700 0.0000 26.0832 0.0000
# 6 0.0000 0.0000 0.0000 -2.5350 0.0000 24.1591
#
#
#
# Elastic Compliance Matrix: (Units=1/GPa)
#
#
# Indices 1 2 3 4 5 6 
#
# 1 0.018872 -0.005155 -0.007102 0.000000 0.011658 0.000000
# 2 -0.005155 0.022283 -0.001790 0.000000 -0.001339 0.000000
# 3 -0.007102 -0.001790 0.013263 0.000000 -0.000581 0.000000
# 4 0.000000 0.000000 0.000000 0.032439 0.000000 0.003404
# 5 0.011658 -0.001339 -0.000581 0.000000 0.047427 0.000000
# 6 0.000000 0.000000 0.000000 0.003404 0.000000 0.041749
#
#
# Mechanical properties :
#
#
# Convention : Reuss Voigt Hill
#
# Bulk Modulus (GPa) = 37.98773 48.98398 43.48585
# Shear Modulus (GPa) = 23.48502 26.51034 24.99768
#
# Velocity S-wave (km/s) = 3.56466 3.78730 3.67767
# Velocity P-wave (km/s) = 6.12340 6.75486 6.44686
#
# Compressibility (1/GPa) = 0.02632429
#
# Stress axis : x y z
#
# Youngs Moduli (GPa) = 52.98777 44.87728 75.40033
#
# Poissons Ratio (x) = 0.23133 0.53548
# Poissons Ratio (y) = 0.27314 0.13498
# Poissons Ratio (z) = 0.37631 0.08034
#
# Static dielectric constant tensor:
#      x y z
#    x 3.512530 0.000000 -0.169930 
#    y 0.000000 3.403900 0.000000 
#    z -0.169930 0.000000 3.436860 
# 
# 
# High freq. dielectric constant tensor:
#      x y z
#    x 1.702690 0.000000 -0.015210 
#    y 0.000000 1.727590 0.000000 
#    z -0.015210 0.000000 1.712150 
# 
# From -- ./inp_files/51625.got.cif
#   From: 2010.06.25/outbox.cif.g09.slc.cpg/sg11_26_cif.got.tgz:51625.got - 2010.06.27 23:14:04.
