data_PCOD8070450
_publ_section_title
;
Structure prediction by ZEFSAII (Michael W. Deem and Ramdas Pophale) SiO2 
 PCOD8070450
Probable space group: P 21/M
;
_chemical_formula_sum "Si O2"
_cell_formula_units_Z 32
_cell_length_a 23.196937
_cell_length_b 8.934343
_cell_length_c 15.421316
_cell_angle_alpha 90.000000
_cell_angle_beta 148.569736
_cell_angle_gamma 90.000000
_cell_volume 1666.617904
_symmetry_space_group_name_H-M "P 21/M"
_symmetry_group_IT_number 11
_symmetry_cell_setting 'monoclinic'
loop_
_space_group_symop_operation_xyz
x,y,z
-x,1/2+y,-z
-x,-y,-z
x,1/2-y,z
loop_
_atom_site_type_symbol
_atom_site_label
_atom_site_fract_x
_atom_site_fract_y
_atom_site_fract_z
Si Si1 0.148136 0.927250 0.450607
Si Si2 0.906371 0.926155 0.095365
Si Si3 0.708779 0.573033 0.509746
Si Si4 0.764365 0.928421 0.072395
Si Si5 0.514738 0.913794 0.766478
Si Si6 0.795735 0.424390 0.285811
Si Si7 0.424423 0.414851 0.967190
Si Si8 0.114045 0.074342 0.122730
O O1 0.164702 0.750000 0.462159
O O2 0.143409 0.972446 0.546734
O O3 0.032171 0.986317 0.262718
O O4 0.249177 0.004098 0.527804
O O5 0.910827 0.750000 0.115099
O O6 0.828535 0.992137 0.070997
O O7 0.854784 0.970193 0.936221
O O8 0.707052 0.750000 0.496821
O O9 0.587646 0.521699 0.387344
O O10 0.790598 0.517818 0.690882
O O11 0.763696 0.750000 0.080100
O O12 0.830840 0.988753 0.242748
O O13 0.636135 0.982946 0.899073
O O14 0.499948 0.750000 0.702188
O O15 0.506415 0.889226 0.857873
O O16 0.811179 0.250000 0.287738
O O17 0.670127 0.466359 0.138322
O O18 0.384243 0.250000 0.881816
O O19 0.500000 0.500000 0.000000
O O20 0.096912 0.250000 0.108795
O O21 0.000000 0.000000 0.000000
#
# Coordination Sequence:
#
# PCOD8070450 Si02
#       8
#     4   4   4   4   4   4   4   4
#     4  10  20  34  54  79 108 145 181 213 265 328
#     4   9  18  36  60  79 102 141 181 218 262 322
#     4  11  22  33  52  84 113 136 172 223 272 314
#     4   9  19  37  58  77 101 142 190 221 256 315
#     4   9  19  34  51  72 101 140 180 216 259 316
#     4  10  20  32  48  75 108 141 179 221 265 314
#     4  10  19  31  48  71 100 139 184 223 266 317
#     4  10  20  36  58  83 109 138 172 214 267 322
#
# _framework density 19.200561
#
# number of rings (size 3 to 8) (size 9 to 14) (size 15 to 20)
#    0.000    2.250    1.250    2.625    0.000    7.500 
#    0.000    1.875    0.000    0.000    0.000    0.000 
#    0.000    0.000    0.000    0.000    0.000    0.000 
#
# Total GULP energy -396496.333963 kJ/mol
# GULP energy per Si atom -12390.510436 kJ/mol
# Density = 1.915686 g / cm^3
# Si number density = 19.200561 Si / 1000 Ang^3
#
#
#
# Elastic Constant Matrix: (Units=GPa)
#
#
# Indices 1 2 3 4 5 6 
#
# 1 102.0694 21.5388 27.7099 0.0000 -10.0077 0.0000
# 2 21.5388 40.2196 28.0511 0.0000 -4.1878 0.0000
# 3 27.7099 28.0511 89.9675 0.0000 -3.9293 0.0000
# 4 0.0000 0.0000 0.0000 24.7110 0.0000 0.0139
# 5 -10.0077 -4.1878 -3.9293 0.0000 26.1457 0.0000
# 6 0.0000 0.0000 0.0000 0.0139 0.0000 20.6986
#
#
#
# Elastic Compliance Matrix: (Units=1/GPa)
#
#
# Indices 1 2 3 4 5 6 
#
# 1 0.011627 -0.004442 -0.002046 0.000000 0.003431 0.000000
# 2 -0.004442 0.033815 -0.009072 0.000000 0.002352 0.000000
# 3 -0.002046 -0.009072 0.014572 0.000000 -0.000046 0.000000
# 4 0.000000 0.000000 0.000000 0.040468 0.000000 -0.000027
# 5 0.003431 0.002352 -0.000046 0.000000 0.039930 0.000000
# 6 0.000000 0.000000 0.000000 -0.000027 0.000000 0.048312
#
#
# Mechanical properties :
#
#
# Convention : Reuss Voigt Hill
#
# Bulk Modulus (GPa) = 34.61115 42.98399 38.79757
# Shear Modulus (GPa) = 21.78885 24.64153 23.21519
#
# Velocity S-wave (km/s) = 3.37234 3.58631 3.48097
# Velocity P-wave (km/s) = 5.76444 6.29160 6.03378
#
# Compressibility (1/GPa) = 0.02889242
#
# Stress axis : x y z
#
# Youngs Moduli (GPa) = 86.01026 29.57294 68.62500
#
# Poissons Ratio (x) = 0.13136 0.14041
# Poissons Ratio (y) = 0.38206 0.62258
# Poissons Ratio (z) = 0.17599 0.26829
#
# Static dielectric constant tensor:
#      x y z
#    x 3.371850 0.000000 -0.132730 
#    y 0.000000 3.448080 0.000000 
#    z -0.132730 0.000000 3.664920 
# 
# 
# High freq. dielectric constant tensor:
#      x y z
#    x 1.743700 0.000000 -0.001760 
#    y 0.000000 1.730590 0.000000 
#    z -0.001760 0.000000 1.741700 
# 
# From -- ./inp_files/55651.got.cif
#   From: 2010.06.25/outbox.cif.g09.slc.cpg/sg11_28_cif.got.tgz:55651.got - 2010.06.27 23:14:04.
