data_PCOD8070802
_publ_section_title
;
Structure prediction by ZEFSAII (Michael W. Deem and Ramdas Pophale) SiO2 
 PCOD8070802
Probable space group: P 21/M
;
_chemical_formula_sum "Si O2"
_cell_formula_units_Z 32
_cell_length_a 22.578943
_cell_length_b 9.252879
_cell_length_c 15.182175
_cell_angle_alpha 90.000000
_cell_angle_beta 147.263368
_cell_angle_gamma 90.000000
_cell_volume 1715.274702
_symmetry_space_group_name_H-M "P 21/M"
_symmetry_group_IT_number 11
_symmetry_cell_setting 'monoclinic'
loop_
_space_group_symop_operation_xyz
x,y,z
-x,1/2+y,-z
-x,-y,-z
x,1/2-y,z
loop_
_atom_site_type_symbol
_atom_site_label
_atom_site_fract_x
_atom_site_fract_y
_atom_site_fract_z
Si Si1 0.999540 0.089922 0.586023
Si Si2 0.382897 0.419282 0.753047
Si Si3 0.391926 0.418822 0.964239
Si Si4 0.950388 0.908961 0.676090
Si Si5 0.111752 0.582426 0.116085
Si Si6 0.805972 0.407932 0.964882
Si Si7 0.793363 0.416907 0.583859
Si Si8 0.249132 0.091352 0.949702
O O1 0.950782 0.250000 0.509143
O O2 0.120340 0.102303 0.775490
O O3 0.920142 0.001593 0.551874
O O4 0.000000 0.000000 0.500000
O O5 0.385002 0.250000 0.733196
O O6 0.502503 0.483698 0.888065
O O7 0.304641 0.499195 0.585877
O O8 0.344271 0.446298 0.806020
O O9 0.422861 0.250000 0.012682
O O10 0.304891 0.469604 0.929901
O O11 0.893423 0.750000 0.599735
O O12 0.079015 0.888469 0.842601
O O13 0.906764 0.003057 0.702399
O O14 0.078810 0.750000 0.057660
O O15 0.205547 0.571496 0.308735
O O16 0.170463 0.519228 0.101236
O O17 0.000000 0.500000 0.000000
O O18 0.751218 0.250000 0.883899
O O19 0.727015 0.498781 0.931609
O O20 0.793141 0.250000 0.553051
O O21 0.297884 0.250000 0.029404
#
# Coordination Sequence:
#
# PCOD8070802 Si02
#       8
#     4   4   4   4   4   4   4   4
#     4  10  20  32  46  70 103 140 179 215 258 313
#     4  10  21  36  57  82 108 138 175 221 269 324
#     4   9  19  38  59  79 105 138 175 220 272 321
#     4  10  19  32  49  69 102 141 178 219 261 307
#     4  10  20  34  53  77 108 145 182 220 268 315
#     4   9  18  33  51  75 105 138 176 218 259 308
#     4  11  22  34  52  79 109 142 178 222 269 320
#     4   9  19  34  53  75 101 137 175 215 264 317
#
# _framework density 18.655905000000001
#
# number of rings (size 3 to 8) (size 9 to 14) (size 15 to 20)
#    0.000    2.250    1.250    1.500    1.750    3.000 
#    0.000    0.000    0.000    0.750    0.000    0.000 
#    0.000    0.000    0.000    0.000    0.000    0.000 
#
# Total GULP energy -396514.214439 kJ/mol
# GULP energy per Si atom -12391.069201 kJ/mol
# Density = 1.861344 g / cm^3
# Si number density = 18.655905 Si / 1000 Ang^3
#
#
#
# Elastic Constant Matrix: (Units=GPa)
#
#
# Indices 1 2 3 4 5 6 
#
# 1 110.8340 50.4675 23.0297 0.0000 -27.0869 0.0000
# 2 50.4675 120.4988 36.1310 0.0000 -17.4912 0.0000
# 3 23.0297 36.1310 57.0607 0.0000 -14.8477 0.0000
# 4 0.0000 0.0000 0.0000 24.1506 0.0000 -2.2059
# 5 -27.0869 -17.4912 -14.8477 0.0000 28.1587 0.0000
# 6 0.0000 0.0000 0.0000 -2.2059 0.0000 32.3562
#
#
#
# Elastic Compliance Matrix: (Units=1/GPa)
#
#
# Indices 1 2 3 4 5 6 
#
# 1 0.013432 -0.004084 -0.000154 0.000000 0.010303 0.000000
# 2 -0.004084 0.011776 -0.005711 0.000000 0.000375 0.000000
# 3 -0.000154 -0.005711 0.023461 0.000000 0.008675 0.000000
# 4 0.000000 0.000000 0.000000 0.041666 0.000000 0.002841
# 5 0.010303 0.000375 0.008675 0.000000 0.050231 0.000000
# 6 0.000000 0.000000 0.000000 0.002841 0.000000 0.031100
#
#
# Mechanical properties :
#
#
# Convention : Reuss Voigt Hill
#
# Bulk Modulus (GPa) = 34.75739 56.40556 45.58147
# Shear Modulus (GPa) = 24.85661 28.85079 26.85370
#
# Velocity S-wave (km/s) = 3.65413 3.93678 3.79809
# Velocity P-wave (km/s) = 6.03943 7.13896 6.61209
#
# Compressibility (1/GPa) = 0.02877086
#
# Stress axis : x y z
#
# Youngs Moduli (GPa) = 74.44913 84.91810 42.62422
#
# Poissons Ratio (x) = 0.34679 0.00658
# Poissons Ratio (y) = 0.30404 0.24342
# Poissons Ratio (z) = 0.01150 0.48495
#
# Static dielectric constant tensor:
#      x y z
#    x 3.399890 0.000000 -0.218450 
#    y 0.000000 3.795220 0.000000 
#    z -0.218450 0.000000 2.999440 
# 
# 
# High freq. dielectric constant tensor:
#      x y z
#    x 1.723690 0.000000 -0.023440 
#    y 0.000000 1.735540 0.000000 
#    z -0.023440 0.000000 1.685840 
# 
# From -- ./inp_files/54349.got.cif
#   From: 2010.06.25/outbox.cif.g09.slc.cpg/sg11_28_cif.got.tgz:54349.got - 2010.06.27 23:14:04.
