data_PCOD8070902
_publ_section_title
;
Structure prediction by ZEFSAII (Michael W. Deem and Ramdas Pophale) SiO2 
 PCOD8070902
Probable space group: P 21/M
;
_chemical_formula_sum "Si O2"
_cell_formula_units_Z 32
_cell_length_a 14.738882
_cell_length_b 23.030115
_cell_length_c 14.749415
_cell_angle_alpha 90.000000
_cell_angle_beta 160.086333
_cell_angle_gamma 90.000000
_cell_volume 1705.237885
_symmetry_space_group_name_H-M "P 21/M"
_symmetry_group_IT_number 11
_symmetry_cell_setting 'monoclinic'
loop_
_space_group_symop_operation_xyz
x,y,z
-x,1/2+y,-z
-x,-y,-z
x,1/2-y,z
loop_
_atom_site_type_symbol
_atom_site_label
_atom_site_fract_x
_atom_site_fract_y
_atom_site_fract_z
Si Si1 0.553672 0.936633 0.010271
Si Si2 0.856395 0.316476 0.655678
Si Si3 0.295464 0.183076 0.217766
Si Si4 0.595130 0.095998 0.943696
Si Si5 0.139416 0.460076 0.399684
Si Si6 0.884999 0.080250 0.549770
Si Si7 0.700754 0.316334 0.900029
Si Si8 0.756352 0.867434 0.641686
O O1 0.477846 0.892538 0.020199
O O2 0.862583 0.929272 0.277414
O O3 0.379991 0.922322 0.759356
O O4 0.500000 0.000000 0.000000
O O5 0.868512 0.250000 0.632797
O O6 0.577667 0.330940 0.439749
O O7 0.903290 0.357165 0.613561
O O8 0.078831 0.329247 0.938605
O O9 0.280507 0.250000 0.239082
O O10 0.244012 0.137116 0.250120
O O11 0.375492 0.056927 0.688499
O O12 0.612638 0.159072 0.914465
O O13 0.870744 0.062076 0.193257
O O14 0.129028 0.530139 0.385685
O O15 0.182207 0.432530 0.338972
O O16 0.623701 0.250000 0.825279
O O17 0.534944 0.348044 0.665251
O O18 0.014960 0.324919 0.181138
#
# Coordination Sequence:
#
# PCOD8070902 Si02
#       8
#     4   4   4   4   4   4   4   4
#     4  12  21  35  60  86 105 136 191 224 262 323
#     4  10  23  40  57  79 109 145 185 229 272 314
#     4  10  19  36  58  78 104 141 188 226 261 320
#     4  10  20  33  50  79 109 137 174 222 260 313
#     4  10  19  34  52  80 112 138 170 219 275 322
#     4  12  22  37  59  81 109 144 182 228 277 321
#     4  10  19  32  50  76 113 144 170 212 275 330
#     4  10  20  32  55  82 108 138 182 223 266 320
#
# _framework density 18.765711
#
# number of rings (size 3 to 8) (size 9 to 14) (size 15 to 20)
#    0.000    1.500    2.500    3.750    0.000    1.000 
#    0.000    2.500    0.000    0.000    0.000    0.000 
#    0.000    0.000    0.000    0.000    0.000    0.000 
#
# Total GULP energy -396816.413348 kJ/mol
# GULP energy per Si atom -12400.512917 kJ/mol
# Density = 1.872300 g / cm^3
# Si number density = 18.765711 Si / 1000 Ang^3
#
#
#
# Elastic Constant Matrix: (Units=GPa)
#
#
# Indices 1 2 3 4 5 6 
#
# 1 91.2626 47.1088 20.3231 0.0000 -6.6897 0.0000
# 2 47.1088 84.2139 14.0700 0.0000 -5.7508 0.0000
# 3 20.3231 14.0700 109.0344 0.0000 9.1384 0.0000
# 4 0.0000 0.0000 0.0000 24.5723 0.0000 -3.7000
# 5 -6.6897 -5.7508 9.1384 0.0000 21.6134 0.0000
# 6 0.0000 0.0000 0.0000 -3.7000 0.0000 32.6080
#
#
#
# Elastic Compliance Matrix: (Units=1/GPa)
#
#
# Indices 1 2 3 4 5 6 
#
# 1 0.016028 -0.008344 -0.002219 0.000000 0.003679 0.000000
# 2 -0.008344 0.016829 -0.000804 0.000000 0.002235 0.000000
# 3 -0.002219 -0.000804 0.010123 0.000000 -0.005181 0.000000
# 4 0.000000 0.000000 0.000000 0.041404 0.000000 0.004698
# 5 0.003679 0.002235 -0.005181 0.000000 0.050191 0.000000
# 6 0.000000 0.000000 0.000000 0.004698 0.000000 0.031200
#
#
# Mechanical properties :
#
#
# Convention : Reuss Voigt Hill
#
# Bulk Modulus (GPa) = 49.39147 49.72384 49.55765
# Shear Modulus (GPa) = 25.60701 29.29268 27.44985
#
# Velocity S-wave (km/s) = 3.69801 3.95520 3.82876
# Velocity P-wave (km/s) = 6.67914 6.88569 6.78320
#
# Compressibility (1/GPa) = 0.02024641
#
# Stress axis : x y z
#
# Youngs Moduli (GPa) = 62.38901 59.42084 98.78510
#
# Poissons Ratio (x) = 0.49582 0.21922
# Poissons Ratio (y) = 0.52059 0.07939
# Poissons Ratio (z) = 0.13845 0.04775
#
# Static dielectric constant tensor:
#      x y z
#    x 3.442640 0.000000 0.044310 
#    y 0.000000 3.382510 0.000000 
#    z 0.044310 0.000000 3.638970 
# 
# 
# High freq. dielectric constant tensor:
#      x y z
#    x 1.718440 0.000000 0.007670 
#    y 0.000000 1.708300 0.000000 
#    z 0.007670 0.000000 1.754800 
# 
# From -- ./inp_files/52690.got.cif
#   From: 2010.06.25/outbox.cif.g09.slc.cpg/sg11_27_cif.got.tgz:52690.got - 2010.06.27 23:14:04.
