data_PCOD8070686
_publ_section_title
;
Structure prediction by ZEFSAII (Michael W. Deem and Ramdas Pophale) SiO2 
 PCOD8070686
Probable space group: P 21/M
;
_chemical_formula_sum "Si O2"
_cell_formula_units_Z 32
_cell_length_a 22.589473
_cell_length_b 8.946417
_cell_length_c 27.642773
_cell_angle_alpha 90.000000
_cell_angle_beta 18.593439
_cell_angle_gamma 90.000000
_cell_volume 1781.247729
_symmetry_space_group_name_H-M "P 21/M"
_symmetry_group_IT_number 11
_symmetry_cell_setting 'monoclinic'
loop_
_space_group_symop_operation_xyz
x,y,z
-x,1/2+y,-z
-x,-y,-z
x,1/2-y,z
loop_
_atom_site_type_symbol
_atom_site_label
_atom_site_fract_x
_atom_site_fract_y
_atom_site_fract_z
Si Si1 0.206230 0.419353 0.758690
Si Si2 0.827866 0.427186 0.660937
Si Si3 0.797450 0.926650 0.964711
Si Si4 0.686078 0.078389 0.869376
Si Si5 0.561727 0.073565 0.066261
Si Si6 0.174980 0.075674 0.674014
Si Si7 0.432875 0.576230 0.664880
Si Si8 0.214579 0.577231 0.924447
O O1 0.272517 0.250000 0.713324
O O2 0.234891 0.473944 0.681444
O O3 0.333501 0.515429 0.694623
O O4 0.990421 0.438378 0.939233
O O5 0.829184 0.250000 0.650146
O O6 0.844467 0.463657 0.706634
O O7 0.636134 0.496698 0.790276
O O8 0.000000 0.500000 0.500000
O O9 0.784214 0.750000 0.970149
O O10 0.000940 0.980801 0.790086
O O11 0.641804 0.002368 0.052551
O O12 0.758434 0.975859 0.049637
O O13 0.642090 0.250000 0.896804
O O14 0.715026 0.042966 0.904192
O O15 0.500000 0.000000 0.000000
O O16 0.529716 0.250000 0.098226
O O17 0.116709 0.250000 0.719713
O O18 0.347674 0.042449 0.505262
O O19 0.390809 0.750000 0.696568
O O20 0.352920 0.510795 0.776776
O O21 0.255563 0.750000 0.906407
#
# Coordination Sequence:
#
# PCOD8070686 Si02
#       8
#     4   4   4   4   4   4   4   4
#     4   9  17  29  47  71 102 133 163 202 253 308
#     4  10  19  33  53  83 117 143 170 206 247 293
#     4  11  22  36  54  75  97 130 173 214 253 300
#     4   8  16  30  51  77 104 134 169 204 241 285
#     4  10  19  35  58  79 101 136 174 210 252 299
#     4   9  19  35  51  71  99 131 165 207 254 304
#     4  10  19  31  51  75  99 128 165 207 257 309
#     4   9  19  35  51  71 100 135 170 208 253 306
#
# _framework density 17.964935000000001
#
# number of rings (size 3 to 8) (size 9 to 14) (size 15 to 20)
#    0.000    2.500    0.000    3.375    0.000    4.000 
#    0.000    1.250    0.000    3.000    0.000    0.000 
#    0.000    0.000    0.000    0.000    0.000    0.000 
#
# Total GULP energy -396545.245664 kJ/mol
# GULP energy per Si atom -12392.038927 kJ/mol
# Density = 1.792405 g / cm^3
# Si number density = 17.964935 Si / 1000 Ang^3
#
#
#
# Elastic Constant Matrix: (Units=GPa)
#
#
# Indices 1 2 3 4 5 6 
#
# 1 60.4098 32.5441 37.3611 0.0000 -7.2660 0.0000
# 2 32.5441 71.9885 36.9575 0.0000 -1.3987 0.0000
# 3 37.3611 36.9575 97.8702 0.0000 13.8289 0.0000
# 4 0.0000 0.0000 0.0000 26.5826 0.0000 -4.0873
# 5 -7.2660 -1.3987 13.8289 0.0000 24.2632 0.0000
# 6 0.0000 0.0000 0.0000 -4.0873 0.0000 25.3557
#
#
#
# Elastic Compliance Matrix: (Units=1/GPa)
#
#
# Indices 1 2 3 4 5 6 
#
# 1 0.028383 -0.007448 -0.009965 0.000000 0.013750 0.000000
# 2 -0.007448 0.019790 -0.004868 0.000000 0.001685 0.000000
# 3 -0.009965 -0.004868 0.017751 0.000000 -0.013382 0.000000
# 4 0.000000 0.000000 0.000000 0.038575 0.000000 0.006218
# 5 0.013750 0.001685 -0.013382 0.000000 0.053057 0.000000
# 6 0.000000 0.000000 0.000000 0.006218 0.000000 0.040441
#
#
# Mechanical properties :
#
#
# Convention : Reuss Voigt Hill
#
# Bulk Modulus (GPa) = 46.81357 49.33266 48.07312
# Shear Modulus (GPa) = 20.02568 23.46735 21.74651
#
# Velocity S-wave (km/s) = 3.34235 3.61818 3.48300
# Velocity P-wave (km/s) = 6.40390 6.70635 6.55687
#
# Compressibility (1/GPa) = 0.02136133
#
# Stress axis : x y z
#
# Youngs Moduli (GPa) = 35.23232 50.53055 56.33535
#
# Poissons Ratio (x) = 0.37636 0.56140
# Poissons Ratio (y) = 0.26241 0.27423
# Poissons Ratio (z) = 0.35110 0.24598
#
# Static dielectric constant tensor:
#      x y z
#    x 3.479840 0.000000 0.376770 
#    y 0.000000 3.321730 0.000000 
#    z 0.376770 0.000000 3.417470 
# 
# 
# High freq. dielectric constant tensor:
#      x y z
#    x 1.687830 0.000000 0.020080 
#    y 0.000000 1.695680 0.000000 
#    z 0.020080 0.000000 1.688330 
# 
# From -- ./inp_files/67058.got.cif
#   From: 2010.06.25/outbox.cif.g09.slc.cpg/sg11_34_cif.got.tgz:67058.got - 2010.06.27 23:14:04.
