data_PCOD8070735
_publ_section_title
;
Structure prediction by ZEFSAII (Michael W. Deem and Ramdas Pophale) SiO2 
 PCOD8070735
Probable space group: P 21/M
;
_chemical_formula_sum "Si O2"
_cell_formula_units_Z 32
_cell_length_a 20.671874
_cell_length_b 9.348899
_cell_length_c 26.197884
_cell_angle_alpha 90.000000
_cell_angle_beta 21.097969
_cell_angle_gamma 90.000000
_cell_volume 1822.490544
_symmetry_space_group_name_H-M "P 21/M"
_symmetry_group_IT_number 11
_symmetry_cell_setting 'monoclinic'
loop_
_space_group_symop_operation_xyz
x,y,z
-x,1/2+y,-z
-x,-y,-z
x,1/2-y,z
loop_
_atom_site_type_symbol
_atom_site_label
_atom_site_fract_x
_atom_site_fract_y
_atom_site_fract_z
Si Si1 0.058988 0.913177 0.612965
Si Si2 0.955150 0.416188 0.224807
Si Si3 0.725144 0.417227 0.190928
Si Si4 0.994059 0.584716 0.928568
Si Si5 0.822652 0.415198 0.862389
Si Si6 0.930044 0.915185 0.599081
Si Si7 0.637347 0.086549 0.533932
Si Si8 0.456637 0.414342 0.082171
O O1 0.996331 0.750000 0.669953
O O2 0.256999 0.937018 0.490574
O O3 0.060236 0.944237 0.551696
O O4 0.917536 0.018218 0.743128
O O5 0.999912 0.250000 0.199736
O O6 0.767292 0.453615 0.390841
O O7 0.942981 0.457803 0.174462
O O8 0.117213 0.505337 0.130366
O O9 0.708323 0.250000 0.191643
O O10 0.529209 0.480632 0.344370
O O11 0.838128 0.448972 0.158665
O O12 0.821628 0.491490 0.071661
O O13 0.936660 0.750000 0.974327
O O14 0.878428 0.250000 0.825244
O O15 0.609166 0.434339 0.012965
O O16 0.927880 0.750000 0.585702
O O17 0.729963 0.971207 0.757846
O O18 0.000000 0.000000 0.500000
O O19 0.570034 0.250000 0.578566
O O20 0.437845 0.250000 0.079454
O O21 0.500000 0.500000 0.000000
#
# Coordination Sequence:
#
# PCOD8070735 Si02
#       8
#     4   4   4   4   4   4   4   4
#     4   9  18  35  56  74 102 142 179 212 253 311
#     4   9  19  36  56  77 104 140 176 213 255 306
#     4  10  20  34  54  80 107 138 174 213 259 308
#     4   9  19  37  57  76 104 140 177 214 254 305
#     4  10  19  31  52  82 109 132 167 217 268 309
#     4  10  21  37  54  75 105 139 176 218 262 308
#     4   9  18  33  54  78 104 136 175 213 254 308
#     4  10  20  34  55  79 104 135 174 217 260 309
#
# _framework density 17.558389999999999
#
# number of rings (size 3 to 8) (size 9 to 14) (size 15 to 20)
#    0.000    2.500    1.250    1.500    0.000    5.000 
#    2.250    0.000    0.000    0.000    0.000    0.000 
#    0.000    0.000    0.000    0.000    0.000    0.000 
#
# Total GULP energy -396828.592578 kJ/mol
# GULP energy per Si atom -12400.893518 kJ/mol
# Density = 1.751843 g / cm^3
# Si number density = 17.558390 Si / 1000 Ang^3
#
#
#
# Elastic Constant Matrix: (Units=GPa)
#
#
# Indices 1 2 3 4 5 6 
#
# 1 121.1111 56.5923 72.4172 0.0000 13.4558 0.0000
# 2 56.5923 83.5865 64.3156 0.0000 1.9846 0.0000
# 3 72.4172 64.3156 123.2947 0.0000 3.5782 0.0000
# 4 0.0000 0.0000 0.0000 32.8245 0.0000 -0.0458
# 5 13.4558 1.9846 3.5782 0.0000 25.8995 0.0000
# 6 0.0000 0.0000 0.0000 -0.0458 0.0000 29.8077
#
#
#
# Elastic Compliance Matrix: (Units=1/GPa)
#
#
# Indices 1 2 3 4 5 6 
#
# 1 0.015028 -0.005636 -0.005696 0.000000 -0.006589 0.000000
# 2 -0.005636 0.022099 -0.008287 0.000000 0.002380 0.000000
# 3 -0.005696 -0.008287 0.015737 0.000000 0.001420 0.000000
# 4 0.000000 0.000000 0.000000 0.030465 0.000000 0.000047
# 5 -0.006589 0.002380 0.001420 0.000000 0.041655 0.000000
# 6 0.000000 0.000000 0.000000 0.000047 0.000000 0.033548
#
#
# Mechanical properties :
#
#
# Convention : Reuss Voigt Hill
#
# Bulk Modulus (GPa) = 73.37641 79.40471 76.39056
# Shear Modulus (GPa) = 24.71425 26.68417 25.69921
#
# Velocity S-wave (km/s) = 3.75580 3.90261 3.82991
# Velocity P-wave (km/s) = 7.79029 8.10115 7.94724
#
# Compressibility (1/GPa) = 0.01362836
#
# Stress axis : x y z
#
# Youngs Moduli (GPa) = 66.54212 45.25083 63.54281
#
# Poissons Ratio (x) = 0.25503 0.36192
# Poissons Ratio (y) = 0.37502 0.52655
# Poissons Ratio (z) = 0.37900 0.37498
#
# Static dielectric constant tensor:
#      x y z
#    x 3.415460 0.000000 -0.160010 
#    y 0.000000 3.282740 0.000000 
#    z -0.160010 0.000000 3.549700 
# 
# 
# High freq. dielectric constant tensor:
#      x y z
#    x 1.680670 0.000000 -0.007420 
#    y 0.000000 1.681530 0.000000 
#    z -0.007420 0.000000 1.668190 
# 
# From -- ./inp_files/71969.got.cif
#   From: 2010.06.25/outbox.cif.g09.slc.cpg/sg11_36_cif.got.tgz:71969.got - 2010.06.27 23:14:04.
