data_PCOD8070533
_publ_section_title
;
Structure prediction by ZEFSAII (Michael W. Deem and Ramdas Pophale) SiO2 
 PCOD8070533
Probable space group: P 21/M
;
_chemical_formula_sum "Si O2"
_cell_formula_units_Z 28
_cell_length_a 17.924957
_cell_length_b 8.943108
_cell_length_c 11.408581
_cell_angle_alpha 90.000000
_cell_angle_beta 127.328868
_cell_angle_gamma 90.000000
_cell_volume 1454.243576
_symmetry_space_group_name_H-M "P 21/M"
_symmetry_group_IT_number 11
_symmetry_cell_setting 'monoclinic'
loop_
_space_group_symop_operation_xyz
x,y,z
-x,1/2+y,-z
-x,-y,-z
x,1/2-y,z
loop_
_atom_site_type_symbol
_atom_site_label
_atom_site_fract_x
_atom_site_fract_y
_atom_site_fract_z
Si Si1 0.253287 0.075602 0.113795
Si Si2 0.396496 0.416251 0.440259
Si Si3 0.098327 0.572898 0.122770
Si Si4 0.690984 0.082929 0.299444
Si Si5 0.209807 0.081533 0.417335
Si Si6 0.504723 0.082759 0.273342
Si Si7 0.659124 0.426022 0.006462
O O1 0.225907 0.250000 0.094039
O O2 0.357784 0.047457 0.271443
O O3 0.173671 0.980011 0.099539
O O4 0.260942 0.016256 0.988519
O O5 0.438955 0.250000 0.489193
O O6 0.303093 0.425641 0.429014
O O7 0.474231 0.531247 0.569898
O O8 0.089785 0.750000 0.111794
O O9 0.129999 0.520211 0.281970
O O10 0.000000 0.500000 0.000000
O O11 0.731756 0.250000 0.326841
O O12 0.601633 0.084156 0.297522
O O13 0.770390 0.979010 0.433055
O O14 0.664858 0.020773 0.146358
O O15 0.171776 0.250000 0.390259
O O16 0.460696 0.250000 0.235537
O O17 0.442076 0.968315 0.140827
O O18 0.674488 0.250000 0.007158
#
# Coordination Sequence:
#
# PCOD8070533 Si02
#       7
#     4   4   4   4   4   4   4
#     4  10  21  37  54  76 105 136 173 213 260 316
#     4   8  16  31  49  69  97 131 168 214 261 308
#     4  11  21  36  60  87 112 135 163 203 252 307
#     4   9  19  34  51  73 102 139 183 223 259 304
#     4   9  17  31  53  80 106 134 170 211 256 303
#     4  10  19  31  49  72  98 133 180 228 266 303
#     4  11  22  34  49  71 103 142 180 220 265 310
#
# _framework density 19.253993999999999
#
# number of rings (size 3 to 8) (size 9 to 14) (size 15 to 20)
#    0.000    2.286    0.000    4.286    0.000    6.286 
#    0.000    0.000    0.000    0.857    0.000    0.000 
#    0.000    0.000    0.000    0.000    0.000    0.000 
#
# Total GULP energy -347222.026441 kJ/mol
# GULP energy per Si atom -12400.786659 kJ/mol
# Density = 1.921017 g / cm^3
# Si number density = 19.253994 Si / 1000 Ang^3
#
#
#
# Elastic Constant Matrix: (Units=GPa)
#
#
# Indices 1 2 3 4 5 6 
#
# 1 32.1010 28.4148 36.2461 0.0000 -6.0180 0.0000
# 2 28.4148 134.0151 60.2101 0.0000 0.4149 0.0000
# 3 36.2461 60.2101 125.6163 0.0000 -20.2286 0.0000
# 4 0.0000 0.0000 0.0000 35.2175 0.0000 1.9472
# 5 -6.0180 0.4149 -20.2286 0.0000 38.0295 0.0000
# 6 0.0000 0.0000 0.0000 1.9472 0.0000 27.7029
#
#
#
# Elastic Compliance Matrix: (Units=1/GPa)
#
#
# Indices 1 2 3 4 5 6 
#
# 1 0.048930 -0.005311 -0.011283 0.000000 0.001799 0.000000
# 2 -0.005311 0.010360 -0.003923 0.000000 -0.003040 0.000000
# 3 -0.011283 -0.003923 0.014017 0.000000 0.005713 0.000000
# 4 0.000000 0.000000 0.000000 0.028506 0.000000 -0.002004
# 5 0.001799 -0.003040 0.005713 0.000000 0.029652 0.000000
# 6 0.000000 0.000000 0.000000 -0.002004 0.000000 0.036238
#
#
# Mechanical properties :
#
#
# Convention : Reuss Voigt Hill
#
# Bulk Modulus (GPa) = 30.98568 60.16381 45.57475
# Shear Modulus (GPa) = 22.77968 31.31408 27.04688
#
# Velocity S-wave (km/s) = 3.44338 4.03720 3.75205
# Velocity P-wave (km/s) = 5.65130 7.28336 6.51861
#
# Compressibility (1/GPa) = 0.03227297
#
# Stress axis : x y z
#
# Youngs Moduli (GPa) = 20.43728 96.52822 71.34326
#
# Poissons Ratio (x) = 0.51263 0.80499
# Poissons Ratio (y) = 0.10854 0.27986
# Poissons Ratio (z) = 0.23060 0.37865
#
# Static dielectric constant tensor:
#      x y z
#    x 3.391660 0.000000 -0.178660 
#    y 0.000000 3.688540 0.000000 
#    z -0.178660 0.000000 3.728340 
# 
# 
# High freq. dielectric constant tensor:
#      x y z
#    x 1.731160 0.000000 -0.016170 
#    y 0.000000 1.759500 0.000000 
#    z -0.016170 0.000000 1.746950 
# 
# From -- ./inp_files/42621.got.cif
#   From: 2010.06.25/outbox.cif.g09.slc.cpg/sg11_22_cif.got.tgz:42621.got - 2010.06.27 23:14:04.
