data_PCOD8070557
_publ_section_title
;
Structure prediction by ZEFSAII (Michael W. Deem and Ramdas Pophale) SiO2 
 PCOD8070557
Probable space group: P 21/M
;
_chemical_formula_sum "Si O2"
_cell_formula_units_Z 24
_cell_length_a 11.147756
_cell_length_b 9.082379
_cell_length_c 19.484875
_cell_angle_alpha 90.000000
_cell_angle_beta 136.228095
_cell_angle_gamma 90.000000
_cell_volume 1364.766838
_symmetry_space_group_name_H-M "P 21/M"
_symmetry_group_IT_number 11
_symmetry_cell_setting 'monoclinic'
loop_
_space_group_symop_operation_xyz
x,y,z
-x,1/2+y,-z
-x,-y,-z
x,1/2-y,z
loop_
_atom_site_type_symbol
_atom_site_label
_atom_site_fract_x
_atom_site_fract_y
_atom_site_fract_z
Si Si1 0.373388 0.419026 0.035642
Si Si2 0.301995 0.916696 0.273901
Si Si3 0.177279 0.421052 0.090610
Si Si4 0.614147 0.579885 0.491244
Si Si5 0.753779 0.078709 0.145581
Si Si6 0.908234 0.077887 0.674737
O O1 0.332952 0.250000 0.999352
O O2 0.317439 0.455983 0.089670
O O3 0.576991 0.452556 0.113702
O O4 0.262572 0.520506 0.938839
O O5 0.261796 0.750000 0.233807
O O6 0.507527 0.934058 0.375879
O O7 0.184917 0.955576 0.291468
O O8 0.255814 0.026778 0.194551
O O9 0.137042 0.250000 0.079557
O O10 0.000000 0.500000 0.000000
O O11 0.500000 0.500000 0.500000
O O12 0.638634 0.750000 0.521632
O O13 0.800890 0.499237 0.568093
O O14 0.801459 0.250000 0.162649
O O15 0.901262 0.990835 0.246764
O O16 0.919527 0.250000 0.663815
#
# Coordination Sequence:
#
# PCOD8070557 Si02
#       6
#     4   4   4   4   4   4
#     4   9  20  36  49  68  99 129 159 199 244 284
#     4   9  19  33  48  70 101 130 156 194 240 282
#     4  11  22  34  50  71  98 130 161 195 235 284
#     4   9  17  30  48  71  99 129 160 198 242 285
#     4  10  19  32  52  73  94 125 163 201 241 287
#     4  10  19  31  49  74 102 128 158 200 244 285
#
# _framework density 17.585421
#
# number of rings (size 3 to 8) (size 9 to 14) (size 15 to 20)
#    0.000    2.333    0.000    4.000    0.000   10.000 
#    0.000    0.000    0.000    1.000    0.000    0.000 
#    0.000    0.000    0.000    0.000    0.000    0.000 
#
# Total GULP energy -297586.928673 kJ/mol
# GULP energy per Si atom -12399.455361 kJ/mol
# Density = 1.754540 g / cm^3
# Si number density = 17.585421 Si / 1000 Ang^3
#
#
#
# Elastic Constant Matrix: (Units=GPa)
#
#
# Indices 1 2 3 4 5 6 
#
# 1 55.4050 38.1362 37.2538 0.0000 3.1048 0.0000
# 2 38.1362 117.5227 69.9554 0.0000 7.9165 0.0000
# 3 37.2538 69.9554 126.7425 0.0000 17.1207 0.0000
# 4 0.0000 0.0000 0.0000 39.6811 0.0000 2.2227
# 5 3.1048 7.9165 17.1207 0.0000 24.1381 0.0000
# 6 0.0000 0.0000 0.0000 2.2227 0.0000 24.1084
#
#
#
# Elastic Compliance Matrix: (Units=1/GPa)
#
#
# Indices 1 2 3 4 5 6 
#
# 1 0.024737 -0.005474 -0.004493 0.000000 0.001800 0.000000
# 2 -0.005474 0.013901 -0.006130 0.000000 0.000493 0.000000
# 3 -0.004493 -0.006130 0.013542 0.000000 -0.007017 0.000000
# 4 0.000000 0.000000 0.000000 0.025332 0.000000 -0.002336
# 5 0.001800 0.000493 -0.007017 0.000000 0.046012 0.000000
# 6 0.000000 0.000000 0.000000 -0.002336 0.000000 0.041695
#
#
# Mechanical properties :
#
#
# Convention : Reuss Voigt Hill
#
# Bulk Modulus (GPa) = 50.03563 65.59565 57.81564
# Shear Modulus (GPa) = 24.50084 27.87383 26.18734
#
# Velocity S-wave (km/s) = 3.73667 3.98559 3.86314
# Velocity P-wave (km/s) = 6.86525 7.65259 7.26958
#
# Compressibility (1/GPa) = 0.01998576
#
# Stress axis : x y z
#
# Youngs Moduli (GPa) = 40.42560 71.93617 73.84401
#
# Poissons Ratio (x) = 0.39378 0.33176
# Poissons Ratio (y) = 0.22129 0.45269
# Poissons Ratio (z) = 0.18162 0.44099
#
# Static dielectric constant tensor:
#      x y z
#    x 3.050500 0.000000 0.162890 
#    y 0.000000 3.503440 0.000000 
#    z 0.162890 0.000000 3.436000 
# 
# 
# High freq. dielectric constant tensor:
#      x y z
#    x 1.643330 0.000000 0.017470 
#    y 0.000000 1.695860 0.000000 
#    z 0.017470 0.000000 1.688070 
# 
# From -- ./inp_files/40334.got.cif
#   From: 2010.06.25/outbox.cif.g09.slc.cpg/sg11_21_cif.got.tgz:40334.got - 2010.06.27 23:14:04.
