data_PCOD8070008
_publ_section_title
;
Structure prediction by ZEFSAII (Michael W. Deem and Ramdas Pophale) SiO2 
 PCOD8070008
Probable space group: P 21/M
;
_chemical_formula_sum "Si O2"
_cell_formula_units_Z 32
_cell_length_a 26.043931
_cell_length_b 9.171357
_cell_length_c 13.726678
_cell_angle_alpha 90.000000
_cell_angle_beta 147.166797
_cell_angle_gamma 90.000000
_cell_volume 1777.711463
_symmetry_space_group_name_H-M "P 21/M"
_symmetry_group_IT_number 11
_symmetry_cell_setting 'monoclinic'
loop_
_space_group_symop_operation_xyz
x,y,z
-x,1/2+y,-z
-x,-y,-z
x,1/2-y,z
loop_
_atom_site_type_symbol
_atom_site_label
_atom_site_fract_x
_atom_site_fract_y
_atom_site_fract_z
Si Si1 0.232989 0.421589 0.883918
Si Si2 0.618754 0.421454 0.996484
Si Si3 0.901416 0.080553 0.943320
Si Si4 0.870141 0.082036 0.107099
Si Si5 0.050336 0.414709 0.497591
Si Si6 0.534643 0.081174 0.150271
Si Si7 0.881282 0.920888 0.721973
Si Si8 0.274166 0.584829 0.633210
O O1 0.254813 0.250000 0.928472
O O2 0.328531 0.509436 0.012855
O O3 0.188958 0.477582 0.915882
O O4 0.161669 0.457829 0.678192
O O5 0.604529 0.250000 0.958268
O O6 0.677850 0.458398 0.188065
O O7 0.515433 0.499331 0.838556
O O8 0.893501 0.250000 0.903751
O O9 0.851166 0.989176 0.778029
O O10 0.846948 0.045772 0.957770
O O11 0.011080 0.034763 0.128936
O O12 0.845025 0.250000 0.092302
O O13 0.986140 0.060450 0.299120
O O14 0.046270 0.250000 0.525841
O O15 0.000000 0.500000 0.500000
O O16 0.502910 0.250000 0.097083
O O17 0.648959 0.068982 0.332347
O O18 0.500000 0.000000 0.000000
O O19 0.865695 0.750000 0.701410
O O20 0.815109 0.981931 0.530296
O O21 0.236789 0.750000 0.578964
#
# Coordination Sequence:
#
# PCOD8070008 Si02
#       8
#     4   4   4   4   4   4   4   4
#     4  10  19  29  44  68  96 125 159 199 237 280
#     4  10  20  32  47  70 100 132 163 195 234 282
#     4   9  19  34  50  67  94 128 161 202 246 281
#     4   9  17  31  48  63  88 126 163 198 238 283
#     4   8  15  26  40  58  84 116 153 191 226 268
#     4   9  17  31  49  70  97 127 158 194 237 284
#     4  10  20  32  50  73  95 122 160 203 242 285
#     4   9  19  33  49  70  97 127 158 193 238 286
#
# _framework density 18.000671000000001
#
# number of rings (size 3 to 8) (size 9 to 14) (size 15 to 20)
#    0.000    2.750    0.000    2.250    1.750    4.500 
#    0.000    0.000    0.000    0.000    0.000    0.875 
#    0.000    0.000    0.000    0.000    0.000    0.000 
#
# Total GULP energy -396443.382305 kJ/mol
# GULP energy per Si atom -12388.855697 kJ/mol
# Density = 1.795970 g / cm^3
# Si number density = 18.000671 Si / 1000 Ang^3
#
#
#
# Elastic Constant Matrix: (Units=GPa)
#
#
# Indices 1 2 3 4 5 6 
#
# 1 67.7457 26.4920 1.8764 0.0000 6.9211 0.0000
# 2 26.4920 78.7356 13.0742 0.0000 6.4914 0.0000
# 3 1.8764 13.0742 21.9927 0.0000 0.3183 0.0000
# 4 0.0000 0.0000 0.0000 25.8723 0.0000 2.2384
# 5 6.9211 6.4914 0.3183 0.0000 23.0710 0.0000
# 6 0.0000 0.0000 0.0000 2.2384 0.0000 28.3106
#
#
#
# Elastic Compliance Matrix: (Units=1/GPa)
#
#
# Indices 1 2 3 4 5 6 
#
# 1 0.017375 -0.005895 0.002074 0.000000 -0.003582 0.000000
# 2 -0.005895 0.016442 -0.009232 0.000000 -0.002730 0.000000
# 3 0.002074 -0.009232 0.050763 0.000000 0.001275 0.000000
# 4 0.000000 0.000000 0.000000 0.038918 0.000000 -0.003077
# 5 -0.003582 -0.002730 0.001275 0.000000 0.045170 0.000000
# 6 0.000000 0.000000 0.000000 -0.003077 0.000000 0.035566
#
#
# Mechanical properties :
#
#
# Convention : Reuss Voigt Hill
#
# Bulk Modulus (GPa) = 17.10185 27.92881 22.51533
# Shear Modulus (GPa) = 20.01353 23.91953 21.96653
#
# Velocity S-wave (km/s) = 3.33802 3.64924 3.49709
# Velocity P-wave (km/s) = 4.93738 5.77106 5.37042
#
# Compressibility (1/GPa) = 0.05847321
#
# Stress axis : x y z
#
# Youngs Moduli (GPa) = 57.55424 60.81828 19.69952
#
# Poissons Ratio (x) = 0.35853 -0.04086
# Poissons Ratio (y) = 0.33929 0.18187
# Poissons Ratio (z) = -0.11937 0.56149
#
# Static dielectric constant tensor:
#      x y z
#    x 4.283530 0.000000 -1.725590 
#    y 0.000000 3.363350 0.000000 
#    z -1.725590 0.000000 8.060610 
# 
# 
# High freq. dielectric constant tensor:
#      x y z
#    x 1.686210 0.000000 0.013220 
#    y 0.000000 1.705850 0.000000 
#    z 0.013220 0.000000 1.654560 
# 
# From -- ./inp_files/56204.got.cif
#   From: 2010.06.25/outbox.cif.g09.slc.cpg/sg11_29_cif.got.tgz:56204.got - 2010.06.27 23:14:04.
