data_PCOD8070430
_publ_section_title
;
Structure prediction by ZEFSAII (Michael W. Deem and Ramdas Pophale) SiO2 
 PCOD8070430
Probable space group: P 21/M
;
_chemical_formula_sum "Si O2"
_cell_formula_units_Z 32
_cell_length_a 23.536846
_cell_length_b 9.114909
_cell_length_c 9.726561
_cell_angle_alpha 90.000000
_cell_angle_beta 119.844281
_cell_angle_gamma 90.000000
_cell_volume 1809.963749
_symmetry_space_group_name_H-M "P 21/M"
_symmetry_group_IT_number 11
_symmetry_cell_setting 'monoclinic'
loop_
_space_group_symop_operation_xyz
x,y,z
-x,1/2+y,-z
-x,-y,-z
x,1/2-y,z
loop_
_atom_site_type_symbol
_atom_site_label
_atom_site_fract_x
_atom_site_fract_y
_atom_site_fract_z
Si Si1 0.810711 0.087935 0.502686
Si Si2 0.336780 0.424109 0.950286
Si Si3 0.209493 0.915804 0.846692
Si Si4 0.085851 0.081789 0.725819
Si Si5 0.945303 0.419505 0.584973
Si Si6 0.433396 0.920282 0.256137
Si Si7 0.686637 0.577950 0.388557
Si Si8 0.416894 0.420478 0.513429
O O1 0.792092 0.250000 0.531288
O O2 0.805695 0.075920 0.332355
O O3 0.887436 0.051314 0.628680
O O4 0.759203 0.980469 0.513624
O O5 0.336963 0.250000 0.967205
O O6 0.402595 0.492153 0.091951
O O7 0.274496 0.490165 0.956826
O O8 0.335013 0.474020 0.789027
O O9 0.220437 0.750000 0.911304
O O10 0.147154 0.984942 0.853059
O O11 0.109143 0.250000 0.753369
O O12 0.018985 0.060347 0.736431
O O13 0.064742 0.036616 0.547470
O O14 0.937610 0.250000 0.521758
O O15 0.414568 0.750000 0.224105
O O16 0.510932 0.945321 0.339127
O O17 0.405167 0.984472 0.363753
O O18 0.690692 0.750000 0.399769
O O19 0.633944 0.519879 0.434505
O O20 0.405470 0.250000 0.463339
#
# Coordination Sequence:
#
# PCOD8070430 Si02
#       8
#     4   4   4   4   4   4   4   4
#     4   8  14  24  37  55  82 115 148 184 226 268
#     4  10  19  31  48  70  95 123 154 188 229 276
#     4   9  16  26  38  55  83 116 149 186 227 269
#     4   9  14  20  32  50  74 108 149 187 223 266
#     4   8  14  22  31  47  75 111 148 184 223 267
#     4  10  20  34  52  72  93 120 153 188 229 275
#     4   9  18  31  47  68  93 122 155 190 229 273
#     4   9  19  36  53  69  93 122 152 189 230 272
#
# _framework density 17.679912000000002
#
# number of rings (size 3 to 8) (size 9 to 14) (size 15 to 20)
#    0.000    3.000    0.000    2.250    0.000    5.500 
#    0.000    0.000    0.000    0.000    0.000    0.000 
#    0.000    1.000    0.000    3.000    0.000    9.875 
#
# Total GULP energy -396543.285600 kJ/mol
# GULP energy per Si atom -12391.977675 kJ/mol
# Density = 1.763967 g / cm^3
# Si number density = 17.679912 Si / 1000 Ang^3
#
#
#
# Elastic Constant Matrix: (Units=GPa)
#
#
# Indices 1 2 3 4 5 6 
#
# 1 137.4390 42.3827 35.9217 0.0000 15.9105 0.0000
# 2 42.3827 67.5880 15.3422 0.0000 2.1068 0.0000
# 3 35.9217 15.3422 16.4524 0.0000 1.1923 0.0000
# 4 0.0000 0.0000 0.0000 22.9787 0.0000 8.3951
# 5 15.9105 2.1068 1.1923 0.0000 12.1868 0.0000
# 6 0.0000 0.0000 0.0000 8.3951 0.0000 27.4305
#
#
#
# Elastic Compliance Matrix: (Units=1/GPa)
#
#
# Indices 1 2 3 4 5 6 
#
# 1 0.023130 -0.003387 -0.045520 0.000000 -0.025159 0.000000
# 2 -0.003387 0.019293 -0.010751 0.000000 0.002139 0.000000
# 3 -0.045520 -0.010751 0.166935 0.000000 0.044955 0.000000
# 4 0.000000 0.000000 0.000000 0.048997 0.000000 -0.014996
# 5 -0.025159 0.002139 0.044955 0.000000 0.110134 0.000000
# 6 0.000000 0.000000 0.000000 -0.014996 0.000000 0.041045
#
#
# Mechanical properties :
#
#
# Convention : Reuss Voigt Hill
#
# Bulk Modulus (GPa) = 11.10576 45.41920 28.26248
# Shear Modulus (GPa) = 8.94670 21.04138 14.99404
#
# Velocity S-wave (km/s) = 2.25197 3.45357 2.91535
# Velocity P-wave (km/s) = 3.61345 6.45355 5.22998
#
# Compressibility (1/GPa) = 0.09004333
#
# Stress axis : x y z
#
# Youngs Moduli (GPa) = 43.23329 51.83149 5.99034
#
# Poissons Ratio (x) = 0.17557 0.27268
# Poissons Ratio (y) = 0.14645 0.06440
# Poissons Ratio (z) = 1.96798 0.55721
#
# Static dielectric constant tensor:
#      x y z
#    x 3.617170 0.000000 0.414580 
#    y 0.000000 3.331290 0.000000 
#    z 0.414580 0.000000 2.904930 
# 
# 
# High freq. dielectric constant tensor:
#      x y z
#    x 1.685910 0.000000 0.042380 
#    y 0.000000 1.691660 0.000000 
#    z 0.042380 0.000000 1.626850 
# 
# From -- ./inp_files/42539.got.cif
#   From: 2010.06.25/outbox.cif.g09.slc.cpg/sg11_22_cif.got.tgz:42539.got - 2010.06.27 23:14:04.
