data_PCOD8070477
_publ_section_title
;
Structure prediction by ZEFSAII (Michael W. Deem and Ramdas Pophale) SiO2 
 PCOD8070477
Probable space group: P 21/M
;
_chemical_formula_sum "Si O2"
_cell_formula_units_Z 28
_cell_length_a 14.099270
_cell_length_b 8.874807
_cell_length_c 13.864821
_cell_angle_alpha 90.000000
_cell_angle_beta 59.931230
_cell_angle_gamma 90.000000
_cell_volume 1501.409198
_symmetry_space_group_name_H-M "P 21/M"
_symmetry_group_IT_number 11
_symmetry_cell_setting 'monoclinic'
loop_
_space_group_symop_operation_xyz
x,y,z
-x,1/2+y,-z
-x,-y,-z
x,1/2-y,z
loop_
_atom_site_type_symbol
_atom_site_label
_atom_site_fract_x
_atom_site_fract_y
_atom_site_fract_z
Si Si1 0.868518 0.071005 0.366693
Si Si2 0.660452 0.574347 0.932288
Si Si3 0.668475 0.573881 0.386819
Si Si4 0.472901 0.924283 0.166794
Si Si5 0.886949 0.923057 0.759232
Si Si6 0.883705 0.924927 0.548846
Si Si7 0.509784 0.926219 0.641954
O O1 0.865058 0.250000 0.367949
O O2 0.992447 0.002129 0.286751
O O3 0.787279 0.006337 0.326987
O O4 0.821876 0.011328 0.493933
O O5 0.652786 0.750000 0.905281
O O6 0.609994 0.472474 0.874287
O O7 0.789150 0.525738 0.881301
O O8 0.596986 0.547341 0.064927
O O9 0.686219 0.750000 0.364674
O O10 0.601665 0.512334 0.329343
O O11 0.604407 0.533029 0.517622
O O12 0.453509 0.750000 0.201631
O O13 0.451329 0.022034 0.272743
O O14 0.914794 0.750000 0.760258
O O15 0.831530 0.948282 0.681319
O O16 0.891855 0.750000 0.516800
O O17 0.000000 0.000000 0.500000
O O18 0.485377 0.750000 0.654773
#
# Coordination Sequence:
#
# PCOD8070477 Si02
#       7
#     4   4   4   4   4   4   4
#     4  10  19  31  48  72 102 134 167 206 251 302
#     4   9  18  34  53  74 103 138 174 208 249 300
#     4  10  21  36  54  77 102 131 168 208 252 305
#     4  10  20  33  52  78 104 132 169 215 257 296
#     4   8  16  30  48  69  97 135 171 203 244 296
#     4   9  16  27  42  64  95 131 170 203 242 292
#     4  10  21  37  56  75 100 134 167 207 256 305
#
# _framework density 18.649146999999999
#
# number of rings (size 3 to 8) (size 9 to 14) (size 15 to 20)
#    0.000    2.571    0.000    3.000    2.000    2.286 
#    0.000    3.571    0.000    0.857    0.000    0.000 
#    0.000    0.000    0.000    0.000    0.000    0.000 
#
# Total GULP energy -346954.731046 kJ/mol
# GULP energy per Si atom -12391.240394 kJ/mol
# Density = 1.860670 g / cm^3
# Si number density = 18.649147 Si / 1000 Ang^3
#
#
#
# Elastic Constant Matrix: (Units=GPa)
#
#
# Indices 1 2 3 4 5 6 
#
# 1 72.5668 19.4084 9.3290 0.0000 -12.5465 0.0000
# 2 19.4084 65.1611 16.3915 0.0000 -4.3905 0.0000
# 3 9.3290 16.3915 45.7835 0.0000 -6.1650 0.0000
# 4 0.0000 0.0000 0.0000 21.8457 0.0000 4.5138
# 5 -12.5465 -4.3905 -6.1650 0.0000 26.7037 0.0000
# 6 0.0000 0.0000 0.0000 4.5138 0.0000 30.7744
#
#
#
# Elastic Compliance Matrix: (Units=1/GPa)
#
#
# Indices 1 2 3 4 5 6 
#
# 1 0.016162 -0.004133 -0.000911 0.000000 0.006704 0.000000
# 2 -0.004133 0.017975 -0.005632 0.000000 -0.000287 0.000000
# 3 -0.000911 -0.005632 0.024627 0.000000 0.004332 0.000000
# 4 0.000000 0.000000 0.000000 0.047206 0.000000 -0.006924
# 5 0.006704 -0.000287 0.004332 0.000000 0.041551 0.000000
# 6 0.000000 0.000000 0.000000 -0.006924 0.000000 0.033510
#
#
# Mechanical properties :
#
#
# Convention : Reuss Voigt Hill
#
# Bulk Modulus (GPa) = 26.72894 30.41877 28.57385
# Shear Modulus (GPa) = 23.27169 25.09026 24.18098
#
# Velocity S-wave (km/s) = 3.53635 3.67193 3.60478
# Velocity P-wave (km/s) = 5.57118 5.85866 5.71673
#
# Compressibility (1/GPa) = 0.03741264
#
# Stress axis : x y z
#
# Youngs Moduli (GPa) = 61.87372 55.63273 40.60566
#
# Poissons Ratio (x) = 0.22993 0.03698
# Poissons Ratio (y) = 0.25573 0.22869
# Poissons Ratio (z) = 0.05635 0.31332
#
# Static dielectric constant tensor:
#      x y z
#    x 3.493650 0.000000 -0.095100 
#    y 0.000000 3.420320 0.000000 
#    z -0.095100 0.000000 3.682930 
# 
# 
# High freq. dielectric constant tensor:
#      x y z
#    x 1.719270 0.000000 -0.015040 
#    y 0.000000 1.721290 0.000000 
#    z -0.015040 0.000000 1.695720 
# 
# From -- ./inp_files/37925.got.cif
#   From: 2010.06.25/outbox.cif.g09.slc.cpg/sg11_19_cif.got.tgz:37925.got - 2010.06.27 23:14:04.
