data_PCOD8070857
_publ_section_title
;
Structure prediction by ZEFSAII (Michael W. Deem and Ramdas Pophale) SiO2 
 PCOD8070857
Probable space group: P 21/M
;
_chemical_formula_sum "Si O2"
_cell_formula_units_Z 32
_cell_length_a 31.688886
_cell_length_b 9.045405
_cell_length_c 12.175685
_cell_angle_alpha 90.000000
_cell_angle_beta 29.580529
_cell_angle_gamma 90.000000
_cell_volume 1722.837544
_symmetry_space_group_name_H-M "P 21/M"
_symmetry_group_IT_number 11
_symmetry_cell_setting 'monoclinic'
loop_
_space_group_symop_operation_xyz
x,y,z
-x,1/2+y,-z
-x,-y,-z
x,1/2-y,z
loop_
_atom_site_type_symbol
_atom_site_label
_atom_site_fract_x
_atom_site_fract_y
_atom_site_fract_z
Si Si1 0.408979 0.075400 0.193979
Si Si2 0.892959 0.923712 0.146227
Si Si3 0.627159 0.576698 0.966065
Si Si4 0.291883 0.077960 0.835834
Si Si5 0.219027 0.075664 0.233912
Si Si6 0.251500 0.076855 0.687593
Si Si7 0.912020 0.423178 0.326744
Si Si8 0.531477 0.075383 0.538046
O O1 0.424564 0.250000 0.164094
O O2 0.343247 0.017287 0.435944
O O3 0.364986 0.029197 0.178195
O O4 0.500000 0.000000 0.000000
O O5 0.880711 0.750000 0.194958
O O6 0.827947 0.988265 0.201739
O O7 0.872773 0.004812 0.305969
O O8 0.987880 0.960352 0.889515
O O9 0.634985 0.750000 0.963328
O O10 0.534386 0.525210 0.218356
O O11 0.703335 0.509498 0.867960
O O12 0.318523 0.250000 0.780136
O O13 0.238926 0.040565 0.844883
O O14 0.375997 0.980532 0.638601
O O15 0.235575 0.035826 0.068997
O O16 0.206942 0.250000 0.277285
O O17 0.132744 0.993580 0.465404
O O18 0.251626 0.250000 0.666103
O O19 0.894548 0.250000 0.362658
O O20 0.533391 0.250000 0.516630
O O21 0.500000 0.000000 0.500000
#
# Coordination Sequence:
#
# PCOD8070857 Si02
#       8
#     4   4   4   4   4   4   4   4
#     4  10  19  32  50  72 100 131 167 209 254 303
#     4   9  18  36  59  80 105 139 172 209 264 320
#     4   9  18  32  50  71  97 135 175 208 253 314
#     4  10  20  35  54  77 103 137 183 222 257 311
#     4  10  19  34  53  73 103 139 173 212 263 318
#     4   9  18  34  57  78 100 138 182 214 250 315
#     4  10  20  33  54  84 110 130 168 222 266 310
#     4  11  20  33  51  73 103 139 180 222 265 310
#
# _framework density 18.574009
#
# number of rings (size 3 to 8) (size 9 to 14) (size 15 to 20)
#    0.000    2.250    1.250    2.250    0.000    3.000 
#    0.000    4.375    0.000    0.000    0.000    0.000 
#    0.000    0.000    0.000    0.000    0.000    0.000 
#
# Total GULP energy -396767.181325 kJ/mol
# GULP energy per Si atom -12398.974416 kJ/mol
# Density = 1.853173 g / cm^3
# Si number density = 18.574009 Si / 1000 Ang^3
#
#
#
# Elastic Constant Matrix: (Units=GPa)
#
#
# Indices 1 2 3 4 5 6 
#
# 1 132.3253 29.7239 65.2539 0.0000 5.4142 0.0000
# 2 29.7239 43.9518 35.9909 0.0000 2.9706 0.0000
# 3 65.2539 35.9909 126.2050 0.0000 12.5612 0.0000
# 4 0.0000 0.0000 0.0000 30.4807 0.0000 -1.1125
# 5 5.4142 2.9706 12.5612 0.0000 33.0808 0.0000
# 6 0.0000 0.0000 0.0000 -1.1125 0.0000 18.6358
#
#
#
# Elastic Compliance Matrix: (Units=1/GPa)
#
#
# Indices 1 2 3 4 5 6 
#
# 1 0.010538 -0.003472 -0.004488 0.000000 0.000291 0.000000
# 2 -0.003472 0.030838 -0.007047 0.000000 0.000475 0.000000
# 3 -0.004488 -0.007047 0.012593 0.000000 -0.003415 0.000000
# 4 0.000000 0.000000 0.000000 0.032879 0.000000 0.001963
# 5 0.000291 0.000475 -0.003415 0.000000 0.031435 0.000000
# 6 0.000000 0.000000 0.000000 0.001963 0.000000 0.053777
#
#
# Mechanical properties :
#
#
# Convention : Reuss Voigt Hill
#
# Bulk Modulus (GPa) = 41.73990 62.71324 52.22657
# Shear Modulus (GPa) = 23.80283 27.87368 25.83825
#
# Velocity S-wave (km/s) = 3.58371 3.87807 3.73379
# Velocity P-wave (km/s) = 6.29642 7.34097 6.83867
#
# Compressibility (1/GPa) = 0.02395789
#
# Stress axis : x y z
#
# Youngs Moduli (GPa) = 94.89449 32.42728 79.40724
#
# Poissons Ratio (x) = 0.11257 0.35635
# Poissons Ratio (y) = 0.32944 0.55955
# Poissons Ratio (z) = 0.42585 0.22850
#
# Static dielectric constant tensor:
#      x y z
#    x 3.058230 0.000000 0.300370 
#    y 0.000000 2.925250 0.000000 
#    z 0.300370 0.000000 3.389680 
# 
# 
# High freq. dielectric constant tensor:
#      x y z
#    x 1.722330 0.000000 0.006880 
#    y 0.000000 1.692190 0.000000 
#    z 0.006880 0.000000 1.725680 
# 
# From -- ./inp_files/45126.got.cif
#   From: 2010.06.25/outbox.cif.g09.slc.cpg/sg11_23_cif.got.tgz:45126.got - 2010.06.27 23:14:04.
