data_PCOD8070522
_publ_section_title
;
Structure prediction by ZEFSAII (Michael W. Deem and Ramdas Pophale) SiO2 
 PCOD8070522
Probable space group: P 21/M
;
_chemical_formula_sum "Si O2"
_cell_formula_units_Z 32
_cell_length_a 24.433082
_cell_length_b 9.712359
_cell_length_c 25.605042
_cell_angle_alpha 90.000000
_cell_angle_beta 162.597841
_cell_angle_gamma 90.000000
_cell_volume 1817.235130
_symmetry_space_group_name_H-M "P 21/M"
_symmetry_group_IT_number 11
_symmetry_cell_setting 'monoclinic'
loop_
_space_group_symop_operation_xyz
x,y,z
-x,1/2+y,-z
-x,-y,-z
x,1/2-y,z
loop_
_atom_site_type_symbol
_atom_site_label
_atom_site_fract_x
_atom_site_fract_y
_atom_site_fract_z
Si Si1 0.002439 0.910139 0.950503
Si Si2 0.594537 0.400249 0.045751
Si Si3 0.494835 0.414721 0.750000
Si Si4 0.276374 0.914117 0.944609
Si Si5 0.601434 0.910139 0.549498
Si Si6 0.616914 0.412162 0.750001
Si Si7 0.112844 0.414117 0.444608
Si Si8 0.003035 0.400249 0.454249
O O1 0.021136 0.750000 0.983557
O O2 0.819342 0.935417 0.750000
O O3 0.176438 0.959349 0.075047
O O4 0.000000 0.000000 0.000000
O O5 0.497359 0.250000 0.959782
O O6 0.592947 0.459907 0.985039
O O7 0.803030 0.381080 0.250000
O O8 0.500000 0.500000 0.000000
O O9 0.495214 0.250000 0.750000
O O10 0.556161 0.476998 0.749999
O O11 0.291510 0.470770 0.577556
O O12 0.636397 0.470770 0.922443
O O13 0.269529 0.750000 0.938643
O O14 0.069467 0.972883 0.750001
O O15 0.554023 0.750000 0.516445
O O16 0.526346 0.959343 0.424955
O O17 0.500000 0.000000 0.500000
O O18 0.610758 0.250000 0.750011
O O19 0.107755 0.250000 0.438640
O O20 0.122869 0.459906 0.514961
O O21 0.077795 0.250000 0.540217
O O22 0.000000 0.500000 0.500000
#
# Coordination Sequence:
#
# PCOD8070522 Si02
#       8
#     4   4   4   4   4   4   4   4
#     4  10  19  31  49  72 100 132 160 194 239 281
#     4   9  18  30  44  67  95 120 153 195 236 283
#     4   9  16  26  44  65  89 127 158 185 236 284
#     4   8  15  27  41  61  90 120 153 192 232 281
#     4  10  19  31  49  72 100 132 160 194 239 281
#     4   9  18  30  43  69 101 123 160 203 232 280
#     4   8  15  27  41  61  90 120 153 192 232 281
#     4   9  18  30  44  67  95 120 153 195 236 283
#
# _framework density 17.609169999999999
#
# number of rings (size 3 to 8) (size 9 to 14) (size 15 to 20)
#    0.000    3.000    1.250    1.500    1.750    1.500 
#    0.000    5.000    0.000    0.000    0.000    3.500 
#    0.000    4.000    0.000    0.000    0.000    0.000 
#
# Total GULP energy -396545.445627 kJ/mol
# GULP energy per Si atom -12392.045176 kJ/mol
# Density = 1.756909 g / cm^3
# Si number density = 17.609170 Si / 1000 Ang^3
#
#
#
# Elastic Constant Matrix: (Units=GPa)
#
#
# Indices 1 2 3 4 5 6 
#
# 1 186.5261 38.6505 85.4464 0.0000 -3.1010 0.0000
# 2 38.6505 31.4032 23.2701 0.0000 -1.4275 0.0000
# 3 85.4464 23.2701 125.8281 0.0000 -2.5307 0.0000
# 4 0.0000 0.0000 0.0000 14.4214 0.0000 -0.5069
# 5 -3.1010 -1.4275 -2.5307 0.0000 33.8811 0.0000
# 6 0.0000 0.0000 0.0000 -0.5069 0.0000 19.8840
#
#
#
# Elastic Compliance Matrix: (Units=1/GPa)
#
#
# Indices 1 2 3 4 5 6 
#
# 1 0.009155 -0.007713 -0.004787 0.000000 0.000155 0.000000
# 2 -0.007713 0.043437 -0.002777 0.000000 0.000917 0.000000
# 3 -0.004787 -0.002777 0.011718 0.000000 0.000320 0.000000
# 4 0.000000 0.000000 0.000000 0.069403 0.000000 0.001769
# 5 0.000155 0.000917 0.000320 0.000000 0.029592 0.000000
# 6 0.000000 0.000000 0.000000 0.001769 0.000000 0.050337
#
#
# Mechanical properties :
#
#
# Convention : Reuss Voigt Hill
#
# Bulk Modulus (GPa) = 29.62501 70.94347 50.28424
# Shear Modulus (GPa) = 19.57342 26.73000 23.15171
#
# Velocity S-wave (km/s) = 3.33760 3.90033 3.62989
# Velocity P-wave (km/s) = 5.63142 7.78837 6.79601
#
# Compressibility (1/GPa) = 0.03375527
#
# Stress axis : x y z
#
# Youngs Moduli (GPa) = 109.22796 23.02204 85.33688
#
# Poissons Ratio (x) = 0.17758 0.40854
# Poissons Ratio (y) = 0.84252 0.23694
# Poissons Ratio (z) = 0.52292 0.06392
#
# Static dielectric constant tensor:
#      x y z
#    x 12.878260 0.000000 -0.751020 
#    y 0.000000 2.705740 0.000000 
#    z -0.751020 0.000000 4.765680 
# 
# 
# High freq. dielectric constant tensor:
#      x y z
#    x 1.684230 0.000000 0.000920 
#    y 0.000000 1.614990 0.000000 
#    z 0.000920 0.000000 1.694160 
# 
# From -- ./inp_files/66562.got.cif
#   From: 2010.06.25/outbox.cif.g09.slc.cpg/sg11_34_cif.got.tgz:66562.got - 2010.06.27 23:14:04.
