data_PCOD8070610
_publ_section_title
;
Structure prediction by ZEFSAII (Michael W. Deem and Ramdas Pophale) SiO2 
 PCOD8070610
Probable space group: P 21/M
;
_chemical_formula_sum "Si O2"
_cell_formula_units_Z 28
_cell_length_a 6.476796
_cell_length_b 13.801167
_cell_length_c 17.398920
_cell_angle_alpha 90.000000
_cell_angle_beta 70.404695
_cell_angle_gamma 90.000000
_cell_volume 1465.171225
_symmetry_space_group_name_H-M "P 21/M"
_symmetry_group_IT_number 11
_symmetry_cell_setting 'monoclinic'
loop_
_space_group_symop_operation_xyz
x,y,z
-x,1/2+y,-z
-x,-y,-z
x,1/2-y,z
loop_
_atom_site_type_symbol
_atom_site_label
_atom_site_fract_x
_atom_site_fract_y
_atom_site_fract_z
Si Si1 0.745413 0.519775 0.942570
Si Si2 0.084142 0.135367 0.942603
Si Si3 0.523468 0.640991 0.212748
Si Si4 0.171928 0.487218 0.237037
Si Si5 0.951139 0.861999 0.448351
Si Si6 0.273167 0.038022 0.388567
Si Si7 0.290638 0.443229 0.663156
O O1 0.757646 0.559629 0.853119
O O2 0.870254 0.417245 0.935401
O O3 0.500000 0.500000 0.000000
O O4 0.866787 0.602468 0.976605
O O5 0.043186 0.250000 0.943694
O O6 0.290394 0.099711 0.866802
O O7 0.474582 0.750000 0.197719
O O8 0.292618 0.590258 0.227598
O O9 0.605172 0.631375 0.289727
O O10 0.250235 0.425933 0.302415
O O11 0.912051 0.501360 0.272694
O O12 0.027373 0.750000 0.434881
O O13 0.774691 0.884101 0.404235
O O14 0.157726 0.932694 0.412711
O O15 0.836228 0.880939 0.544619
O O16 0.527427 0.024874 0.379933
#
# Coordination Sequence:
#
# PCOD8070610 Si02
#       7
#     4   4   4   4   4   4   4
#     4  11  21  37  59  81 111 151 190 228 279 331
#     4  10  22  36  54  82 112 142 185 233 279 333
#     4  10  19  31  49  80 112 138 176 227 278 332
#     4  10  20  34  53  80 107 147 182 225 275 328
#     4  10  20  36  56  80 108 144 183 220 271 330
#     4   9  21  36  54  80 113 142 179 229 273 322
#     4  10  19  33  53  78 110 143 177 224 277 329
#
# _framework density 19.110392999999998
#
# number of rings (size 3 to 8) (size 9 to 14) (size 15 to 20)
#    0.000    2.000    2.857    0.857    0.000    7.429 
#    0.000    0.714    0.000    2.571    0.000    0.000 
#    0.000    0.000    0.000    0.000    0.000    0.000 
#
# Total GULP energy -347138.374076 kJ/mol
# GULP energy per Si atom -12397.799074 kJ/mol
# Density = 1.906690 g / cm^3
# Si number density = 19.110393 Si / 1000 Ang^3
#
#
#
# Elastic Constant Matrix: (Units=GPa)
#
#
# Indices 1 2 3 4 5 6 
#
# 1 95.2647 10.6477 28.6799 0.0000 -11.5930 0.0000
# 2 10.6477 38.1714 11.3740 0.0000 2.0520 0.0000
# 3 28.6799 11.3740 133.0557 0.0000 10.1307 0.0000
# 4 0.0000 0.0000 0.0000 21.5770 0.0000 -4.0970
# 5 -11.5930 2.0520 10.1307 0.0000 36.5193 0.0000
# 6 0.0000 0.0000 0.0000 -4.0970 0.0000 18.1271
#
#
#
# Elastic Compliance Matrix: (Units=1/GPa)
#
#
# Indices 1 2 3 4 5 6 
#
# 1 0.012231 -0.002848 -0.002759 0.000000 0.004808 0.000000
# 2 -0.002848 0.027574 -0.001590 0.000000 -0.002012 0.000000
# 3 -0.002759 -0.001590 0.008485 0.000000 -0.003140 0.000000
# 4 0.000000 0.000000 0.000000 0.048424 0.000000 0.010944
# 5 0.004808 -0.002012 -0.003140 0.000000 0.029893 0.000000
# 6 0.000000 0.000000 0.000000 0.010944 0.000000 0.057640
#
#
# Mechanical properties :
#
#
# Convention : Reuss Voigt Hill
#
# Bulk Modulus (GPa) = 29.50179 40.87723 35.18951
# Shear Modulus (GPa) = 23.81630 29.63071 26.72350
#
# Velocity S-wave (km/s) = 3.53405 3.94191 3.74354
# Velocity P-wave (km/s) = 5.66779 6.49267 6.09420
#
# Compressibility (1/GPa) = 0.03389625
#
# Stress axis : x y z
#
# Youngs Moduli (GPa) = 81.75853 36.26596 117.84981
#
# Poissons Ratio (x) = 0.10329 0.32515
# Poissons Ratio (y) = 0.23286 0.18738
# Poissons Ratio (z) = 0.22557 0.05766
#
# Static dielectric constant tensor:
#      x y z
#    x 3.593050 0.000000 0.044040 
#    y 0.000000 3.008030 0.000000 
#    z 0.044040 0.000000 3.966650 
# 
# 
# High freq. dielectric constant tensor:
#      x y z
#    x 1.755780 0.000000 0.000180 
#    y 0.000000 1.691400 0.000000 
#    z 0.000180 0.000000 1.765410 
# 
# From -- ./inp_files/7872.got.cif
#   From: 2010.06.25/outbox.cif.g09.slc.cpg/sg11_4_cif.got.tgz:7872.got - 2010.06.27 23:14:04.
