data_PCOD8070425
_publ_section_title
;
Structure prediction by ZEFSAII (Michael W. Deem and Ramdas Pophale) SiO2 
 PCOD8070425
Probable space group: P 21/M
;
_chemical_formula_sum "Si O2"
_cell_formula_units_Z 32
_cell_length_a 22.630245
_cell_length_b 12.819570
_cell_length_c 15.941936
_cell_angle_alpha 90.000000
_cell_angle_beta 156.787698
_cell_angle_gamma 90.000000
_cell_volume 1822.860605
_symmetry_space_group_name_H-M "P 21/M"
_symmetry_group_IT_number 11
_symmetry_cell_setting 'monoclinic'
loop_
_space_group_symop_operation_xyz
x,y,z
-x,1/2+y,-z
-x,-y,-z
x,1/2-y,z
loop_
_atom_site_type_symbol
_atom_site_label
_atom_site_fract_x
_atom_site_fract_y
_atom_site_fract_z
Si Si1 0.232114 0.003880 0.843016
Si Si2 0.348784 0.629688 0.147335
Si Si3 0.632532 0.498486 0.512782
Si Si4 0.926355 0.969922 0.817291
Si Si5 0.478810 0.870587 0.781116
Si Si6 0.207266 0.633686 0.138689
Si Si7 0.053954 0.873071 0.477942
Si Si8 0.841589 0.130097 0.571585
O O1 0.113774 0.089434 0.720931
O O2 0.170973 0.934353 0.687958
O O3 0.379320 0.063408 0.000999
O O4 0.271070 0.926884 0.968971
O O5 0.369264 0.750000 0.150660
O O6 0.510775 0.582751 0.381153
O O7 0.244117 0.612818 0.090563
O O8 0.754317 0.559836 0.613528
O O9 0.560292 0.404836 0.364808
O O10 0.706335 0.449776 0.691811
O O11 0.931024 0.065931 0.758382
O O12 0.026215 0.876661 0.909686
O O13 0.000000 0.000000 0.000000
O O14 0.523916 0.750000 0.838335
O O15 0.337471 0.891315 0.658005
O O16 0.254135 0.750000 0.227445
O O17 0.066141 0.750000 0.511241
O O18 0.096538 0.901210 0.438410
O O19 0.875303 0.250000 0.636318
#
# Coordination Sequence:
#
# PCOD8070425 Si02
#       8
#     4   4   4   4   4   4   4   4
#     4  10  20  33  51  72  97 127 159 201 243 289
#     4  10  20  33  49  69  96 127 159 196 241 288
#     4   9  18  32  49  70  96 126 160 197 237 283
#     4   9  18  31  49  73  98 125 157 195 238 283
#     4   9  17  31  51  73  96 124 159 197 238 284
#     4  10  19  31  48  69  95 128 162 197 236 283
#     4  10  20  34  52  73  97 126 161 200 243 288
#     4   9  18  33  52  73  98 127 161 201 240 282
#
# _framework density 17.554825999999998
#
# number of rings (size 3 to 8) (size 9 to 14) (size 15 to 20)
#    0.000    2.500    0.000    2.250    0.000    4.000 
#    0.000    1.875    0.000   11.250    0.000    0.000 
#    0.000    0.000    0.000    0.000    0.000    0.000 
#
# Total GULP energy -396718.943026 kJ/mol
# GULP energy per Si atom -12397.466970 kJ/mol
# Density = 1.751487 g / cm^3
# Si number density = 17.554826 Si / 1000 Ang^3
#
#
#
# Elastic Constant Matrix: (Units=GPa)
#
#
# Indices 1 2 3 4 5 6 
#
# 1 97.8759 46.9673 40.8358 0.0000 3.0689 0.0000
# 2 46.9673 81.6163 44.8353 0.0000 -0.3171 0.0000
# 3 40.8358 44.8353 89.3714 0.0000 0.5914 0.0000
# 4 0.0000 0.0000 0.0000 27.2194 0.0000 0.9273
# 5 3.0689 -0.3171 0.5914 0.0000 25.1512 0.0000
# 6 0.0000 0.0000 0.0000 0.9273 0.0000 24.4787
#
#
#
# Elastic Compliance Matrix: (Units=1/GPa)
#
#
# Indices 1 2 3 4 5 6 
#
# 1 0.014930 -0.006706 -0.003445 0.000000 -0.001825 0.000000
# 2 -0.006706 0.019930 -0.006942 0.000000 0.001233 0.000000
# 3 -0.003445 -0.006942 0.016247 0.000000 -0.000049 0.000000
# 4 0.000000 0.000000 0.000000 0.036786 0.000000 -0.001394
# 5 -0.001825 0.001233 -0.000049 0.000000 0.039999 0.000000
# 6 0.000000 0.000000 0.000000 -0.001394 0.000000 0.040905
#
#
# Mechanical properties :
#
#
# Convention : Reuss Voigt Hill
#
# Bulk Modulus (GPa) = 59.10565 59.34893 59.22729
# Shear Modulus (GPa) = 23.96665 24.45154 24.20910
#
# Velocity S-wave (km/s) = 3.69893 3.73616 3.71759
# Velocity P-wave (km/s) = 7.21007 7.24521 7.22766
#
# Compressibility (1/GPa) = 0.01691886
#
# Stress axis : x y z
#
# Youngs Moduli (GPa) = 66.98065 50.17552 61.55072
#
# Poissons Ratio (x) = 0.33647 0.21207
# Poissons Ratio (y) = 0.44916 0.42732
# Poissons Ratio (z) = 0.23078 0.34834
#
# Static dielectric constant tensor:
#      x y z
#    x 3.321670 0.000000 0.254030 
#    y 0.000000 3.219170 0.000000 
#    z 0.254030 0.000000 3.438080 
# 
# 
# High freq. dielectric constant tensor:
#      x y z
#    x 1.683010 0.000000 0.010710 
#    y 0.000000 1.673740 0.000000 
#    z 0.010710 0.000000 1.681790 
# 
# From -- ./inp_files/29259.got.cif
#   From: 2010.06.25/outbox.cif.g09.slc.cpg/sg11_15_cif.got.tgz:29259.got - 2010.06.27 23:14:04.
