data_PCOD8070475
_publ_section_title
;
Structure prediction by ZEFSAII (Michael W. Deem and Ramdas Pophale) SiO2 
 PCOD8070475
Probable space group: P 21/M
;
_chemical_formula_sum "Si O2"
_cell_formula_units_Z 28
_cell_length_a 18.406433
_cell_length_b 8.685287
_cell_length_c 16.283537
_cell_angle_alpha 90.000000
_cell_angle_beta 37.056827
_cell_angle_gamma 90.000000
_cell_volume 1568.688100
_symmetry_space_group_name_H-M "P 21/M"
_symmetry_group_IT_number 11
_symmetry_cell_setting 'monoclinic'
loop_
_space_group_symop_operation_xyz
x,y,z
-x,1/2+y,-z
-x,-y,-z
x,1/2-y,z
loop_
_atom_site_type_symbol
_atom_site_label
_atom_site_fract_x
_atom_site_fract_y
_atom_site_fract_z
Si Si1 0.002914 0.069522 0.762116
Si Si2 0.913329 0.931141 0.009767
Si Si3 0.251937 0.932923 0.484930
Si Si4 0.323810 0.927295 0.713337
Si Si5 0.411102 0.072004 0.471839
Si Si6 0.090901 0.080334 0.307800
Si Si7 0.824612 0.079808 0.618924
O O1 0.028620 0.250000 0.741749
O O2 0.914264 0.031692 0.765947
O O3 0.129274 0.981604 0.640807
O O4 0.937582 0.015621 0.902836
O O5 0.935741 0.750000 0.980898
O O6 0.775601 0.962606 0.158004
O O7 0.000000 0.000000 0.000000
O O8 0.263427 0.750000 0.480560
O O9 0.251272 0.986900 0.389874
O O10 0.365459 0.015659 0.424430
O O11 0.282055 0.750000 0.755231
O O12 0.446026 0.955325 0.654003
O O13 0.343230 0.970906 0.601071
O O14 0.379021 0.250000 0.515618
O O15 0.130371 0.250000 0.242530
O O16 0.962320 0.087798 0.466809
O O17 0.188350 0.022463 0.287345
O O18 0.778254 0.250000 0.683094
#
# Coordination Sequence:
#
# PCOD8070475 Si02
#       7
#     4   4   4   4   4   4   4
#     4  11  21  33  49  70  99 133 167 201 243 292
#     4  12  24  38  54  73  99 129 164 202 243 289
#     4  10  19  31  48  72 102 132 165 203 243 288
#     4  10  21  37  54  73  98 128 164 202 242 288
#     4  10  20  34  53  75  99 128 162 201 244 288
#     4   9  16  27  43  65  94 127 162 199 240 287
#     4   8  15  26  41  64  94 128 161 196 239 285
#
# _framework density 17.849309000000002
#
# number of rings (size 3 to 8) (size 9 to 14) (size 15 to 20)
#    0.000    2.000    0.000    6.000    0.000    5.714 
#    0.000    0.000    0.000    0.000    0.000    1.000 
#    0.000    0.000    0.000    0.000    0.000    0.000 
#
# Total GULP energy -347198.391914 kJ/mol
# GULP energy per Si atom -12399.942568 kJ/mol
# Density = 1.780868 g / cm^3
# Si number density = 17.849309 Si / 1000 Ang^3
#
#
#
# Elastic Constant Matrix: (Units=GPa)
#
#
# Indices 1 2 3 4 5 6 
#
# 1 141.3962 36.2249 31.2793 0.0000 13.4466 0.0000
# 2 36.2249 71.4286 12.6230 0.0000 2.6179 0.0000
# 3 31.2793 12.6230 44.9543 0.0000 3.7346 0.0000
# 4 0.0000 0.0000 0.0000 24.8130 0.0000 4.2574
# 5 13.4466 2.6179 3.7346 0.0000 19.0087 0.0000
# 6 0.0000 0.0000 0.0000 4.2574 0.0000 32.8509
#
#
#
# Elastic Compliance Matrix: (Units=1/GPa)
#
#
# Indices 1 2 3 4 5 6 
#
# 1 0.009714 -0.003804 -0.005249 0.000000 -0.005316 0.000000
# 2 -0.003804 0.016249 -0.001986 0.000000 0.000843 0.000000
# 3 -0.005249 -0.001986 0.026557 0.000000 -0.001231 0.000000
# 4 0.000000 0.000000 0.000000 0.041218 0.000000 -0.005342
# 5 -0.005316 0.000843 -0.001231 0.000000 0.056494 0.000000
# 6 0.000000 0.000000 0.000000 -0.005342 0.000000 0.031133
#
#
# Mechanical properties :
#
#
# Convention : Reuss Voigt Hill
#
# Bulk Modulus (GPa) = 32.84925 46.44816 39.64871
# Shear Modulus (GPa) = 23.40939 27.17798 25.29368
#
# Velocity S-wave (km/s) = 3.62539 3.90633 3.76848
# Velocity P-wave (km/s) = 5.99735 6.81357 6.41845
#
# Compressibility (1/GPa) = 0.03044209
#
# Stress axis : x y z
#
# Youngs Moduli (GPa) = 102.94881 61.54164 37.65480
#
# Poissons Ratio (x) = 0.23409 0.19765
# Poissons Ratio (y) = 0.39159 0.07479
# Poissons Ratio (z) = 0.54038 0.12223
#
# Static dielectric constant tensor:
#      x y z
#    x 3.593770 0.000000 0.182140 
#    y 0.000000 3.516940 0.000000 
#    z 0.182140 0.000000 2.915800 
# 
# 
# High freq. dielectric constant tensor:
#      x y z
#    x 1.701970 0.000000 0.019290 
#    y 0.000000 1.707100 0.000000 
#    z 0.019290 0.000000 1.638220 
# 
# From -- ./inp_files/53226.got.cif
#   From: 2010.06.25/outbox.cif.g09.slc.cpg/sg11_27_cif.got.tgz:53226.got - 2010.06.27 23:14:04.
