data_PCOD8070326
_publ_section_title
;
Structure prediction by ZEFSAII (Michael W. Deem and Ramdas Pophale) SiO2 
 PCOD8070326
Probable space group: P 21/M
;
_chemical_formula_sum "Si O2"
_cell_formula_units_Z 32
_cell_length_a 13.939354
_cell_length_b 8.961838
_cell_length_c 16.228167
_cell_angle_alpha 90.000000
_cell_angle_beta 93.187233
_cell_angle_gamma 90.000000
_cell_volume 2024.123040
_symmetry_space_group_name_H-M "P 21/M"
_symmetry_group_IT_number 11
_symmetry_cell_setting 'monoclinic'
loop_
_space_group_symop_operation_xyz
x,y,z
-x,1/2+y,-z
-x,-y,-z
x,1/2-y,z
loop_
_atom_site_type_symbol
_atom_site_label
_atom_site_fract_x
_atom_site_fract_y
_atom_site_fract_z
Si Si1 0.195244 0.576837 0.209742
Si Si2 0.724237 0.423828 0.476661
Si Si3 0.861324 0.917308 0.949632
Si Si4 0.015493 0.075708 0.735558
Si Si5 0.077277 0.918159 0.895475
Si Si6 0.929595 0.071901 0.431094
Si Si7 0.523144 0.424392 0.415287
Si Si8 0.652108 0.426714 0.648827
O O1 0.202949 0.750000 0.188335
O O2 0.204516 0.488324 0.124669
O O3 0.281371 0.522902 0.272414
O O4 0.095827 0.543388 0.251355
O O5 0.740356 0.250000 0.490624
O O6 0.822791 0.490895 0.445926
O O7 0.637455 0.453273 0.406788
O O8 0.699066 0.489257 0.566140
O O9 0.825376 0.750000 0.965084
O O10 0.970651 0.917921 0.925888
O O11 0.851127 0.011657 0.033242
O O12 0.034922 0.250000 0.721686
O O13 0.081559 0.018748 0.813842
O O14 0.042586 0.981202 0.657710
O O15 0.111026 0.750000 0.876846
O O16 0.936233 0.250000 0.436200
O O17 0.000000 0.000000 0.500000
O O18 0.500000 0.500000 0.500000
O O19 0.500619 0.250000 0.418584
O O20 0.453940 0.500013 0.343615
O O21 0.639740 0.250000 0.644980
#
# Coordination Sequence:
#
# PCOD8070326 Si02
#       8
#     4   4   4   4   4   4   4   4
#     4   9  17  28  42  59  86 119 143 167 208 258
#     4   8  16  30  45  58  79 111 142 172 211 254
#     4   9  16  25  39  60  84 109 140 176 209 244
#     4  10  19  31  44  60  83 113 147 180 211 244
#     4   9  16  27  42  59  80 109 143 175 210 251
#     4  11  21  33  46  61  83 113 147 180 212 247
#     4   9  16  28  44  61  79 103 135 171 211 253
#     4   9  16  28  44  62  83 109 139 171 210 253
#
# _framework density 15.809315
#
# number of rings (size 3 to 8) (size 9 to 14) (size 15 to 20)
#    0.000    2.750    0.000    3.375    0.000    6.000 
#    0.000    8.750    0.000    0.000    0.000    0.000 
#    0.000    1.000    0.000    3.000    0.000    4.625 
#
# Total GULP energy -396633.528557 kJ/mol
# GULP energy per Si atom -12394.797767 kJ/mol
# Density = 1.577333 g / cm^3
# Si number density = 15.809315 Si / 1000 Ang^3
#
#
#
# Elastic Constant Matrix: (Units=GPa)
#
#
# Indices 1 2 3 4 5 6 
#
# 1 90.5203 40.6004 50.4137 0.0000 23.9674 0.0000
# 2 40.6004 75.4299 42.0174 0.0000 13.8255 0.0000
# 3 50.4137 42.0174 100.3228 0.0000 27.7045 0.0000
# 4 0.0000 0.0000 0.0000 29.2237 0.0000 6.2894
# 5 23.9674 13.8255 27.7045 0.0000 23.7435 0.0000
# 6 0.0000 0.0000 0.0000 6.2894 0.0000 20.2035
#
#
#
# Elastic Compliance Matrix: (Units=1/GPa)
#
#
# Indices 1 2 3 4 5 6 
#
# 1 0.018789 -0.005912 -0.003952 0.000000 -0.010912 0.000000
# 2 -0.005912 0.019244 -0.005374 0.000000 0.001033 0.000000
# 3 -0.003952 -0.005374 0.018057 0.000000 -0.013951 0.000000
# 4 0.000000 0.000000 0.000000 0.036676 0.000000 -0.011417
# 5 -0.010912 0.001033 -0.013951 0.000000 0.068809 0.000000
# 6 0.000000 0.000000 0.000000 -0.011417 0.000000 0.053051
#
#
# Mechanical properties :
#
#
# Convention : Reuss Voigt Hill
#
# Bulk Modulus (GPa) = 39.04153 59.14844 49.09498
# Shear Modulus (GPa) = 19.71297 23.51690 21.61494
#
# Velocity S-wave (km/s) = 3.53501 3.86104 3.70162
# Velocity P-wave (km/s) = 6.43511 7.57441 7.02788
#
# Compressibility (1/GPa) = 0.02561375
#
# Stress axis : x y z
#
# Youngs Moduli (GPa) = 53.22169 51.96533 55.37910
#
# Poissons Ratio (x) = 0.30720 0.21889
# Poissons Ratio (y) = 0.31462 0.29762
# Poissons Ratio (z) = 0.21036 0.27927
#
# Static dielectric constant tensor:
#      x y z
#    x 3.100340 0.000000 0.276450 
#    y 0.000000 3.088670 0.000000 
#    z 0.276450 0.000000 3.081200 
# 
# 
# High freq. dielectric constant tensor:
#      x y z
#    x 1.574130 0.000000 0.029120 
#    y 0.000000 1.611540 0.000000 
#    z 0.029120 0.000000 1.591900 
# 
# From -- ./inp_files/51345.got.cif
#   From: 2010.06.25/outbox.cif.g09.slc.cpg/sg11_26_cif.got.tgz:51345.got - 2010.06.27 23:14:04.
