data_PCOD8070083
_publ_section_title
;
Structure prediction by ZEFSAII (Michael W. Deem and Ramdas Pophale) SiO2 
 PCOD8070083
Probable space group: P 21/M
;
_chemical_formula_sum "Si O2"
_cell_formula_units_Z 28
_cell_length_a 24.138550
_cell_length_b 9.484573
_cell_length_c 26.264895
_cell_angle_alpha 90.000000
_cell_angle_beta 164.009049
_cell_angle_gamma 90.000000
_cell_volume 1656.545741
_symmetry_space_group_name_H-M "P 21/M"
_symmetry_group_IT_number 11
_symmetry_cell_setting 'monoclinic'
loop_
_space_group_symop_operation_xyz
x,y,z
-x,1/2+y,-z
-x,-y,-z
x,1/2-y,z
loop_
_atom_site_type_symbol
_atom_site_label
_atom_site_fract_x
_atom_site_fract_y
_atom_site_fract_z
Si Si1 0.925217 0.583093 0.278399
Si Si2 0.515237 0.916905 0.868417
Si Si3 0.537175 0.583256 0.679056
Si Si4 0.039752 0.411454 0.985062
Si Si5 0.085544 0.584186 0.528512
Si Si6 0.350045 0.581509 0.616682
Si Si7 0.624318 0.411457 0.569626
O O1 0.915245 0.750000 0.265287
O O2 0.955080 0.540325 0.363720
O O3 0.119214 0.528340 0.418018
O O4 0.718425 0.516862 0.072807
O O5 0.534656 0.750000 0.884681
O O6 0.319002 0.959654 0.727644
O O7 0.484361 0.971667 0.783168
O O8 0.526846 0.750000 0.675592
O O9 0.443985 0.516114 0.647997
O O10 0.412281 0.531769 0.519612
O O11 0.765726 0.531785 0.873059
O O12 0.070604 0.250000 0.029666
O O13 0.859584 0.428047 0.786527
O O14 0.000000 0.500000 0.000000
O O15 0.066558 0.750000 0.522171
O O16 0.000000 0.500000 0.500000
O O17 0.351127 0.750000 0.617048
O O18 0.500000 0.500000 0.500000
O O19 0.552209 0.250000 0.511265
#
# Coordination Sequence:
#
# PCOD8070083 Si02
#       7
#     4   4   4   4   4   4   4
#     4   8  14  25  41  61  87 117 145 177 217 258
#     4   8  14  25  41  61  87 117 145 177 217 258
#     4   9  17  28  41  62  90 112 140 186 224 260
#     4  10  19  30  45  64  87 116 145 175 217 264
#     4   9  17  28  42  64  92 118 146 178 212 252
#     4   8  14  24  39  60  86 114 142 176 222 264
#     4  10  19  30  45  64  87 116 145 175 217 264
#
# _framework density 16.902640999999999
#
# number of rings (size 3 to 8) (size 9 to 14) (size 15 to 20)
#    0.000    3.143    1.429    1.714    0.000    1.714 
#    0.000    5.714    0.000    0.000    0.000    8.000 
#    0.000    0.000    0.000    0.000    0.000    0.000 
#
# Total GULP energy -347006.954144 kJ/mol
# GULP energy per Si atom -12393.105505 kJ/mol
# Density = 1.686417 g / cm^3
# Si number density = 16.902641 Si / 1000 Ang^3
#
#
#
# Elastic Constant Matrix: (Units=GPa)
#
#
# Indices 1 2 3 4 5 6 
#
# 1 178.4838 31.5247 93.4795 0.0000 8.7212 0.0000
# 2 31.5247 20.8068 21.8847 0.0000 1.9557 0.0000
# 3 93.4795 21.8847 166.9728 0.0000 -6.3888 0.0000
# 4 0.0000 0.0000 0.0000 11.5698 0.0000 1.7114
# 5 8.7212 1.9557 -6.3888 0.0000 24.0610 0.0000
# 6 0.0000 0.0000 0.0000 1.7114 0.0000 20.0065
#
#
#
# Elastic Compliance Matrix: (Units=1/GPa)
#
#
# Indices 1 2 3 4 5 6 
#
# 1 0.009828 -0.009951 -0.004348 0.000000 -0.003908 0.000000
# 2 -0.009951 0.066858 -0.003295 0.000000 -0.002703 0.000000
# 3 -0.004348 -0.003295 0.009017 0.000000 0.004238 0.000000
# 4 0.000000 0.000000 0.000000 0.087539 0.000000 -0.007488
# 5 -0.003908 -0.002703 0.004238 0.000000 0.044323 0.000000
# 6 0.000000 0.000000 0.000000 -0.007488 0.000000 0.050624
#
#
# Mechanical properties :
#
#
# Convention : Reuss Voigt Hill
#
# Bulk Modulus (GPa) = 19.79584 73.33792 46.56688
# Shear Modulus (GPa) = 15.61446 25.75242 20.68344
#
# Velocity S-wave (km/s) = 3.04269 3.90753 3.50191
# Velocity P-wave (km/s) = 4.90724 7.99006 6.63031
#
# Compressibility (1/GPa) = 0.05051565
#
# Stress axis : x y z
#
# Youngs Moduli (GPa) = 101.74666 14.95709 110.90009
#
# Poissons Ratio (x) = 0.14883 0.48216
# Poissons Ratio (y) = 1.01246 0.36546
# Poissons Ratio (z) = 0.44236 0.04929
#
# Static dielectric constant tensor:
#      x y z
#    x 3.345040 0.000000 -0.063060 
#    y 0.000000 2.616550 0.000000 
#    z -0.063060 0.000000 3.655360 
# 
# 
# High freq. dielectric constant tensor:
#      x y z
#    x 1.655160 0.000000 -0.002660 
#    y 0.000000 1.584000 0.000000 
#    z -0.002660 0.000000 1.668270 
# 
# From -- ./inp_files/69856.got.cif
#   From: 2010.06.25/outbox.cif.g09.slc.cpg/sg11_35_cif.got.tgz:69856.got - 2010.06.27 23:14:04.
