data_PCOD8070150
_publ_section_title
;
Structure prediction by ZEFSAII (Michael W. Deem and Ramdas Pophale) SiO2 
 PCOD8070150
Probable space group: P 21/M
;
_chemical_formula_sum "Si O2"
_cell_formula_units_Z 32
_cell_length_a 23.767235
_cell_length_b 9.265052
_cell_length_c 17.404073
_cell_angle_alpha 90.000000
_cell_angle_beta 149.184040
_cell_angle_gamma 90.000000
_cell_volume 1963.299740
_symmetry_space_group_name_H-M "P 21/M"
_symmetry_group_IT_number 11
_symmetry_cell_setting 'monoclinic'
loop_
_space_group_symop_operation_xyz
x,y,z
-x,1/2+y,-z
-x,-y,-z
x,1/2-y,z
loop_
_atom_site_type_symbol
_atom_site_label
_atom_site_fract_x
_atom_site_fract_y
_atom_site_fract_z
Si Si1 0.235650 0.916774 0.806813
Si Si2 0.095322 0.583265 0.787394
Si Si3 0.825215 0.413838 0.659625
Si Si4 0.300697 0.418573 0.609633
Si Si5 0.140348 0.080998 0.555165
Si Si6 0.478792 0.581735 0.053369
Si Si7 0.106807 0.917857 0.097644
Si Si8 0.924408 0.920472 0.082867
O O1 0.222046 0.750000 0.768838
O O2 0.193498 0.946317 0.843187
O O3 0.162373 0.004883 0.661462
O O4 0.362578 0.965455 0.952758
O O5 0.092239 0.750000 0.810609
O O6 0.117819 0.480203 0.885744
O O7 0.981320 0.540004 0.613900
O O8 0.806695 0.250000 0.612276
O O9 0.734090 0.508938 0.510818
O O10 0.807371 0.430939 0.730850
O O11 0.947660 0.461746 0.777884
O O12 0.281361 0.250000 0.576635
O O13 0.226078 0.476910 0.592187
O O14 0.427156 0.457931 0.774711
O O15 0.155106 0.250000 0.585844
O O16 0.482856 0.750000 0.038480
O O17 0.500000 0.500000 0.000000
O O18 0.080673 0.750000 0.050016
O O19 0.146992 0.998364 0.067276
O O20 0.000000 0.000000 0.000000
O O21 0.904027 0.750000 0.053038
#
# Coordination Sequence:
#
# PCOD8070150 Si02
#       8
#     4   4   4   4   4   4   4   4
#     4  10  21  34  49  67  90 124 163 199 236 280
#     4  10  20  33  47  67  95 127 159 193 235 282
#     4   9  18  30  45  69  97 123 155 189 227 276
#     4  10  19  30  47  69  93 123 156 194 237 277
#     4  10  19  31  47  68  94 123 157 194 237 282
#     4  10  20  34  49  67  90 120 159 199 239 280
#     4   9  17  29  45  68  98 129 158 190 229 279
#     4  10  19  30  46  70  97 128 159 189 231 282
#
# _framework density 16.29909
#
# number of rings (size 3 to 8) (size 9 to 14) (size 15 to 20)
#    0.000    2.250    2.500    1.875    0.000    4.500 
#    0.000    0.000    0.000    0.000    0.000    0.875 
#    0.000    0.000    0.000    0.000    0.000    0.000 
#
# Total GULP energy -396780.469688 kJ/mol
# GULP energy per Si atom -12399.389678 kJ/mol
# Density = 1.626199 g / cm^3
# Si number density = 16.299090 Si / 1000 Ang^3
#
#
#
# Elastic Constant Matrix: (Units=GPa)
#
#
# Indices 1 2 3 4 5 6 
#
# 1 101.2497 47.3231 57.2863 0.0000 -9.7674 0.0000
# 2 47.3231 69.3863 42.1161 0.0000 -16.3093 0.0000
# 3 57.2863 42.1161 75.0504 0.0000 -11.7008 0.0000
# 4 0.0000 0.0000 0.0000 25.2259 0.0000 -10.7790
# 5 -9.7674 -16.3093 -11.7008 0.0000 29.6563 0.0000
# 6 0.0000 0.0000 0.0000 -10.7790 0.0000 26.3848
#
#
#
# Elastic Compliance Matrix: (Units=1/GPa)
#
#
# Indices 1 2 3 4 5 6 
#
# 1 0.019133 -0.006725 -0.011108 0.000000 -0.001780 0.000000
# 2 -0.006725 0.025982 -0.008060 0.000000 0.008893 0.000000
# 3 -0.011108 -0.008060 0.026707 0.000000 0.002446 0.000000
# 4 0.000000 0.000000 0.000000 0.048025 0.000000 0.019620
# 5 -0.001780 0.008893 0.002446 0.000000 0.038990 0.000000
# 6 0.000000 0.000000 0.000000 0.019620 0.000000 0.045916
#
#
# Mechanical properties :
#
#
# Convention : Reuss Voigt Hill
#
# Bulk Modulus (GPa) = 49.91070 59.90416 54.90743
# Shear Modulus (GPa) = 18.99571 22.85079 20.92325
#
# Velocity S-wave (km/s) = 3.41757 3.74835 3.58677
# Velocity P-wave (km/s) = 6.80156 7.45428 7.13539
#
# Compressibility (1/GPa) = 0.02003579
#
# Stress axis : x y z
#
# Youngs Moduli (GPa) = 52.26625 38.48876 37.44283
#
# Poissons Ratio (x) = 0.25885 0.41590
# Poissons Ratio (y) = 0.35150 0.30180
# Poissons Ratio (z) = 0.58055 0.31023
#
# Static dielectric constant tensor:
#      x y z
#    x 3.166190 0.000000 -0.184130 
#    y 0.000000 3.096520 0.000000 
#    z -0.184130 0.000000 3.118720 
# 
# 
# High freq. dielectric constant tensor:
#      x y z
#    x 1.612320 0.000000 -0.020330 
#    y 0.000000 1.631900 0.000000 
#    z -0.020330 0.000000 1.608570 
# 
# From -- ./inp_files/43809.got.cif
#   From: 2010.06.25/outbox.cif.g09.slc.cpg/sg11_22_cif.got.tgz:43809.got - 2010.06.27 23:14:04.
