data_PCOD8070815
_publ_section_title
;
Structure prediction by ZEFSAII (Michael W. Deem and Ramdas Pophale) SiO2 
 PCOD8070815
Probable space group: P 21/M
;
_chemical_formula_sum "Si O2"
_cell_formula_units_Z 32
_cell_length_a 22.281669
_cell_length_b 9.103248
_cell_length_c 27.106210
_cell_angle_alpha 90.000000
_cell_angle_beta 18.791447
_cell_angle_gamma 90.000000
_cell_volume 1771.073088
_symmetry_space_group_name_H-M "P 21/M"
_symmetry_group_IT_number 11
_symmetry_cell_setting 'monoclinic'
loop_
_space_group_symop_operation_xyz
x,y,z
-x,1/2+y,-z
-x,-y,-z
x,1/2-y,z
loop_
_atom_site_type_symbol
_atom_site_label
_atom_site_fract_x
_atom_site_fract_y
_atom_site_fract_z
Si Si1 0.166907 0.421502 0.791699
Si Si2 0.844847 0.923445 0.654227
Si Si3 0.797944 0.922330 0.960737
Si Si4 0.691903 0.079353 0.860611
Si Si5 0.569842 0.083510 0.060467
Si Si6 0.173231 0.077872 0.673355
Si Si7 0.470315 0.419652 0.632499
Si Si8 0.198288 0.082536 0.930643
O O1 0.144226 0.250000 0.817922
O O2 0.209624 0.463340 0.702054
O O3 0.333640 0.480945 0.696107
O O4 0.972184 0.491935 0.959601
O O5 0.884602 0.750000 0.627673
O O6 0.641643 0.956315 0.789727
O O7 0.850990 0.996718 0.704488
O O8 0.000000 0.000000 0.500000
O O9 0.823912 0.750000 0.933750
O O10 0.749721 0.967012 0.054468
O O11 0.988035 0.001780 0.796776
O O12 0.628908 0.975966 0.058316
O O13 0.682557 0.250000 0.852011
O O14 0.716351 0.065518 0.900815
O O15 0.500000 0.000000 0.000000
O O16 0.577031 0.250000 0.074371
O O17 0.152845 0.250000 0.680902
O O18 0.345579 0.016817 0.508450
O O19 0.521275 0.250000 0.582689
O O20 0.378807 0.441585 0.756984
O O21 0.131535 0.250000 0.982212
#
# Coordination Sequence:
#
# PCOD8070815 Si02
#       8
#     4   4   4   4   4   4   4   4
#     4   9  18  31  49  72  96 126 163 203 251 308
#     4  10  20  34  54  82 114 143 171 208 255 300
#     4  10  20  35  54  73  95 130 172 209 248 296
#     4   9  17  31  52  78 107 136 168 206 248 295
#     4   9  19  35  55  78 103 134 171 209 247 293
#     4  10  20  33  49  71  98 127 163 207 253 302
#     4  10  19  32  49  71  99 127 160 206 257 306
#     4   9  19  33  49  71  99 129 163 206 252 300
#
# _framework density 18.068142000000002
#
# number of rings (size 3 to 8) (size 9 to 14) (size 15 to 20)
#    0.000    2.500    0.000    3.000    0.000    5.000 
#    0.000    1.250    0.000    3.000    0.000    0.000 
#    0.000    0.000    0.000    0.000    0.000    0.000 
#
# Total GULP energy -396764.886704 kJ/mol
# GULP energy per Si atom -12398.902709 kJ/mol
# Density = 1.802702 g / cm^3
# Si number density = 18.068142 Si / 1000 Ang^3
#
#
#
# Elastic Constant Matrix: (Units=GPa)
#
#
# Indices 1 2 3 4 5 6 
#
# 1 70.1294 37.7781 40.9613 0.0000 -1.1496 0.0000
# 2 37.7781 87.8891 48.6157 0.0000 3.7737 0.0000
# 3 40.9613 48.6157 94.4668 0.0000 10.9646 0.0000
# 4 0.0000 0.0000 0.0000 33.3182 0.0000 0.9650
# 5 -1.1496 3.7737 10.9646 0.0000 23.4407 0.0000
# 6 0.0000 0.0000 0.0000 0.9650 0.0000 27.7605
#
#
#
# Elastic Compliance Matrix: (Units=1/GPa)
#
#
# Indices 1 2 3 4 5 6 
#
# 1 0.021454 -0.005542 -0.007059 0.000000 0.005246 0.000000
# 2 -0.005542 0.017378 -0.006539 0.000000 -0.000011 0.000000
# 3 -0.007059 -0.006539 0.017902 0.000000 -0.007667 0.000000
# 4 0.000000 0.000000 0.000000 0.030044 0.000000 -0.001044
# 5 0.005246 -0.000011 -0.007667 0.000000 0.046506 0.000000
# 6 0.000000 0.000000 0.000000 -0.001044 0.000000 0.036059
#
#
# Mechanical properties :
#
#
# Convention : Reuss Voigt Hill
#
# Bulk Modulus (GPa) = 54.19219 56.35507 55.27363
# Shear Modulus (GPa) = 23.38924 25.24591 24.31757
#
# Velocity S-wave (km/s) = 3.60182 3.74205 3.67261
# Velocity P-wave (km/s) = 6.88156 7.06602 6.97440
#
# Compressibility (1/GPa) = 0.01845284
#
# Stress axis : x y z
#
# Youngs Moduli (GPa) = 46.61103 57.54548 55.86085
#
# Poissons Ratio (x) = 0.31893 0.39434
# Poissons Ratio (y) = 0.25833 0.36526
# Poissons Ratio (z) = 0.32904 0.37627
#
# Static dielectric constant tensor:
#      x y z
#    x 3.389350 0.000000 0.188130 
#    y 0.000000 3.395500 0.000000 
#    z 0.188130 0.000000 3.214310 
# 
# 
# High freq. dielectric constant tensor:
#      x y z
#    x 1.689480 0.000000 0.014370 
#    y 0.000000 1.707480 0.000000 
#    z 0.014370 0.000000 1.686940 
# 
# From -- ./inp_files/71985.got.cif
#   From: 2010.06.25/outbox.cif.g09.slc.cpg/sg11_36_cif.got.tgz:71985.got - 2010.06.27 23:14:04.
