data_PCOD8070213
_publ_section_title
;
Structure prediction by ZEFSAII (Michael W. Deem and Ramdas Pophale) SiO2 
 PCOD8070213
Probable space group: P 21/M
;
_chemical_formula_sum "Si O2"
_cell_formula_units_Z 28
_cell_length_a 14.804869
_cell_length_b 9.063600
_cell_length_c 18.962619
_cell_angle_alpha 90.000000
_cell_angle_beta 37.530588
_cell_angle_gamma 90.000000
_cell_volume 1550.075088
_symmetry_space_group_name_H-M "P 21/M"
_symmetry_group_IT_number 11
_symmetry_cell_setting 'monoclinic'
loop_
_space_group_symop_operation_xyz
x,y,z
-x,1/2+y,-z
-x,-y,-z
x,1/2-y,z
loop_
_atom_site_type_symbol
_atom_site_label
_atom_site_fract_x
_atom_site_fract_y
_atom_site_fract_z
Si Si1 0.719790 0.923481 0.755238
Si Si2 0.392116 0.921438 0.912031
Si Si3 0.185420 0.918718 0.164259
Si Si4 0.806426 0.083692 0.569203
Si Si5 0.857165 0.919647 0.400475
Si Si6 0.428571 0.926298 0.476779
Si Si7 0.533823 0.587272 0.264100
O O1 0.744961 0.750000 0.732916
O O2 0.549474 0.968477 0.847431
O O3 0.760317 0.976060 0.807536
O O4 0.827115 0.002837 0.631653
O O5 0.383950 0.750000 0.904383
O O6 0.367274 0.990018 0.849746
O O7 0.262667 0.974915 0.044624
O O8 0.233446 0.750000 0.151513
O O9 0.009194 0.929143 0.262419
O O10 0.871296 0.250000 0.532910
O O11 0.634516 0.087454 0.657082
O O12 0.889365 0.991727 0.457025
O O13 0.805737 0.750000 0.442365
O O14 0.735788 0.009508 0.431660
O O15 0.417187 0.750000 0.491574
O O16 0.532602 0.970416 0.345603
O O17 0.500000 0.000000 0.500000
O O18 0.602305 0.750000 0.219018
#
# Coordination Sequence:
#
# PCOD8070213 Si02
#       7
#     4   4   4   4   4   4   4
#     4  10  19  30  48  72  95 127 174 218 252 289
#     4   9  18  32  49  70  97 131 171 209 244 285
#     4  10  21  34  47  67  99 136 169 206 250 290
#     4   9  17  31  49  68  96 130 164 207 253 295
#     4  10  20  34  51  72 100 132 164 199 245 299
#     4  10  20  35  57  83 106 126 153 194 243 295
#     4   8  16  30  49  74  99 124 155 195 243 287
#
# _framework density 18.063641000000001
#
# number of rings (size 3 to 8) (size 9 to 14) (size 15 to 20)
#    0.000    2.571    0.000    3.000    0.000    6.857 
#    0.000    0.000    0.000    0.857    0.000    0.000 
#    0.000    0.000    0.000    0.000    0.000    0.000 
#
# Total GULP energy -347161.274057 kJ/mol
# GULP energy per Si atom -12398.616931 kJ/mol
# Density = 1.802253 g / cm^3
# Si number density = 18.063641 Si / 1000 Ang^3
#
#
#
# Elastic Constant Matrix: (Units=GPa)
#
#
# Indices 1 2 3 4 5 6 
#
# 1 84.0268 46.7924 51.8963 0.0000 25.5377 0.0000
# 2 46.7924 94.4490 46.9758 0.0000 10.7508 0.0000
# 3 51.8963 46.9758 116.9217 0.0000 18.6260 0.0000
# 4 0.0000 0.0000 0.0000 27.8506 0.0000 8.6131
# 5 25.5377 10.7508 18.6260 0.0000 24.0772 0.0000
# 6 0.0000 0.0000 0.0000 8.6131 0.0000 28.3621
#
#
#
# Elastic Compliance Matrix: (Units=1/GPa)
#
#
# Indices 1 2 3 4 5 6 
#
# 1 0.025220 -0.007817 -0.004959 0.000000 -0.019423 0.000000
# 2 -0.007817 0.015744 -0.003486 0.000000 0.003959 0.000000
# 3 -0.004959 -0.003486 0.012624 0.000000 -0.002950 0.000000
# 4 0.000000 0.000000 0.000000 0.039628 0.000000 -0.012034
# 5 -0.019423 0.003959 -0.002950 0.000000 0.062648 0.000000
# 6 0.000000 0.000000 0.000000 -0.012034 0.000000 0.038913
#
#
# Mechanical properties :
#
#
# Convention : Reuss Voigt Hill
#
# Bulk Modulus (GPa) = 47.47667 65.19184 56.33426
# Shear Modulus (GPa) = 21.33793 26.04018 23.68906
#
# Velocity S-wave (km/s) = 3.44068 3.80093 3.62528
# Velocity P-wave (km/s) = 6.49033 7.44522 6.98411
#
# Compressibility (1/GPa) = 0.02106297
#
# Stress axis : x y z
#
# Youngs Moduli (GPa) = 39.65071 63.51605 79.21119
#
# Poissons Ratio (x) = 0.49653 0.39282
# Poissons Ratio (y) = 0.30996 0.27616
# Poissons Ratio (z) = 0.19663 0.22144
#
# Static dielectric constant tensor:
#      x y z
#    x 3.064850 0.000000 0.206020 
#    y 0.000000 3.495480 0.000000 
#    z 0.206020 0.000000 3.581680 
# 
# 
# High freq. dielectric constant tensor:
#      x y z
#    x 1.665200 0.000000 0.015620 
#    y 0.000000 1.708850 0.000000 
#    z 0.015620 0.000000 1.699880 
# 
# From -- ./inp_files/37152.got.cif
#   From: 2010.06.25/outbox.cif.g09.slc.cpg/sg11_19_cif.got.tgz:37152.got - 2010.06.27 23:14:04.
