data_PCOD8070712
_publ_section_title
;
Structure prediction by ZEFSAII (Michael W. Deem and Ramdas Pophale) SiO2 
 PCOD8070712
Probable space group: P 21/M
;
_chemical_formula_sum "Si O2"
_cell_formula_units_Z 32
_cell_length_a 18.647178
_cell_length_b 8.519703
_cell_length_c 25.884645
_cell_angle_alpha 90.000000
_cell_angle_beta 155.993629
_cell_angle_gamma 90.000000
_cell_volume 1673.021541
_symmetry_space_group_name_H-M "P 21/M"
_symmetry_group_IT_number 11
_symmetry_cell_setting 'monoclinic'
loop_
_space_group_symop_operation_xyz
x,y,z
-x,1/2+y,-z
-x,-y,-z
x,1/2-y,z
loop_
_atom_site_type_symbol
_atom_site_label
_atom_site_fract_x
_atom_site_fract_y
_atom_site_fract_z
Si Si1 0.272747 0.567449 0.698731
Si Si2 0.002868 0.934317 0.787536
Si Si3 0.882135 0.565793 0.818437
Si Si4 0.594294 0.066474 0.697485
Si Si5 0.078755 0.435081 0.476356
Si Si6 0.195322 0.436885 0.441530
Si Si7 0.363922 0.566871 0.070719
Si Si8 0.233448 0.067676 0.089066
O O1 0.314768 0.750000 0.728993
O O2 0.217143 0.522169 0.604216
O O3 0.448392 0.474163 0.831025
O O4 0.120071 0.519379 0.638486
O O5 0.983390 0.750000 0.768905
O O6 0.895726 0.990184 0.767811
O O7 0.918936 0.010628 0.680783
O O8 0.208724 0.981611 0.928684
O O9 0.920151 0.750000 0.847845
O O10 0.690755 0.523177 0.714180
O O11 0.028650 0.476187 0.948482
O O12 0.599588 0.250000 0.689061
O O13 0.394916 0.002354 0.567890
O O14 0.686604 0.033789 0.812401
O O15 0.111511 0.250000 0.503921
O O16 0.110959 0.496428 0.439655
O O17 0.191557 0.250000 0.438540
O O18 0.349495 0.750000 0.074723
O O19 0.342449 0.469997 0.109223
O O20 0.250676 0.250000 0.114244
#
# Coordination Sequence:
#
# PCOD8070712 Si02
#       8
#     4   4   4   4   4   4   4   4
#     4  10  19  31  51  80 110 136 167 208 255 307
#     4   8  17  34  54  73  95 131 175 215 253 299
#     4  10  20  35  53  74 103 136 171 210 255 306
#     4  11  21  32  51  78 105 134 170 212 259 310
#     4   9  18  33  54  78 105 137 170 210 258 306
#     4   9  18  34  54  74  98 131 173 215 256 303
#     4  10  19  33  54  77 103 136 172 207 251 307
#     4  11  21  34  53  77 106 134 167 213 260 305
#
# _framework density 19.127071000000001
#
# number of rings (size 3 to 8) (size 9 to 14) (size 15 to 20)
#    0.000    2.250    0.000    4.500    0.000    2.000 
#    0.000    1.250    0.000   12.750    0.000    0.000 
#    0.000    0.000    0.000    0.000    0.000    0.000 
#
# Total GULP energy -396834.290183 kJ/mol
# GULP energy per Si atom -12401.071568 kJ/mol
# Density = 1.908354 g / cm^3
# Si number density = 19.127071 Si / 1000 Ang^3
#
#
#
# Elastic Constant Matrix: (Units=GPa)
#
#
# Indices 1 2 3 4 5 6 
#
# 1 119.8380 11.5881 99.3260 0.0000 5.2089 0.0000
# 2 11.5881 37.4543 14.1141 0.0000 4.1489 0.0000
# 3 99.3260 14.1141 127.5861 0.0000 1.7825 0.0000
# 4 0.0000 0.0000 0.0000 20.0865 0.0000 7.4344
# 5 5.2089 4.1489 1.7825 0.0000 32.4696 0.0000
# 6 0.0000 0.0000 0.0000 7.4344 0.0000 23.2099
#
#
#
# Elastic Compliance Matrix: (Units=1/GPa)
#
#
# Indices 1 2 3 4 5 6 
#
# 1 0.023774 -0.000090 -0.018459 0.000000 -0.002789 0.000000
# 2 -0.000090 0.028240 -0.003006 0.000000 -0.003429 0.000000
# 3 -0.018459 -0.003006 0.022512 0.000000 0.002110 0.000000
# 4 0.000000 0.000000 0.000000 0.056481 0.000000 -0.018091
# 5 -0.002789 -0.003429 0.002110 0.000000 0.031568 0.000000
# 6 0.000000 0.000000 0.000000 -0.018091 0.000000 0.048880
#
#
# Mechanical properties :
#
#
# Convention : Reuss Voigt Hill
#
# Bulk Modulus (GPa) = 31.83246 59.43721 45.63484
# Shear Modulus (GPa) = 18.86531 25.80989 22.33760
#
# Velocity S-wave (km/s) = 3.14397 3.67739 3.42109
# Velocity P-wave (km/s) = 5.46426 7.01237 6.28615
#
# Compressibility (1/GPa) = 0.03141447
#
# Stress axis : x y z
#
# Youngs Moduli (GPa) = 42.06194 35.41124 44.42150
#
# Poissons Ratio (x) = 0.00320 0.82000
# Poissons Ratio (y) = 0.00381 0.13351
# Poissons Ratio (z) = 0.77644 0.10643
#
# Static dielectric constant tensor:
#      x y z
#    x 3.619920 0.000000 0.041870 
#    y 0.000000 3.253480 0.000000 
#    z 0.041870 0.000000 3.646840 
# 
# 
# High freq. dielectric constant tensor:
#      x y z
#    x 1.741490 0.000000 0.010850 
#    y 0.000000 1.725920 0.000000 
#    z 0.010850 0.000000 1.742390 
# 
# From -- ./inp_files/72176.got.cif
#   From: 2010.06.25/outbox.cif.g09.slc.cpg/sg11_37_cif.got.tgz:72176.got - 2010.06.27 23:14:04.
