data_PCOD8070378
_publ_section_title
;
Structure prediction by ZEFSAII (Michael W. Deem and Ramdas Pophale) SiO2 
 PCOD8070378
Probable space group: P 21/M
;
_chemical_formula_sum "Si O2"
_cell_formula_units_Z 28
_cell_length_a 24.727495
_cell_length_b 8.958510
_cell_length_c 22.261818
_cell_angle_alpha 90.000000
_cell_angle_beta 17.463709
_cell_angle_gamma 90.000000
_cell_volume 1479.942790
_symmetry_space_group_name_H-M "P 21/M"
_symmetry_group_IT_number 11
_symmetry_cell_setting 'monoclinic'
loop_
_space_group_symop_operation_xyz
x,y,z
-x,1/2+y,-z
-x,-y,-z
x,1/2-y,z
loop_
_atom_site_type_symbol
_atom_site_label
_atom_site_fract_x
_atom_site_fract_y
_atom_site_fract_z
Si Si1 0.695924 0.572985 0.808547
Si Si2 0.543708 0.425455 0.266360
Si Si3 0.011845 0.914367 0.049111
Si Si4 0.056790 0.574118 0.356444
Si Si5 0.424812 0.914345 0.636096
Si Si6 0.106766 0.571991 0.168791
Si Si7 0.846380 0.925526 0.343724
O O1 0.665205 0.750000 0.847123
O O2 0.782128 0.508327 0.778442
O O3 0.851709 0.536292 0.594232
O O4 0.500000 0.500000 0.000000
O O5 0.578208 0.250000 0.238541
O O6 0.528528 0.494460 0.349776
O O7 0.361912 0.460247 0.422757
O O8 0.704304 0.492557 0.056273
O O9 0.931733 0.750000 0.121749
O O10 0.212815 0.904005 0.858751
O O11 0.902295 0.994342 0.219536
O O12 0.000000 0.000000 0.000000
O O13 0.093707 0.750000 0.323310
O O14 0.071450 0.513075 0.273084
O O15 0.512685 0.750000 0.540725
O O16 0.500000 0.000000 0.500000
O O17 0.104104 0.750000 0.173000
O O18 0.954958 0.506711 0.284772
O O19 0.887902 0.750000 0.295620
#
# Coordination Sequence:
#
# PCOD8070378 Si02
#       7
#     4   4   4   4   4   4   4
#     4  10  20  35  56  83 116 150 184 222 265 315
#     4   9  16  27  45  68  96 128 161 206 262 309
#     4  10  19  31  47  68  96 125 162 208 256 311
#     4   9  19  34  55  83 113 144 181 226 272 318
#     4  10  19  31  47  69  96 126 163 210 259 313
#     4   9  16  29  48  73 103 131 168 214 259 311
#     4   9  16  27  44  67  96 127 158 203 258 308
#
# _framework density 18.919651000000002
#
# number of rings (size 3 to 8) (size 9 to 14) (size 15 to 20)
#    0.000    2.571    1.429    1.286    0.000    3.429 
#    0.000    4.286    0.000    1.714    0.000    2.000 
#    0.000    0.000    0.000    0.000    0.000    0.000 
#
# Total GULP energy -346944.549454 kJ/mol
# GULP energy per Si atom -12390.876766 kJ/mol
# Density = 1.887659 g / cm^3
# Si number density = 18.919651 Si / 1000 Ang^3
#
#
#
# Elastic Constant Matrix: (Units=GPa)
#
#
# Indices 1 2 3 4 5 6 
#
# 1 177.1414 33.5200 94.2487 0.0000 10.5963 0.0000
# 2 33.5200 41.4180 26.6279 0.0000 -0.6372 0.0000
# 3 94.2487 26.6279 139.5918 0.0000 -3.7766 0.0000
# 4 0.0000 0.0000 0.0000 18.7100 0.0000 -0.1248
# 5 10.5963 -0.6372 -3.7766 0.0000 41.0388 0.0000
# 6 0.0000 0.0000 0.0000 -0.1248 0.0000 22.9282
#
#
#
# Elastic Compliance Matrix: (Units=1/GPa)
#
#
# Indices 1 2 3 4 5 6 
#
# 1 0.009741 -0.004159 -0.005868 0.000000 -0.003120 0.000000
# 2 -0.004159 0.029295 -0.002746 0.000000 0.001276 0.000000
# 3 -0.005868 -0.002746 0.011718 0.000000 0.002551 0.000000
# 4 0.000000 0.000000 0.000000 0.053449 0.000000 0.000291
# 5 -0.003120 0.001276 0.002551 0.000000 0.025427 0.000000
# 6 0.000000 0.000000 0.000000 0.000291 0.000000 0.043616
#
#
# Mechanical properties :
#
#
# Convention : Reuss Voigt Hill
#
# Bulk Modulus (GPa) = 39.66809 74.10493 56.88651
# Shear Modulus (GPa) = 24.13200 30.11905 27.12553
#
# Velocity S-wave (km/s) = 3.57529 3.99425 3.79056
# Velocity P-wave (km/s) = 6.16893 7.77980 7.02072
#
# Compressibility (1/GPa) = 0.02520918
#
# Stress axis : x y z
#
# Youngs Moduli (GPa) = 102.66146 34.13582 85.33681
#
# Poissons Ratio (x) = 0.14197 0.50074
# Poissons Ratio (y) = 0.42695 0.23431
# Poissons Ratio (z) = 0.60239 0.09373
#
# Static dielectric constant tensor:
#      x y z
#    x 3.599610 0.000000 -0.027360 
#    y 0.000000 2.899400 0.000000 
#    z -0.027360 0.000000 3.663070 
# 
# 
# High freq. dielectric constant tensor:
#      x y z
#    x 1.744760 0.000000 -0.004050 
#    y 0.000000 1.675180 0.000000 
#    z -0.004050 0.000000 1.748210 
# 
# From -- ./inp_files/66667.got.cif
#   From: 2010.06.25/outbox.cif.g09.slc.cpg/sg11_34_cif.got.tgz:66667.got - 2010.06.27 23:14:04.
