data_PCOD8070780
_publ_section_title
;
Structure prediction by ZEFSAII (Michael W. Deem and Ramdas Pophale) SiO2 
 PCOD8070780
Probable space group: P 21/M
;
_chemical_formula_sum "Si O2"
_cell_formula_units_Z 24
_cell_length_a 19.838279
_cell_length_b 9.138483
_cell_length_c 11.786193
_cell_angle_alpha 90.000000
_cell_angle_beta 40.264776
_cell_angle_gamma 90.000000
_cell_volume 1381.019386
_symmetry_space_group_name_H-M "P 21/M"
_symmetry_group_IT_number 11
_symmetry_cell_setting 'monoclinic'
loop_
_space_group_symop_operation_xyz
x,y,z
-x,1/2+y,-z
-x,-y,-z
x,1/2-y,z
loop_
_atom_site_type_symbol
_atom_site_label
_atom_site_fract_x
_atom_site_fract_y
_atom_site_fract_z
Si Si1 0.717468 0.582056 0.704997
Si Si2 0.109415 0.423253 0.344017
Si Si3 0.389840 0.923882 0.615860
Si Si4 0.570357 0.412265 0.040669
Si Si5 0.748381 0.087045 0.997448
Si Si6 0.362293 0.420056 0.425252
O O1 0.703107 0.750000 0.754606
O O2 0.819590 0.524469 0.639907
O O3 0.727705 0.558364 0.555563
O O4 0.609157 0.507929 0.884631
O O5 0.094373 0.250000 0.358785
O O6 0.160583 0.477052 0.159879
O O7 0.000000 0.500000 0.500000
O O8 0.407417 0.750000 0.591609
O O9 0.500000 0.000000 0.500000
O O10 0.339777 0.979780 0.562563
O O11 0.304408 0.969729 0.819077
O O12 0.544445 0.250000 0.028688
O O13 0.469613 0.477438 0.232208
O O14 0.661190 0.408323 0.014870
O O15 0.795730 0.250000 0.953832
O O16 0.370950 0.250000 0.451235
#
# Coordination Sequence:
#
# PCOD8070780 Si02
#       6
#     4   4   4   4   4   4
#     4   9  19  32  48  72 101 130 167 210 255 305
#     4  10  20  35  56  80 100 127 165 212 265 311
#     4  11  21  33  50  73 105 143 179 209 243 293
#     4   9  16  28  46  68 100 136 167 201 246 295
#     4   9  18  33  50  73 103 134 168 210 251 292
#     4  10  19  32  47  69 104 140 170 206 248 295
#
# _framework density 17.378464999999998
#
# number of rings (size 3 to 8) (size 9 to 14) (size 15 to 20)
#    0.000    2.333    1.667    1.500    0.000    3.333 
#    0.000    0.000    0.000    1.000    0.000    0.000 
#    0.000    0.000    0.000    0.000    0.000    0.000 
#
# Total GULP energy -297502.110019 kJ/mol
# GULP energy per Si atom -12395.921251 kJ/mol
# Density = 1.733891 g / cm^3
# Si number density = 17.378465 Si / 1000 Ang^3
#
#
#
# Elastic Constant Matrix: (Units=GPa)
#
#
# Indices 1 2 3 4 5 6 
#
# 1 57.5195 32.1243 53.9730 0.0000 8.5113 0.0000
# 2 32.1243 69.3809 54.7457 0.0000 4.8570 0.0000
# 3 53.9730 54.7457 118.6212 0.0000 7.1073 0.0000
# 4 0.0000 0.0000 0.0000 31.2532 0.0000 4.3605
# 5 8.5113 4.8570 7.1073 0.0000 29.5581 0.0000
# 6 0.0000 0.0000 0.0000 4.3605 0.0000 23.8715
#
#
#
# Elastic Compliance Matrix: (Units=1/GPa)
#
#
# Indices 1 2 3 4 5 6 
#
# 1 0.032347 -0.005091 -0.012034 0.000000 -0.005584 0.000000
# 2 -0.005091 0.023513 -0.008514 0.000000 -0.000351 0.000000
# 3 -0.012034 -0.008514 0.017800 0.000000 0.000584 0.000000
# 4 0.000000 0.000000 0.000000 0.032834 0.000000 -0.005998
# 5 -0.005584 -0.000351 0.000584 0.000000 0.035357 0.000000
# 6 0.000000 0.000000 0.000000 -0.005998 0.000000 0.042987
#
#
# Mechanical properties :
#
#
# Convention : Reuss Voigt Hill
#
# Bulk Modulus (GPa) = 44.67837 58.57862 51.62850
# Shear Modulus (GPa) = 20.52749 23.91511 22.22130
#
# Velocity S-wave (km/s) = 3.44059 3.71365 3.57973
# Velocity P-wave (km/s) = 6.44581 7.22282 6.84534
#
# Compressibility (1/GPa) = 0.02238219
#
# Stress axis : x y z
#
# Youngs Moduli (GPa) = 30.91503 42.52927 56.17910
#
# Poissons Ratio (x) = 0.21650 0.67605
# Poissons Ratio (y) = 0.15738 0.47834
# Poissons Ratio (z) = 0.37203 0.36211
#
# Static dielectric constant tensor:
#      x y z
#    x 3.293660 0.000000 0.169800 
#    y 0.000000 3.664950 0.000000 
#    z 0.169800 0.000000 3.190960 
# 
# 
# High freq. dielectric constant tensor:
#      x y z
#    x 1.662650 0.000000 0.015290 
#    y 0.000000 1.672200 0.000000 
#    z 0.015290 0.000000 1.651490 
# 
# From -- ./inp_files/36976.got.cif
#   From: 2010.06.25/outbox.cif.g09.slc.cpg/sg11_19_cif.got.tgz:36976.got - 2010.06.27 23:14:04.
