data_PCOD8070506
_publ_section_title
;
Structure prediction by ZEFSAII (Michael W. Deem and Ramdas Pophale) SiO2 
 PCOD8070506
Probable space group: P 21/M
;
_chemical_formula_sum "Si O2"
_cell_formula_units_Z 32
_cell_length_a 17.268987
_cell_length_b 9.291271
_cell_length_c 22.739660
_cell_angle_alpha 90.000000
_cell_angle_beta 29.577749
_cell_angle_gamma 90.000000
_cell_volume 1800.962900
_symmetry_space_group_name_H-M "P 21/M"
_symmetry_group_IT_number 11
_symmetry_cell_setting 'monoclinic'
loop_
_space_group_symop_operation_xyz
x,y,z
-x,1/2+y,-z
-x,-y,-z
x,1/2-y,z
loop_
_atom_site_type_symbol
_atom_site_label
_atom_site_fract_x
_atom_site_fract_y
_atom_site_fract_z
Si Si1 0.691460 0.587528 0.951538
Si Si2 0.834737 0.916513 0.734383
Si Si3 0.429363 0.420682 0.316109
Si Si4 0.959477 0.414840 0.244146
Si Si5 0.416062 0.419360 0.192914
Si Si6 0.962908 0.083190 0.110762
Si Si7 0.769532 0.081250 0.126866
Si Si8 0.872113 0.921259 0.414052
O O1 0.632731 0.750000 0.000154
O O2 0.714968 0.555191 0.867017
O O3 0.854363 0.560000 0.877505
O O4 0.563753 0.481520 0.061357
O O5 0.888988 0.750000 0.699148
O O6 0.745884 0.959053 0.733116
O O7 0.986592 0.016265 0.640221
O O8 0.428092 0.250000 0.314944
O O9 0.406777 0.481936 0.265054
O O10 0.593198 0.477289 0.234859
O O11 0.288696 0.475106 0.450071
O O12 0.920498 0.250000 0.286863
O O13 0.872590 0.518312 0.347454
O O14 0.900981 0.453128 0.217084
O O15 0.441547 0.250000 0.176362
O O16 0.009392 0.250000 0.075157
O O17 0.824361 0.043007 0.156844
O O18 0.118807 0.993727 0.994245
O O19 0.778794 0.250000 0.108246
O O20 0.886881 0.750000 0.402368
#
# Coordination Sequence:
#
# PCOD8070506 Si02
#       8
#     4   4   4   4   4   4   4   4
#     4   9  17  29  45  68  98 123 148 193 242 280
#     4   9  19  34  49  68  96 126 155 194 243 285
#     4   9  19  34  49  69  97 126 159 199 239 277
#     4   9  18  33  50  70  98 128 159 196 239 282
#     4  10  19  31  49  70  94 126 159 192 236 290
#     4   9  17  30  51  77 102 128 157 191 233 282
#     4   9  17  31  51  74 103 133 156 187 235 285
#     4  10  20  34  51  68  90 124 165 204 237 276
#
# _framework density 17.768273000000001
#
# number of rings (size 3 to 8) (size 9 to 14) (size 15 to 20)
#    0.000    2.750    0.000    2.250    0.000    3.500 
#    0.000    3.125    0.000    0.000    0.000    0.000 
#    0.000    0.000    0.000    0.000    0.000    0.000 
#
# Total GULP energy -396788.896140 kJ/mol
# GULP energy per Si atom -12399.653004 kJ/mol
# Density = 1.772783 g / cm^3
# Si number density = 17.768273 Si / 1000 Ang^3
#
#
#
# Elastic Constant Matrix: (Units=GPa)
#
#
# Indices 1 2 3 4 5 6 
#
# 1 137.9489 41.8910 76.0427 0.0000 4.5648 0.0000
# 2 41.8910 51.0373 48.7831 0.0000 0.8961 0.0000
# 3 76.0427 48.7831 125.9188 0.0000 -2.5189 0.0000
# 4 0.0000 0.0000 0.0000 22.5124 0.0000 0.4119
# 5 4.5648 0.8961 -2.5189 0.0000 13.3791 0.0000
# 6 0.0000 0.0000 0.0000 0.4119 0.0000 20.6725
#
#
#
# Elastic Compliance Matrix: (Units=1/GPa)
#
#
# Indices 1 2 3 4 5 6 
#
# 1 0.011759 -0.004270 -0.005542 0.000000 -0.004769 0.000000
# 2 -0.004270 0.032923 -0.010230 0.000000 -0.002674 0.000000
# 3 -0.005542 -0.010230 0.015361 0.000000 0.005468 0.000000
# 4 0.000000 0.000000 0.000000 0.044436 0.000000 -0.000885
# 5 -0.004769 -0.002674 0.005468 0.000000 0.077579 0.000000
# 6 0.000000 0.000000 0.000000 -0.000885 0.000000 0.048391
#
#
# Mechanical properties :
#
#
# Convention : Reuss Voigt Hill
#
# Bulk Modulus (GPa) = 50.10310 72.03762 61.07036
# Shear Modulus (GPa) = 18.03837 21.19201 19.61519
#
# Velocity S-wave (km/s) = 3.18968 3.45728 3.32617
# Velocity P-wave (km/s) = 6.46720 7.52116 7.01401
#
# Compressibility (1/GPa) = 0.01995885
#
# Stress axis : x y z
#
# Youngs Moduli (GPa) = 85.04364 30.37348 65.09973
#
# Poissons Ratio (x) = 0.12971 0.36079
# Poissons Ratio (y) = 0.36317 0.66595
# Poissons Ratio (z) = 0.47132 0.31071
#
# Static dielectric constant tensor:
#      x y z
#    x 3.628510 0.000000 0.027050 
#    y 0.000000 3.132490 0.000000 
#    z 0.027050 0.000000 3.175320 
# 
# 
# High freq. dielectric constant tensor:
#      x y z
#    x 1.699450 0.000000 0.004400 
#    y 0.000000 1.673040 0.000000 
#    z 0.004400 0.000000 1.670560 
# 
# From -- ./inp_files/43827.got.cif
#   From: 2010.06.25/outbox.cif.g09.slc.cpg/sg11_22_cif.got.tgz:43827.got - 2010.06.27 23:14:04.
