data_PCOD8070431
_publ_section_title
;
Structure prediction by ZEFSAII (Michael W. Deem and Ramdas Pophale) SiO2 
 PCOD8070431
Probable space group: P 21/M
;
_chemical_formula_sum "Si O2"
_cell_formula_units_Z 32
_cell_length_a 11.547655
_cell_length_b 9.121089
_cell_length_c 19.283896
_cell_angle_alpha 90.000000
_cell_angle_beta 115.307205
_cell_angle_gamma 90.000000
_cell_volume 1836.189677
_symmetry_space_group_name_H-M "P 21/M"
_symmetry_group_IT_number 11
_symmetry_cell_setting 'monoclinic'
loop_
_space_group_symop_operation_xyz
x,y,z
-x,1/2+y,-z
-x,-y,-z
x,1/2-y,z
loop_
_atom_site_type_symbol
_atom_site_label
_atom_site_fract_x
_atom_site_fract_y
_atom_site_fract_z
Si Si1 0.865535 0.415941 0.132926
Si Si2 0.388002 0.421447 0.770195
Si Si3 0.593444 0.581615 0.575296
Si Si4 0.392414 0.578681 0.275688
Si Si5 0.855804 0.411466 0.295714
Si Si6 0.109365 0.918642 0.201237
Si Si7 0.611879 0.575695 0.070690
Si Si8 0.874709 0.917394 0.655615
O O1 0.850317 0.250000 0.101538
O O2 0.872050 0.423116 0.217235
O O3 0.746002 0.512644 0.076076
O O4 0.998185 0.484185 0.136488
O O5 0.378168 0.250000 0.762973
O O6 0.506390 0.479211 0.755143
O O7 0.253506 0.480435 0.704693
O O8 0.406942 0.472231 0.854160
O O9 0.500000 0.500000 0.500000
O O10 0.550996 0.750000 0.569300
O O11 0.585496 0.514111 0.649645
O O12 0.738568 0.567470 0.581552
O O13 0.412097 0.750000 0.298653
O O14 0.251146 0.553908 0.205512
O O15 0.811132 0.250000 0.306654
O O16 0.000140 0.445963 0.361824
O O17 0.067572 0.750000 0.184452
O O18 0.124022 0.960322 0.285102
O O19 0.608595 0.750000 0.060036
O O20 0.500000 0.500000 0.000000
O O21 0.886081 0.750000 0.689088
#
# Coordination Sequence:
#
# PCOD8070431 Si02
#       8
#     4   4   4   4   4   4   4   4
#     4   9  16  27  43  64  91 119 149 188 230 269
#     4   9  18  31  47  68  94 123 152 185 228 274
#     4  10  19  31  48  70  95 123 154 189 230 275
#     4   9  18  32  48  68  95 124 153 187 228 273
#     4   8  14  25  42  64  88 114 146 185 225 264
#     4   9  15  24  42  66  89 114 147 187 226 265
#     4  10  19  31  48  70  95 123 155 190 231 277
#     4   8  15  27  42  62  89 118 148 185 228 269
#
# _framework density 17.427394
#
# number of rings (size 3 to 8) (size 9 to 14) (size 15 to 20)
#    0.000    3.000    0.000    2.250    0.000    5.000 
#    0.000    0.000    0.000    1.500    0.000    0.000 
#    0.000    0.000    0.000    0.000    0.000    0.000 
#
# Total GULP energy -396488.646587 kJ/mol
# GULP energy per Si atom -12390.270206 kJ/mol
# Density = 1.738773 g / cm^3
# Si number density = 17.427394 Si / 1000 Ang^3
#
#
#
# Elastic Constant Matrix: (Units=GPa)
#
#
# Indices 1 2 3 4 5 6 
#
# 1 146.0296 54.9340 50.8108 0.0000 32.3088 0.0000
# 2 54.9340 79.7900 38.1439 0.0000 15.1064 0.0000
# 3 50.8108 38.1439 62.1546 0.0000 25.5579 0.0000
# 4 0.0000 0.0000 0.0000 23.3789 0.0000 10.1197
# 5 32.3088 15.1064 25.5579 0.0000 26.9822 0.0000
# 6 0.0000 0.0000 0.0000 10.1197 0.0000 27.8366
#
#
#
# Elastic Compliance Matrix: (Units=1/GPa)
#
#
# Indices 1 2 3 4 5 6 
#
# 1 0.011597 -0.004970 -0.003054 0.000000 -0.008211 0.000000
# 2 -0.004970 0.019872 -0.009836 0.000000 0.004142 0.000000
# 3 -0.003054 -0.009836 0.034158 0.000000 -0.023191 0.000000
# 4 0.000000 0.000000 0.000000 0.050762 0.000000 -0.018454
# 5 -0.008211 0.004142 -0.023191 0.000000 0.066541 0.000000
# 6 0.000000 0.000000 0.000000 -0.018454 0.000000 0.042633
#
#
# Mechanical properties :
#
#
# Convention : Reuss Voigt Hill
#
# Bulk Modulus (GPa) = 33.43612 63.97241 48.70426
# Shear Modulus (GPa) = 18.43309 25.24525 21.83917
#
# Velocity S-wave (km/s) = 3.25577 3.81017 3.54383
# Velocity P-wave (km/s) = 5.77590 7.49294 6.68974
#
# Compressibility (1/GPa) = 0.02990778
#
# Stress axis : x y z
#
# Youngs Moduli (GPa) = 86.23133 50.32108 29.27568
#
# Poissons Ratio (x) = 0.25007 0.08941
# Poissons Ratio (y) = 0.42853 0.28796
# Poissons Ratio (z) = 0.26336 0.49496
#
# Static dielectric constant tensor:
#      x y z
#    x 3.701170 0.000000 0.418650 
#    y 0.000000 3.333560 0.000000 
#    z 0.418650 0.000000 2.902470 
# 
# 
# High freq. dielectric constant tensor:
#      x y z
#    x 1.678150 0.000000 0.044310 
#    y 0.000000 1.682900 0.000000 
#    z 0.044310 0.000000 1.619050 
# 
# From -- ./inp_files/42418.got.cif
#   From: 2010.06.25/outbox.cif.g09.slc.cpg/sg11_22_cif.got.tgz:42418.got - 2010.06.27 23:14:04.
