data_PCOD8070356
_publ_section_title
;
Structure prediction by ZEFSAII (Michael W. Deem and Ramdas Pophale) SiO2 
 PCOD8070356
Probable space group: P 21/M
;
_chemical_formula_sum "Si O2"
_cell_formula_units_Z 28
_cell_length_a 29.807921
_cell_length_b 10.053674
_cell_length_c 29.802181
_cell_angle_alpha 90.000000
_cell_angle_beta 169.989850
_cell_angle_gamma 90.000000
_cell_volume 1552.425834
_symmetry_space_group_name_H-M "P 21/M"
_symmetry_group_IT_number 11
_symmetry_cell_setting 'monoclinic'
loop_
_space_group_symop_operation_xyz
x,y,z
-x,1/2+y,-z
-x,-y,-z
x,1/2-y,z
loop_
_atom_site_type_symbol
_atom_site_label
_atom_site_fract_x
_atom_site_fract_y
_atom_site_fract_z
Si Si1 0.055177 0.406076 0.956535
Si Si2 0.204167 0.018926 0.796803
Si Si3 0.322793 0.591942 0.675972
Si Si4 0.898780 0.909001 0.098120
Si Si5 0.530647 0.408158 0.487173
Si Si6 0.770750 0.250000 0.230806
Si Si7 0.373552 0.591769 0.624330
Si Si8 0.240574 0.250000 0.761826
O O1 0.044054 0.250000 0.939802
O O2 0.795492 0.454254 0.724885
O O3 0.076858 0.468400 0.928143
O O4 0.301214 0.448181 0.227847
O O5 0.225349 0.120031 0.776859
O O6 0.940072 0.036685 0.563108
O O7 0.213586 0.873839 0.786231
O O8 0.437726 0.035982 0.060930
O O9 0.322253 0.750000 0.678382
O O10 0.347362 0.540634 0.649300
O O11 0.897634 0.750000 0.096352
O O12 0.136312 0.963593 0.361412
O O13 0.636670 0.963870 0.862039
O O14 0.500000 0.500000 0.500000
O O15 0.527448 0.250000 0.496038
O O16 0.005102 0.250000 0.495965
O O17 0.507067 0.250000 0.998230
O O18 0.373785 0.750000 0.623924
#
# Coordination Sequence:
#
# PCOD8070356 Si02
#       8
#     4   4   4   4   4   2   4   2
#     4   9  17  28  45  66  99 135 163 206 260 307
#     4  12  23  39  60  80 113 140 177 219 259 315
#     4  11  20  36  55  81 110 146 174 209 266 316
#     4   9  15  26  41  68 101 133 160 200 260 306
#     4  10  19  31  46  68  98 132 171 209 251 303
#     4  12  26  40  58  86 108 138 186 220 260 302
#     4   9  17  26  45  71 104 131 162 204 249 311
#     4  12  22  42  60  82 108 144 176 218 268 310
#
# _framework density 18.036287000000002
#
# number of rings (size 3 to 8) (size 9 to 14) (size 15 to 20)
#    0.000    1.714    1.429    4.714    0.000    5.714 
#    0.000    0.000    0.000    0.000    0.000    0.000 
#   42.857    0.000    0.000    0.000    0.000    0.000 
#
# Total GULP energy -347233.194158 kJ/mol
# GULP energy per Si atom -12401.185506 kJ/mol
# Density = 1.799524 g / cm^3
# Si number density = 18.036287 Si / 1000 Ang^3
#
#
#
# Elastic Constant Matrix: (Units=GPa)
#
#
# Indices 1 2 3 4 5 6 
#
# 1 3196.6309 512.3940 5058.8798 0.0000-2820.2597 0.0000
# 2 512.3940 138.8910 785.6916 0.0000 -430.6554 0.0000
# 3 5058.8798 785.6916 8352.3653 0.0000-4646.2616 0.0000
# 4 0.0000 0.0000 0.0000 41.6459 0.0000 4.7492
# 5 -2820.2597 -430.6554-4646.2616 0.0000 2699.0402 0.0000
# 6 0.0000 0.0000 0.0000 4.7492 0.0000 8.4601
#
#
#
# Elastic Compliance Matrix: (Units=1/GPa)
#
#
# Indices 1 2 3 4 5 6 
#
# 1 0.008992 -0.005128 -0.004537 0.000000 0.000767 0.000000
# 2 -0.005128 0.018399 0.000650 0.000000 -0.001304 0.000000
# 3 -0.004537 0.000650 0.005357 0.000000 0.004584 0.000000
# 4 0.000000 0.000000 0.000000 0.025654 0.000000 -0.014401
# 5 0.000767 -0.001304 0.004584 0.000000 0.008854 0.000000
# 6 0.000000 0.000000 0.000000 -0.014401 0.000000 0.126287
#
#
# Mechanical properties :
#
#
# Convention : Reuss Voigt Hill
#
# Bulk Modulus (GPa) = 67.95308 2711.31313 1389.63310
# Shear Modulus (GPa) = 23.09689 905.22402 464.16045
#
# Velocity S-wave (km/s) = 3.58240 22.42722 16.05948
# Velocity P-wave (km/s) = 7.40736 46.66003 33.40679
#
# Compressibility (1/GPa) = 0.01471604
#
# Stress axis : x y z
#
# Youngs Moduli (GPa) = 111.21155 54.35052 186.68796
#
# Poissons Ratio (x) = 0.27873 0.84705
# Poissons Ratio (y) = 0.57033 -0.12131
# Poissons Ratio (z) = 0.50459 -0.03532
#
# Static dielectric constant tensor:
#      x y z
#    x 3.634460 0.000000 0.025650 
#    y 0.000000 2.902330 0.000000 
#    z 0.025650 0.000000 3.577380 
# 
# 
# High freq. dielectric constant tensor:
#      x y z
#    x 1.719160 0.000000 0.000910 
#    y 0.000000 1.640130 0.000000 
#    z 0.000910 0.000000 1.725750 
# 
# From -- ./inp_files/9649.got.cif
#   From: 2010.06.25/outbox.cif.g09.slc.cpg/sg11_5_cif.got.tgz:9649.got - 2010.06.27 23:14:04.
