data_PCOD8070757
_publ_section_title
;
Structure prediction by ZEFSAII (Michael W. Deem and Ramdas Pophale) SiO2 
 PCOD8070757
Probable space group: P 21/M
;
_chemical_formula_sum "Si O2"
_cell_formula_units_Z 32
_cell_length_a 19.625702
_cell_length_b 18.668460
_cell_length_c 6.602146
_cell_angle_alpha 90.000000
_cell_angle_beta 138.489932
_cell_angle_gamma 90.000000
_cell_volume 1603.133287
_symmetry_space_group_name_H-M "P 21/M"
_symmetry_group_IT_number 11
_symmetry_cell_setting 'monoclinic'
loop_
_space_group_symop_operation_xyz
x,y,z
-x,1/2+y,-z
-x,-y,-z
x,1/2-y,z
loop_
_atom_site_type_symbol
_atom_site_label
_atom_site_fract_x
_atom_site_fract_y
_atom_site_fract_z
Si Si1 0.864158 0.667976 0.842577
Si Si2 0.276246 0.098995 0.136684
Si Si3 0.319627 0.331625 0.844951
Si Si4 0.921440 0.410229 0.264966
Si Si5 0.391639 0.461709 0.752164
Si Si6 0.109534 0.465942 0.510703
Si Si7 0.803270 0.450157 0.622475
Si Si8 0.903718 0.331151 0.596984
O O1 0.858061 0.750000 0.895821
O O2 0.812195 0.624807 0.908924
O O3 0.799443 0.654188 0.491302
O O4 0.982189 0.645780 0.072834
O O5 0.366158 0.060939 0.463975
O O6 0.325709 0.160449 0.102707
O O7 0.222063 0.045866 0.857147
O O8 0.352969 0.250000 0.861716
O O9 0.391725 0.389620 0.891354
O O10 0.939303 0.464780 0.490010
O O11 0.896709 0.337406 0.334081
O O12 0.025926 0.402684 0.362085
O O13 0.828899 0.434395 0.913128
O O14 0.312837 0.522417 0.652669
O O15 0.500000 0.500000 0.000000
O O16 0.124275 0.485200 0.304910
O O17 0.818316 0.379219 0.520273
O O18 0.879069 0.250000 0.602796
#
# Coordination Sequence:
#
# PCOD8070757 Si02
#       8
#     4   4   4   4   4   4   4   4
#     4   9  19  34  53  85 126 162 192 227 281 356
#     4  11  19  35  60  88 120 150 191 232 296 350
#     4  10  22  39  62  92 124 154 190 242 301 359
#     4  10  20  33  54  81 123 156 193 232 286 344
#     4  11  25  43  64  87 114 153 203 259 306 348
#     4  10  19  31  53  88 114 151 186 232 282 356
#     4  11  22  37  57  82 115 153 201 249 293 347
#     4  10  22  36  54  84 123 165 203 235 282 356
#
# _framework density 19.960912
#
# number of rings (size 3 to 8) (size 9 to 14) (size 15 to 20)
#    0.000    1.750    3.750    0.750    1.750    1.500 
#    0.000    0.625    0.000    1.500    0.000    0.000 
#    0.000    0.000    0.000    0.000    0.000    0.000 
#
# Total GULP energy -396604.912192 kJ/mol
# GULP energy per Si atom -12393.903506 kJ/mol
# Density = 1.991548 g / cm^3
# Si number density = 19.960912 Si / 1000 Ang^3
#
#
#
# Elastic Constant Matrix: (Units=GPa)
#
#
# Indices 1 2 3 4 5 6 
#
# 1 93.1166 51.5574 53.5421 0.0000 -1.4628 0.0000
# 2 51.5574 99.4555 50.5635 0.0000 6.0163 0.0000
# 3 53.5421 50.5635 86.0461 0.0000 -6.0059 0.0000
# 4 0.0000 0.0000 0.0000 30.1104 0.0000 -2.9805
# 5 -1.4628 6.0163 -6.0059 0.0000 36.4123 0.0000
# 6 0.0000 0.0000 0.0000 -2.9805 0.0000 30.8350
#
#
#
# Elastic Compliance Matrix: (Units=1/GPa)
#
#
# Indices 1 2 3 4 5 6 
#
# 1 0.018517 -0.005370 -0.008349 0.000000 0.000254 0.000000
# 2 -0.005370 0.016436 -0.006597 0.000000 -0.004020 0.000000
# 3 -0.008349 -0.006597 0.020988 0.000000 0.004216 0.000000
# 4 0.000000 0.000000 0.000000 0.033532 0.000000 0.003241
# 5 0.000254 -0.004020 0.004216 0.000000 0.028833 0.000000
# 6 0.000000 0.000000 0.000000 0.003241 0.000000 0.032744
#
#
# Mechanical properties :
#
#
# Convention : Reuss Voigt Hill
#
# Bulk Modulus (GPa) = 65.32383 65.54937 65.43660
# Shear Modulus (GPa) = 25.40842 27.66854 26.53848
#
# Velocity S-wave (km/s) = 3.57166 3.72712 3.65022
# Velocity P-wave (km/s) = 7.05733 7.17162 7.11470
#
# Compressibility (1/GPa) = 0.01530835
#
# Stress axis : x y z
#
# Youngs Moduli (GPa) = 54.00394 60.84297 47.64641
#
# Poissons Ratio (x) = 0.32672 0.39780
# Poissons Ratio (y) = 0.29000 0.31434
# Poissons Ratio (z) = 0.45088 0.40140
#
# Static dielectric constant tensor:
#      x y z
#    x 3.510480 0.000000 -0.374090 
#    y 0.000000 3.697560 0.000000 
#    z -0.374090 0.000000 3.535680 
# 
# 
# High freq. dielectric constant tensor:
#      x y z
#    x 1.759610 0.000000 -0.035900 
#    y 0.000000 1.777400 0.000000 
#    z -0.035900 0.000000 1.758760 
# 
# From -- ./inp_files/8350.got.cif
#   From: 2010.06.25/outbox.cif.g09.slc.cpg/sg11_5_cif.got.tgz:8350.got - 2010.06.27 23:14:04.
