data_PCOD8070177
_publ_section_title
;
Structure prediction by ZEFSAII (Michael W. Deem and Ramdas Pophale) SiO2 
 PCOD8070177
Probable space group: P 21/M
;
_chemical_formula_sum "Si O2"
_cell_formula_units_Z 32
_cell_length_a 11.330115
_cell_length_b 9.682320
_cell_length_c 16.143991
_cell_angle_alpha 90.000000
_cell_angle_beta 91.708894
_cell_angle_gamma 90.000000
_cell_volume 1770.237181
_symmetry_space_group_name_H-M "P 21/M"
_symmetry_group_IT_number 11
_symmetry_cell_setting 'monoclinic'
loop_
_space_group_symop_operation_xyz
x,y,z
-x,1/2+y,-z
-x,-y,-z
x,1/2-y,z
loop_
_atom_site_type_symbol
_atom_site_label
_atom_site_fract_x
_atom_site_fract_y
_atom_site_fract_z
Si Si1 0.952344 0.404412 0.721910
Si Si2 0.642186 0.900786 0.814807
Si Si3 0.231731 0.407447 0.357671
Si Si4 0.799965 0.910055 0.205360
Si Si5 0.431388 0.585942 0.429942
Si Si6 0.886371 0.102851 0.073365
Si Si7 0.866959 0.486905 0.893183
Si Si8 0.455198 0.092286 0.745207
O O1 0.939281 0.250000 0.683733
O O2 0.894318 0.518086 0.660078
O O3 0.889795 0.398056 0.810725
O O4 0.089766 0.446973 0.732994
O O5 0.591236 0.750000 0.835605
O O6 0.701320 0.897857 0.726721
O O7 0.740492 0.938608 0.884603
O O8 0.533581 0.006870 0.812071
O O9 0.215061 0.250000 0.392997
O O10 0.305157 0.508571 0.419931
O O11 0.801051 0.750000 0.182892
O O12 0.680868 0.954582 0.249845
O O13 0.811228 0.985532 0.117400
O O14 0.500000 0.500000 0.500000
O O15 0.415674 0.750000 0.451493
O O16 0.505953 0.568689 0.347935
O O17 0.844078 0.250000 0.107814
O O18 0.026247 0.094630 0.094427
O O19 0.863184 0.105984 0.974796
O O20 0.471777 0.250000 0.772102
#
# Coordination Sequence:
#
# PCOD8070177 Si02
#       8
#     4   4   4   4   4   4   4   4
#     4   9  16  28  48  70  93 124 160 196 235 279
#     4   9  17  29  47  69  92 121 156 196 238 278
#     4   9  17  29  46  72 102 125 152 192 235 277
#     4   9  19  34  49  67  94 128 162 195 237 285
#     4  10  19  32  53  78 102 126 153 188 232 280
#     4  10  19  30  47  70  94 123 162 204 244 287
#     4   9  18  29  45  68  97 124 154 200 251 289
#     4   9  19  35  52  70  95 127 158 189 229 282
#
# _framework density 18.076675000000002
#
# number of rings (size 3 to 8) (size 9 to 14) (size 15 to 20)
#    0.000    2.750    0.000    1.500    0.000   11.000 
#    0.000    0.625    0.000    0.750    0.000    0.000 
#    0.000    0.000    0.000    0.000    0.000    0.000 
#
# Total GULP energy -396588.658685 kJ/mol
# GULP energy per Si atom -12393.395584 kJ/mol
# Density = 1.803553 g / cm^3
# Si number density = 18.076675 Si / 1000 Ang^3
#
#
#
# Elastic Constant Matrix: (Units=GPa)
#
#
# Indices 1 2 3 4 5 6 
#
# 1 124.5442 65.2486 36.5345 0.0000 17.9842 0.0000
# 2 65.2486 125.8282 35.2312 0.0000 18.5335 0.0000
# 3 36.5345 35.2312 44.9160 0.0000 19.7038 0.0000
# 4 0.0000 0.0000 0.0000 12.6458 0.0000 -3.0453
# 5 17.9842 18.5335 19.7038 0.0000 26.0460 0.0000
# 6 0.0000 0.0000 0.0000 -3.0453 0.0000 11.2248
#
#
#
# Elastic Compliance Matrix: (Units=1/GPa)
#
#
# Indices 1 2 3 4 5 6 
#
# 1 0.012322 -0.004574 -0.006182 0.000000 -0.000577 0.000000
# 2 -0.004574 0.011938 -0.004943 0.000000 -0.001597 0.000000
# 3 -0.006182 -0.004943 0.041540 0.000000 -0.023638 0.000000
# 4 0.000000 0.000000 0.000000 0.084605 0.000000 0.022953
# 5 -0.000577 -0.001597 -0.023638 0.000000 0.057811 0.000000
# 6 0.000000 0.000000 0.000000 0.022953 0.000000 0.095316
#
#
# Mechanical properties :
#
#
# Convention : Reuss Voigt Hill
#
# Bulk Modulus (GPa) = 29.06838 63.25745 46.16292
# Shear Modulus (GPa) = 14.43424 20.53491 17.48458
#
# Velocity S-wave (km/s) = 2.82884 3.37410 3.11343
# Velocity P-wave (km/s) = 5.17545 7.08868 6.20623
#
# Compressibility (1/GPa) = 0.03440164
#
# Stress axis : x y z
#
# Youngs Moduli (GPa) = 81.15346 83.76284 24.07346
#
# Poissons Ratio (x) = 0.38312 0.14883
# Poissons Ratio (y) = 0.37118 0.11900
# Poissons Ratio (z) = 0.50171 0.41406
#
# Static dielectric constant tensor:
#      x y z
#    x 3.470210 0.000000 0.208010 
#    y 0.000000 3.528610 0.000000 
#    z 0.208010 0.000000 3.006170 
# 
# 
# High freq. dielectric constant tensor:
#      x y z
#    x 1.692570 0.000000 0.025520 
#    y 0.000000 1.710590 0.000000 
#    z 0.025520 0.000000 1.659270 
# 
# From -- ./inp_files/49300.got.cif
#   From: 2010.06.25/outbox.cif.g09.slc.cpg/sg11_25_cif.got.tgz:49300.got - 2010.06.27 23:14:04.
