data_PCOD8070171
_publ_section_title
;
Structure prediction by ZEFSAII (Michael W. Deem and Ramdas Pophale) SiO2 
 PCOD8070171
Probable space group: P 21/M
;
_chemical_formula_sum "Si O2"
_cell_formula_units_Z 32
_cell_length_a 11.486739
_cell_length_b 9.237800
_cell_length_c 19.033611
_cell_angle_alpha 90.000000
_cell_angle_beta 64.438320
_cell_angle_gamma 90.000000
_cell_volume 1822.012863
_symmetry_space_group_name_H-M "P 21/M"
_symmetry_group_IT_number 11
_symmetry_cell_setting 'monoclinic'
loop_
_space_group_symop_operation_xyz
x,y,z
-x,1/2+y,-z
-x,-y,-z
x,1/2-y,z
loop_
_atom_site_type_symbol
_atom_site_label
_atom_site_fract_x
_atom_site_fract_y
_atom_site_fract_z
Si Si1 0.385408 0.917830 0.850059
Si Si2 0.899884 0.084804 0.072591
Si Si3 0.887656 0.917808 0.568558
Si Si4 0.374272 0.586790 0.198075
Si Si5 0.874641 0.917244 0.735530
Si Si6 0.364107 0.080337 0.710099
Si Si7 0.356456 0.590080 0.370008
Si Si8 0.121921 0.920125 0.760956
O O1 0.425104 0.750000 0.833113
O O2 0.244370 0.934894 0.922581
O O3 0.498084 0.002209 0.863152
O O4 0.370533 0.984400 0.777572
O O5 0.943065 0.250000 0.058731
O O6 0.906284 0.031720 0.151675
O O7 0.000000 0.000000 0.000000
O O8 0.897117 0.750000 0.547981
O O9 0.901992 0.950676 0.647072
O O10 0.748870 0.974555 0.576790
O O11 0.000000 0.000000 0.500000
O O12 0.378063 0.750000 0.167892
O O13 0.245275 0.509408 0.203684
O O14 0.375357 0.582772 0.281642
O O15 0.839974 0.750000 0.755766
O O16 0.000054 0.963603 0.745912
O O17 0.341876 0.250000 0.733097
O O18 0.501364 0.060202 0.633431
O O19 0.243250 0.013109 0.698575
O O20 0.307343 0.750000 0.404483
O O21 0.154349 0.750000 0.747234
#
# Coordination Sequence:
#
# PCOD8070171 Si02
#       8
#     4   4   4   4   4   4   4   4
#     4   9  16  27  43  64  90 120 153 188 227 270
#     4   9  18  30  46  68  93 121 151 187 228 269
#     4  10  19  30  47  69  92 120 151 185 226 270
#     4   9  16  26  43  68  93 116 147 191 235 268
#     4   9  18  32  49  68  92 124 156 185 225 276
#     4   9  16  26  43  68  93 117 148 190 234 267
#     4   8  15  27  42  63  91 117 145 184 225 266
#     4   9  18  32  48  68  94 123 155 188 225 273
#
# _framework density 17.562994
#
# number of rings (size 3 to 8) (size 9 to 14) (size 15 to 20)
#    0.000    3.000    0.000    3.000    0.000    7.000 
#    0.000    0.000    0.000    1.500    0.000    0.000 
#    0.000    0.000    0.000    0.000    0.000    0.000 
#
# Total GULP energy -396569.996446 kJ/mol
# GULP energy per Si atom -12392.812389 kJ/mol
# Density = 1.752302 g / cm^3
# Si number density = 17.562994 Si / 1000 Ang^3
#
#
#
# Elastic Constant Matrix: (Units=GPa)
#
#
# Indices 1 2 3 4 5 6 
#
# 1 147.8050 75.4457 42.9829 0.0000 -32.1480 0.0000
# 2 75.4457 116.5718 43.2928 0.0000 -27.7356 0.0000
# 3 42.9829 43.2928 46.5189 0.0000 -22.9808 0.0000
# 4 0.0000 0.0000 0.0000 24.1967 0.0000 -12.4837
# 5 -32.1480 -27.7356 -22.9808 0.0000 25.4331 0.0000
# 6 0.0000 0.0000 0.0000 -12.4837 0.0000 32.5092
#
#
#
# Elastic Compliance Matrix: (Units=1/GPa)
#
#
# Indices 1 2 3 4 5 6 
#
# 1 0.011502 -0.004782 -0.002838 0.000000 0.006760 0.000000
# 2 -0.004782 0.015608 -0.008462 0.000000 0.003331 0.000000
# 3 -0.002838 -0.008462 0.046355 0.000000 0.029069 0.000000
# 4 0.000000 0.000000 0.000000 0.051539 0.000000 0.019791
# 5 0.006760 0.003331 0.029069 0.000000 0.077762 0.000000
# 6 0.000000 0.000000 0.000000 0.019791 0.000000 0.038360
#
#
# Mechanical properties :
#
#
# Convention : Reuss Voigt Hill
#
# Bulk Modulus (GPa) = 24.21247 70.48207 47.34727
# Shear Modulus (GPa) = 17.41807 26.37275 21.89541
#
# Velocity S-wave (km/s) = 3.15262 3.87926 3.53466
# Velocity P-wave (km/s) = 5.20269 7.76422 6.60875
#
# Compressibility (1/GPa) = 0.04130103
#
# Stress axis : x y z
#
# Youngs Moduli (GPa) = 86.94019 64.06799 21.57266
#
# Poissons Ratio (x) = 0.30636 0.06123
# Poissons Ratio (y) = 0.41573 0.18255
# Poissons Ratio (z) = 0.24677 0.54215
#
# Static dielectric constant tensor:
#      x y z
#    x 3.727440 0.000000 -0.400490 
#    y 0.000000 3.418000 0.000000 
#    z -0.400490 0.000000 2.850680 
# 
# 
# High freq. dielectric constant tensor:
#      x y z
#    x 1.684540 0.000000 -0.037830 
#    y 0.000000 1.689490 0.000000 
#    z -0.037830 0.000000 1.623200 
# 
# From -- ./inp_files/64174.got.cif
#   From: 2010.06.25/outbox.cif.g09.slc.cpg/sg11_33_cif.got.tgz:64174.got - 2010.06.27 23:14:04.
