data_PCOD8070778
_publ_section_title
;
Structure prediction by ZEFSAII (Michael W. Deem and Ramdas Pophale) SiO2 
 PCOD8070778
Probable space group: P 21/M
;
_chemical_formula_sum "Si O2"
_cell_formula_units_Z 32
_cell_length_a 14.307905
_cell_length_b 8.833798
_cell_length_c 14.608319
_cell_angle_alpha 90.000000
_cell_angle_beta 106.330116
_cell_angle_gamma 90.000000
_cell_volume 1771.903551
_symmetry_space_group_name_H-M "P 21/M"
_symmetry_group_IT_number 11
_symmetry_cell_setting 'monoclinic'
loop_
_space_group_symop_operation_xyz
x,y,z
-x,1/2+y,-z
-x,-y,-z
x,1/2-y,z
loop_
_atom_site_type_symbol
_atom_site_label
_atom_site_fract_x
_atom_site_fract_y
_atom_site_fract_z
Si Si1 0.114873 0.571440 0.623377
Si Si2 0.204560 0.081812 0.935892
Si Si3 0.087741 0.927425 0.407510
Si Si4 0.013609 0.578609 0.099761
Si Si5 0.711106 0.073897 0.207319
Si Si6 0.825012 0.570612 0.736878
Si Si7 0.497625 0.569089 0.897999
Si Si8 0.690532 0.573029 0.855724
O O1 0.104474 0.750000 0.636209
O O2 0.123514 0.530791 0.518911
O O3 0.212299 0.502682 0.698654
O O4 0.019070 0.495929 0.640700
O O5 0.248790 0.250000 0.930398
O O6 0.091325 0.082865 0.881518
O O7 0.256919 0.961033 0.886768
O O8 0.225501 0.035039 0.046838
O O9 0.080701 0.750000 0.388782
O O10 0.169149 0.995177 0.361508
O O11 0.054672 0.750000 0.100712
O O12 0.079569 0.476229 0.181683
O O13 0.000000 0.500000 0.000000
O O14 0.713737 0.250000 0.225256
O O15 0.599333 0.016978 0.184563
O O16 0.823148 0.750000 0.725271
O O17 0.729697 0.511796 0.767973
O O18 0.501748 0.750000 0.910133
O O19 0.587660 0.504705 0.861952
O O20 0.500000 0.500000 0.000000
O O21 0.676213 0.750000 0.840694
#
# Coordination Sequence:
#
# PCOD8070778 Si02
#       8
#     4   4   4   4   4   4   4   4
#     4   9  19  36  55  77 107 135 165 209 258 308
#     4  10  19  32  47  67  99 136 167 198 244 298
#     4  10  20  35  55  79 104 134 170 209 256 308
#     4  11  21  32  46  68  99 135 171 205 244 296
#     4  10  20  32  51  78 100 127 166 211 257 299
#     4  11  21  35  52  71  99 138 175 210 252 302
#     4  10  19  33  52  73  99 131 171 210 251 299
#     4   9  18  33  49  67  97 136 170 201 245 299
#
# _framework density 18.059673
#
# number of rings (size 3 to 8) (size 9 to 14) (size 15 to 20)
#    0.000    2.000    2.500    1.875    0.000    4.000 
#    0.000    1.250    0.000    0.750    0.000    0.000 
#    0.000    0.000    0.000    0.000    0.000    0.500 
#
# Total GULP energy -396601.180613 kJ/mol
# GULP energy per Si atom -12393.786894 kJ/mol
# Density = 1.801857 g / cm^3
# Si number density = 18.059673 Si / 1000 Ang^3
#
#
#
# Elastic Constant Matrix: (Units=GPa)
#
#
# Indices 1 2 3 4 5 6 
#
# 1 132.9598 25.1772 61.6849 0.0000 -11.3792 0.0000
# 2 25.1772 31.3644 24.0458 0.0000 -2.3320 0.0000
# 3 61.6849 24.0458 89.8497 0.0000 -12.1754 0.0000
# 4 0.0000 0.0000 0.0000 26.6241 0.0000 -4.9876
# 5 -11.3792 -2.3320 -12.1754 0.0000 33.0344 0.0000
# 6 0.0000 0.0000 0.0000 -4.9876 0.0000 19.8054
#
#
#
# Elastic Compliance Matrix: (Units=1/GPa)
#
#
# Indices 1 2 3 4 5 6 
#
# 1 0.011463 -0.004031 -0.006625 0.000000 0.001222 0.000000
# 2 -0.004031 0.041576 -0.008578 0.000000 -0.001615 0.000000
# 3 -0.006625 -0.008578 0.018507 0.000000 0.003933 0.000000
# 4 0.000000 0.000000 0.000000 0.039420 0.000000 0.009927
# 5 0.001222 -0.001615 0.003933 0.000000 0.032028 0.000000
# 6 0.000000 0.000000 0.000000 0.009927 0.000000 0.052991
#
#
# Mechanical properties :
#
#
# Convention : Reuss Voigt Hill
#
# Bulk Modulus (GPa) = 30.23298 52.88775 41.56036
# Shear Modulus (GPa) = 20.36846 25.44384 22.90615
#
# Velocity S-wave (km/s) = 3.36198 3.75757 3.56527
# Velocity P-wave (km/s) = 5.64336 6.94078 6.32542
#
# Compressibility (1/GPa) = 0.03307647
#
# Stress axis : x y z
#
# Youngs Moduli (GPa) = 87.24010 24.05261 54.03501
#
# Poissons Ratio (x) = 0.09697 0.35798
# Poissons Ratio (y) = 0.35171 0.46349
# Poissons Ratio (z) = 0.57796 0.20632
#
# Static dielectric constant tensor:
#      x y z
#    x 3.716440 0.000000 -0.032540 
#    y 0.000000 3.241820 0.000000 
#    z -0.032540 0.000000 3.190010 
# 
# 
# High freq. dielectric constant tensor:
#      x y z
#    x 1.696960 0.000000 -0.007050 
#    y 0.000000 1.687130 0.000000 
#    z -0.007050 0.000000 1.685140 
# 
# From -- ./inp_files/51400.got.cif
#   From: 2010.06.25/outbox.cif.g09.slc.cpg/sg11_26_cif.got.tgz:51400.got - 2010.06.27 23:14:04.
