data_PCOD8070459
_publ_section_title
;
Structure prediction by ZEFSAII (Michael W. Deem and Ramdas Pophale) SiO2 
 PCOD8070459
Probable space group: P 21/M
;
_chemical_formula_sum "Si O2"
_cell_formula_units_Z 32
_cell_length_a 11.929244
_cell_length_b 8.980695
_cell_length_c 17.138915
_cell_angle_alpha 90.000000
_cell_angle_beta 85.831760
_cell_angle_gamma 90.000000
_cell_volume 1831.284961
_symmetry_space_group_name_H-M "P 21/M"
_symmetry_group_IT_number 11
_symmetry_cell_setting 'monoclinic'
loop_
_space_group_symop_operation_xyz
x,y,z
-x,1/2+y,-z
-x,-y,-z
x,1/2-y,z
loop_
_atom_site_type_symbol
_atom_site_label
_atom_site_fract_x
_atom_site_fract_y
_atom_site_fract_z
Si Si1 0.114626 0.426594 0.965215
Si Si2 0.438714 0.921663 0.185188
Si Si3 0.760149 0.075038 0.908894
Si Si4 0.521389 0.579390 0.579306
Si Si5 0.901372 0.919586 0.770459
Si Si6 0.616567 0.076132 0.265344
Si Si7 0.856253 0.077237 0.199092
Si Si8 0.702940 0.581185 0.683134
O O1 0.104133 0.250000 0.971759
O O2 0.140698 0.473361 0.876176
O O3 0.217155 0.484551 0.013311
O O4 0.000000 0.500000 0.000000
O O5 0.469807 0.750000 0.186901
O O6 0.369192 0.959763 0.109706
O O7 0.555305 0.010045 0.191057
O O8 0.356097 0.961299 0.259692
O O9 0.778301 0.250000 0.922012
O O10 0.848760 0.025577 0.838429
O O11 0.500000 0.500000 0.500000
O O12 0.492250 0.750000 0.566255
O O13 0.439540 0.514755 0.651732
O O14 0.653247 0.556686 0.598379
O O15 0.885839 0.750000 0.800877
O O16 0.837557 0.940779 0.689482
O O17 0.033442 0.954856 0.753581
O O18 0.596856 0.250000 0.262239
O O19 0.748040 0.033797 0.256463
O O20 0.850441 0.250000 0.173315
O O21 0.668961 0.750000 0.710554
#
# Coordination Sequence:
#
# PCOD8070459 Si02
#       8
#     4   4   4   4   4   4   4   4
#     4  12  23  34  49  71 100 132 168 209 251 294
#     4   9  17  29  48  72  96 125 163 207 249 291
#     4  10  19  31  48  71  98 126 164 213 255 290
#     4   9  17  30  50  75 101 128 160 199 243 291
#     4   9  16  28  49  72  94 125 164 204 249 294
#     4   9  19  35  52  72 101 132 163 201 245 300
#     4  10  20  34  52  73  97 129 167 206 251 299
#     4   8  15  28  46  71  99 125 158 200 243 291
#
# _framework density 17.474070000000001
#
# number of rings (size 3 to 8) (size 9 to 14) (size 15 to 20)
#    0.000    2.500    1.250    2.625    0.000    4.000 
#    0.000    0.625    0.000    0.750    0.000    0.000 
#    0.000    0.000    0.000    0.000    0.000    1.000 
#
# Total GULP energy -396464.684397 kJ/mol
# GULP energy per Si atom -12389.521387 kJ/mol
# Density = 1.743430 g / cm^3
# Si number density = 17.474070 Si / 1000 Ang^3
#
#
#
# Elastic Constant Matrix: (Units=GPa)
#
#
# Indices 1 2 3 4 5 6 
#
# 1 144.0058 38.1696 63.5376 0.0000 23.7715 0.0000
# 2 38.1696 64.1556 37.4376 0.0000 8.8270 0.0000
# 3 63.5376 37.4376 91.0749 0.0000 23.8676 0.0000
# 4 0.0000 0.0000 0.0000 25.4937 0.0000 5.5886
# 5 23.7715 8.8270 23.8676 0.0000 27.2287 0.0000
# 6 0.0000 0.0000 0.0000 5.5886 0.0000 21.3254
#
#
#
# Elastic Compliance Matrix: (Units=1/GPa)
#
#
# Indices 1 2 3 4 5 6 
#
# 1 0.010625 -0.002701 -0.005324 0.000000 -0.003734 0.000000
# 2 -0.002701 0.021212 -0.007336 0.000000 0.001912 0.000000
# 3 -0.005324 -0.007336 0.020601 0.000000 -0.011032 0.000000
# 4 0.000000 0.000000 0.000000 0.041616 0.000000 -0.010906
# 5 -0.003734 0.001912 -0.011032 0.000000 0.049036 0.000000
# 6 0.000000 0.000000 0.000000 -0.010906 0.000000 0.049751
#
#
# Mechanical properties :
#
#
# Convention : Reuss Voigt Hill
#
# Bulk Modulus (GPa) = 46.04929 64.16952 55.10941
# Shear Modulus (GPa) = 21.66356 25.48232 23.57294
#
# Velocity S-wave (km/s) = 3.52484 3.82290 3.67689
# Velocity P-wave (km/s) = 6.55562 7.50257 7.04502
#
# Compressibility (1/GPa) = 0.02171586
#
# Stress axis : x y z
#
# Youngs Moduli (GPa) = 94.11334 47.14295 48.54182
#
# Poissons Ratio (x) = 0.12734 0.25843
# Poissons Ratio (y) = 0.25422 0.35611
# Poissons Ratio (z) = 0.50104 0.34585
#
# Static dielectric constant tensor:
#      x y z
#    x 3.678380 0.000000 0.377740 
#    y 0.000000 3.273110 0.000000 
#    z 0.377740 0.000000 3.099240 
# 
# 
# High freq. dielectric constant tensor:
#      x y z
#    x 1.679120 0.000000 0.037460 
#    y 0.000000 1.676670 0.000000 
#    z 0.037460 0.000000 1.632880 
# 
# From -- ./inp_files/42488.got.cif
#   From: 2010.06.25/outbox.cif.g09.slc.cpg/sg11_22_cif.got.tgz:42488.got - 2010.06.27 23:14:04.
