data_PCOD8070511
_publ_section_title
;
Structure prediction by ZEFSAII (Michael W. Deem and Ramdas Pophale) SiO2 
 PCOD8070511
Probable space group: P 21/M
;
_chemical_formula_sum "Si O2"
_cell_formula_units_Z 24
_cell_length_a 27.329343
_cell_length_b 9.230884
_cell_length_c 26.830381
_cell_angle_alpha 90.000000
_cell_angle_beta 10.965081
_cell_angle_gamma 90.000000
_cell_volume 1287.461591
_symmetry_space_group_name_H-M "P 21/M"
_symmetry_group_IT_number 11
_symmetry_cell_setting 'monoclinic'
loop_
_space_group_symop_operation_xyz
x,y,z
-x,1/2+y,-z
-x,-y,-z
x,1/2-y,z
loop_
_atom_site_type_symbol
_atom_site_label
_atom_site_fract_x
_atom_site_fract_y
_atom_site_fract_z
Si Si1 0.999999 0.418921 0.448166
Si Si2 0.000015 0.922084 0.223323
Si Si3 0.500016 0.922285 0.781994
Si Si4 0.000046 0.578465 0.111682
Si Si5 0.499995 0.919307 0.113796
Si Si6 0.500048 0.922029 0.552415
O O1 0.999975 0.250000 0.460116
O O2 0.000000 0.500000 0.500000
O O3 0.749696 0.465642 0.667625
O O4 0.250312 0.465632 0.167010
O O5 0.000013 0.750000 0.220856
O O6 0.000014 0.987337 0.167473
O O7 0.748832 0.978294 0.503325
O O8 0.251201 0.978291 0.000955
O O9 0.500024 0.750000 0.787754
O O10 0.500009 0.990021 0.836111
O O11 0.000039 0.750000 0.115042
O O12 0.748437 0.523782 0.334354
O O13 0.251701 0.523788 0.831104
O O14 0.499989 0.750000 0.126846
O O15 0.500058 0.750000 0.544234
O O16 0.500000 0.000000 0.500000
#
# Coordination Sequence:
#
# PCOD8070511 Si02
#       6
#     4   4   4   4   4   4
#     4  10  21  36  54  75  99 130 165 201 240 282
#     4   9  17  30  49  74  99 122 159 206 241 277
#     4  10  19  31  51  76  98 124 160 202 241 277
#     4   9  17  30  49  71  95 126 161 197 241 289
#     4  10  21  36  52  73 103 134 161 193 240 294
#     4  10  19  31  49  71  95 126 161 197 241 289
#
# _framework density 18.641331999999998
#
# number of rings (size 3 to 8) (size 9 to 14) (size 15 to 20)
#    0.000    2.333    0.000    3.000    0.000    5.333 
#    0.000    0.000    0.000    6.000    0.000    0.000 
#    0.000    0.000    0.000    0.000    0.000    0.000 
#
# Total GULP energy -297683.059061 kJ/mol
# GULP energy per Si atom -12403.460794 kJ/mol
# Density = 1.859890 g / cm^3
# Si number density = 18.641332 Si / 1000 Ang^3
#
#
#
# Elastic Constant Matrix: (Units=GPa)
#
#
# Indices 1 2 3 4 5 6 
#
# 1 212.5372 47.7051 117.5365 0.0000 2.4116 0.0000
# 2 47.7051 26.2874 32.2382 0.0000 2.1077 0.0000
# 3 117.5365 32.2382 213.0045 0.0000 -2.5017 0.0000
# 4 0.0000 0.0000 0.0000 3.6673 0.0000 3.8540
# 5 2.4116 2.1077 -2.5017 0.0000 39.2881 0.0000
# 6 0.0000 0.0000 0.0000 3.8540 0.0000 31.9485
#
#
#
# Elastic Compliance Matrix: (Units=1/GPa)
#
#
# Indices 1 2 3 4 5 6 
#
# 1 0.009445 -0.013190 -0.003217 0.000000 -0.000077 0.000000
# 2 -0.013190 0.065477 -0.002665 0.000000 -0.002873 0.000000
# 3 -0.003217 -0.002665 0.006882 0.000000 0.000779 0.000000
# 4 0.000000 0.000000 0.000000 0.312263 0.000000 -0.037668
# 5 -0.000077 -0.002873 0.000779 0.000000 0.025661 0.000000
# 6 0.000000 0.000000 0.000000 -0.037668 0.000000 0.035844
#
#
# Mechanical properties :
#
#
# Convention : Reuss Voigt Hill
#
# Bulk Modulus (GPa) = 22.90408 94.08765 58.49586
# Shear Modulus (GPa) = 9.83729 31.93740 20.88735
#
# Velocity S-wave (km/s) = 2.29970 4.14364 3.35100
# Velocity P-wave (km/s) = 4.40055 8.57177 6.81322
#
# Compressibility (1/GPa) = 0.04366035
#
# Stress axis : x y z
#
# Youngs Moduli (GPa) = 105.87264 15.27261 145.30278
#
# Poissons Ratio (x) = 0.20145 0.46737
# Poissons Ratio (y) = 1.39646 0.38728
# Poissons Ratio (z) = 0.34054 0.04071
#
# Static dielectric constant tensor:
#      x y z
#    x 3.540480 0.000000 -0.089750 
#    y 0.000000 2.984440 0.000000 
#    z -0.089750 0.000000 4.202330 
# 
# 
# High freq. dielectric constant tensor:
#      x y z
#    x 1.742010 0.000000 -0.000870 
#    y 0.000000 1.679080 0.000000 
#    z -0.000870 0.000000 1.748380 
# 
# From -- ./inp_files/9248.got.cif
#   From: 2010.06.25/outbox.cif.g09.slc.cpg/sg11_5_cif.got.tgz:9248.got - 2010.06.27 23:14:04.
