data_PCOD8070657
_publ_section_title
;
Structure prediction by ZEFSAII (Michael W. Deem and Ramdas Pophale) SiO2 
 PCOD8070657
Probable space group: P 21/M
;
_chemical_formula_sum "Si O2"
_cell_formula_units_Z 32
_cell_length_a 17.251783
_cell_length_b 15.710594
_cell_length_c 11.498478
_cell_angle_alpha 90.000000
_cell_angle_beta 145.031050
_cell_angle_gamma 90.000000
_cell_volume 1786.166487
_symmetry_space_group_name_H-M "P 21/M"
_symmetry_group_IT_number 11
_symmetry_cell_setting 'monoclinic'
loop_
_space_group_symop_operation_xyz
x,y,z
-x,1/2+y,-z
-x,-y,-z
x,1/2-y,z
loop_
_atom_site_type_symbol
_atom_site_label
_atom_site_fract_x
_atom_site_fract_y
_atom_site_fract_z
Si Si1 0.103061 0.151998 0.820542
Si Si2 0.353302 0.904752 0.880486
Si Si3 0.888149 0.846019 0.422010
Si Si4 0.179592 0.499559 0.324021
Si Si5 0.168182 0.647275 0.866471
Si Si6 0.198308 0.659296 0.487056
Si Si7 0.664079 0.924356 0.280926
Si Si8 0.867959 0.008173 0.994325
O O1 0.149304 0.250000 0.907570
O O2 0.151150 0.118426 0.753426
O O3 0.941505 0.145107 0.617270
O O4 0.162229 0.082900 0.982487
O O5 0.277496 0.879243 0.904825
O O6 0.314915 0.842367 0.728046
O O7 0.315583 0.998198 0.785277
O O8 0.511121 0.894096 0.100792
O O9 0.931543 0.750000 0.453046
O O10 0.759411 0.850695 0.347833
O O11 0.021865 0.887243 0.643202
O O12 0.215243 0.595354 0.402674
O O13 0.284626 0.441793 0.525098
O O14 0.207197 0.495427 0.221059
O O15 0.026781 0.474011 0.169207
O O16 0.174195 0.750000 0.900162
O O17 0.194947 0.589796 0.014942
O O18 0.202969 0.750000 0.430071
#
# Coordination Sequence:
#
# PCOD8070657 Si02
#       8
#     4   4   4   4   4   4   4   4
#     4   9  17  30  51  78 103 132 174 218 265 320
#     4  10  20  32  53  78 105 137 173 219 271 331
#     4  10  19  31  50  77 106 132 168 219 272 322
#     4   9  19  33  50  75 105 139 182 215 260 318
#     4  11  21  33  53  81 108 139 181 224 268 321
#     4   9  16  29  50  74 102 135 171 216 261 315
#     4  10  20  35  51  77 107 138 176 215 275 326
#     4  10  19  33  53  75 105 145 178 219 264 308
#
# _framework density 17.915462999999999
#
# number of rings (size 3 to 8) (size 9 to 14) (size 15 to 20)
#    0.000    2.250    2.500    1.125    0.000    2.500 
#    0.000    3.125    0.000    0.000    0.000    5.250 
#    0.000    0.000    0.000    0.000    0.000    0.000 
#
# Total GULP energy -396535.190662 kJ/mol
# GULP energy per Si atom -12391.724708 kJ/mol
# Density = 1.787469 g / cm^3
# Si number density = 17.915463 Si / 1000 Ang^3
#
#
#
# Elastic Constant Matrix: (Units=GPa)
#
#
# Indices 1 2 3 4 5 6 
#
# 1 106.5847 49.3174 61.3806 0.0000 -20.1244 0.0000
# 2 49.3174 80.3405 31.6564 0.0000 -16.5936 0.0000
# 3 61.3806 31.6564 98.0049 0.0000 -13.6312 0.0000
# 4 0.0000 0.0000 0.0000 12.2967 0.0000 3.1893
# 5 -20.1244 -16.5936 -13.6312 0.0000 30.5883 0.0000
# 6 0.0000 0.0000 0.0000 3.1893 0.0000 18.4077
#
#
#
# Elastic Compliance Matrix: (Units=1/GPa)
#
#
# Indices 1 2 3 4 5 6 
#
# 1 0.018461 -0.006985 -0.008682 0.000000 0.004488 0.000000
# 2 -0.006985 0.018042 -0.000779 0.000000 0.004845 0.000000
# 3 -0.008682 -0.000779 0.016033 0.000000 0.001010 0.000000
# 4 0.000000 0.000000 0.000000 0.085149 0.000000 -0.014753
# 5 0.004488 0.004845 0.001010 0.000000 0.038723 0.000000
# 6 0.000000 0.000000 0.000000 -0.014753 0.000000 0.056881
#
#
# Mechanical properties :
#
#
# Convention : Reuss Voigt Hill
#
# Bulk Modulus (GPa) = 50.90404 63.29321 57.09862
# Shear Modulus (GPa) = 18.33312 21.76360 20.04836
#
# Velocity S-wave (km/s) = 3.20240 3.48917 3.34885
# Velocity P-wave (km/s) = 6.49222 7.18595 6.84788
#
# Compressibility (1/GPa) = 0.01964481
#
# Stress axis : x y z
#
# Youngs Moduli (GPa) = 54.16764 55.42493 62.36984
#
# Poissons Ratio (x) = 0.38712 0.54149
# Poissons Ratio (y) = 0.37834 0.04862
# Poissons Ratio (z) = 0.47028 0.04320
#
# Static dielectric constant tensor:
#      x y z
#    x 3.170740 0.000000 -0.146320 
#    y 0.000000 3.387990 0.000000 
#    z -0.146320 0.000000 3.157300 
# 
# 
# High freq. dielectric constant tensor:
#      x y z
#    x 1.680910 0.000000 -0.011110 
#    y 0.000000 1.696150 0.000000 
#    z -0.011110 0.000000 1.669440 
# 
# From -- ./inp_files/41728.got.cif
#   From: 2010.06.25/outbox.cif.g09.slc.cpg/sg11_21_cif.got.tgz:41728.got - 2010.06.27 23:14:04.
