data_PCOD8070940
_publ_section_title
;
Structure prediction by ZEFSAII (Michael W. Deem and Ramdas Pophale) SiO2 
 PCOD8070940
Probable space group: P 21/M
;
_chemical_formula_sum "Si O2"
_cell_formula_units_Z 32
_cell_length_a 20.646925
_cell_length_b 8.801197
_cell_length_c 14.278821
_cell_angle_alpha 90.000000
_cell_angle_beta 136.507582
_cell_angle_gamma 90.000000
_cell_volume 1785.834077
_symmetry_space_group_name_H-M "P 21/M"
_symmetry_group_IT_number 11
_symmetry_cell_setting 'monoclinic'
loop_
_space_group_symop_operation_xyz
x,y,z
-x,1/2+y,-z
-x,-y,-z
x,1/2-y,z
loop_
_atom_site_type_symbol
_atom_site_label
_atom_site_fract_x
_atom_site_fract_y
_atom_site_fract_z
Si Si1 0.483106 0.570559 0.583649
Si Si2 0.137344 0.927712 0.425492
Si Si3 0.728143 0.074949 0.595241
Si Si4 0.792072 0.577316 0.125292
Si Si5 0.798108 0.569708 0.846948
Si Si6 0.658716 0.429152 0.846443
Si Si7 0.100494 0.429293 0.581679
Si Si8 0.951769 0.922060 0.141836
O O1 0.500000 0.500000 0.500000
O O2 0.496872 0.750000 0.591382
O O3 0.380088 0.525554 0.513245
O O4 0.554686 0.500546 0.734490
O O5 0.119289 0.750000 0.427812
O O6 0.233889 0.954110 0.469871
O O7 0.051410 0.998383 0.272937
O O8 0.143136 0.015878 0.528624
O O9 0.740943 0.250000 0.637597
O O10 0.791585 0.975347 0.732122
O O11 0.755061 0.750000 0.086448
O O12 0.821460 0.522315 0.259511
O O13 0.885337 0.562359 0.161659
O O14 0.708976 0.473240 0.996679
O O15 0.790058 0.750000 0.853281
O O16 0.712711 0.493064 0.812813
O O17 0.897195 0.507539 0.994473
O O18 0.651807 0.250000 0.830756
O O19 0.086567 0.250000 0.566960
O O20 0.000000 0.500000 0.500000
O O21 0.974857 0.750000 0.140467
#
# Coordination Sequence:
#
# PCOD8070940 Si02
#       8
#     4   4   4   4   4   4   4   4
#     4  11  21  35  55  80 107 143 184 225 275 324
#     4  10  20  37  55  76 110 148 182 225 270 321
#     4  10  22  36  53  77 108 144 185 226 271 322
#     4   9  18  34  54  78 109 141 173 217 270 319
#     4  10  19  32  51  74 107 146 182 219 261 319
#     4  11  21  33  53  82 109 136 177 227 274 322
#     4  11  21  35  57  84 111 143 183 225 268 320
#     4   8  15  30  50  73 104 143 177 208 259 313
#
# _framework density 17.918797000000001
#
# number of rings (size 3 to 8) (size 9 to 14) (size 15 to 20)
#    0.000    2.000    2.500    3.000    0.000    2.500 
#    0.000    0.625    0.000    0.750    0.000    0.000 
#    0.000    0.000    0.000    0.000    0.000    0.000 
#
# Total GULP energy -396732.552260 kJ/mol
# GULP energy per Si atom -12397.892258 kJ/mol
# Density = 1.787801 g / cm^3
# Si number density = 17.918797 Si / 1000 Ang^3
#
#
#
# Elastic Constant Matrix: (Units=GPa)
#
#
# Indices 1 2 3 4 5 6 
#
# 1 86.3364 29.3340 59.3705 0.0000 -4.3190 0.0000
# 2 29.3340 72.9911 44.9150 0.0000 -4.6622 0.0000
# 3 59.3705 44.9150 123.9526 0.0000 -4.5813 0.0000
# 4 0.0000 0.0000 0.0000 29.2246 0.0000 -4.7621
# 5 -4.3190 -4.6622 -4.5813 0.0000 24.1498 0.0000
# 6 0.0000 0.0000 0.0000 -4.7621 0.0000 22.5446
#
#
#
# Elastic Compliance Matrix: (Units=1/GPa)
#
#
# Indices 1 2 3 4 5 6 
#
# 1 0.017637 -0.002365 -0.007544 0.000000 0.001267 0.000000
# 2 -0.002365 0.018067 -0.005338 0.000000 0.002052 0.000000
# 3 -0.007544 -0.005338 0.013623 0.000000 0.000205 0.000000
# 4 0.000000 0.000000 0.000000 0.035437 0.000000 0.007485
# 5 0.001267 0.002052 0.000205 0.000000 0.042070 0.000000
# 6 0.000000 0.000000 0.000000 0.007485 0.000000 0.045938
#
#
# Mechanical properties :
#
#
# Convention : Reuss Voigt Hill
#
# Bulk Modulus (GPa) = 53.09915 61.16878 57.13397
# Shear Modulus (GPa) = 23.86144 25.16117 24.51130
#
# Velocity S-wave (km/s) = 3.65313 3.75130 3.70254
# Velocity P-wave (km/s) = 6.89139 7.27831 7.08749
#
# Compressibility (1/GPa) = 0.01883269
#
# Stress axis : x y z
#
# Youngs Moduli (GPa) = 56.69797 55.35105 73.40615
#
# Poissons Ratio (x) = 0.13091 0.55378
# Poissons Ratio (y) = 0.13409 0.39183
# Poissons Ratio (z) = 0.42773 0.29546
#
# Static dielectric constant tensor:
#      x y z
#    x 3.119420 0.000000 0.031310 
#    y 0.000000 3.235050 0.000000 
#    z 0.031310 0.000000 3.611650 
# 
# 
# High freq. dielectric constant tensor:
#      x y z
#    x 1.665310 0.000000 -0.000130 
#    y 0.000000 1.685400 0.000000 
#    z -0.000130 0.000000 1.703730 
# 
# From -- ./inp_files/54368.got.cif
#   From: 2010.06.25/outbox.cif.g09.slc.cpg/sg11_28_cif.got.tgz:54368.got - 2010.06.27 23:14:04.
