data_PCOD8070532
_publ_section_title
;
Structure prediction by ZEFSAII (Michael W. Deem and Ramdas Pophale) SiO2 
 PCOD8070532
Probable space group: P 21/M
;
_chemical_formula_sum "Si O2"
_cell_formula_units_Z 32
_cell_length_a 12.635384
_cell_length_b 8.697838
_cell_length_c 23.384503
_cell_angle_alpha 90.000000
_cell_angle_beta 44.885821
_cell_angle_gamma 90.000000
_cell_volume 1813.617581
_symmetry_space_group_name_H-M "P 21/M"
_symmetry_group_IT_number 11
_symmetry_cell_setting 'monoclinic'
loop_
_space_group_symop_operation_xyz
x,y,z
-x,1/2+y,-z
-x,-y,-z
x,1/2-y,z
loop_
_atom_site_type_symbol
_atom_site_label
_atom_site_fract_x
_atom_site_fract_y
_atom_site_fract_z
Si Si1 0.595482 0.569928 0.335379
Si Si2 0.157772 0.431248 0.454639
Si Si3 0.175932 0.931804 0.180791
Si Si4 0.294029 0.930722 0.509944
Si Si5 0.838045 0.932416 0.327663
Si Si6 0.552396 0.430777 0.844834
Si Si7 0.436844 0.566614 0.286359
Si Si8 0.637689 0.929911 0.980550
O O1 0.593267 0.750000 0.328520
O O2 0.465510 0.522683 0.430099
O O3 0.756576 0.518889 0.299066
O O4 0.559941 0.502026 0.285320
O O5 0.161123 0.250000 0.444501
O O6 0.187336 0.473574 0.508965
O O7 0.274711 0.510471 0.367430
O O8 0.000000 0.500000 0.500000
O O9 0.180434 0.750000 0.175922
O O10 0.298262 0.996071 0.179863
O O11 0.009944 0.989251 0.261060
O O12 0.212083 0.993732 0.102698
O O13 0.266937 0.750000 0.511324
O O14 0.253604 0.979186 0.589078
O O15 0.826447 0.750000 0.342266
O O16 0.577270 0.250000 0.830853
O O17 0.532310 0.501096 0.789019
O O18 0.398349 0.467046 0.938865
O O19 0.437225 0.750000 0.285006
O O20 0.646290 0.750000 0.966431
O O21 0.500000 0.000000 0.000000
#
# Coordination Sequence:
#
# PCOD8070532 Si02
#       8
#     4   4   4   4   4   4   4   4
#     4   8  16  31  49  69  94 127 167 207 246 289
#     4  11  22  35  49  69  99 133 163 198 244 292
#     4   9  18  30  45  70  99 127 158 195 243 297
#     4  10  20  34  50  71  95 126 169 210 248 290
#     4  10  19  31  49  72  98 129 165 206 250 294
#     4   8  15  28  48  71  93 121 157 194 238 292
#     4   9  17  32  52  71  94 125 164 206 243 288
#     4   9  16  29  48  70  96 126 156 191 238 294
#
# _framework density 17.644293000000001
#
# number of rings (size 3 to 8) (size 9 to 14) (size 15 to 20)
#    0.000    2.750    0.000    3.750    1.750    0.500 
#    0.000    5.625    0.000    0.750    0.000    0.000 
#    0.000    0.000    0.000    0.000    0.000    0.500 
#
# Total GULP energy -396491.729145 kJ/mol
# GULP energy per Si atom -12390.366536 kJ/mol
# Density = 1.760413 g / cm^3
# Si number density = 17.644293 Si / 1000 Ang^3
#
#
#
# Elastic Constant Matrix: (Units=GPa)
#
#
# Indices 1 2 3 4 5 6 
#
# 1 88.4439 11.1666 61.7501 0.0000 12.3449 0.0000
# 2 11.1666 22.5444 15.7346 0.0000 1.0787 0.0000
# 3 61.7501 15.7346 115.0609 0.0000 21.1582 0.0000
# 4 0.0000 0.0000 0.0000 26.2898 0.0000 1.5071
# 5 12.3449 1.0787 21.1582 0.0000 23.9564 0.0000
# 6 0.0000 0.0000 0.0000 1.5071 0.0000 14.4508
#
#
#
# Elastic Compliance Matrix: (Units=1/GPa)
#
#
# Indices 1 2 3 4 5 6 
#
# 1 0.018227 -0.002533 -0.009228 0.000000 -0.001128 0.000000
# 2 -0.002533 0.049787 -0.006300 0.000000 0.004628 0.000000
# 3 -0.009228 -0.006300 0.016211 0.000000 -0.009279 0.000000
# 4 0.000000 0.000000 0.000000 0.038266 0.000000 -0.003991
# 5 -0.001128 0.004628 -0.009279 0.000000 0.050311 0.000000
# 6 0.000000 0.000000 0.000000 -0.003991 0.000000 0.069616
#
#
# Mechanical properties :
#
#
# Convention : Reuss Voigt Hill
#
# Bulk Modulus (GPa) = 20.78881 44.81688 32.80284
# Shear Modulus (GPa) = 16.97364 22.09927 19.53645
#
# Velocity S-wave (km/s) = 3.10496 3.54289 3.33113
# Velocity P-wave (km/s) = 4.96610 6.49549 5.78159
#
# Compressibility (1/GPa) = 0.04810280
#
# Stress axis : x y z
#
# Youngs Moduli (GPa) = 54.86466 20.08552 61.68605
#
# Poissons Ratio (x) = 0.05089 0.56923
# Poissons Ratio (y) = 0.13900 0.38861
# Poissons Ratio (z) = 0.50628 0.12653
#
# Static dielectric constant tensor:
#      x y z
#    x 4.294010 0.000000 0.304710 
#    y 0.000000 3.155820 0.000000 
#    z 0.304710 0.000000 3.669500 
# 
# 
# High freq. dielectric constant tensor:
#      x y z
#    x 1.669610 0.000000 0.009100 
#    y 0.000000 1.661450 0.000000 
#    z 0.009100 0.000000 1.679310 
# 
# From -- ./inp_files/61737.got.cif
#   From: 2010.06.25/outbox.cif.g09.slc.cpg/sg11_31_cif.got.tgz:61737.got - 2010.06.27 23:14:04.
