data_PCOD8070233
_publ_section_title
;
Structure prediction by ZEFSAII (Michael W. Deem and Ramdas Pophale) SiO2 
 PCOD8070233
Probable space group: P 21/M
;
_chemical_formula_sum "Si O2"
_cell_formula_units_Z 32
_cell_length_a 16.355205
_cell_length_b 8.645617
_cell_length_c 25.059435
_cell_angle_alpha 90.000000
_cell_angle_beta 153.206712
_cell_angle_gamma 90.000000
_cell_volume 1597.280280
_symmetry_space_group_name_H-M "P 21/M"
_symmetry_group_IT_number 11
_symmetry_cell_setting 'monoclinic'
loop_
_space_group_symop_operation_xyz
x,y,z
-x,1/2+y,-z
-x,-y,-z
x,1/2-y,z
loop_
_atom_site_type_symbol
_atom_site_label
_atom_site_fract_x
_atom_site_fract_y
_atom_site_fract_z
Si Si1 0.412440 0.071921 0.396919
Si Si2 0.303849 0.072940 0.804875
Si Si3 0.659984 0.065701 0.960816
Si Si4 0.038529 0.072988 0.228144
Si Si5 0.952381 0.432608 0.654560
Si Si6 0.594946 0.568451 0.401708
Si Si7 0.162649 0.578515 0.622903
Si Si8 0.524696 0.920861 0.774586
O O1 0.473961 0.250000 0.426708
O O2 0.194769 0.058188 0.274842
O O3 0.500000 0.000000 0.500000
O O4 0.474907 0.976640 0.382441
O O5 0.330268 0.250000 0.835278
O O6 0.507197 0.000493 0.914622
O O7 0.157624 0.000076 0.761598
O O8 0.211120 0.049721 0.694285
O O9 0.645924 0.250000 0.949298
O O10 0.636956 0.002755 0.887386
O O11 0.853252 0.008010 0.094879
O O12 0.014478 0.250000 0.232619
O O13 0.096393 0.974723 0.313394
O O14 0.953396 0.250000 0.646753
O O15 0.798299 0.498325 0.524974
O O16 0.619020 0.750000 0.412944
O O17 0.479006 0.514549 0.282858
O O18 0.117782 0.750000 0.620672
O O19 0.318122 0.596857 0.670483
O O20 0.000000 0.500000 0.500000
O O21 0.609212 0.750000 0.814071
#
# Coordination Sequence:
#
# PCOD8070233 Si02
#       8
#     4   4   4   4   4   4   4   4
#     4  11  22  39  62  89 118 149 186 233 290 349
#     4   9  19  34  52  77 111 151 191 231 278 330
#     4   9  19  39  61  82 114 155 196 235 277 336
#     4  10  22  39  61  86 114 150 191 235 287 345
#     4  11  22  35  55  85 119 153 192 239 288 340
#     4  12  24  38  59  87 117 151 191 238 293 346
#     4  10  19  30  48  74 106 145 188 233 282 334
#     4  10  21  37  56  82 114 149 190 237 286 338
#
# _framework density 20.034053
#
# number of rings (size 3 to 8) (size 9 to 14) (size 15 to 20)
#    0.000    1.750    1.250    3.375    0.000    7.000 
#    0.000    0.625    0.000    0.000    0.000    0.000 
#    0.000    0.000    0.000    0.000    0.000    0.000 
#
# Total GULP energy -396529.274288 kJ/mol
# GULP energy per Si atom -12391.539822 kJ/mol
# Density = 1.998845 g / cm^3
# Si number density = 20.034053 Si / 1000 Ang^3
#
#
#
# Elastic Constant Matrix: (Units=GPa)
#
#
# Indices 1 2 3 4 5 6 
#
# 1 86.2768 20.0816 16.9670 0.0000 1.6447 0.0000
# 2 20.0816 72.1520 15.6879 0.0000 0.5649 0.0000
# 3 16.9670 15.6879 83.8581 0.0000 11.8198 0.0000
# 4 0.0000 0.0000 0.0000 21.8215 0.0000 -4.7616
# 5 1.6447 0.5649 11.8198 0.0000 26.6787 0.0000
# 6 0.0000 0.0000 0.0000 -4.7616 0.0000 24.9313
#
#
#
# Elastic Compliance Matrix: (Units=1/GPa)
#
#
# Indices 1 2 3 4 5 6 
#
# 1 0.012705 -0.003099 -0.002016 0.000000 0.000175 0.000000
# 2 -0.003099 0.015226 -0.002350 0.000000 0.000910 0.000000
# 3 -0.002016 -0.002350 0.013597 0.000000 -0.005850 0.000000
# 4 0.000000 0.000000 0.000000 0.047819 0.000000 0.009133
# 5 0.000175 0.000910 -0.005850 0.000000 0.040045 0.000000
# 6 0.000000 0.000000 0.000000 0.009133 0.000000 0.041854
#
#
# Mechanical properties :
#
#
# Convention : Reuss Voigt Hill
#
# Bulk Modulus (GPa) = 37.59526 38.64001 38.11763
# Shear Modulus (GPa) = 25.63561 27.32301 26.47931
#
# Velocity S-wave (km/s) = 3.58103 3.69701 3.63948
# Velocity P-wave (km/s) = 5.99206 6.12804 6.06043
#
# Compressibility (1/GPa) = 0.02659910
#
# Stress axis : x y z
#
# Youngs Moduli (GPa) = 78.70920 65.67730 73.54668
#
# Poissons Ratio (x) = 0.20355 0.14823
# Poissons Ratio (y) = 0.24394 0.17280
# Poissons Ratio (z) = 0.15864 0.15431
#
# Static dielectric constant tensor:
#      x y z
#    x 3.684940 0.000000 0.410290 
#    y 0.000000 3.587860 0.000000 
#    z 0.410290 0.000000 3.341420 
# 
# 
# High freq. dielectric constant tensor:
#      x y z
#    x 1.779130 0.000000 0.007070 
#    y 0.000000 1.780250 0.000000 
#    z 0.007070 0.000000 1.776420 
# 
# From -- ./inp_files/69158.got.cif
#   From: 2010.06.25/outbox.cif.g09.slc.cpg/sg11_35_cif.got.tgz:69158.got - 2010.06.27 23:14:04.
