data_PCOD8070603
_publ_section_title
;
Structure prediction by ZEFSAII (Michael W. Deem and Ramdas Pophale) SiO2 
 PCOD8070603
Probable space group: P 21/M
;
_chemical_formula_sum "Si O2"
_cell_formula_units_Z 32
_cell_length_a 21.131018
_cell_length_b 8.950785
_cell_length_c 9.460796
_cell_angle_alpha 90.000000
_cell_angle_beta 90.290552
_cell_angle_gamma 90.000000
_cell_volume 1789.384369
_symmetry_space_group_name_H-M "P 21/M"
_symmetry_group_IT_number 11
_symmetry_cell_setting 'monoclinic'
loop_
_space_group_symop_operation_xyz
x,y,z
-x,1/2+y,-z
-x,-y,-z
x,1/2-y,z
loop_
_atom_site_type_symbol
_atom_site_label
_atom_site_fract_x
_atom_site_fract_y
_atom_site_fract_z
Si Si1 0.511204 0.073706 0.650551
Si Si2 0.871761 0.927337 0.971170
Si Si3 0.374031 0.073905 0.181204
Si Si4 0.445011 0.421801 0.918351
Si Si5 0.903955 0.075115 0.249977
Si Si6 0.962179 0.073758 0.763689
Si Si7 0.852465 0.420844 0.550941
Si Si8 0.234872 0.074137 0.247168
O O1 0.518458 0.250000 0.628676
O O2 0.449963 0.033509 0.751642
O O3 0.500000 0.000000 0.500000
O O4 0.574938 0.011894 0.723151
O O5 0.878102 0.750000 0.984383
O O6 0.810794 0.977574 0.880571
O O7 0.935603 0.993187 0.903196
O O8 0.863977 0.001912 0.123589
O O9 0.380521 0.250000 0.213139
O O10 0.305082 0.011067 0.221359
O O11 0.381898 0.043258 0.010238
O O12 0.461446 0.250000 0.927411
O O13 0.500000 0.500000 0.000000
O O14 0.916199 0.250000 0.224305
O O15 0.861075 0.046851 0.386493
O O16 0.970015 0.992096 0.272496
O O17 0.967679 0.250000 0.791862
O O18 0.916833 0.033875 0.632091
O O19 0.836565 0.250000 0.582202
O O20 0.792496 0.514379 0.605262
O O21 0.236972 0.250000 0.256064
#
# Coordination Sequence:
#
# PCOD8070603 Si02
#       8
#     4   4   4   4   4   4   4   4
#     4  10  19  31  49  77 109 139 165 198 243 290
#     4  10  20  34  50  71  98 128 162 204 248 296
#     4   9  17  33  55  76  97 127 166 208 246 287
#     4   8  15  28  48  72  99 128 161 197 236 278
#     4  11  21  33  49  72  99 127 159 202 253 301
#     4  10  19  33  52  73  95 125 163 204 251 303
#     4   9  20  35  51  71  99 131 163 201 247 297
#     4   9  19  35  55  74  94 125 167 206 244 290
#
# _framework density 17.883246
#
# number of rings (size 3 to 8) (size 9 to 14) (size 15 to 20)
#    0.000    2.500    0.000    2.250    0.000    3.000 
#    0.000    1.250    0.000    3.000    0.000    0.000 
#    0.000    0.000    0.000    0.000    0.000    0.000 
#
# Total GULP energy -396595.584286 kJ/mol
# GULP energy per Si atom -12393.612009 kJ/mol
# Density = 1.784254 g / cm^3
# Si number density = 17.883246 Si / 1000 Ang^3
#
#
#
# Elastic Constant Matrix: (Units=GPa)
#
#
# Indices 1 2 3 4 5 6 
#
# 1 101.1085 35.7774 48.9795 0.0000 -19.4621 0.0000
# 2 35.7774 58.9738 51.5879 0.0000 -5.8350 0.0000
# 3 48.9795 51.5879 125.5941 0.0000 -16.7133 0.0000
# 4 0.0000 0.0000 0.0000 31.0213 0.0000 -1.1120
# 5 -19.4621 -5.8350 -16.7133 0.0000 19.4062 0.0000
# 6 0.0000 0.0000 0.0000 -1.1120 0.0000 23.7817
#
#
#
# Elastic Compliance Matrix: (Units=1/GPa)
#
#
# Indices 1 2 3 4 5 6 
#
# 1 0.015362 -0.006693 -0.001648 0.000000 0.011974 0.000000
# 2 -0.006693 0.029426 -0.010382 0.000000 -0.006806 0.000000
# 3 -0.001648 -0.010382 0.013818 0.000000 0.007126 0.000000
# 4 0.000000 0.000000 0.000000 0.032290 0.000000 0.001510
# 5 0.011974 -0.006806 0.007126 0.000000 0.067629 0.000000
# 6 0.000000 0.000000 0.000000 0.001510 0.000000 0.042120
#
#
# Mechanical properties :
#
#
# Convention : Reuss Voigt Hill
#
# Bulk Modulus (GPa) = 47.26265 62.04069 54.65167
# Shear Modulus (GPa) = 20.39617 24.79727 22.59672
#
# Velocity S-wave (km/s) = 3.38082 3.72777 3.55853
# Velocity P-wave (km/s) = 6.45955 7.30040 6.89281
#
# Compressibility (1/GPa) = 0.02115836
#
# Stress axis : x y z
#
# Youngs Moduli (GPa) = 65.09528 33.98403 72.37108
#
# Poissons Ratio (x) = 0.22746 0.11929
# Poissons Ratio (y) = 0.43568 0.75137
# Poissons Ratio (z) = 0.10730 0.35283
#
# Static dielectric constant tensor:
#      x y z
#    x 3.349550 0.000000 -0.329270 
#    y 0.000000 3.334870 0.000000 
#    z -0.329270 0.000000 3.618600 
# 
# 
# High freq. dielectric constant tensor:
#      x y z
#    x 1.669160 0.000000 -0.017400 
#    y 0.000000 1.698610 0.000000 
#    z -0.017400 0.000000 1.698840 
# 
# From -- ./inp_files/27291.got.cif
#   From: 2010.06.25/outbox.cif.g09.slc.cpg/sg11_14_cif.got.tgz:27291.got - 2010.06.27 23:14:04.
