data_PCOD8070097
_publ_section_title
;
Structure prediction by ZEFSAII (Michael W. Deem and Ramdas Pophale) SiO2 
 PCOD8070097
Probable space group: P 21/M
;
_chemical_formula_sum "Si O2"
_cell_formula_units_Z 32
_cell_length_a 22.772566
_cell_length_b 9.041104
_cell_length_c 30.742922
_cell_angle_alpha 90.000000
_cell_angle_beta 162.419327
_cell_angle_gamma 90.000000
_cell_volume 1911.855373
_symmetry_space_group_name_H-M "P 21/M"
_symmetry_group_IT_number 11
_symmetry_cell_setting 'monoclinic'
loop_
_space_group_symop_operation_xyz
x,y,z
-x,1/2+y,-z
-x,-y,-z
x,1/2-y,z
loop_
_atom_site_type_symbol
_atom_site_label
_atom_site_fract_x
_atom_site_fract_y
_atom_site_fract_z
Si Si1 0.396348 0.922452 0.387032
Si Si2 0.279640 0.578054 0.672467
Si Si3 0.241094 0.086296 0.403861
Si Si4 0.684002 0.074343 0.962447
Si Si5 0.892623 0.580531 0.187754
Si Si6 0.705038 0.578641 0.148387
Si Si7 0.921520 0.077975 0.379095
Si Si8 0.057839 0.413529 0.179184
O O1 0.386694 0.750000 0.389979
O O2 0.527614 0.954243 0.436347
O O3 0.500000 0.000000 0.500000
O O4 0.174835 0.983572 0.227403
O O5 0.285674 0.750000 0.664204
O O6 0.486348 0.504734 0.809716
O O7 0.223968 0.555474 0.683386
O O8 0.127705 0.496591 0.534124
O O9 0.215750 0.250000 0.406438
O O10 0.161396 0.086523 0.298785
O O11 0.118872 0.970535 0.346224
O O12 0.655125 0.250000 0.945960
O O13 0.836815 0.033068 0.031913
O O14 0.759014 0.017211 0.061969
O O15 0.878634 0.750000 0.162615
O O16 0.820084 0.559220 0.185077
O O17 0.672823 0.750000 0.137285
O O18 0.830190 0.501732 0.273638
O O19 0.500000 0.500000 0.000000
O O20 0.954014 0.250000 0.391889
O O21 0.057538 0.250000 0.158682
#
# Coordination Sequence:
#
# PCOD8070097 Si02
#       8
#     4   4   4   4   4   4   4   4
#     4   9  15  22  34  53  78 110 147 183 219 262
#     4  10  20  34  52  72  93 117 149 189 229 271
#     4   8  15  26  38  55  81 114 150 185 223 267
#     4  10  19  30  45  66  93 124 156 189 227 271
#     4  10  20  31  44  65  91 120 156 193 228 270
#     4  11  23  36  50  70  95 122 154 191 229 270
#     4  10  21  36  53  72  92 118 152 187 228 275
#     4   8  15  25  36  55  83 114 148 183 219 262
#
# _framework density 16.737667999999999
#
# number of rings (size 3 to 8) (size 9 to 14) (size 15 to 20)
#    0.000    2.500    0.000    4.500    0.000   12.000 
#    0.000    0.000    0.000    0.000    0.000    0.000 
#    0.000    1.000    0.000    3.250    0.000    6.500 
#
# Total GULP energy -396630.582620 kJ/mol
# GULP energy per Si atom -12394.705707 kJ/mol
# Density = 1.669957 g / cm^3
# Si number density = 16.737668 Si / 1000 Ang^3
#
#
#
# Elastic Constant Matrix: (Units=GPa)
#
#
# Indices 1 2 3 4 5 6 
#
# 1 66.6476 58.5864 57.7184 0.0000 24.0476 0.0000
# 2 58.5864 127.7235 69.0311 0.0000 20.0434 0.0000
# 3 57.7184 69.0311 106.8110 0.0000 25.9746 0.0000
# 4 0.0000 0.0000 0.0000 31.3738 0.0000 6.7361
# 5 24.0476 20.0434 25.9746 0.0000 30.6721 0.0000
# 6 0.0000 0.0000 0.0000 6.7361 0.0000 26.5027
#
#
#
# Elastic Compliance Matrix: (Units=1/GPa)
#
#
# Indices 1 2 3 4 5 6 
#
# 1 0.037692 -0.009093 -0.011019 0.000000 -0.014278 0.000000
# 2 -0.009093 0.014289 -0.004766 0.000000 0.001827 0.000000
# 3 -0.011019 -0.004766 0.019569 0.000000 -0.004818 0.000000
# 4 0.000000 0.000000 0.000000 0.033714 0.000000 -0.008569
# 5 -0.014278 0.001827 -0.004818 0.000000 0.046683 0.000000
# 6 0.000000 0.000000 0.000000 -0.008569 0.000000 0.039910
#
#
# Mechanical properties :
#
#
# Convention : Reuss Voigt Hill
#
# Bulk Modulus (GPa) = 45.88404 74.65043 60.26724
# Shear Modulus (GPa) = 20.09025 25.43281 22.76153
#
# Velocity S-wave (km/s) = 3.46830 3.90230 3.69168
# Velocity P-wave (km/s) = 6.59636 8.06232 7.36590
#
# Compressibility (1/GPa) = 0.02179407
#
# Stress axis : x y z
#
# Youngs Moduli (GPa) = 26.53083 69.98176 51.10250
#
# Poissons Ratio (x) = 0.63636 0.56310
# Poissons Ratio (y) = 0.24125 0.24354
# Poissons Ratio (z) = 0.29234 0.33352
#
# Static dielectric constant tensor:
#      x y z
#    x 3.653650 0.000000 1.126320 
#    y 0.000000 3.311260 0.000000 
#    z 1.126320 0.000000 3.743970 
# 
# 
# High freq. dielectric constant tensor:
#      x y z
#    x 1.620320 0.000000 0.043840 
#    y 0.000000 1.662460 0.000000 
#    z 0.043840 0.000000 1.623220 
# 
# From -- ./inp_files/72181.got.cif
#   From: 2010.06.25/outbox.cif.g09.slc.cpg/sg11_37_cif.got.tgz:72181.got - 2010.06.27 23:14:04.
