data_PCOD8070661
_publ_section_title
;
Structure prediction by ZEFSAII (Michael W. Deem and Ramdas Pophale) SiO2 
 PCOD8070661
Probable space group: P 21/M
;
_chemical_formula_sum "Si O2"
_cell_formula_units_Z 32
_cell_length_a 14.170030
_cell_length_b 8.886440
_cell_length_c 20.733977
_cell_angle_alpha 90.000000
_cell_angle_beta 136.885024
_cell_angle_gamma 90.000000
_cell_volume 1784.420569
_symmetry_space_group_name_H-M "P 21/M"
_symmetry_group_IT_number 11
_symmetry_cell_setting 'monoclinic'
loop_
_space_group_symop_operation_xyz
x,y,z
-x,1/2+y,-z
-x,-y,-z
x,1/2-y,z
loop_
_atom_site_type_symbol
_atom_site_label
_atom_site_fract_x
_atom_site_fract_y
_atom_site_fract_z
Si Si1 0.419872 0.926730 0.019782
Si Si2 0.157369 0.926784 0.312133
Si Si3 0.151049 0.580170 0.712496
Si Si4 0.567929 0.421510 0.209190
Si Si5 0.399776 0.574877 0.631536
Si Si6 0.843358 0.576322 0.552042
Si Si7 0.420209 0.427201 0.400637
Si Si8 0.155079 0.074874 0.846373
O O1 0.425420 0.750000 0.012633
O O2 0.486897 0.968770 0.121321
O O3 0.500000 0.000000 0.000000
O O4 0.261256 0.981769 0.943199
O O5 0.184069 0.750000 0.323133
O O6 0.001808 0.967707 0.212311
O O7 0.186648 0.980927 0.399027
O O8 0.264349 0.009645 0.318228
O O9 0.156835 0.750000 0.743997
O O10 0.266979 0.557188 0.716214
O O11 0.181251 0.464422 0.784903
O O12 0.000565 0.550139 0.606520
O O13 0.524860 0.250000 0.171776
O O14 0.532679 0.463511 0.265427
O O15 0.361508 0.750000 0.608539
O O16 0.258683 0.481064 0.554253
O O17 0.507516 0.527368 0.630195
O O18 0.814215 0.750000 0.553173
O O19 0.500000 0.500000 0.500000
O O20 0.417410 0.250000 0.409600
O O21 0.184335 0.250000 0.870886
#
# Coordination Sequence:
#
# PCOD8070661 Si02
#       8
#     4   4   4   4   4   4   4   4
#     4  12  23  36  57  84 111 142 181 225 269 321
#     4  10  20  34  54  81 110 140 179 226 274 323
#     4   9  18  32  51  76 107 144 183 220 263 316
#     4  10  21  38  56  76 108 148 185 226 271 323
#     4  10  22  37  53  76 109 148 186 224 275 326
#     4  10  19  31  50  77 108 144 184 223 264 318
#     4  11  21  34  55  81 109 145 184 227 275 324
#     4  10  20  34  55  82 110 140 176 223 275 323
#
# _framework density 17.932991999999999
#
# number of rings (size 3 to 8) (size 9 to 14) (size 15 to 20)
#    0.000    1.750    2.500    2.625    0.000    3.500 
#    0.000    0.000    0.000    0.750    0.000    0.000 
#    0.000    0.000    0.000    0.000    0.000    0.000 
#
# Total GULP energy -396848.941898 kJ/mol
# GULP energy per Si atom -12401.529434 kJ/mol
# Density = 1.789218 g / cm^3
# Si number density = 17.932992 Si / 1000 Ang^3
#
#
#
# Elastic Constant Matrix: (Units=GPa)
#
#
# Indices 1 2 3 4 5 6 
#
# 1 103.8784 45.8778 60.1868 0.0000 1.4048 0.0000
# 2 45.8778 93.1570 54.2011 0.0000 4.9106 0.0000
# 3 60.1868 54.2011 109.1858 0.0000 5.1272 0.0000
# 4 0.0000 0.0000 0.0000 31.6910 0.0000 3.3951
# 5 1.4048 4.9106 5.1272 0.0000 25.0004 0.0000
# 6 0.0000 0.0000 0.0000 3.3951 0.0000 24.0878
#
#
#
# Elastic Compliance Matrix: (Units=1/GPa)
#
#
# Indices 1 2 3 4 5 6 
#
# 1 0.014998 -0.003665 -0.006505 0.000000 0.001211 0.000000
# 2 -0.003665 0.016042 -0.005861 0.000000 -0.001743 0.000000
# 3 -0.006505 -0.005861 0.015734 0.000000 -0.001710 0.000000
# 4 0.000000 0.000000 0.000000 0.032039 0.000000 -0.004516
# 5 0.001211 -0.001743 -0.001710 0.000000 0.040624 0.000000
# 6 0.000000 0.000000 0.000000 -0.004516 0.000000 0.042151
#
#
# Mechanical properties :
#
#
# Convention : Reuss Voigt Hill
#
# Bulk Modulus (GPa) = 67.97376 69.63919 68.80647
# Shear Modulus (GPa) = 25.18217 25.88621 25.53419
#
# Velocity S-wave (km/s) = 3.75138 3.80346 3.77751
# Velocity P-wave (km/s) = 7.53329 7.62927 7.58143
#
# Compressibility (1/GPa) = 0.01471156
#
# Stress axis : x y z
#
# Youngs Moduli (GPa) = 66.67624 62.33798 63.55662
#
# Poissons Ratio (x) = 0.22849 0.41341
# Poissons Ratio (y) = 0.24439 0.37250
# Poissons Ratio (z) = 0.43371 0.36536
#
# Static dielectric constant tensor:
#      x y z
#    x 3.367770 0.000000 0.277020 
#    y 0.000000 3.380160 0.000000 
#    z 0.277020 0.000000 3.305330 
# 
# 
# High freq. dielectric constant tensor:
#      x y z
#    x 1.679440 0.000000 0.021120 
#    y 0.000000 1.703440 0.000000 
#    z 0.021120 0.000000 1.682120 
# 
# From -- ./inp_files/38070.got.cif
#   From: 2010.06.25/outbox.cif.g09.slc.cpg/sg11_20_cif.got.tgz:38070.got - 2010.06.27 23:14:04.
