data_PCOD8070894
_publ_section_title
;
Structure prediction by ZEFSAII (Michael W. Deem and Ramdas Pophale) SiO2 
 PCOD8070894
Probable space group: P 21/M
;
_chemical_formula_sum "Si O2"
_cell_formula_units_Z 24
_cell_length_a 9.506921
_cell_length_b 9.181144
_cell_length_c 20.144139
_cell_angle_alpha 90.000000
_cell_angle_beta 49.459905
_cell_angle_gamma 90.000000
_cell_volume 1336.199046
_symmetry_space_group_name_H-M "P 21/M"
_symmetry_group_IT_number 11
_symmetry_cell_setting 'monoclinic'
loop_
_space_group_symop_operation_xyz
x,y,z
-x,1/2+y,-z
-x,-y,-z
x,1/2-y,z
loop_
_atom_site_type_symbol
_atom_site_label
_atom_site_fract_x
_atom_site_fract_y
_atom_site_fract_z
Si Si1 0.119418 0.416194 0.764755
Si Si2 0.480139 0.080592 0.217894
Si Si3 0.148662 0.420702 0.909601
Si Si4 0.089725 0.417755 0.279551
Si Si5 0.906292 0.418058 0.468517
Si Si6 0.469393 0.917169 0.354012
O O1 0.076594 0.250000 0.761591
O O2 0.094450 0.449434 0.850085
O O3 0.329116 0.458082 0.678641
O O4 0.971400 0.508121 0.769654
O O5 0.533998 0.250000 0.207845
O O6 0.308664 0.058197 0.220789
O O7 0.651671 0.990266 0.136109
O O8 0.418050 0.021495 0.308690
O O9 0.155402 0.250000 0.924316
O O10 0.000000 0.500000 0.000000
O O11 0.038365 0.250000 0.288708
O O12 0.976783 0.483895 0.377085
O O13 0.966722 0.250000 0.455174
O O14 0.683832 0.436601 0.541647
O O15 0.000000 0.500000 0.500000
O O16 0.475711 0.750000 0.325585
#
# Coordination Sequence:
#
# PCOD8070894 Si02
#       6
#     4   4   4   4   4   4
#     4   9  20  36  53  77 108 140 175 216 267 322
#     4  10  19  33  54  80 109 140 178 219 263 316
#     4  10  21  39  62  86 107 133 173 216 263 322
#     4  10  21  34  50  78 112 144 180 223 267 312
#     4  10  19  32  50  75 107 142 186 231 266 307
#     4   9  18  33  52  74 104 143 186 229 267 310
#
# _framework density 17.961395
#
# number of rings (size 3 to 8) (size 9 to 14) (size 15 to 20)
#    0.000    2.333    1.667    2.000    0.000    6.000 
#    0.000    0.833    0.000    0.000    0.000    0.000 
#    0.000    0.000    0.000    0.000    0.000    0.000 
#
# Total GULP energy -297606.712167 kJ/mol
# GULP energy per Si atom -12400.279674 kJ/mol
# Density = 1.792051 g / cm^3
# Si number density = 17.961395 Si / 1000 Ang^3
#
#
#
# Elastic Constant Matrix: (Units=GPa)
#
#
# Indices 1 2 3 4 5 6 
#
# 1 112.4441 60.7933 44.6266 0.0000 -2.5114 0.0000
# 2 60.7933 91.4451 49.7712 0.0000 -4.6878 0.0000
# 3 44.6266 49.7712 112.8358 0.0000 -13.6576 0.0000
# 4 0.0000 0.0000 0.0000 29.1217 0.0000 -0.3903
# 5 -2.5114 -4.6878 -13.6576 0.0000 17.6196 0.0000
# 6 0.0000 0.0000 0.0000 -0.3903 0.0000 33.7057
#
#
#
# Elastic Compliance Matrix: (Units=1/GPa)
#
#
# Indices 1 2 3 4 5 6 
#
# 1 0.014245 -0.008391 -0.002160 0.000000 -0.001876 0.000000
# 2 -0.008391 0.019356 -0.005231 0.000000 -0.000101 0.000000
# 3 -0.002160 -0.005231 0.013042 0.000000 0.008410 0.000000
# 4 0.000000 0.000000 0.000000 0.034344 0.000000 0.000398
# 5 -0.001876 -0.000101 0.008410 0.000000 0.062979 0.000000
# 6 0.000000 0.000000 0.000000 0.000398 0.000000 0.029673
#
#
# Mechanical properties :
#
#
# Convention : Reuss Voigt Hill
#
# Bulk Modulus (GPa) = 66.31828 69.67855 67.99842
# Shear Modulus (GPa) = 23.78341 26.85832 25.32086
#
# Velocity S-wave (km/s) = 3.64282 3.87115 3.75872
# Velocity P-wave (km/s) = 7.39570 7.67195 7.53509
#
# Compressibility (1/GPa) = 0.01507880
#
# Stress axis : x y z
#
# Youngs Moduli (GPa) = 70.19914 51.66351 76.67441
#
# Poissons Ratio (x) = 0.43350 0.16561
# Poissons Ratio (y) = 0.58903 0.40112
# Poissons Ratio (z) = 0.15162 0.27028
#
# Static dielectric constant tensor:
#      x y z
#    x 3.164030 0.000000 -0.177610 
#    y 0.000000 3.353810 0.000000 
#    z -0.177610 0.000000 3.393950 
# 
# 
# High freq. dielectric constant tensor:
#      x y z
#    x 1.684200 0.000000 -0.016500 
#    y 0.000000 1.699150 0.000000 
#    z -0.016500 0.000000 1.690000 
# 
# From -- ./inp_files/20417.got.cif
#   From: 2010.06.25/outbox.cif.g09.slc.cpg/sg11_11_cif.got.tgz:20417.got - 2010.06.27 23:14:04.
