data_PCOD8070497
_publ_section_title
;
Structure prediction by ZEFSAII (Michael W. Deem and Ramdas Pophale) SiO2 
 PCOD8070497
Probable space group: P 21/M
;
_chemical_formula_sum "Si O2"
_cell_formula_units_Z 32
_cell_length_a 17.471168
_cell_length_b 8.900929
_cell_length_c 23.532951
_cell_angle_alpha 90.000000
_cell_angle_beta 31.136881
_cell_angle_gamma 90.000000
_cell_volume 1892.322268
_symmetry_space_group_name_H-M "P 21/M"
_symmetry_group_IT_number 11
_symmetry_cell_setting 'monoclinic'
loop_
_space_group_symop_operation_xyz
x,y,z
-x,1/2+y,-z
-x,-y,-z
x,1/2-y,z
loop_
_atom_site_type_symbol
_atom_site_label
_atom_site_fract_x
_atom_site_fract_y
_atom_site_fract_z
Si Si1 0.820786 0.575461 0.260935
Si Si2 0.930835 0.074202 0.988581
Si Si3 0.119047 0.924237 0.384613
Si Si4 0.776109 0.072990 0.405329
Si Si5 0.889136 0.921521 0.441389
Si Si6 0.450671 0.428531 0.640282
Si Si7 0.378663 0.071090 0.812389
Si Si8 0.656269 0.573378 0.687651
O O1 0.799332 0.750000 0.287474
O O2 0.846926 0.491174 0.303242
O O3 0.674493 0.509719 0.322865
O O4 0.961986 0.545263 0.132329
O O5 0.908655 0.250000 0.014477
O O6 0.777506 0.996481 0.069599
O O7 0.000000 0.000000 0.000000
O O8 0.135399 0.750000 0.390365
O O9 0.055546 0.942433 0.360908
O O10 0.274601 0.008570 0.297252
O O11 0.000000 0.000000 0.500000
O O12 0.773837 0.250000 0.402875
O O13 0.609552 0.009065 0.519363
O O14 0.876985 0.025976 0.394281
O O15 0.863254 0.750000 0.439362
O O16 0.765309 0.967845 0.566324
O O17 0.447706 0.250000 0.643170
O O18 0.416400 0.487721 0.725196
O O19 0.372841 0.250000 0.819457
O O20 0.500524 0.008213 0.778063
O O21 0.632349 0.750000 0.709208
#
# Coordination Sequence:
#
# PCOD8070497 Si02
#       8
#     4   4   4   4   4   4   4   4
#     4  10  21  38  53  68  99 137 173 214 260 304
#     4  11  22  37  56  76  99 132 174 219 263 307
#     4   9  17  29  46  70 101 137 172 207 251 305
#     4  11  21  32  50  76 103 133 174 214 252 304
#     4   9  18  31  47  70 102 138 171 203 249 305
#     4   9  18  33  50  72 100 133 168 207 256 302
#     4  11  20  34  54  76 104 136 172 215 261 306
#     4  10  19  31  48  75 105 135 173 210 253 309
#
# _framework density 16.910440000000001
#
# number of rings (size 3 to 8) (size 9 to 14) (size 15 to 20)
#    0.000    2.000    2.500    3.000    0.000    3.500 
#    0.000    0.625    0.000    0.000    0.000    0.875 
#    0.000    0.000    0.000    0.000    0.000    0.000 
#
# Total GULP energy -396802.469818 kJ/mol
# GULP energy per Si atom -12400.077182 kJ/mol
# Density = 1.687195 g / cm^3
# Si number density = 16.910440 Si / 1000 Ang^3
#
#
#
# Elastic Constant Matrix: (Units=GPa)
#
#
# Indices 1 2 3 4 5 6 
#
# 1 122.7265 54.9277 59.0484 0.0000 -18.7556 0.0000
# 2 54.9277 86.5635 48.1047 0.0000 -3.5746 0.0000
# 3 59.0484 48.1047 73.6375 0.0000 -9.0481 0.0000
# 4 0.0000 0.0000 0.0000 24.2811 0.0000 -3.9413
# 5 -18.7556 -3.5746 -9.0481 0.0000 23.9960 0.0000
# 6 0.0000 0.0000 0.0000 -3.9413 0.0000 30.6974
#
#
#
# Elastic Compliance Matrix: (Units=1/GPa)
#
#
# Indices 1 2 3 4 5 6 
#
# 1 0.015625 -0.004988 -0.008243 0.000000 0.008361 0.000000
# 2 -0.004988 0.019808 -0.009496 0.000000 -0.004529 0.000000
# 3 -0.008243 -0.009496 0.026663 0.000000 0.002196 0.000000
# 4 0.000000 0.000000 0.000000 0.042061 0.000000 0.005400
# 5 0.008361 -0.004529 0.002196 0.000000 0.048362 0.000000
# 6 0.000000 0.000000 0.000000 0.005400 0.000000 0.033269
#
#
# Mechanical properties :
#
#
# Convention : Reuss Voigt Hill
#
# Bulk Modulus (GPa) = 60.09358 67.45433 63.77396
# Shear Modulus (GPa) = 21.11583 23.85136 22.48360
#
# Velocity S-wave (km/s) = 3.53751 3.75967 3.65028
# Velocity P-wave (km/s) = 7.23179 7.66959 7.45391
#
# Compressibility (1/GPa) = 0.01664071
#
# Stress axis : x y z
#
# Youngs Moduli (GPa) = 64.00175 50.48576 37.50498
#
# Poissons Ratio (x) = 0.25184 0.30915
# Poissons Ratio (y) = 0.31926 0.35615
# Poissons Ratio (z) = 0.52756 0.47941
#
# Static dielectric constant tensor:
#      x y z
#    x 3.419780 0.000000 -0.233440 
#    y 0.000000 3.203720 0.000000 
#    z -0.233440 0.000000 3.029150 
# 
# 
# High freq. dielectric constant tensor:
#      x y z
#    x 1.656520 0.000000 -0.017170 
#    y 0.000000 1.655770 0.000000 
#    z -0.017170 0.000000 1.617350 
# 
# From -- ./inp_files/42804.got.cif
#   From: 2010.06.25/outbox.cif.g09.slc.cpg/sg11_22_cif.got.tgz:42804.got - 2010.06.27 23:14:04.
