data_PCOD8070504
_publ_section_title
;
Structure prediction by ZEFSAII (Michael W. Deem and Ramdas Pophale) SiO2 
 PCOD8070504
Probable space group: P 21/M
;
_chemical_formula_sum "Si O2"
_cell_formula_units_Z 28
_cell_length_a 11.128783
_cell_length_b 9.084094
_cell_length_c 21.393543
_cell_angle_alpha 90.000000
_cell_angle_beta 130.337032
_cell_angle_gamma 90.000000
_cell_volume 1648.578059
_symmetry_space_group_name_H-M "P 21/M"
_symmetry_group_IT_number 11
_symmetry_cell_setting 'monoclinic'
loop_
_space_group_symop_operation_xyz
x,y,z
-x,1/2+y,-z
-x,-y,-z
x,1/2-y,z
loop_
_atom_site_type_symbol
_atom_site_label
_atom_site_fract_x
_atom_site_fract_y
_atom_site_fract_z
Si Si1 0.784860 0.922204 0.883080
Si Si2 0.343888 0.577235 0.923490
Si Si3 0.786745 0.581639 0.431796
Si Si4 0.133408 0.579632 0.968491
Si Si5 0.025915 0.581783 0.607621
Si Si6 0.503811 0.915360 0.260261
Si Si7 0.754405 0.920028 0.235026
O O1 0.769912 0.750000 0.886115
O O2 0.950443 0.968730 0.907361
O O3 0.644472 0.976524 0.791334
O O4 0.768123 0.992555 0.946053
O O5 0.376369 0.750000 0.928176
O O6 0.202885 0.543388 0.924208
O O7 0.294110 0.513065 0.840815
O O8 0.500000 0.500000 0.000000
O O9 0.829192 0.750000 0.423889
O O10 0.873296 0.459838 0.419372
O O11 0.598633 0.559615 0.357645
O O12 0.842297 0.561517 0.523155
O O13 0.151991 0.750000 0.991784
O O14 0.060289 0.750000 0.638246
O O15 0.075997 0.478838 0.682577
O O16 0.438098 0.750000 0.233519
O O17 0.623389 0.946736 0.243633
O O18 0.771280 0.750000 0.222210
#
# Coordination Sequence:
#
# PCOD8070504 Si02
#       7
#     4   4   4   4   4   4   4
#     4  10  19  31  49  70  89 114 151 188 221 264
#     4  11  22  35  50  68  92 121 152 186 225 268
#     4   8  15  26  40  61  91 123 151 183 225 270
#     4   9  20  36  49  64  90 120 147 183 230 268
#     4   9  15  25  42  63  88 120 156 187 220 267
#     4   9  17  29  44  65  95 125 148 179 226 268
#     4  10  20  32  45  65  95 126 154 186 226 270
#
# _framework density 16.984334
#
# number of rings (size 3 to 8) (size 9 to 14) (size 15 to 20)
#    0.000    2.571    0.000    3.429    0.000    8.571 
#    0.000    0.000    0.000    0.000    0.000    1.000 
#    0.000    0.000    0.000    0.000    0.000    0.000 
#
# Total GULP energy -347036.887602 kJ/mol
# GULP energy per Si atom -12394.174557 kJ/mol
# Density = 1.694568 g / cm^3
# Si number density = 16.984334 Si / 1000 Ang^3
#
#
#
# Elastic Constant Matrix: (Units=GPa)
#
#
# Indices 1 2 3 4 5 6 
#
# 1 42.3675 30.3449 36.8964 0.0000 6.8185 0.0000
# 2 30.3449 75.3386 49.8312 0.0000 5.7992 0.0000
# 3 36.8964 49.8312 146.0702 0.0000 16.5872 0.0000
# 4 0.0000 0.0000 0.0000 33.2194 0.0000 3.3319
# 5 6.8185 5.7992 16.5872 0.0000 20.1028 0.0000
# 6 0.0000 0.0000 0.0000 3.3319 0.0000 20.2319
#
#
#
# Elastic Compliance Matrix: (Units=1/GPa)
#
#
# Indices 1 2 3 4 5 6 
#
# 1 0.036663 -0.011147 -0.004867 0.000000 -0.005204 0.000000
# 2 -0.011147 0.020531 -0.004353 0.000000 0.001450 0.000000
# 3 -0.004867 -0.004353 0.010185 0.000000 -0.005497 0.000000
# 4 0.000000 0.000000 0.000000 0.030608 0.000000 -0.005041
# 5 -0.005204 0.001450 -0.005497 0.000000 0.055627 0.000000
# 6 0.000000 0.000000 0.000000 -0.005041 0.000000 0.050257
#
#
# Mechanical properties :
#
#
# Convention : Reuss Voigt Hill
#
# Bulk Modulus (GPa) = 37.53201 55.32457 46.42829
# Shear Modulus (GPa) = 19.72486 24.49106 22.10796
#
# Velocity S-wave (km/s) = 3.41156 3.80146 3.61178
# Velocity P-wave (km/s) = 6.13713 7.20505 6.69242
#
# Compressibility (1/GPa) = 0.02664392
#
# Stress axis : x y z
#
# Youngs Moduli (GPa) = 27.27531 48.70707 98.18731
#
# Poissons Ratio (x) = 0.54296 0.47788
# Poissons Ratio (y) = 0.30405 0.42740
# Poissons Ratio (z) = 0.13275 0.21202
#
# Static dielectric constant tensor:
#      x y z
#    x 2.864720 0.000000 0.208590 
#    y 0.000000 3.276390 0.000000 
#    z 0.208590 0.000000 3.619370 
# 
# 
# High freq. dielectric constant tensor:
#      x y z
#    x 1.596060 0.000000 0.018760 
#    y 0.000000 1.668300 0.000000 
#    z 0.018760 0.000000 1.672280 
# 
# From -- ./inp_files/42610.got.cif
#   From: 2010.06.25/outbox.cif.g09.slc.cpg/sg11_22_cif.got.tgz:42610.got - 2010.06.27 23:14:04.
