data_PCOD8070299
_publ_section_title
;
Structure prediction by ZEFSAII (Michael W. Deem and Ramdas Pophale) SiO2 
 PCOD8070299
Probable space group: P 21/M
;
_chemical_formula_sum "Si O2"
_cell_formula_units_Z 32
_cell_length_a 19.737758
_cell_length_b 8.878111
_cell_length_c 11.866711
_cell_angle_alpha 90.000000
_cell_angle_beta 121.909322
_cell_angle_gamma 90.000000
_cell_volume 1765.216482
_symmetry_space_group_name_H-M "P 21/M"
_symmetry_group_IT_number 11
_symmetry_cell_setting 'monoclinic'
loop_
_space_group_symop_operation_xyz
x,y,z
-x,1/2+y,-z
-x,-y,-z
x,1/2-y,z
loop_
_atom_site_type_symbol
_atom_site_label
_atom_site_fract_x
_atom_site_fract_y
_atom_site_fract_z
Si Si1 0.532596 0.073174 0.786006
Si Si2 0.789702 0.422366 0.055143
Si Si3 0.369200 0.571551 0.681211
Si Si4 0.925068 0.577032 0.064431
Si Si5 0.327708 0.920695 0.255045
Si Si6 0.740690 0.573230 0.592236
Si Si7 0.648382 0.070960 0.080418
Si Si8 0.896884 0.422999 0.805340
O O1 0.514352 0.250000 0.779024
O O2 0.587616 0.037858 0.726339
O O3 0.451001 0.983618 0.696825
O O4 0.576503 0.012600 0.937705
O O5 0.814528 0.250000 0.098563
O O6 0.869679 0.523457 0.119555
O O7 0.733962 0.484562 0.107421
O O8 0.741983 0.439098 0.896840
O O9 0.365278 0.750000 0.674706
O O10 0.294532 0.505585 0.548963
O O11 0.364186 0.510117 0.804887
O O12 0.907133 0.750000 0.017296
O O13 0.017602 0.556458 0.180695
O O14 0.904015 0.472992 0.940438
O O15 0.329351 0.750000 0.302400
O O16 0.311277 0.030955 0.344101
O O17 0.737356 0.750000 0.572086
O O18 0.832194 0.521618 0.683081
O O19 0.648460 0.250000 0.072909
O O20 0.868699 0.250000 0.779935
#
# Coordination Sequence:
#
# PCOD8070299 Si02
#       8
#     4   4   4   4   4   4   4   4
#     4   9  18  35  57  80 105 130 169 220 265 308
#     4   9  16  30  54  79 106 137 170 211 260 307
#     4  11  22  36  54  75 103 140 180 214 260 315
#     4  10  19  30  50  82 111 135 168 209 253 304
#     4   9  18  33  53  76 104 139 170 206 262 316
#     4  12  24  36  52  74 105 139 178 220 257 306
#     4   8  17  34  56  80 103 135 175 217 260 307
#     4  10  20  34  51  74 108 143 171 205 254 308
#
# _framework density 18.128088000000002
#
# number of rings (size 3 to 8) (size 9 to 14) (size 15 to 20)
#    0.000    2.250    1.250    4.125    0.000    2.500 
#    0.000    3.750    0.000    0.750    0.000    0.000 
#    0.000    0.000    0.000    0.000    0.000    0.000 
#
# Total GULP energy -396813.395147 kJ/mol
# GULP energy per Si atom -12400.418598 kJ/mol
# Density = 1.808683 g / cm^3
# Si number density = 18.128088 Si / 1000 Ang^3
#
#
#
# Elastic Constant Matrix: (Units=GPa)
#
#
# Indices 1 2 3 4 5 6 
#
# 1 90.2834 29.8407 26.3091 0.0000 19.6566 0.0000
# 2 29.8407 68.2289 22.1462 0.0000 5.1795 0.0000
# 3 26.3091 22.1462 67.2553 0.0000 11.7288 0.0000
# 4 0.0000 0.0000 0.0000 21.5618 0.0000 5.6422
# 5 19.6566 5.1795 11.7288 0.0000 20.2812 0.0000
# 6 0.0000 0.0000 0.0000 5.6422 0.0000 28.8418
#
#
#
# Elastic Compliance Matrix: (Units=1/GPa)
#
#
# Indices 1 2 3 4 5 6 
#
# 1 0.016418 -0.005421 -0.002340 0.000000 -0.013175 0.000000
# 2 -0.005421 0.018226 -0.004433 0.000000 0.003163 0.000000
# 3 -0.002340 -0.004433 0.018518 0.000000 -0.007310 0.000000
# 4 0.000000 0.000000 0.000000 0.048881 0.000000 -0.009562
# 5 -0.013175 0.003163 -0.007310 0.000000 0.065496 0.000000
# 6 0.000000 0.000000 0.000000 -0.009562 0.000000 0.036542
#
#
# Mechanical properties :
#
#
# Convention : Reuss Voigt Hill
#
# Bulk Modulus (GPa) = 34.75136 42.48438 38.61787
# Shear Modulus (GPa) = 21.00307 23.96840 22.48574
#
# Velocity S-wave (km/s) = 3.40750 3.64011 3.52573
# Velocity P-wave (km/s) = 5.89007 6.41512 6.15819
#
# Compressibility (1/GPa) = 0.02877586
#
# Stress axis : x y z
#
# Youngs Moduli (GPa) = 60.90736 54.86618 54.00055
#
# Poissons Ratio (x) = 0.29744 0.12635
# Poissons Ratio (y) = 0.33019 0.23936
# Poissons Ratio (z) = 0.14251 0.24320
#
# Static dielectric constant tensor:
#      x y z
#    x 3.593520 0.000000 0.071560 
#    y 0.000000 3.198030 0.000000 
#    z 0.071560 0.000000 3.174000 
# 
# 
# High freq. dielectric constant tensor:
#      x y z
#    x 1.712070 0.000000 0.012260 
#    y 0.000000 1.694440 0.000000 
#    z 0.012260 0.000000 1.672020 
# 
# From -- ./inp_files/42865.got.cif
#   From: 2010.06.25/outbox.cif.g09.slc.cpg/sg11_22_cif.got.tgz:42865.got - 2010.06.27 23:14:04.
