data_PCOD8070053
_publ_section_title
;
Structure prediction by ZEFSAII (Michael W. Deem and Ramdas Pophale) SiO2 
 PCOD8070053
Probable space group: P 21/M
;
_chemical_formula_sum "Si O2"
_cell_formula_units_Z 32
_cell_length_a 26.653795
_cell_length_b 9.137837
_cell_length_c 20.698338
_cell_angle_alpha 90.000000
_cell_angle_beta 19.767089
_cell_angle_gamma 90.000000
_cell_volume 1704.936552
_symmetry_space_group_name_H-M "P 21/M"
_symmetry_group_IT_number 11
_symmetry_cell_setting 'monoclinic'
loop_
_space_group_symop_operation_xyz
x,y,z
-x,1/2+y,-z
-x,-y,-z
x,1/2-y,z
loop_
_atom_site_type_symbol
_atom_site_label
_atom_site_fract_x
_atom_site_fract_y
_atom_site_fract_z
Si Si1 0.528206 0.080114 0.061952
Si Si2 0.960595 0.916633 0.351876
Si Si3 0.154053 0.081051 0.650766
Si Si4 0.284235 0.923866 0.917367
Si Si5 0.646743 0.920280 0.298517
Si Si6 0.487708 0.422975 0.253487
Si Si7 0.049531 0.080805 0.004254
Si Si8 0.725612 0.080900 0.707045
O O1 0.479940 0.250000 0.119061
O O2 0.553241 0.024994 0.104934
O O3 0.394904 0.990202 0.193359
O O4 0.679136 0.055181 0.838187
O O5 0.956365 0.750000 0.380001
O O6 0.868211 0.938963 0.398310
O O7 0.886392 0.010848 0.498936
O O8 0.129038 0.967639 0.137950
O O9 0.130793 0.250000 0.699278
O O10 0.318863 0.024457 0.468191
O O11 0.036390 0.983134 0.830487
O O12 0.293502 0.750000 0.893115
O O13 0.412300 0.984174 0.809608
O O14 0.297026 0.007414 0.835052
O O15 0.612091 0.750000 0.328830
O O16 0.774452 0.939669 0.197848
O O17 0.500000 0.000000 0.500000
O O18 0.493674 0.250000 0.248521
O O19 0.008177 0.250000 0.047247
O O20 0.000000 0.000000 0.000000
O O21 0.733789 0.250000 0.679773
#
# Coordination Sequence:
#
# PCOD8070053 Si02
#       8
#     4   4   4   4   4   4   4   4
#     4   9  17  33  52  77 111 146 184 228 280 332
#     4  10  19  34  56  80 108 146 186 226 276 331
#     4  10  19  35  59  83 110 145 186 234 279 327
#     4  10  21  38  60  83 109 146 189 231 275 333
#     4  11  25  43  62  85 116 153 188 229 280 338
#     4   9  18  34  57  81 108 144 186 228 274 330
#     4  11  25  42  61  87 118 149 185 233 281 333
#     4  10  19  29  51  81 110 144 185 232 278 327
#
# _framework density 18.769027000000001
#
# number of rings (size 3 to 8) (size 9 to 14) (size 15 to 20)
#    0.000    2.000    2.500    1.125    1.750    3.000 
#    0.000    1.250    0.000    0.000    0.000    0.000 
#    0.000    0.000    0.000    0.000    0.000    0.000 
#
# Total GULP energy -396812.347593 kJ/mol
# GULP energy per Si atom -12400.385862 kJ/mol
# Density = 1.872631 g / cm^3
# Si number density = 18.769027 Si / 1000 Ang^3
#
#
#
# Elastic Constant Matrix: (Units=GPa)
#
#
# Indices 1 2 3 4 5 6 
#
# 1 65.3269 31.7866 30.3086 0.0000 -6.8374 0.0000
# 2 31.7866 87.4251 58.4051 0.0000 6.7467 0.0000
# 3 30.3086 58.4051 123.9728 0.0000 -1.8002 0.0000
# 4 0.0000 0.0000 0.0000 34.5293 0.0000 4.6144
# 5 -6.8374 6.7467 -1.8002 0.0000 33.7827 0.0000
# 6 0.0000 0.0000 0.0000 4.6144 0.0000 21.2049
#
#
#
# Elastic Compliance Matrix: (Units=1/GPa)
#
#
# Indices 1 2 3 4 5 6 
#
# 1 0.019788 -0.006442 -0.001727 0.000000 0.005199 0.000000
# 2 -0.006442 0.019279 -0.007588 0.000000 -0.005558 0.000000
# 3 -0.001727 -0.007588 0.012090 0.000000 0.001810 0.000000
# 4 0.000000 0.000000 0.000000 0.029828 0.000000 -0.006491
# 5 0.005199 -0.005558 0.001810 0.000000 0.031860 0.000000
# 6 0.000000 0.000000 0.000000 -0.006491 0.000000 0.048571
#
#
# Mechanical properties :
#
#
# Convention : Reuss Voigt Hill
#
# Bulk Modulus (GPa) = 50.91285 57.52504 54.21894
# Shear Modulus (GPa) = 25.06538 28.31833 26.69186
#
# Velocity S-wave (km/s) = 3.65837 3.88852 3.77520
# Velocity P-wave (km/s) = 6.71042 7.13276 6.92481
#
# Compressibility (1/GPa) = 0.01964141
#
# Stress axis : x y z
#
# Youngs Moduli (GPa) = 50.53656 51.86999 82.71401
#
# Poissons Ratio (x) = 0.33414 0.14287
# Poissons Ratio (y) = 0.32555 0.62767
# Poissons Ratio (z) = 0.08729 0.39361
#
# Static dielectric constant tensor:
#      x y z
#    x 3.577920 0.000000 0.057410 
#    y 0.000000 3.377310 0.000000 
#    z 0.057410 0.000000 3.810460 
# 
# 
# High freq. dielectric constant tensor:
#      x y z
#    x 1.719940 0.000000 0.007620 
#    y 0.000000 1.715720 0.000000 
#    z 0.007620 0.000000 1.740890 
# 
# From -- ./inp_files/66982.got.cif
#   From: 2010.06.25/outbox.cif.g09.slc.cpg/sg11_34_cif.got.tgz:66982.got - 2010.06.27 23:14:04.
