data_PCOD8070510
_publ_section_title
;
Structure prediction by ZEFSAII (Michael W. Deem and Ramdas Pophale) SiO2 
 PCOD8070510
Probable space group: P 21/M
;
_chemical_formula_sum "Si O2"
_cell_formula_units_Z 28
_cell_length_a 31.645623
_cell_length_b 8.726668
_cell_length_c 31.645632
_cell_angle_alpha 90.000000
_cell_angle_beta 170.558931
_cell_angle_gamma 90.000000
_cell_volume 1433.531792
_symmetry_space_group_name_H-M "P 21/M"
_symmetry_group_IT_number 11
_symmetry_cell_setting 'monoclinic'
loop_
_space_group_symop_operation_xyz
x,y,z
-x,1/2+y,-z
-x,-y,-z
x,1/2-y,z
loop_
_atom_site_type_symbol
_atom_site_label
_atom_site_fract_x
_atom_site_fract_y
_atom_site_fract_z
Si Si1 0.452230 0.432136 0.547807
Si Si2 0.166552 0.432123 0.833452
Si Si3 0.023187 0.931921 0.976771
Si Si4 0.595442 0.567966 0.404609
Si Si5 0.120140 0.932016 0.879916
Si Si6 0.739077 0.432598 0.260922
Si Si7 0.309238 0.931519 0.690758
O O1 0.451472 0.250000 0.548546
O O2 0.715201 0.493416 0.786479
O O3 0.428389 0.499340 0.571604
O O4 0.213589 0.493420 0.284860
O O5 0.165590 0.250000 0.834418
O O6 0.929977 0.495957 0.572228
O O7 0.143150 0.497109 0.856838
O O8 0.427780 0.495957 0.070032
O O9 0.021632 0.750000 0.978333
O O10 0.000000 0.000000 0.000000
O O11 0.594599 0.750000 0.405429
O O12 0.356632 0.507425 0.141455
O O13 0.858623 0.507430 0.643454
O O14 0.122105 0.750000 0.877949
O O15 0.740890 0.250000 0.259109
O O16 0.714842 0.489953 0.285156
O O17 0.000000 0.500000 0.500000
O O18 0.500000 0.500000 0.000000
O O19 0.309694 0.750000 0.690308
#
# Coordination Sequence:
#
# PCOD8070510 Si02
#       7
#     4   4   4   4   4   4   4
#     4   9  17  30  49  71  92 123 164 198 228 284
#     4  10  19  34  54  74  98 135 176 208 244 302
#     4  10  19  31  49  71  95 122 157 197 238 282
#     4   9  17  30  49  71  96 125 160 198 241 290
#     4  10  19  31  49  74 100 125 155 203 256 292
#     4  11  22  39  61  86 115 148 189 235 282 333
#     4   9  19  35  55  75 101 140 179 211 251 311
#
# _framework density 19.532177999999998
#
# number of rings (size 3 to 8) (size 9 to 14) (size 15 to 20)
#    0.000    2.286    0.000    3.429    0.000    5.714 
#    0.000    4.286    0.000    5.143    0.000    0.000 
#    0.000    0.000    0.000    0.000    0.000    0.000 
#
# Total GULP energy -347275.201936 kJ/mol
# GULP energy per Si atom -12402.685783 kJ/mol
# Density = 1.948772 g / cm^3
# Si number density = 19.532178 Si / 1000 Ang^3
#
#
#
# Elastic Constant Matrix: (Units=GPa)
#
#
# Indices 1 2 3 4 5 6 
#
# 1 228.0303 27.1086 128.0483 0.0000 -0.1781 0.0000
# 2 27.1086 25.2570 25.7352 0.0000 -0.1203 0.0000
# 3 128.0483 25.7352 231.3950 0.0000 0.4648 0.0000
# 4 0.0000 0.0000 0.0000 12.7537 0.0000 -1.7309
# 5 -0.1781 -0.1203 0.4648 0.0000 49.0646 0.0000
# 6 0.0000 0.0000 0.0000 -1.7309 0.0000 32.3529
#
#
#
# Elastic Compliance Matrix: (Units=1/GPa)
#
#
# Indices 1 2 3 4 5 6 
#
# 1 0.006677 -0.003836 -0.003268 0.000000 0.000046 0.000000
# 2 -0.003836 0.046858 -0.003089 0.000000 0.000130 0.000000
# 3 -0.003268 -0.003089 0.006474 0.000000 -0.000081 0.000000
# 4 0.000000 0.000000 0.000000 0.078982 0.000000 0.004225
# 5 0.000046 0.000130 -0.000081 0.000000 0.020383 0.000000
# 6 0.000000 0.000000 0.000000 0.004225 0.000000 0.031135
#
#
# Mechanical properties :
#
#
# Convention : Reuss Voigt Hill
#
# Bulk Modulus (GPa) = 25.23815 94.05184 59.64499
# Shear Modulus (GPa) = 22.31129 39.08694 30.69911
#
# Velocity S-wave (km/s) = 3.38344 4.47828 3.96879
# Velocity P-wave (km/s) = 5.31158 8.66007 7.18365
#
# Compressibility (1/GPa) = 0.03962255
#
# Stress axis : x y z
#
# Youngs Moduli (GPa) = 149.77608 21.34099 154.46749
#
# Poissons Ratio (x) = 0.08186 0.50482
# Poissons Ratio (y) = 0.57452 0.47716
# Poissons Ratio (z) = 0.48949 0.06592
#
# Static dielectric constant tensor:
#      x y z
#    x 3.774510 0.000000 0.024470 
#    y 0.000000 3.067490 0.000000 
#    z 0.024470 0.000000 4.051630 
# 
# 
# High freq. dielectric constant tensor:
#      x y z
#    x 1.782050 0.000000 0.000250 
#    y 0.000000 1.712170 0.000000 
#    z 0.000250 0.000000 1.784880 
# 
# From -- ./inp_files/9643.got.cif
#   From: 2010.06.25/outbox.cif.g09.slc.cpg/sg11_5_cif.got.tgz:9643.got - 2010.06.27 23:14:04.
