data_PCOD8070429
_publ_section_title
;
Structure prediction by ZEFSAII (Michael W. Deem and Ramdas Pophale) SiO2 
 PCOD8070429
Probable space group: P 21/M
;
_chemical_formula_sum "Si O2"
_cell_formula_units_Z 32
_cell_length_a 19.104196
_cell_length_b 9.136114
_cell_length_c 11.408478
_cell_angle_alpha 90.000000
_cell_angle_beta 113.637325
_cell_angle_gamma 90.000000
_cell_volume 1824.154789
_symmetry_space_group_name_H-M "P 21/M"
_symmetry_group_IT_number 11
_symmetry_cell_setting 'monoclinic'
loop_
_space_group_symop_operation_xyz
x,y,z
-x,1/2+y,-z
-x,-y,-z
x,1/2-y,z
loop_
_atom_site_type_symbol
_atom_site_label
_atom_site_fract_x
_atom_site_fract_y
_atom_site_fract_z
Si Si1 0.489660 0.421545 0.116238
Si Si2 0.387559 0.584656 0.379602
Si Si3 0.974389 0.915945 0.095735
Si Si4 0.968792 0.083493 0.626409
Si Si5 0.447653 0.416094 0.627715
Si Si6 0.114433 0.582889 0.644716
Si Si7 0.671320 0.580048 0.872759
Si Si8 0.818313 0.577785 0.111535
O O1 0.508770 0.250000 0.118283
O O2 0.547902 0.494345 0.247995
O O3 0.403300 0.448126 0.099590
O O4 0.500000 0.500000 0.000000
O O5 0.359924 0.750000 0.385315
O O6 0.387068 0.495739 0.501541
O O7 0.471249 0.584423 0.380948
O O8 0.330224 0.508051 0.249984
O O9 0.963369 0.750000 0.049414
O O10 0.893391 0.974843 0.091227
O O11 0.040707 0.933514 0.239508
O O12 0.000000 0.000000 0.000000
O O13 0.999302 0.250000 0.621840
O O14 0.889091 0.059950 0.500373
O O15 0.030206 0.963722 0.628994
O O16 0.420546 0.250000 0.634814
O O17 0.129750 0.750000 0.688451
O O18 0.179229 0.489412 0.754992
O O19 0.679727 0.750000 0.846128
O O20 0.743332 0.520958 0.994671
O O21 0.815876 0.750000 0.125593
#
# Coordination Sequence:
#
# PCOD8070429 Si02
#       8
#     4   4   4   4   4   4   4   4
#     4  10  19  31  48  70  94 120 153 191 231 275
#     4   9  16  26  43  68  94 117 148 192 233 266
#     4   9  17  29  45  65  90 118 148 183 223 265
#     4   8  15  27  41  60  88 117 143 179 225 266
#     4   9  16  27  44  66  92 121 152 187 228 272
#     4   9  15  24  42  66  87 110 146 187 224 263
#     4   9  18  32  49  67  90 123 157 186 223 274
#     4   9  18  32  47  65  92 122 150 184 225 265
#
# _framework density 17.542372
#
# number of rings (size 3 to 8) (size 9 to 14) (size 15 to 20)
#    0.000    3.000    0.000    2.250    0.000    6.500 
#    0.000    0.000    0.000    1.500    0.000    8.750 
#    0.000    0.000    0.000    0.000    0.000    0.000 
#
# Total GULP energy -396540.603064 kJ/mol
# GULP energy per Si atom -12391.893846 kJ/mol
# Density = 1.750244 g / cm^3
# Si number density = 17.542372 Si / 1000 Ang^3
#
#
#
# Elastic Constant Matrix: (Units=GPa)
#
#
# Indices 1 2 3 4 5 6 
#
# 1 26.4023 23.8646 41.8684 0.0000 -0.1341 0.0000
# 2 23.8646 97.6342 80.1199 0.0000 -3.0403 0.0000
# 3 41.8684 80.1199 199.7912 0.0000 5.3412 0.0000
# 4 0.0000 0.0000 0.0000 38.9380 0.0000 -3.0072
# 5 -0.1341 -3.0403 5.3412 0.0000 25.4288 0.0000
# 6 0.0000 0.0000 0.0000 -3.0072 0.0000 16.4237
#
#
#
# Elastic Compliance Matrix: (Units=1/GPa)
#
#
# Indices 1 2 3 4 5 6 
#
# 1 0.059365 -0.006281 -0.009966 0.000000 0.001656 0.000000
# 2 -0.006281 0.016182 -0.005254 0.000000 0.003005 0.000000
# 3 -0.009966 -0.005254 0.009271 0.000000 -0.002628 0.000000
# 4 0.000000 0.000000 0.000000 0.026050 0.000000 0.004770
# 5 0.001656 0.003005 -0.002628 0.000000 0.040246 0.000000
# 6 0.000000 0.000000 0.000000 0.004770 0.000000 0.061761
#
#
# Mechanical properties :
#
#
# Convention : Reuss Voigt Hill
#
# Bulk Modulus (GPa) = 23.91345 68.39261 46.15303
# Shear Modulus (GPa) = 18.53122 28.02307 23.27715
#
# Velocity S-wave (km/s) = 3.25371 4.00115 3.64663
# Velocity P-wave (km/s) = 5.27038 7.77286 6.64057
#
# Compressibility (1/GPa) = 0.04181748
#
# Stress axis : x y z
#
# Youngs Moduli (GPa) = 16.84485 61.79644 107.86584
#
# Poissons Ratio (x) = 0.38812 1.07502
# Poissons Ratio (y) = 0.10580 0.56667
# Poissons Ratio (z) = 0.16788 0.32465
#
# Static dielectric constant tensor:
#      x y z
#    x 2.705820 0.000000 0.076700 
#    y 0.000000 3.393400 0.000000 
#    z 0.076700 0.000000 3.756360 
# 
# 
# High freq. dielectric constant tensor:
#      x y z
#    x 1.601140 0.000000 0.000240 
#    y 0.000000 1.686760 0.000000 
#    z 0.000240 0.000000 1.704910 
# 
# From -- ./inp_files/42438.got.cif
#   From: 2010.06.25/outbox.cif.g09.slc.cpg/sg11_22_cif.got.tgz:42438.got - 2010.06.27 23:14:04.
