data_PCOD8070023
_publ_section_title
;
Structure prediction by ZEFSAII (Michael W. Deem and Ramdas Pophale) SiO2 
 PCOD8070023
Probable space group: P 21/M
;
_chemical_formula_sum "Si O2"
_cell_formula_units_Z 28
_cell_length_a 31.423405
_cell_length_b 8.958034
_cell_length_c 9.665005
_cell_angle_alpha 90.000000
_cell_angle_beta 145.143062
_cell_angle_gamma 90.000000
_cell_volume 1554.914587
_symmetry_space_group_name_H-M "P 21/M"
_symmetry_group_IT_number 11
_symmetry_cell_setting 'monoclinic'
loop_
_space_group_symop_operation_xyz
x,y,z
-x,1/2+y,-z
-x,-y,-z
x,1/2-y,z
loop_
_atom_site_type_symbol
_atom_site_label
_atom_site_fract_x
_atom_site_fract_y
_atom_site_fract_z
Si Si1 0.802273 0.080013 0.776053
Si Si2 0.105684 0.077823 0.388204
Si Si3 0.420419 0.074485 0.782294
Si Si4 0.054249 0.580071 0.980522
Si Si5 0.258579 0.926195 0.852786
Si Si6 0.305988 0.075445 0.710233
Si Si7 0.692621 0.424037 0.716322
O O1 0.780313 0.250000 0.680120
O O2 0.892135 0.058681 0.010986
O O3 0.769287 0.038688 0.838160
O O4 0.768066 0.975228 0.566615
O O5 0.130263 0.250000 0.454373
O O6 0.082983 0.032650 0.173254
O O7 0.173838 0.981900 0.626147
O O8 0.032297 0.049104 0.288776
O O9 0.429345 0.250000 0.789510
O O10 0.377872 0.032241 0.810745
O O11 0.375675 0.014664 0.530508
O O12 0.500000 0.000000 0.000000
O O13 0.061217 0.750000 0.055737
O O14 0.257259 0.750000 0.833397
O O15 0.309468 0.994475 0.867370
O O16 0.296193 0.976108 0.096845
O O17 0.301122 0.250000 0.724294
O O18 0.672926 0.250000 0.654594
#
# Coordination Sequence:
#
# PCOD8070023 Si02
#       7
#     4   4   4   4   4   4   4
#     4   9  16  31  53  74  98 133 177 222 263 309
#     4  10  19  29  45  71 104 137 174 225 269 307
#     4  10  21  38  61  86 110 134 166 207 253 308
#     4   9  17  29  47  72  99 133 178 223 270 313
#     4  11  21  34  51  75 107 143 179 214 259 313
#     4  10  20  33  53  81 106 133 172 215 254 301
#     4   9  20  36  55  78 106 139 175 215 259 307
#
# _framework density 18.00742
#
# number of rings (size 3 to 8) (size 9 to 14) (size 15 to 20)
#    0.000    2.286    1.429    1.714    0.000    3.429 
#    0.000    1.429    0.000    0.000    0.000    0.000 
#    0.000    0.000    0.000    0.000    0.000    0.000 
#
# Total GULP energy -347106.008614 kJ/mol
# GULP energy per Si atom -12396.643165 kJ/mol
# Density = 1.796643 g / cm^3
# Si number density = 18.007420 Si / 1000 Ang^3
#
#
#
# Elastic Constant Matrix: (Units=GPa)
#
#
# Indices 1 2 3 4 5 6 
#
# 1 126.2332 51.2008 76.0261 0.0000 3.3428 0.0000
# 2 51.2008 72.7229 49.9223 0.0000 -2.9881 0.0000
# 3 76.0261 49.9223 104.4478 0.0000 1.5043 0.0000
# 4 0.0000 0.0000 0.0000 25.3822 0.0000 3.2501
# 5 3.3428 -2.9881 1.5043 0.0000 34.0678 0.0000
# 6 0.0000 0.0000 0.0000 3.2501 0.0000 26.3054
#
#
#
# Elastic Compliance Matrix: (Units=1/GPa)
#
#
# Indices 1 2 3 4 5 6 
#
# 1 0.015143 -0.004721 -0.008744 0.000000 -0.001514 0.000000
# 2 -0.004721 0.022108 -0.007170 0.000000 0.002719 0.000000
# 3 -0.008744 -0.007170 0.019375 0.000000 -0.000626 0.000000
# 4 0.000000 0.000000 0.000000 0.040031 0.000000 -0.004946
# 5 -0.001514 0.002719 -0.000626 0.000000 0.029768 0.000000
# 6 0.000000 0.000000 0.000000 -0.004946 0.000000 0.038626
#
#
# Mechanical properties :
#
#
# Convention : Reuss Voigt Hill
#
# Bulk Modulus (GPa) = 65.12000 73.07805 69.09902
# Shear Modulus (GPa) = 23.64737 25.56805 24.60771
#
# Velocity S-wave (km/s) = 3.62774 3.77219 3.70067
# Velocity P-wave (km/s) = 7.33408 7.72288 7.53099
#
# Compressibility (1/GPa) = 0.01535627
#
# Stress axis : x y z
#
# Youngs Moduli (GPa) = 66.03629 45.23186 51.61354
#
# Poissons Ratio (x) = 0.21355 0.45132
# Poissons Ratio (y) = 0.31177 0.37005
# Poissons Ratio (z) = 0.57743 0.32430
#
# Static dielectric constant tensor:
#      x y z
#    x 3.586590 0.000000 0.146210 
#    y 0.000000 3.396380 0.000000 
#    z 0.146210 0.000000 3.083960 
# 
# 
# High freq. dielectric constant tensor:
#      x y z
#    x 1.704050 0.000000 0.015830 
#    y 0.000000 1.706320 0.000000 
#    z 0.015830 0.000000 1.663650 
# 
# From -- ./inp_files/28138.got.cif
#   From: 2010.06.25/outbox.cif.g09.slc.cpg/sg11_15_cif.got.tgz:28138.got - 2010.06.27 23:14:04.
