data_PCOD8070355
_publ_section_title
;
Structure prediction by ZEFSAII (Michael W. Deem and Ramdas Pophale) SiO2 
 PCOD8070355
Probable space group: P 21/M
;
_chemical_formula_sum "Si O2"
_cell_formula_units_Z 32
_cell_length_a 26.110961
_cell_length_b 9.035570
_cell_length_c 13.618957
_cell_angle_alpha 90.000000
_cell_angle_beta 146.835103
_cell_angle_gamma 90.000000
_cell_volume 1757.719829
_symmetry_space_group_name_H-M "P 21/M"
_symmetry_group_IT_number 11
_symmetry_cell_setting 'monoclinic'
loop_
_space_group_symop_operation_xyz
x,y,z
-x,1/2+y,-z
-x,-y,-z
x,1/2-y,z
loop_
_atom_site_type_symbol
_atom_site_label
_atom_site_fract_x
_atom_site_fract_y
_atom_site_fract_z
Si Si1 0.228558 0.424491 0.876596
Si Si2 0.621339 0.422856 0.001253
Si Si3 0.911975 0.919622 0.980448
Si Si4 0.870418 0.077249 0.098436
Si Si5 0.047683 0.417778 0.490137
Si Si6 0.465978 0.921105 0.848412
Si Si7 0.894180 0.920047 0.731076
Si Si8 0.276002 0.582081 0.629635
O O1 0.244661 0.250000 0.917610
O O2 0.325527 0.503557 0.005476
O O3 0.188102 0.493037 0.912064
O O4 0.158142 0.458782 0.670203
O O5 0.609163 0.250000 0.961848
O O6 0.677444 0.456031 0.191337
O O7 0.517912 0.497562 0.840957
O O8 0.915953 0.750000 0.020355
O O9 0.847884 0.009577 0.955491
O O10 0.864633 0.936904 0.797732
O O11 0.016921 0.979818 0.146938
O O12 0.844052 0.250000 0.059906
O O13 0.984626 0.051665 0.292394
O O14 0.038304 0.250000 0.506167
O O15 0.000000 0.500000 0.500000
O O16 0.496341 0.750000 0.899470
O O17 0.353070 0.936240 0.665869
O O18 0.500000 0.000000 0.000000
O O19 0.918209 0.750000 0.743727
O O20 0.808995 0.970920 0.525754
O O21 0.237840 0.750000 0.568740
#
# Coordination Sequence:
#
# PCOD8070355 Si02
#       8
#     4   4   4   4   4   4   4   4
#     4  10  19  31  46  68  97 131 165 200 239 285
#     4  10  20  32  47  72 103 134 165 200 239 285
#     4  10  21  36  51  70  97 128 163 206 250 288
#     4  10  19  32  49  69  93 126 165 203 243 289
#     4   8  16  28  41  60  86 117 155 193 229 271
#     4   9  17  31  49  71  98 129 161 197 241 291
#     4  10  21  35  52  73  96 125 165 206 245 291
#     4   9  19  33  50  73 100 129 162 199 244 291
#
# _framework density 18.205404000000001
#
# number of rings (size 3 to 8) (size 9 to 14) (size 15 to 20)
#    0.000    2.500    0.000    3.000    1.750    5.500 
#    0.000    0.000    0.000    0.000    0.000    0.875 
#    0.000    0.000    0.000    0.000    0.000    0.000 
#
# Total GULP energy -396491.675488 kJ/mol
# GULP energy per Si atom -12390.364859 kJ/mol
# Density = 1.816397 g / cm^3
# Si number density = 18.205404 Si / 1000 Ang^3
#
#
#
# Elastic Constant Matrix: (Units=GPa)
#
#
# Indices 1 2 3 4 5 6 
#
# 1 75.1698 31.9431 -0.9579 0.0000 5.3255 0.0000
# 2 31.9431 95.7768 8.5817 0.0000 3.1678 0.0000
# 3 -0.9579 8.5817 19.0566 0.0000 0.7991 0.0000
# 4 0.0000 0.0000 0.0000 22.3688 0.0000 2.9237
# 5 5.3255 3.1678 0.7991 0.0000 21.3879 0.0000
# 6 0.0000 0.0000 0.0000 2.9237 0.0000 34.7566
#
#
#
# Elastic Compliance Matrix: (Units=1/GPa)
#
#
# Indices 1 2 3 4 5 6 
#
# 1 0.015919 -0.005507 0.003418 0.000000 -0.003276 0.000000
# 2 -0.005507 0.012829 -0.006041 0.000000 -0.000303 0.000000
# 3 0.003418 -0.006041 0.055453 0.000000 -0.002028 0.000000
# 4 0.000000 0.000000 0.000000 0.045202 0.000000 -0.003802
# 5 -0.003276 -0.000303 -0.002028 0.000000 0.047692 0.000000
# 6 0.000000 0.000000 0.000000 -0.003802 0.000000 0.029091
#
#
# Mechanical properties :
#
#
# Convention : Reuss Voigt Hill
#
# Bulk Modulus (GPa) = 14.71911 29.90411 22.31161
# Shear Modulus (GPa) = 20.40034 25.73177 23.06606
#
# Velocity S-wave (km/s) = 3.35112 3.76362 3.56334
# Velocity P-wave (km/s) = 4.80374 5.94542 5.40481
#
# Compressibility (1/GPa) = 0.06793889
#
# Stress axis : x y z
#
# Youngs Moduli (GPa) = 62.81771 77.94849 18.03341
#
# Poissons Ratio (x) = 0.42927 -0.06163
# Poissons Ratio (y) = 0.34595 0.10895
# Poissons Ratio (z) = -0.21468 0.47091
#
# Static dielectric constant tensor:
#      x y z
#    x 3.318010 0.000000 0.210560 
#    y 0.000000 3.465520 0.000000 
#    z 0.210560 0.000000 3.026220 
# 
# 
# High freq. dielectric constant tensor:
#      x y z
#    x 1.701610 0.000000 0.013630 
#    y 0.000000 1.723140 0.000000 
#    z 0.013630 0.000000 1.656820 
# 
# From -- ./inp_files/56203.got.cif
#   From: 2010.06.25/outbox.cif.g09.slc.cpg/sg11_29_cif.got.tgz:56203.got - 2010.06.27 23:14:04.
