data_PCOD8070348
_publ_section_title
;
Structure prediction by ZEFSAII (Michael W. Deem and Ramdas Pophale) SiO2 
 PCOD8070348
Probable space group: P 21/M
;
_chemical_formula_sum "Si O2"
_cell_formula_units_Z 32
_cell_length_a 15.668367
_cell_length_b 8.724895
_cell_length_c 14.288977
_cell_angle_alpha 90.000000
_cell_angle_beta 89.760377
_cell_angle_gamma 90.000000
_cell_volume 1953.355473
_symmetry_space_group_name_H-M "P 21/M"
_symmetry_group_IT_number 11
_symmetry_cell_setting 'monoclinic'
loop_
_space_group_symop_operation_xyz
x,y,z
-x,1/2+y,-z
-x,-y,-z
x,1/2-y,z
loop_
_atom_site_type_symbol
_atom_site_label
_atom_site_fract_x
_atom_site_fract_y
_atom_site_fract_z
Si Si1 0.499769 0.427130 0.599539
Si Si2 0.901331 0.926960 0.103500
Si Si3 0.004473 0.068549 0.601925
Si Si4 0.900203 0.071802 0.911197
Si Si5 0.684630 0.930890 0.387904
Si Si6 0.684568 0.068780 0.593740
Si Si7 0.158367 0.568231 0.285863
Si Si8 0.158754 0.570692 0.712595
O O1 0.500000 0.500000 0.500000
O O2 0.493564 0.250000 0.580536
O O3 0.411173 0.474728 0.651098
O O4 0.592324 0.467061 0.644652
O O5 0.880196 0.750000 0.121227
O O6 0.001452 0.960964 0.114282
O O7 0.850278 0.027459 0.178680
O O8 0.870022 0.974062 0.000288
O O9 0.001314 0.250000 0.595444
O O10 0.924075 0.002513 0.659985
O O11 0.091255 0.020798 0.651118
O O12 0.000000 0.000000 0.500000
O O13 0.886813 0.250000 0.934492
O O14 0.844258 0.016220 0.822662
O O15 0.703349 0.750000 0.380450
O O16 0.695390 0.981426 0.495728
O O17 0.747406 0.024366 0.321332
O O18 0.695487 0.250000 0.574624
O O19 0.755918 0.006708 0.665211
O O20 0.154631 0.750000 0.289264
O O21 0.144423 0.750000 0.698441
#
# Coordination Sequence:
#
# PCOD8070348 Si02
#       8
#     4   4   4   4   4   4   4   4
#     4   8  15  27  45  68  93 122 156 194 238 280
#     4  10  19  33  51  70  92 119 153 199 244 283
#     4  11  21  34  47  67  98 134 166 195 229 274
#     4   9  17  32  50  69  92 121 154 191 236 286
#     4  10  19  31  46  67  97 129 160 200 242 281
#     4   9  16  29  49  72  97 126 160 194 230 283
#     4   9  17  30  48  68  94 125 156 189 228 275
#     4  12  23  34  48  68  92 127 167 202 239 283
#
# _framework density 16.382066999999999
#
# number of rings (size 3 to 8) (size 9 to 14) (size 15 to 20)
#    0.000    2.250    1.250    3.000    0.000    2.000 
#    0.000    1.250    0.000    0.000    0.000    0.875 
#    0.000    0.000    0.000    0.000    0.000    0.000 
#
# Total GULP energy -396586.535909 kJ/mol
# GULP energy per Si atom -12393.329247 kJ/mol
# Density = 1.634478 g / cm^3
# Si number density = 16.382067 Si / 1000 Ang^3
#
#
#
# Elastic Constant Matrix: (Units=GPa)
#
#
# Indices 1 2 3 4 5 6 
#
# 1 110.7462 25.2789 46.6812 0.0000 -5.3968 0.0000
# 2 25.2789 44.3928 23.7029 0.0000 -1.2474 0.0000
# 3 46.6812 23.7029 95.6849 0.0000 -1.7006 0.0000
# 4 0.0000 0.0000 0.0000 25.6956 0.0000 -2.2677
# 5 -5.3968 -1.2474 -1.7006 0.0000 11.0609 0.0000
# 6 0.0000 0.0000 0.0000 -2.2677 0.0000 16.7841
#
#
#
# Elastic Compliance Matrix: (Units=1/GPa)
#
#
# Indices 1 2 3 4 5 6 
#
# 1 0.012280 -0.004270 -0.004849 0.000000 0.004765 0.000000
# 2 -0.004270 0.027486 -0.004720 0.000000 0.000291 0.000000
# 3 -0.004849 -0.004720 0.013972 0.000000 -0.000750 0.000000
# 4 0.000000 0.000000 0.000000 0.039387 0.000000 0.005322
# 5 0.004765 0.000291 -0.000750 0.000000 0.092651 0.000000
# 6 0.000000 0.000000 0.000000 0.005322 0.000000 0.060299
#
#
# Mechanical properties :
#
#
# Convention : Reuss Voigt Hill
#
# Bulk Modulus (GPa) = 38.37202 49.12776 43.74989
# Shear Modulus (GPa) = 17.70278 21.05216 19.37747
#
# Velocity S-wave (km/s) = 3.29084 3.58868 3.44298
# Velocity P-wave (km/s) = 6.15740 6.87207 6.52453
#
# Compressibility (1/GPa) = 0.02606066
#
# Stress axis : x y z
#
# Youngs Moduli (GPa) = 81.43104 36.38172 71.56929
#
# Poissons Ratio (x) = 0.15535 0.34702
# Poissons Ratio (y) = 0.34772 0.33784
# Poissons Ratio (z) = 0.39483 0.17174
#
# Static dielectric constant tensor:
#      x y z
#    x 3.651060 0.000000 0.046570 
#    y 0.000000 3.052670 0.000000 
#    z 0.046570 0.000000 3.005070 
# 
# 
# High freq. dielectric constant tensor:
#      x y z
#    x 1.626520 0.000000 -0.001140 
#    y 0.000000 1.629100 0.000000 
#    z -0.001140 0.000000 1.609020 
# 
# From -- ./inp_files/51311.got.cif
#   From: 2010.06.25/outbox.cif.g09.slc.cpg/sg11_26_cif.got.tgz:51311.got - 2010.06.27 23:14:04.
