data_PCOD8070390
_publ_section_title
;
Structure prediction by ZEFSAII (Michael W. Deem and Ramdas Pophale) SiO2 
 PCOD8070390
Probable space group: P 21/M
;
_chemical_formula_sum "Si O2"
_cell_formula_units_Z 28
_cell_length_a 17.938165
_cell_length_b 9.102023
_cell_length_c 20.537314
_cell_angle_alpha 90.000000
_cell_angle_beta 27.043285
_cell_angle_gamma 90.000000
_cell_volume 1524.578084
_symmetry_space_group_name_H-M "P 21/M"
_symmetry_group_IT_number 11
_symmetry_cell_setting 'monoclinic'
loop_
_space_group_symop_operation_xyz
x,y,z
-x,1/2+y,-z
-x,-y,-z
x,1/2-y,z
loop_
_atom_site_type_symbol
_atom_site_label
_atom_site_fract_x
_atom_site_fract_y
_atom_site_fract_z
Si Si1 0.100509 0.578213 0.071159
Si Si2 0.870129 0.917458 0.142790
Si Si3 0.325523 0.422026 0.408487
Si Si4 0.767058 0.083834 0.643497
Si Si5 0.140789 0.415637 0.307649
Si Si6 0.039675 0.920882 0.264810
Si Si7 0.370244 0.422954 0.773792
O O1 0.148014 0.750000 0.028926
O O2 0.917276 0.551557 0.181762
O O3 0.089855 0.527360 0.153914
O O4 0.238778 0.482489 0.928323
O O5 0.900428 0.750000 0.102242
O O6 0.689763 0.957800 0.254518
O O7 0.000000 0.000000 0.000000
O O8 0.358335 0.250000 0.375007
O O9 0.339471 0.495272 0.326394
O O10 0.151216 0.456020 0.576473
O O11 0.459330 0.492962 0.351671
O O12 0.700780 0.250000 0.700018
O O13 0.955354 0.082023 0.476363
O O14 0.746486 0.005528 0.729423
O O15 0.207770 0.250000 0.251017
O O16 0.151795 0.489931 0.228237
O O17 0.074024 0.750000 0.249698
O O18 0.396169 0.250000 0.765549
#
# Coordination Sequence:
#
# PCOD8070390 Si02
#       7
#     4   4   4   4   4   4   4
#     4   9  17  32  52  71  92 122 159 197 236 278
#     4   8  15  28  47  68  90 118 155 196 233 273
#     4  10  19  31  47  69  97 127 158 193 234 279
#     4   9  16  27  44  66  92 122 157 195 231 270
#     4   9  16  26  43  67  94 123 155 191 231 275
#     4   9  18  31  48  70  96 125 158 195 234 277
#     4  10  19  31  48  71  96 123 157 196 237 281
#
# _framework density 18.365735999999998
#
# number of rings (size 3 to 8) (size 9 to 14) (size 15 to 20)
#    0.000    2.857    0.000    1.714    0.000    5.143 
#    0.000    0.714    0.000    0.857    0.000    0.000 
#    0.000    0.000    0.000    0.000    0.000    0.000 
#
# Total GULP energy -346964.791341 kJ/mol
# GULP energy per Si atom -12391.599691 kJ/mol
# Density = 1.832394 g / cm^3
# Si number density = 18.365736 Si / 1000 Ang^3
#
#
#
# Elastic Constant Matrix: (Units=GPa)
#
#
# Indices 1 2 3 4 5 6 
#
# 1 31.9113 7.3036 -6.2942 0.0000 11.8402 0.0000
# 2 7.3036 75.0919 5.4054 0.0000 0.9642 0.0000
# 3 -6.2942 5.4054 16.7754 0.0000 4.7181 0.0000
# 4 0.0000 0.0000 0.0000 19.5821 0.0000 -3.3564
# 5 11.8402 0.9642 4.7181 0.0000 24.9898 0.0000
# 6 0.0000 0.0000 0.0000 -3.3564 0.0000 31.9478
#
#
#
# Elastic Compliance Matrix: (Units=1/GPa)
#
#
# Indices 1 2 3 4 5 6 
#
# 1 0.048898 -0.006435 0.028373 0.000000 -0.028276 0.000000
# 2 -0.006435 0.014483 -0.008218 0.000000 0.004042 0.000000
# 3 0.028373 -0.008218 0.080892 0.000000 -0.028399 0.000000
# 4 0.000000 0.000000 0.000000 0.052004 0.000000 0.005463
# 5 -0.028276 0.004042 -0.028399 0.000000 0.058619 0.000000
# 6 0.000000 0.000000 0.000000 0.005463 0.000000 0.031875
#
#
# Mechanical properties :
#
#
# Convention : Reuss Voigt Hill
#
# Bulk Modulus (GPa) = 5.82370 15.17869 10.50120
# Shear Modulus (GPa) = 15.79438 23.12817 19.46128
#
# Velocity S-wave (km/s) = 2.93574 3.55253 3.25876
# Velocity P-wave (km/s) = 3.83005 5.01098 4.45977
#
# Compressibility (1/GPa) = 0.17171216
#
# Stress axis : x y z
#
# Youngs Moduli (GPa) = 20.45089 69.04842 12.36212
#
# Poissons Ratio (x) = 0.44434 -0.35075
# Poissons Ratio (y) = 0.13161 0.10159
# Poissons Ratio (z) = -0.58025 0.56744
#
# Static dielectric constant tensor:
#      x y z
#    x 4.040060 0.000000 -0.020530 
#    y 0.000000 3.447010 0.000000 
#    z -0.020530 0.000000 2.804780 
# 
# 
# High freq. dielectric constant tensor:
#      x y z
#    x 1.733110 0.000000 -0.003730 
#    y 0.000000 1.722220 0.000000 
#    z -0.003730 0.000000 1.649770 
# 
# From -- ./inp_files/42343.got.cif
#   From: 2010.06.25/outbox.cif.g09.slc.cpg/sg11_22_cif.got.tgz:42343.got - 2010.06.27 23:14:04.
