data_PCOD8070479
_publ_section_title
;
Structure prediction by ZEFSAII (Michael W. Deem and Ramdas Pophale) SiO2 
 PCOD8070479
Probable space group: P 21/M
;
_chemical_formula_sum "Si O2"
_cell_formula_units_Z 28
_cell_length_a 15.051592
_cell_length_b 8.724295
_cell_length_c 18.882298
_cell_angle_alpha 90.000000
_cell_angle_beta 141.853056
_cell_angle_gamma 90.000000
_cell_volume 1531.551008
_symmetry_space_group_name_H-M "P 21/M"
_symmetry_group_IT_number 11
_symmetry_cell_setting 'monoclinic'
loop_
_space_group_symop_operation_xyz
x,y,z
-x,1/2+y,-z
-x,-y,-z
x,1/2-y,z
loop_
_atom_site_type_symbol
_atom_site_label
_atom_site_fract_x
_atom_site_fract_y
_atom_site_fract_z
Si Si1 0.291566 0.066655 0.767117
Si Si2 0.583841 0.929764 0.899861
Si Si3 0.813856 0.917388 0.441015
Si Si4 0.487136 0.580160 0.283902
Si Si5 0.124809 0.432823 0.371362
Si Si6 0.165527 0.429466 0.836801
Si Si7 0.575922 0.431491 0.479753
O O1 0.301411 0.250000 0.767931
O O2 0.184731 0.003058 0.636308
O O3 0.230759 0.010310 0.803650
O O4 0.450835 0.000934 0.858948
O O5 0.557510 0.750000 0.877958
O O6 0.606455 0.997089 0.835418
O O7 0.727171 0.970662 0.032882
O O8 0.884166 0.750000 0.477353
O O9 0.647031 0.904468 0.355605
O O10 0.888899 0.999845 0.555576
O O11 0.423768 0.750000 0.258941
O O12 0.484065 0.482072 0.353748
O O13 0.145362 0.250000 0.385822
O O14 0.261785 0.505691 0.419323
O O15 0.982462 0.481457 0.240101
O O16 0.133316 0.250000 0.812390
O O17 0.500000 0.500000 0.500000
O O18 0.579278 0.250000 0.486041
#
# Coordination Sequence:
#
# PCOD8070479 Si02
#       7
#     4   4   4   4   4   4   4
#     4   9  17  31  49  68  96 136 181 226 267 305
#     4  10  19  31  48  72 102 137 181 225 262 302
#     4   7  13  27  46  67  93 126 165 211 255 297
#     4   9  17  32  53  77 103 132 169 209 253 303
#     4  10  20  34  51  74 104 138 175 211 256 312
#     4  10  21  33  46  69 103 142 181 222 264 306
#     4  11  21  36  60  87 111 132 159 199 249 304
#
# _framework density 18.282122000000001
#
# number of rings (size 3 to 8) (size 9 to 14) (size 15 to 20)
#    0.000    2.571    0.000    4.714    0.000    2.286 
#    0.000    0.714    0.000    0.857    0.000    0.000 
#    0.000    0.000    0.000    0.000    0.000    0.000 
#
# Total GULP energy -346998.417501 kJ/mol
# GULP energy per Si atom -12392.800625 kJ/mol
# Density = 1.824051 g / cm^3
# Si number density = 18.282122 Si / 1000 Ang^3
#
#
#
# Elastic Constant Matrix: (Units=GPa)
#
#
# Indices 1 2 3 4 5 6 
#
# 1 94.9140 39.7863 52.2697 0.0000 -13.4926 0.0000
# 2 39.7863 85.1579 39.6596 0.0000 -1.4497 0.0000
# 3 52.2697 39.6596 107.2644 0.0000 -4.4022 0.0000
# 4 0.0000 0.0000 0.0000 27.6957 0.0000 -1.5030
# 5 -13.4926 -1.4497 -4.4022 0.0000 21.2306 0.0000
# 6 0.0000 0.0000 0.0000 -1.5030 0.0000 24.4749
#
#
#
# Elastic Compliance Matrix: (Units=1/GPa)
#
#
# Indices 1 2 3 4 5 6 
#
# 1 0.017442 -0.005086 -0.006231 0.000000 0.009446 0.000000
# 2 -0.005086 0.015669 -0.003433 0.000000 -0.002874 0.000000
# 3 -0.006231 -0.003433 0.013572 0.000000 -0.001380 0.000000
# 4 0.000000 0.000000 0.000000 0.036227 0.000000 0.002225
# 5 0.009446 -0.002874 -0.001380 0.000000 0.052622 0.000000
# 6 0.000000 0.000000 0.000000 0.002225 0.000000 0.040995
#
#
# Mechanical properties :
#
#
# Convention : Reuss Voigt Hill
#
# Bulk Modulus (GPa) = 58.19962 61.19638 59.69800
# Shear Modulus (GPa) = 23.61207 25.05497 24.33352
#
# Velocity S-wave (km/s) = 3.59770 3.70599 3.65225
# Velocity P-wave (km/s) = 7.01150 7.20129 7.10703
#
# Compressibility (1/GPa) = 0.01718224
#
# Stress axis : x y z
#
# Youngs Moduli (GPa) = 57.33169 63.82010 73.68173
#
# Poissons Ratio (x) = 0.32461 0.45914
# Poissons Ratio (y) = 0.29161 0.25294
# Poissons Ratio (z) = 0.35726 0.21908
#
# Static dielectric constant tensor:
#      x y z
#    x 3.174840 0.000000 -0.323170 
#    y 0.000000 3.342850 0.000000 
#    z -0.323170 0.000000 3.583940 
# 
# 
# High freq. dielectric constant tensor:
#      x y z
#    x 1.679140 0.000000 -0.017950 
#    y 0.000000 1.704200 0.000000 
#    z -0.017950 0.000000 1.712190 
# 
# From -- ./inp_files/53201.got.cif
#   From: 2010.06.25/outbox.cif.g09.slc.cpg/sg11_27_cif.got.tgz:53201.got - 2010.06.27 23:14:04.
