data_PCOD8070268
_publ_section_title
;
Structure prediction by ZEFSAII (Michael W. Deem and Ramdas Pophale) SiO2 
 PCOD8070268
Probable space group: P 21/M
;
_chemical_formula_sum "Si O2"
_cell_formula_units_Z 32
_cell_length_a 19.910857
_cell_length_b 9.573899
_cell_length_c 13.180841
_cell_angle_alpha 90.000000
_cell_angle_beta 43.494180
_cell_angle_gamma 90.000000
_cell_volume 1729.368832
_symmetry_space_group_name_H-M "P 21/M"
_symmetry_group_IT_number 11
_symmetry_cell_setting 'monoclinic'
loop_
_space_group_symop_operation_xyz
x,y,z
-x,1/2+y,-z
-x,-y,-z
x,1/2-y,z
loop_
_atom_site_type_symbol
_atom_site_label
_atom_site_fract_x
_atom_site_fract_y
_atom_site_fract_z
Si Si1 0.119210 0.913965 0.577268
Si Si2 0.676057 0.595037 0.983302
Si Si3 0.679439 0.415918 0.552325
Si Si4 0.935482 0.407801 0.790592
Si Si5 0.470399 0.596179 0.123277
Si Si6 0.406479 0.587172 0.564804
Si Si7 0.180702 0.912237 0.284726
Si Si8 0.734054 0.092465 0.099317
O O1 0.101246 0.750000 0.606512
O O2 0.209012 0.962674 0.550488
O O3 0.136493 0.956319 0.441091
O O4 0.023727 0.991182 0.722816
O O5 0.724233 0.750000 0.932748
O O6 0.722926 0.504845 0.840427
O O7 0.561354 0.609904 0.097860
O O8 0.686796 0.520059 0.078287
O O9 0.672548 0.250000 0.557274
O O10 0.617612 0.471808 0.716056
O O11 0.632854 0.473769 0.499181
O O12 0.974928 0.250000 0.747698
O O13 0.894696 0.445510 0.723282
O O14 0.851475 0.428347 0.968124
O O15 0.440474 0.750000 0.115146
O O16 0.500000 0.500000 0.000000
O O17 0.500000 0.500000 0.500000
O O18 0.437234 0.750000 0.524600
O O19 0.312322 0.568319 0.740043
O O20 0.211278 0.750000 0.251357
O O21 0.711239 0.250000 0.085026
#
# Coordination Sequence:
#
# PCOD8070268 Si02
#       8
#     4   4   4   4   4   4   4   4
#     4  10  19  32  51  73  99 137 179 213 250 300
#     4  10  19  30  49  77 103 128 166 215 256 293
#     4   9  19  35  53  74 102 135 170 208 253 305
#     4   9  18  32  49  72 102 134 171 214 255 296
#     4  10  20  33  49  71 101 136 168 200 244 298
#     4  10  20  37  60  81 103 132 167 209 256 307
#     4   9  18  32  50  73 104 141 174 204 250 311
#     4   9  19  35  54  75 100 133 167 201 254 314
#
# _framework density 18.503862000000002
#
# number of rings (size 3 to 8) (size 9 to 14) (size 15 to 20)
#    0.000    2.500    0.000    3.000    0.000    6.000 
#    0.000    2.500    0.000    0.000    0.000    0.000 
#    0.000    0.000    0.000    0.000    0.000    0.000 
#
# Total GULP energy -396684.294292 kJ/mol
# GULP energy per Si atom -12396.384197 kJ/mol
# Density = 1.846175 g / cm^3
# Si number density = 18.503862 Si / 1000 Ang^3
#
#
#
# Elastic Constant Matrix: (Units=GPa)
#
#
# Indices 1 2 3 4 5 6 
#
# 1 106.0255 38.3900 54.4944 0.0000 -10.0271 0.0000
# 2 38.3900 69.6311 41.2191 0.0000 -4.1691 0.0000
# 3 54.4944 41.2191 112.5764 0.0000 -3.3226 0.0000
# 4 0.0000 0.0000 0.0000 25.2795 0.0000 -6.3643
# 5 -10.0271 -4.1691 -3.3226 0.0000 28.7176 0.0000
# 6 0.0000 0.0000 0.0000 -6.3643 0.0000 25.6551
#
#
#
# Elastic Compliance Matrix: (Units=1/GPa)
#
#
# Indices 1 2 3 4 5 6 
#
# 1 0.013990 -0.004532 -0.005005 0.000000 0.003648 0.000000
# 2 -0.004532 0.019907 -0.005074 0.000000 0.000721 0.000000
# 3 -0.005005 -0.005074 0.013135 0.000000 -0.000964 0.000000
# 4 0.000000 0.000000 0.000000 0.042193 0.000000 0.010467
# 5 0.003648 0.000721 -0.000964 0.000000 0.036089 0.000000
# 6 0.000000 0.000000 0.000000 0.010467 0.000000 0.041575
#
#
# Mechanical properties :
#
#
# Convention : Reuss Voigt Hill
#
# Bulk Modulus (GPa) = 56.14780 61.82665 58.98722
# Shear Modulus (GPa) = 24.74682 26.20574 25.47628
#
# Velocity S-wave (km/s) = 3.66100 3.76737 3.71456
# Velocity P-wave (km/s) = 6.94840 7.23944 7.09541
#
# Compressibility (1/GPa) = 0.01781014
#
# Stress axis : x y z
#
# Youngs Moduli (GPa) = 71.47903 50.23468 76.13321
#
# Poissons Ratio (x) = 0.22766 0.38106
# Poissons Ratio (y) = 0.32394 0.38627
# Poissons Ratio (z) = 0.35776 0.25487
#
# Static dielectric constant tensor:
#      x y z
#    x 3.373420 0.000000 -0.067530 
#    y 0.000000 3.396790 0.000000 
#    z -0.067530 0.000000 3.472340 
# 
# 
# High freq. dielectric constant tensor:
#      x y z
#    x 1.706120 0.000000 -0.010310 
#    y 0.000000 1.704460 0.000000 
#    z -0.010310 0.000000 1.718640 
# 
# From -- ./inp_files/42836.got.cif
#   From: 2010.06.25/outbox.cif.g09.slc.cpg/sg11_22_cif.got.tgz:42836.got - 2010.06.27 23:14:04.
