data_PCOD8070442
_publ_section_title
;
Structure prediction by ZEFSAII (Michael W. Deem and Ramdas Pophale) SiO2 
 PCOD8070442
Probable space group: P 21/M
;
_chemical_formula_sum "Si O2"
_cell_formula_units_Z 28
_cell_length_a 15.581485
_cell_length_b 9.498117
_cell_length_c 17.899304
_cell_angle_alpha 90.000000
_cell_angle_beta 143.243472
_cell_angle_gamma 90.000000
_cell_volume 1585.205682
_symmetry_space_group_name_H-M "P 21/M"
_symmetry_group_IT_number 11
_symmetry_cell_setting 'monoclinic'
loop_
_space_group_symop_operation_xyz
x,y,z
-x,1/2+y,-z
-x,-y,-z
x,1/2-y,z
loop_
_atom_site_type_symbol
_atom_site_label
_atom_site_fract_x
_atom_site_fract_y
_atom_site_fract_z
Si Si1 0.660368 0.583198 0.907624
Si Si2 0.392100 0.592688 0.633341
Si Si3 0.620065 0.591442 0.044746
Si Si4 0.849865 0.918291 0.903983
Si Si5 0.144865 0.412040 0.511794
Si Si6 0.423329 0.407144 0.383840
Si Si7 0.120844 0.094385 0.663400
O O1 0.662621 0.750000 0.903289
O O2 0.506375 0.529300 0.771599
O O3 0.787514 0.530879 0.941306
O O4 0.673663 0.529536 0.002218
O O5 0.342464 0.750000 0.621917
O O6 0.257272 0.489726 0.537316
O O7 0.462243 0.596553 0.601852
O O8 0.560327 0.750000 0.992016
O O9 0.754653 0.590505 0.191132
O O10 0.500000 0.500000 0.000000
O O11 0.876405 0.750000 0.920541
O O12 0.732396 0.959826 0.757256
O O13 0.000000 0.000000 0.000000
O O14 0.142106 0.250000 0.486885
O O15 0.185161 0.438445 0.626474
O O16 0.989660 0.476587 0.387800
O O17 0.500000 0.500000 0.500000
O O18 0.401809 0.250000 0.401295
O O19 0.048392 0.250000 0.611221
#
# Coordination Sequence:
#
# PCOD8070442 Si02
#       7
#     4   4   4   4   4   4   4
#     4   8  16  32  53  74  98 131 168 201 242 303
#     4   9  17  32  53  73  95 128 165 200 246 302
#     4  10  19  32  51  74 100 130 164 205 248 291
#     4   9  18  35  56  78 105 138 175 215 261 314
#     4  10  19  31  48  70  96 130 167 205 247 287
#     4   9  19  35  54  77 105 134 170 216 262 312
#     4   9  19  33  47  67  99 133 166 202 242 293
#
# _framework density 17.663323999999999
#
# number of rings (size 3 to 8) (size 9 to 14) (size 15 to 20)
#    0.000    2.857    0.000    3.000    0.000    2.286 
#    2.571    2.857    0.000    0.000    0.000    0.000 
#    0.000    0.000    0.000    0.000    0.000    0.000 
#
# Total GULP energy -346975.022322 kJ/mol
# GULP energy per Si atom -12391.965083 kJ/mol
# Density = 1.762312 g / cm^3
# Si number density = 17.663324 Si / 1000 Ang^3
#
#
#
# Elastic Constant Matrix: (Units=GPa)
#
#
# Indices 1 2 3 4 5 6 
#
# 1 86.8374 46.2006 49.2444 0.0000 13.1211 0.0000
# 2 46.2006 85.0334 46.1955 0.0000 14.3880 0.0000
# 3 49.2444 46.1955 89.5953 0.0000 -1.4003 0.0000
# 4 0.0000 0.0000 0.0000 28.1887 0.0000 4.8039
# 5 13.1211 14.3880 -1.4003 0.0000 23.0925 0.0000
# 6 0.0000 0.0000 0.0000 4.8039 0.0000 31.3465
#
#
#
# Elastic Compliance Matrix: (Units=1/GPa)
#
#
# Indices 1 2 3 4 5 6 
#
# 1 0.020519 -0.004683 -0.009009 0.000000 -0.009287 0.000000
# 2 -0.004683 0.020555 -0.008191 0.000000 -0.010643 0.000000
# 3 -0.009009 -0.008191 0.020515 0.000000 0.011466 0.000000
# 4 0.000000 0.000000 0.000000 0.036427 0.000000 -0.005582
# 5 -0.009287 -0.010643 0.011466 0.000000 0.055908 0.000000
# 6 0.000000 0.000000 0.000000 -0.005582 0.000000 0.032757
#
#
# Mechanical properties :
#
#
# Convention : Reuss Voigt Hill
#
# Bulk Modulus (GPa) = 56.10172 60.52746 58.31459
# Shear Modulus (GPa) = 21.15180 24.51391 22.83286
#
# Velocity S-wave (km/s) = 3.46424 3.72942 3.59927
# Velocity P-wave (km/s) = 6.91607 7.27231 7.09642
#
# Compressibility (1/GPa) = 0.01782476
#
# Stress axis : x y z
#
# Youngs Moduli (GPa) = 48.73441 48.65016 48.74485
#
# Poissons Ratio (x) = 0.22783 0.43913
# Poissons Ratio (y) = 0.22823 0.39925
# Poissons Ratio (z) = 0.43903 0.39847
#
# Static dielectric constant tensor:
#      x y z
#    x 3.295460 0.000000 -0.134360 
#    y 0.000000 3.649910 0.000000 
#    z -0.134360 0.000000 3.195500 
# 
# 
# High freq. dielectric constant tensor:
#      x y z
#    x 1.680990 0.000000 -0.000680 
#    y 0.000000 1.669390 0.000000 
#    z -0.000680 0.000000 1.679660 
# 
# From -- ./inp_files/42587.got.cif
#   From: 2010.06.25/outbox.cif.g09.slc.cpg/sg11_22_cif.got.tgz:42587.got - 2010.06.27 23:14:04.
