data_PCOD8070768
_publ_section_title
;
Structure prediction by ZEFSAII (Michael W. Deem and Ramdas Pophale) SiO2 
 PCOD8070768
Probable space group: P 21/M
;
_chemical_formula_sum "Si O2"
_cell_formula_units_Z 28
_cell_length_a 10.161445
_cell_length_b 8.777107
_cell_length_c 30.719553
_cell_angle_alpha 90.000000
_cell_angle_beta 147.644767
_cell_angle_gamma 90.000000
_cell_volume 1466.260130
_symmetry_space_group_name_H-M "P 21/M"
_symmetry_group_IT_number 11
_symmetry_cell_setting 'monoclinic'
loop_
_space_group_symop_operation_xyz
x,y,z
-x,1/2+y,-z
-x,-y,-z
x,1/2-y,z
loop_
_atom_site_type_symbol
_atom_site_label
_atom_site_fract_x
_atom_site_fract_y
_atom_site_fract_z
Si Si1 0.158708 0.571003 0.006010
Si Si2 0.311576 0.427709 0.733434
Si Si3 0.671095 0.427781 0.169777
Si Si4 0.642809 0.575714 0.406287
Si Si5 0.066318 0.575093 0.587364
Si Si6 0.098236 0.924763 0.238182
Si Si7 0.154206 0.926507 0.152797
O O1 0.152224 0.750000 0.010126
O O2 0.437274 0.516532 0.086226
O O3 0.000000 0.500000 0.000000
O O4 0.049333 0.525191 0.928863
O O5 0.293399 0.250000 0.738867
O O6 0.260218 0.520294 0.762698
O O7 0.103754 0.472332 0.640421
O O8 0.576784 0.473652 0.788668
O O9 0.612685 0.250000 0.153062
O O10 0.898453 0.462287 0.201860
O O11 0.683095 0.750000 0.401527
O O12 0.737044 0.465784 0.394787
O O13 0.355814 0.545426 0.334926
O O14 0.791276 0.544798 0.492375
O O15 0.105408 0.750000 0.611307
O O16 0.013108 0.750000 0.220562
O O17 0.134837 0.964497 0.197967
O O18 0.103657 0.750000 0.128929
#
# Coordination Sequence:
#
# PCOD8070768 Si02
#       7
#     4   4   4   4   4   4   4
#     4  12  24  40  63  90 121 156 197 245 297 348
#     4  11  21  38  62  88 119 158 200 243 297 356
#     4  12  26  42  61  88 121 156 198 246 299 357
#     4   9  18  35  57  85 121 161 199 243 297 352
#     4  10  19  31  56  91 123 153 198 251 295 346
#     4  10  21  41  63  86 120 160 199 241 298 356
#     4  10  21  38  64  90 117 155 201 246 292 351
#
# _framework density 19.096202000000002
#
# number of rings (size 3 to 8) (size 9 to 14) (size 15 to 20)
#    0.000    1.429    2.857    3.429    0.000    2.857 
#    0.000    0.714    0.000    0.000    0.000    0.000 
#    0.000    0.000    0.000    0.000    0.000    0.000 
#
# Total GULP energy -347345.715319 kJ/mol
# GULP energy per Si atom -12405.204119 kJ/mol
# Density = 1.905274 g / cm^3
# Si number density = 19.096202 Si / 1000 Ang^3
#
#
#
# Elastic Constant Matrix: (Units=GPa)
#
#
# Indices 1 2 3 4 5 6 
#
# 1 84.2027 32.8490 35.0764 0.0000 2.8902 0.0000
# 2 32.8490 94.8153 44.0485 0.0000 -1.2100 0.0000
# 3 35.0764 44.0485 128.7768 0.0000 -0.4365 0.0000
# 4 0.0000 0.0000 0.0000 33.4879 0.0000 -1.9370
# 5 2.8902 -1.2100 -0.4365 0.0000 27.2769 0.0000
# 6 0.0000 0.0000 0.0000 -1.9370 0.0000 30.3900
#
#
#
# Elastic Compliance Matrix: (Units=1/GPa)
#
#
# Indices 1 2 3 4 5 6 
#
# 1 0.014535 -0.003824 -0.002657 0.000000 -0.001752 0.000000
# 2 -0.003824 0.013552 -0.003591 0.000000 0.000949 0.000000
# 3 -0.002657 -0.003591 0.009718 0.000000 0.000278 0.000000
# 4 0.000000 0.000000 0.000000 0.029972 0.000000 0.001910
# 5 -0.001752 0.000949 0.000278 0.000000 0.036893 0.000000
# 6 0.000000 0.000000 0.000000 0.001910 0.000000 0.033027
#
#
# Mechanical properties :
#
#
# Convention : Reuss Voigt Hill
#
# Bulk Modulus (GPa) = 56.61861 59.08253 57.85057
# Shear Modulus (GPa) = 30.53855 31.28568 30.91212
#
# Velocity S-wave (km/s) = 4.00333 4.05201 4.02774
# Velocity P-wave (km/s) = 7.14720 7.27312 7.21043
#
# Compressibility (1/GPa) = 0.01766204
#
# Stress axis : x y z
#
# Youngs Moduli (GPa) = 68.80066 73.79111 102.89886
#
# Poissons Ratio (x) = 0.28214 0.27341
# Poissons Ratio (y) = 0.26306 0.36948
# Poissons Ratio (z) = 0.18281 0.26497
#
# Static dielectric constant tensor:
#      x y z
#    x 3.287580 0.000000 -0.062020 
#    y 0.000000 3.570060 0.000000 
#    z -0.062020 0.000000 3.865840 
# 
# 
# High freq. dielectric constant tensor:
#      x y z
#    x 1.721390 0.000000 -0.005450 
#    y 0.000000 1.746960 0.000000 
#    z -0.005450 0.000000 1.759090 
# 
# From -- ./inp_files/28600.got.cif
#   From: 2010.06.25/outbox.cif.g09.slc.cpg/sg11_15_cif.got.tgz:28600.got - 2010.06.27 23:14:04.
