data_PCOD8070836
_publ_section_title
;
Structure prediction by ZEFSAII (Michael W. Deem and Ramdas Pophale) SiO2 
 PCOD8070836
Probable space group: P 21/M
;
_chemical_formula_sum "Si O2"
_cell_formula_units_Z 20
_cell_length_a 27.614827
_cell_length_b 9.052704
_cell_length_c 9.552040
_cell_angle_alpha 90.000000
_cell_angle_beta 27.574649
_cell_angle_gamma 90.000000
_cell_volume 1105.369818
_symmetry_space_group_name_H-M "P 21/M"
_symmetry_group_IT_number 11
_symmetry_cell_setting 'monoclinic'
loop_
_space_group_symop_operation_xyz
x,y,z
-x,1/2+y,-z
-x,-y,-z
x,1/2-y,z
loop_
_atom_site_type_symbol
_atom_site_label
_atom_site_fract_x
_atom_site_fract_y
_atom_site_fract_z
Si Si1 0.669404 0.577139 0.339531
Si Si2 0.433355 0.577828 0.917953
Si Si3 0.890702 0.575628 0.251286
Si Si4 0.708328 0.920176 0.925285
Si Si5 0.746371 0.423772 0.408360
O O1 0.676318 0.750000 0.359931
O O2 0.549758 0.520163 0.650741
O O3 0.736768 0.483073 0.275882
O O4 0.719160 0.542749 0.060940
O O5 0.436100 0.750000 0.880925
O O6 0.389650 0.505919 0.888627
O O7 0.360503 0.536720 0.236192
O O8 0.904990 0.750000 0.195168
O O9 0.816165 0.535792 0.573215
O O10 0.843123 0.507111 0.231972
O O11 0.000000 0.500000 0.000000
O O12 0.682244 0.750000 0.968319
O O13 0.769303 0.250000 0.349301
#
# Coordination Sequence:
#
# PCOD8070836 Si02
#       5
#     4   4   4   4   4
#     4  10  19  32  49  74 107 138 165 201 245 289
#     4   9  18  31  49  73 104 139 172 201 236 286
#     4  10  20  37  58  76  95 125 164 209 255 301
#     4   9  19  33  51  75 102 131 167 206 247 294
#     4  10  20  33  50  76 104 133 169 205 241 290
#
# _framework density 18.093491
#
# number of rings (size 3 to 8) (size 9 to 14) (size 15 to 20)
#    0.000    2.400    0.000    2.400    0.000    3.200 
#    0.000    1.000    0.000    0.000    0.000    0.000 
#    0.000    0.000    0.000    0.000    0.000    0.000 
#
# Total GULP energy -248062.450796 kJ/mol
# GULP energy per Si atom -12403.122540 kJ/mol
# Density = 1.805231 g / cm^3
# Si number density = 18.093491 Si / 1000 Ang^3
#
#
#
# Elastic Constant Matrix: (Units=GPa)
#
#
# Indices 1 2 3 4 5 6 
#
# 1 152.0275 64.8794 70.5029 0.0000 -6.3164 0.0000
# 2 64.8794 73.0633 38.1030 0.0000 -5.5057 0.0000
# 3 70.5029 38.1030 68.8368 0.0000 -10.2685 0.0000
# 4 0.0000 0.0000 0.0000 23.1759 0.0000 -1.4121
# 5 -6.3164 -5.5057 -10.2685 0.0000 28.5233 0.0000
# 6 0.0000 0.0000 0.0000 -1.4121 0.0000 38.4702
#
#
#
# Elastic Compliance Matrix: (Units=1/GPa)
#
#
# Indices 1 2 3 4 5 6 
#
# 1 0.015076 -0.007492 -0.011637 0.000000 -0.002297 0.000000
# 2 -0.007492 0.022964 -0.004887 0.000000 0.001014 0.000000
# 3 -0.011637 -0.004887 0.030250 0.000000 0.007370 0.000000
# 4 0.000000 0.000000 0.000000 0.043245 0.000000 0.001587
# 5 -0.002297 0.001014 0.007370 0.000000 0.037399 0.000000
# 6 0.000000 0.000000 0.000000 0.001587 0.000000 0.026052
#
#
# Mechanical properties :
#
#
# Convention : Reuss Voigt Hill
#
# Bulk Modulus (GPa) = 49.35958 71.21093 60.28526
# Shear Modulus (GPa) = 21.76078 26.06337 23.91207
#
# Velocity S-wave (km/s) = 3.47174 3.79949 3.63930
# Velocity P-wave (km/s) = 6.58864 7.66099 7.14496
#
# Compressibility (1/GPa) = 0.02025949
#
# Stress axis : x y z
#
# Youngs Moduli (GPa) = 66.33025 43.54555 33.05807
#
# Poissons Ratio (x) = 0.32624 0.38468
# Poissons Ratio (y) = 0.49694 0.16155
# Poissons Ratio (z) = 0.77186 0.21280
#
# Static dielectric constant tensor:
#      x y z
#    x 3.326310 0.000000 0.056190 
#    y 0.000000 3.330780 0.000000 
#    z 0.056190 0.000000 3.382790 
# 
# 
# High freq. dielectric constant tensor:
#      x y z
#    x 1.702170 0.000000 0.004810 
#    y 0.000000 1.703480 0.000000 
#    z 0.004810 0.000000 1.688750 
# 
# From -- ./inp_files/15937.got.cif
#   From: 2010.06.25/outbox.cif.g09.slc.cpg/sg11_8_cif.got.tgz:15937.got - 2010.06.27 23:14:04.
