data_PCOD8070096
_publ_section_title
;
Structure prediction by ZEFSAII (Michael W. Deem and Ramdas Pophale) SiO2 
 PCOD8070096
Probable space group: P 21/M
;
_chemical_formula_sum "Si O2"
_cell_formula_units_Z 28
_cell_length_a 18.293765
_cell_length_b 9.071720
_cell_length_c 16.300373
_cell_angle_alpha 90.000000
_cell_angle_beta 142.300202
_cell_angle_gamma 90.000000
_cell_volume 1654.260728
_symmetry_space_group_name_H-M "P 21/M"
_symmetry_group_IT_number 11
_symmetry_cell_setting 'monoclinic'
loop_
_space_group_symop_operation_xyz
x,y,z
-x,1/2+y,-z
-x,-y,-z
x,1/2-y,z
loop_
_atom_site_type_symbol
_atom_site_label
_atom_site_fract_x
_atom_site_fract_y
_atom_site_fract_z
Si Si1 0.407313 0.085970 0.809796
Si Si2 0.672002 0.412927 0.116099
Si Si3 0.836530 0.420054 0.806764
Si Si4 0.093924 0.421346 0.971467
Si Si5 0.585032 0.421288 0.511882
Si Si6 0.501172 0.575512 0.743123
Si Si7 0.255822 0.925066 0.993915
O O1 0.364598 0.250000 0.747810
O O2 0.313908 0.020604 0.793536
O O3 0.410963 0.984217 0.732541
O O4 0.536647 0.091301 0.965051
O O5 0.711345 0.250000 0.179468
O O6 0.751924 0.466003 0.109775
O O7 0.833957 0.250000 0.833340
O O8 0.722575 0.462597 0.651167
O O9 0.952986 0.451176 0.855057
O O10 0.835757 0.521683 0.886275
O O11 0.123796 0.250000 0.986321
O O12 0.136839 0.511875 0.930220
O O13 0.500000 0.500000 0.500000
O O14 0.561831 0.250000 0.502754
O O15 0.555593 0.470780 0.393719
O O16 0.515505 0.750000 0.766561
O O17 0.630172 0.500288 0.862666
O O18 0.267133 0.750000 0.015793
#
# Coordination Sequence:
#
# PCOD8070096 Si02
#       7
#     4   4   4   4   4   4   4
#     4   9  16  26  41  62  89 120 150 182 224 268
#     4   8  15  26  40  60  87 119 150 180 218 267
#     4   9  19  35  50  65  90 121 152 187 227 268
#     4  10  19  31  49  70  90 116 151 189 228 269
#     4  10  21  34  48  67  91 121 153 186 223 263
#     4  10  19  30  45  66  92 122 156 187 220 268
#     4  10  19  30  45  67  95 123 150 184 228 270
#
# _framework density 16.925991
#
# number of rings (size 3 to 8) (size 9 to 14) (size 15 to 20)
#    0.000    2.571    0.000    3.429    0.000    8.571 
#    0.000    0.000    0.000    0.000    0.000    1.000 
#    0.000    0.000    0.000    0.000    0.000    0.000 
#
# Total GULP energy -347171.903500 kJ/mol
# GULP energy per Si atom -12398.996554 kJ/mol
# Density = 1.688747 g / cm^3
# Si number density = 16.925991 Si / 1000 Ang^3
#
#
#
# Elastic Constant Matrix: (Units=GPa)
#
#
# Indices 1 2 3 4 5 6 
#
# 1 143.1230 64.9490 46.2386 0.0000 -18.8449 0.0000
# 2 64.9490 91.8902 33.5077 0.0000 -10.6551 0.0000
# 3 46.2386 33.5077 63.2928 0.0000 -6.0874 0.0000
# 4 0.0000 0.0000 0.0000 17.8888 0.0000 -4.8364
# 5 -18.8449 -10.6551 -6.0874 0.0000 19.2117 0.0000
# 6 0.0000 0.0000 0.0000 -4.8364 0.0000 34.8374
#
#
#
# Elastic Compliance Matrix: (Units=1/GPa)
#
#
# Indices 1 2 3 4 5 6 
#
# 1 0.012304 -0.006002 -0.005127 0.000000 0.007116 0.000000
# 2 -0.006002 0.016976 -0.004397 0.000000 0.002134 0.000000
# 3 -0.005127 -0.004397 0.021819 0.000000 -0.000554 0.000000
# 4 0.000000 0.000000 0.000000 0.058081 0.000000 0.008063
# 5 0.007116 0.002134 -0.000554 0.000000 0.060040 0.000000
# 6 0.000000 0.000000 0.000000 0.008063 0.000000 0.029824
#
#
# Mechanical properties :
#
#
# Convention : Reuss Voigt Hill
#
# Bulk Modulus (GPa) = 49.88136 65.29962 57.59049
# Shear Modulus (GPa) = 21.11684 24.62830 22.87257
#
# Velocity S-wave (km/s) = 3.53597 3.81866 3.68003
# Velocity P-wave (km/s) = 6.79743 7.62274 7.22188
#
# Compressibility (1/GPa) = 0.02004757
#
# Stress axis : x y z
#
# Youngs Moduli (GPa) = 81.27509 58.90787 45.83062
#
# Poissons Ratio (x) = 0.35356 0.23496
# Poissons Ratio (y) = 0.48781 0.20152
# Poissons Ratio (z) = 0.41668 0.25902
#
# Static dielectric constant tensor:
#      x y z
#    x 3.468900 0.000000 -0.135950 
#    y 0.000000 3.340400 0.000000 
#    z -0.135950 0.000000 2.883110 
# 
# 
# High freq. dielectric constant tensor:
#      x y z
#    x 1.661300 0.000000 -0.017430 
#    y 0.000000 1.665050 0.000000 
#    z -0.017430 0.000000 1.603950 
# 
# From -- ./inp_files/48732.got.cif
#   From: 2010.06.25/outbox.cif.g09.slc.cpg/sg11_25_cif.got.tgz:48732.got - 2010.06.27 23:14:04.
