data_PCOD8070648
_publ_section_title
;
Structure prediction by ZEFSAII (Michael W. Deem and Ramdas Pophale) SiO2 
 PCOD8070648
Probable space group: P 21/M
;
_chemical_formula_sum "Si O2"
_cell_formula_units_Z 32
_cell_length_a 12.963050
_cell_length_b 9.222480
_cell_length_c 13.943338
_cell_angle_alpha 90.000000
_cell_angle_beta 96.299638
_cell_angle_gamma 90.000000
_cell_volume 1656.880937
_symmetry_space_group_name_H-M "P 21/M"
_symmetry_group_IT_number 11
_symmetry_cell_setting 'monoclinic'
loop_
_space_group_symop_operation_xyz
x,y,z
-x,1/2+y,-z
-x,-y,-z
x,1/2-y,z
loop_
_atom_site_type_symbol
_atom_site_label
_atom_site_fract_x
_atom_site_fract_y
_atom_site_fract_z
Si Si1 0.189832 0.921341 0.361609
Si Si2 0.651735 0.413493 0.235549
Si Si3 0.722395 0.084885 0.824363
Si Si4 0.104533 0.587569 0.013427
Si Si5 0.184907 0.085797 0.856553
Si Si6 0.220049 0.916319 0.574812
Si Si7 0.956282 0.916612 0.331508
Si Si8 0.457769 0.418780 0.090830
O O1 0.182785 0.750000 0.345651
O O2 0.262440 0.979878 0.281865
O O3 0.242839 0.967015 0.467926
O O4 0.072020 0.983449 0.348356
O O5 0.689011 0.250000 0.210956
O O6 0.714499 0.540092 0.191326
O O7 0.674177 0.437013 0.351799
O O8 0.533592 0.434815 0.190765
O O9 0.678625 0.250000 0.819907
O O10 0.838970 0.082929 0.878619
O O11 0.649168 0.986636 0.883065
O O12 0.076745 0.750000 0.980293
O O13 0.183747 0.520104 0.946001
O O14 0.000000 0.500000 0.000000
O O15 0.198327 0.250000 0.893486
O O16 0.081722 0.068407 0.782095
O O17 0.184896 0.750000 0.569703
O O18 0.121274 0.999965 0.606245
O O19 0.954718 0.750000 0.364610
O O20 0.441608 0.250000 0.062451
O O21 0.500000 0.500000 0.000000
#
# Coordination Sequence:
#
# PCOD8070648 Si02
#       8
#     4   4   4   4   4   4   4   4
#     4   9  17  32  53  74 102 141 178 211 254 309
#     4   9  19  35  53  76 105 132 165 214 266 310
#     4  10  22  39  56  77 106 139 176 217 261 310
#     4  11  22  35  52  74 104 140 173 208 253 305
#     4  10  19  31  50  76 105 136 172 214 258 307
#     4   9  17  31  53  78 103 137 178 214 253 305
#     4   9  17  30  49  76 109 141 173 212 256 301
#     4  11  23  39  59  81 105 134 170 216 267 317
#
# _framework density 19.313399
#
# number of rings (size 3 to 8) (size 9 to 14) (size 15 to 20)
#    0.000    2.250    0.000    3.000    0.000    7.500 
#    0.000    1.875    0.000    0.000    0.000    0.000 
#    0.000    0.000    0.000    0.000    0.000    0.000 
#
# Total GULP energy -396616.900106 kJ/mol
# GULP energy per Si atom -12394.278128 kJ/mol
# Density = 1.926944 g / cm^3
# Si number density = 19.313399 Si / 1000 Ang^3
#
#
#
# Elastic Constant Matrix: (Units=GPa)
#
#
# Indices 1 2 3 4 5 6 
#
# 1 82.1093 34.2930 42.6906 0.0000 1.9381 0.0000
# 2 34.2930 94.5320 44.4509 0.0000 -4.4799 0.0000
# 3 42.6906 44.4509 122.5278 0.0000 -6.6541 0.0000
# 4 0.0000 0.0000 0.0000 22.8240 0.0000 -2.6457
# 5 1.9381 -4.4799 -6.6541 0.0000 28.8310 0.0000
# 6 0.0000 0.0000 0.0000 -2.6457 0.0000 26.4630
#
#
#
# Elastic Compliance Matrix: (Units=1/GPa)
#
#
# Indices 1 2 3 4 5 6 
#
# 1 0.016147 -0.003944 -0.004342 0.000000 -0.002700 0.000000
# 2 -0.003944 0.013742 -0.003525 0.000000 0.001587 0.000000
# 3 -0.004342 -0.003525 0.011078 0.000000 0.002301 0.000000
# 4 0.000000 0.000000 0.000000 0.044327 0.000000 0.004432
# 5 -0.002700 0.001587 0.002301 0.000000 0.035644 0.000000
# 6 0.000000 0.000000 0.000000 0.004432 0.000000 0.038232
#
#
# Mechanical properties :
#
#
# Convention : Reuss Voigt Hill
#
# Bulk Modulus (GPa) = 57.65191 60.22643 58.93917
# Shear Modulus (GPa) = 26.51487 27.47258 26.99373
#
# Velocity S-wave (km/s) = 3.70925 3.77565 3.74260
# Velocity P-wave (km/s) = 6.94696 7.08934 7.01851
#
# Compressibility (1/GPa) = 0.01734548
#
# Stress axis : x y z
#
# Youngs Moduli (GPa) = 61.93008 72.77004 90.26976
#
# Poissons Ratio (x) = 0.28701 0.39193
# Poissons Ratio (y) = 0.24426 0.31820
# Poissons Ratio (z) = 0.26889 0.25651
#
# Static dielectric constant tensor:
#      x y z
#    x 3.345920 0.000000 0.149910 
#    y 0.000000 3.355290 0.000000 
#    z 0.149910 0.000000 4.178180 
# 
# 
# High freq. dielectric constant tensor:
#      x y z
#    x 1.731540 0.000000 0.013600 
#    y 0.000000 1.741430 0.000000 
#    z 0.013600 0.000000 1.760280 
# 
# From -- ./inp_files/49303.got.cif
#   From: 2010.06.25/outbox.cif.g09.slc.cpg/sg11_25_cif.got.tgz:49303.got - 2010.06.27 23:14:04.
