data_PCOD8070404
_publ_section_title
;
Structure prediction by ZEFSAII (Michael W. Deem and Ramdas Pophale) SiO2 
 PCOD8070404
Probable space group: P 21/M
;
_chemical_formula_sum "Si O2"
_cell_formula_units_Z 28
_cell_length_a 32.323237
_cell_length_b 9.534837
_cell_length_c 9.724149
_cell_angle_alpha 90.000000
_cell_angle_beta 31.505223
_cell_angle_gamma 90.000000
_cell_volume 1566.135825
_symmetry_space_group_name_H-M "P 21/M"
_symmetry_group_IT_number 11
_symmetry_cell_setting 'monoclinic'
loop_
_space_group_symop_operation_xyz
x,y,z
-x,1/2+y,-z
-x,-y,-z
x,1/2-y,z
loop_
_atom_site_type_symbol
_atom_site_label
_atom_site_fract_x
_atom_site_fract_y
_atom_site_fract_z
Si Si1 0.577352 0.409523 0.797121
Si Si2 0.805503 0.910761 0.185640
Si Si3 0.274930 0.584171 0.808047
Si Si4 0.985773 0.594281 0.668846
Si Si5 0.937970 0.085123 0.265884
Si Si6 0.239148 0.913169 0.211851
Si Si7 0.301256 0.588759 0.321505
O O1 0.551336 0.250000 0.851015
O O2 0.640672 0.452077 0.500458
O O3 0.613592 0.433831 0.847558
O O4 0.500000 0.500000 0.000000
O O5 0.777059 0.750000 0.246325
O O6 0.792133 0.997629 0.082926
O O7 0.760097 0.982092 0.439321
O O8 0.896053 0.918188 0.974308
O O9 0.257224 0.750000 0.844322
O O10 0.273529 0.528677 0.969836
O O11 0.005213 0.750000 0.563863
O O12 0.000000 0.500000 0.500000
O O13 0.043525 0.551955 0.628170
O O14 0.947370 0.250000 0.204710
O O15 0.847955 0.028971 0.499186
O O16 0.000000 0.000000 0.000000
O O17 0.227206 0.750000 0.222102
O O18 0.302473 0.944339 0.154349
O O19 0.273518 0.750000 0.425727
#
# Coordination Sequence:
#
# PCOD8070404 Si02
#       7
#     4   4   4   4   4   4   4
#     4   9  18  32  52  76 101 127 158 195 238 290
#     4  10  19  31  47  70  99 130 164 206 249 291
#     4   9  18  34  55  76  97 129 168 204 242 291
#     4  10  21  33  46  68  97 128 167 210 252 292
#     4  10  20  33  49  71  98 131 167 207 251 292
#     4   9  17  32  54  74  95 126 169 211 243 282
#     4   9  18  33  53  75  95 125 165 199 236 290
#
# _framework density 17.878398000000001
#
# number of rings (size 3 to 8) (size 9 to 14) (size 15 to 20)
#    0.000    2.571    0.000    3.000    0.000    5.143 
#    0.000    2.143    0.000    0.000    0.000    0.000 
#    0.000    0.000    0.000    0.000    0.000    0.000 
#
# Total GULP energy -347065.360635 kJ/mol
# GULP energy per Si atom -12395.191451 kJ/mol
# Density = 1.783771 g / cm^3
# Si number density = 17.878398 Si / 1000 Ang^3
#
#
#
# Elastic Constant Matrix: (Units=GPa)
#
#
# Indices 1 2 3 4 5 6 
#
# 1 122.1595 38.0038 50.2641 0.0000 4.8769 0.0000
# 2 38.0038 60.1893 25.9023 0.0000 1.9159 0.0000
# 3 50.2641 25.9023 67.8309 0.0000 2.4292 0.0000
# 4 0.0000 0.0000 0.0000 29.4256 0.0000 -2.7321
# 5 4.8769 1.9159 2.4292 0.0000 27.8877 0.0000
# 6 0.0000 0.0000 0.0000 -2.7321 0.0000 24.3062
#
#
#
# Elastic Compliance Matrix: (Units=1/GPa)
#
#
# Indices 1 2 3 4 5 6 
#
# 1 0.012884 -0.004794 -0.007672 0.000000 -0.001256 0.000000
# 2 -0.004794 0.021679 -0.004718 0.000000 -0.000240 0.000000
# 3 -0.007672 -0.004718 0.022239 0.000000 -0.000271 0.000000
# 4 0.000000 0.000000 0.000000 0.034342 0.000000 0.003860
# 5 -0.001256 -0.000240 -0.000271 0.000000 0.036118 0.000000
# 6 0.000000 0.000000 0.000000 0.003860 0.000000 0.041576
#
#
# Mechanical properties :
#
#
# Convention : Reuss Voigt Hill
#
# Bulk Modulus (GPa) = 44.57230 53.16890 48.87060
# Shear Modulus (GPa) = 23.73240 25.39121 24.56180
#
# Velocity S-wave (km/s) = 3.64735 3.77267 3.71054
# Velocity P-wave (km/s) = 6.53624 6.98435 6.76401
#
# Compressibility (1/GPa) = 0.02243546
#
# Stress axis : x y z
#
# Youngs Moduli (GPa) = 77.61479 46.12799 44.96638
#
# Poissons Ratio (x) = 0.22112 0.34498
# Poissons Ratio (y) = 0.37205 0.21214
# Poissons Ratio (z) = 0.59546 0.21762
#
# Static dielectric constant tensor:
#      x y z
#    x 3.545760 0.000000 0.064950 
#    y 0.000000 3.267860 0.000000 
#    z 0.064950 0.000000 3.255150 
# 
# 
# High freq. dielectric constant tensor:
#      x y z
#    x 1.700190 0.000000 0.006480 
#    y 0.000000 1.678020 0.000000 
#    z 0.006480 0.000000 1.674780 
# 
# From -- ./inp_files/28288.got.cif
#   From: 2010.06.25/outbox.cif.g09.slc.cpg/sg11_15_cif.got.tgz:28288.got - 2010.06.27 23:14:04.
