data_PCOD8070078
_publ_section_title
;
Structure prediction by ZEFSAII (Michael W. Deem and Ramdas Pophale) SiO2 
 PCOD8070078
Probable space group: P 21/M
;
_chemical_formula_sum "Si O2"
_cell_formula_units_Z 32
_cell_length_a 27.871585
_cell_length_b 8.970154
_cell_length_c 22.493259
_cell_angle_alpha 90.000000
_cell_angle_beta 18.277457
_cell_angle_gamma 90.000000
_cell_volume 1763.665219
_symmetry_space_group_name_H-M "P 21/M"
_symmetry_group_IT_number 11
_symmetry_cell_setting 'monoclinic'
loop_
_space_group_symop_operation_xyz
x,y,z
-x,1/2+y,-z
-x,-y,-z
x,1/2-y,z
loop_
_atom_site_type_symbol
_atom_site_label
_atom_site_fract_x
_atom_site_fract_y
_atom_site_fract_z
Si Si1 0.638450 0.427805 0.372952
Si Si2 0.133443 0.578348 0.377036
Si Si3 0.688481 0.074182 0.940576
Si Si4 0.953504 0.073807 0.945800
Si Si5 0.281045 0.073691 0.602454
Si Si6 0.948132 0.573401 0.297609
Si Si7 0.375675 0.074106 0.361400
Si Si8 0.036218 0.074976 0.313614
O O1 0.500000 0.500000 0.500000
O O2 0.625079 0.250000 0.385618
O O3 0.633793 0.483185 0.446154
O O4 0.798158 0.488212 0.157426
O O5 0.095288 0.750000 0.415880
O O6 0.290550 0.542522 0.155832
O O7 0.000000 0.500000 0.500000
O O8 0.118004 0.535764 0.465363
O O9 0.700752 0.250000 0.939922
O O10 0.815828 0.989492 0.828113
O O11 0.525199 0.008278 0.153045
O O12 0.956247 0.250000 0.944750
O O13 0.104300 0.018717 0.804156
O O14 0.959990 0.022752 0.869451
O O15 0.290198 0.250000 0.604642
O O16 0.371574 0.030963 0.435739
O O17 0.953917 0.750000 0.298929
O O18 0.774365 0.513527 0.495818
O O19 0.026564 0.498199 0.261075
O O20 0.373604 0.250000 0.358367
O O21 0.056731 0.250000 0.281155
#
# Coordination Sequence:
#
# PCOD8070078 Si02
#       8
#     4   4   4   4   4   4   4   4
#     4  11  22  35  50  73 101 128 156 192 233 277
#     4   8  15  27  44  64  91 123 157 192 230 275
#     4   9  16  30  51  71  89 121 163 198 231 278
#     4   8  17  34  55  72  91 123 163 196 228 274
#     4   9  17  34  56  75  94 121 155 196 239 280
#     4   9  17  33  53  71  91 123 162 196 228 276
#     4   8  16  31  53  75  94 118 157 200 235 273
#     4  10  19  30  44  69 100 127 154 194 240 279
#
# _framework density 18.144034000000001
#
# number of rings (size 3 to 8) (size 9 to 14) (size 15 to 20)
#    0.000    3.000    0.000    2.625    0.000    1.500 
#    0.000   11.250    0.000    0.000    0.000    0.000 
#    0.000    0.000    0.000    0.000    0.000    0.000 
#
# Total GULP energy -396454.328920 kJ/mol
# GULP energy per Si atom -12389.197779 kJ/mol
# Density = 1.810274 g / cm^3
# Si number density = 18.144034 Si / 1000 Ang^3
#
#
#
# Elastic Constant Matrix: (Units=GPa)
#
#
# Indices 1 2 3 4 5 6 
#
# 1 48.5946 11.5410 -3.4010 0.0000 -0.1775 0.0000
# 2 11.5410 34.6954 9.0250 0.0000 0.1782 0.0000
# 3 -3.4010 9.0250 84.3778 0.0000 5.4281 0.0000
# 4 0.0000 0.0000 0.0000 19.2975 0.0000 2.6117
# 5 -0.1775 0.1782 5.4281 0.0000 20.2249 0.0000
# 6 0.0000 0.0000 0.0000 2.6117 0.0000 20.9261
#
#
#
# Elastic Compliance Matrix: (Units=1/GPa)
#
#
# Indices 1 2 3 4 5 6 
#
# 1 0.022597 -0.007978 0.001778 0.000000 -0.000208 0.000000
# 2 -0.007978 0.032471 -0.003838 0.000000 0.000674 0.000000
# 3 0.001778 -0.003838 0.012547 0.000000 -0.003318 0.000000
# 4 0.000000 0.000000 0.000000 0.052710 0.000000 -0.006578
# 5 -0.000208 0.000674 -0.003318 0.000000 0.050327 0.000000
# 6 0.000000 0.000000 0.000000 -0.006578 0.000000 0.048608
#
#
# Mechanical properties :
#
#
# Convention : Reuss Voigt Hill
#
# Bulk Modulus (GPa) = 21.03576 22.44422 21.73999
# Shear Modulus (GPa) = 19.59380 22.12323 20.85851
#
# Velocity S-wave (km/s) = 3.28975 3.49565 3.39426
# Velocity P-wave (km/s) = 5.10381 5.35627 5.23157
#
# Compressibility (1/GPa) = 0.04753809
#
# Stress axis : x y z
#
# Youngs Moduli (GPa) = 44.25411 30.79679 79.69995
#
# Poissons Ratio (x) = 0.24569 -0.14167
# Poissons Ratio (y) = 0.35305 0.30589
# Poissons Ratio (z) = -0.07866 0.11820
#
# Static dielectric constant tensor:
#      x y z
#    x 3.341000 0.000000 0.324080 
#    y 0.000000 3.071700 0.000000 
#    z 0.324080 0.000000 3.983310 
# 
# 
# High freq. dielectric constant tensor:
#      x y z
#    x 1.696460 0.000000 0.020990 
#    y 0.000000 1.678090 0.000000 
#    z 0.020990 0.000000 1.707480 
# 
# From -- ./inp_files/67008.got.cif
#   From: 2010.06.25/outbox.cif.g09.slc.cpg/sg11_34_cif.got.tgz:67008.got - 2010.06.27 23:14:04.
