data_PCOD8070968
_publ_section_title
;
Structure prediction by ZEFSAII (Michael W. Deem and Ramdas Pophale) SiO2 
 PCOD8070968
Probable space group: P 21/M
;
_chemical_formula_sum "Si O2"
_cell_formula_units_Z 28
_cell_length_a 10.284292
_cell_length_b 18.027012
_cell_length_c 12.161247
_cell_angle_alpha 90.000000
_cell_angle_beta 133.223199
_cell_angle_gamma 90.000000
_cell_volume 1642.933168
_symmetry_space_group_name_H-M "P 21/M"
_symmetry_group_IT_number 11
_symmetry_cell_setting 'monoclinic'
loop_
_space_group_symop_operation_xyz
x,y,z
-x,1/2+y,-z
-x,-y,-z
x,1/2-y,z
loop_
_atom_site_type_symbol
_atom_site_label
_atom_site_fract_x
_atom_site_fract_y
_atom_site_fract_z
Si Si1 0.836306 0.336531 0.885443
Si Si2 0.947476 0.083500 0.736301
Si Si3 0.042079 0.900586 0.609746
Si Si4 0.744916 0.475187 0.435944
Si Si5 0.880325 0.069967 0.109085
Si Si6 0.182819 0.165769 0.695737
Si Si7 0.476253 0.913279 0.198546
O O1 0.862273 0.250000 0.919130
O O2 0.908469 0.357278 0.807734
O O3 0.626514 0.358878 0.775353
O O4 0.948141 0.380418 0.044964
O O5 0.097226 0.116053 0.741726
O O6 0.762225 0.070337 0.560668
O O7 0.015680 0.007490 0.830481
O O8 0.089822 0.881006 0.763128
O O9 0.912932 0.970622 0.537561
O O10 0.940625 0.834991 0.485739
O O11 0.225540 0.921589 0.652180
O O12 0.558986 0.518475 0.316408
O O13 0.667687 0.054405 0.971920
O O14 0.203841 0.250000 0.748032
O O15 0.375497 0.131961 0.781645
#
# Coordination Sequence:
#
# PCOD8070968 Si02
#       7
#     4   4   4   4   4   4   4
#     4  10  21  34  49  73 104 136 165 206 256 305
#     4  10  19  34  54  73 100 132 176 209 243 296
#     4   8  15  29  48  72 102 122 161 206 244 289
#     4   8  15  29  49  76  95 122 159 209 249 285
#     4   9  19  32  53  76 100 131 170 207 252 293
#     4  10  19  32  51  76 101 136 170 206 253 298
#     4   9  19  31  52  76 102 125 162 211 251 299
#
# _framework density 17.042688999999999
#
# number of rings (size 3 to 8) (size 9 to 14) (size 15 to 20)
#    0.857    2.000    0.000    3.857    0.000    3.429 
#    0.000    0.000    0.000    0.000    0.000    2.000 
#    0.000    0.000    0.000    0.000    0.000    0.000 
#
# Total GULP energy -346895.342971 kJ/mol
# GULP energy per Si atom -12389.119392 kJ/mol
# Density = 1.700390 g / cm^3
# Si number density = 17.042689 Si / 1000 Ang^3
#
#
#
# Elastic Constant Matrix: (Units=GPa)
#
#
# Indices 1 2 3 4 5 6 
#
# 1 69.6295 17.2245 30.2386 0.0000 -10.7939 0.0000
# 2 17.2245 37.6189 3.4711 0.0000 -8.8200 0.0000
# 3 30.2386 3.4711 83.0115 0.0000 -13.0145 0.0000
# 4 0.0000 0.0000 0.0000 17.7594 0.0000 -0.2701
# 5 -10.7939 -8.8200 -13.0145 0.0000 25.5576 0.0000
# 6 0.0000 0.0000 0.0000 -0.2701 0.0000 20.2975
#
#
#
# Elastic Compliance Matrix: (Units=1/GPa)
#
#
# Indices 1 2 3 4 5 6 
#
# 1 0.019409 -0.007767 -0.006391 0.000000 0.002263 0.000000
# 2 -0.007767 0.032042 0.002944 0.000000 0.009277 0.000000
# 3 -0.006391 0.002944 0.015201 0.000000 0.006058 0.000000
# 4 0.000000 0.000000 0.000000 0.056320 0.000000 0.000750
# 5 0.002263 0.009277 0.006058 0.000000 0.046369 0.000000
# 6 0.000000 0.000000 0.000000 0.000750 0.000000 0.049277
#
#
# Mechanical properties :
#
#
# Convention : Reuss Voigt Hill
#
# Bulk Modulus (GPa) = 22.61173 32.45872 27.53522
# Shear Modulus (GPa) = 19.54753 22.01126 20.77939
#
# Velocity S-wave (km/s) = 3.39038 3.59769 3.49557
# Velocity P-wave (km/s) = 5.35002 6.02866 5.69945
#
# Compressibility (1/GPa) = 0.04422484
#
# Stress axis : x y z
#
# Youngs Moduli (GPa) = 51.52227 31.20915 65.78486
#
# Poissons Ratio (x) = 0.24239 0.42041
# Poissons Ratio (y) = 0.40016 -0.19365
# Poissons Ratio (z) = 0.32926 -0.09187
#
# Static dielectric constant tensor:
#      x y z
#    x 2.965350 0.000000 -0.169460 
#    y 0.000000 3.035300 0.000000 
#    z -0.169460 0.000000 3.329360 
# 
# 
# High freq. dielectric constant tensor:
#      x y z
#    x 1.640360 0.000000 -0.013630 
#    y 0.000000 1.641460 0.000000 
#    z -0.013630 0.000000 1.654530 
# 
# From -- ./inp_files/35946.got.cif
#   From: 2010.06.25/outbox.cif.g09.slc.cpg/sg11_18_cif.got.tgz:35946.got - 2010.06.27 23:14:04.
