data_PCOD8070015
_publ_section_title
;
Structure prediction by ZEFSAII (Michael W. Deem and Ramdas Pophale) SiO2 
 PCOD8070015
Probable space group: P 21/M
;
_chemical_formula_sum "Si O2"
_cell_formula_units_Z 28
_cell_length_a 15.938957
_cell_length_b 9.084114
_cell_length_c 15.830963
_cell_angle_alpha 90.000000
_cell_angle_beta 129.168625
_cell_angle_gamma 90.000000
_cell_volume 1777.109768
_symmetry_space_group_name_H-M "P 21/M"
_symmetry_group_IT_number 11
_symmetry_cell_setting 'monoclinic'
loop_
_space_group_symop_operation_xyz
x,y,z
-x,1/2+y,-z
-x,-y,-z
x,1/2-y,z
loop_
_atom_site_type_symbol
_atom_site_label
_atom_site_fract_x
_atom_site_fract_y
_atom_site_fract_z
Si Si1 0.990918 0.417216 0.792352
Si Si2 0.963099 0.577357 0.603055
Si Si3 0.838559 0.422288 0.386039
Si Si4 0.603547 0.420588 0.959888
Si Si5 0.893905 0.080179 0.901773
Si Si6 0.613923 0.420111 0.161843
Si Si7 0.786702 0.577060 0.972583
O O1 0.996902 0.250000 0.762790
O O2 0.106423 0.462261 0.905630
O O3 0.962316 0.524505 0.698375
O O4 0.894153 0.433035 0.799943
O O5 0.945900 0.750000 0.591194
O O6 0.863587 0.505206 0.489163
O O7 0.076054 0.530159 0.631689
O O8 0.846197 0.250000 0.408449
O O9 0.720114 0.469014 0.280015
O O10 0.610799 0.250000 0.939228
O O11 0.482343 0.477414 0.866419
O O12 0.636974 0.446702 0.077904
O O13 0.682620 0.515007 0.952869
O O14 0.896945 0.250000 0.931661
O O15 0.793379 0.999780 0.884033
O O16 0.000000 0.000000 0.000000
O O17 0.583828 0.250000 0.158908
O O18 0.774022 0.750000 0.950996
#
# Coordination Sequence:
#
# PCOD8070015 Si02
#       7
#     4   4   4   4   4   4   4
#     4   9  18  30  44  64  91 121 149 180 220 264
#     4  10  19  29  45  68  90 116 151 186 221 263
#     4   9  18  32  46  62  89 121 151 185 222 260
#     4  10  19  30  46  68  92 118 150 187 225 265
#     4   9  17  29  44  64  90 119 150 183 222 266
#     4   9  18  32  47  64  89 121 154 186 222 264
#     4  10  19  30  45  66  92 122 153 184 221 266
#
# _framework density 15.75592
#
# number of rings (size 3 to 8) (size 9 to 14) (size 15 to 20)
#    0.000    2.571    0.000    3.429    0.000    6.286 
#    0.000    0.000    0.000    0.000    0.000    1.000 
#    0.000    0.000    0.000    0.000    0.000    0.000 
#
# Total GULP energy -347171.104888 kJ/mol
# GULP energy per Si atom -12398.968032 kJ/mol
# Density = 1.572006 g / cm^3
# Si number density = 15.755920 Si / 1000 Ang^3
#
#
#
# Elastic Constant Matrix: (Units=GPa)
#
#
# Indices 1 2 3 4 5 6 
#
# 1 94.6775 52.0557 45.1074 0.0000 -5.8196 0.0000
# 2 52.0557 86.9053 46.0551 0.0000 -3.3397 0.0000
# 3 45.1074 46.0551 85.6876 0.0000 2.3882 0.0000
# 4 0.0000 0.0000 0.0000 25.9297 0.0000 -2.5677
# 5 -5.8196 -3.3397 2.3882 0.0000 20.7650 0.0000
# 6 0.0000 0.0000 0.0000 -2.5677 0.0000 30.5100
#
#
#
# Elastic Compliance Matrix: (Units=1/GPa)
#
#
# Indices 1 2 3 4 5 6 
#
# 1 0.017466 -0.007496 -0.005285 0.000000 0.004297 0.000000
# 2 -0.007496 0.019579 -0.006628 0.000000 0.001810 0.000000
# 3 -0.005285 -0.006628 0.018144 0.000000 -0.004634 0.000000
# 4 0.000000 0.000000 0.000000 0.038890 0.000000 0.003273
# 5 0.004297 0.001810 -0.004634 0.000000 0.050186 0.000000
# 6 0.000000 0.000000 0.000000 0.003273 0.000000 0.033052
#
#
# Mechanical properties :
#
#
# Convention : Reuss Voigt Hill
#
# Bulk Modulus (GPa) = 61.08379 61.52298 61.30339
# Shear Modulus (GPa) = 22.56419 23.71109 23.13764
#
# Velocity S-wave (km/s) = 3.78843 3.88351 3.83626
# Velocity P-wave (km/s) = 7.61506 7.69683 7.65606
#
# Compressibility (1/GPa) = 0.01637095
#
# Stress axis : x y z
#
# Youngs Moduli (GPa) = 57.25505 51.07629 55.11523
#
# Poissons Ratio (x) = 0.38286 0.29129
# Poissons Ratio (y) = 0.42917 0.36528
# Poissons Ratio (z) = 0.30260 0.33851
#
# Static dielectric constant tensor:
#      x y z
#    x 3.002070 0.000000 -0.097860 
#    y 0.000000 3.129620 0.000000 
#    z -0.097860 0.000000 2.849690 
# 
# 
# High freq. dielectric constant tensor:
#      x y z
#    x 1.596480 0.000000 -0.011290 
#    y 0.000000 1.619100 0.000000 
#    z -0.011290 0.000000 1.576970 
# 
# From -- ./inp_files/37406.got.cif
#   From: 2010.06.25/outbox.cif.g09.slc.cpg/sg11_19_cif.got.tgz:37406.got - 2010.06.27 23:14:04.
