data_PCOD8070358
_publ_section_title
;
Structure prediction by ZEFSAII (Michael W. Deem and Ramdas Pophale) SiO2 
 PCOD8070358
Probable space group: P 21/M
;
_chemical_formula_sum "Si O2"
_cell_formula_units_Z 32
_cell_length_a 12.140974
_cell_length_b 9.308182
_cell_length_c 22.599311
_cell_angle_alpha 90.000000
_cell_angle_beta 136.577480
_cell_angle_gamma 90.000000
_cell_volume 1755.521232
_symmetry_space_group_name_H-M "P 21/M"
_symmetry_group_IT_number 11
_symmetry_cell_setting 'monoclinic'
loop_
_space_group_symop_operation_xyz
x,y,z
-x,1/2+y,-z
-x,-y,-z
x,1/2-y,z
loop_
_atom_site_type_symbol
_atom_site_label
_atom_site_fract_x
_atom_site_fract_y
_atom_site_fract_z
Si Si1 0.957049 0.918953 0.272090
Si Si2 0.230577 0.586372 0.585991
Si Si3 0.115883 0.420805 0.091864
Si Si4 0.975118 0.419095 0.162559
Si Si5 0.477263 0.414050 0.227028
Si Si6 0.032512 0.417922 0.419923
Si Si7 0.383962 0.407117 0.817661
Si Si8 0.619101 0.092029 0.009490
O O1 0.998778 0.750000 0.288086
O O2 0.764858 0.947985 0.197605
O O3 0.031841 0.992021 0.242371
O O4 0.031284 0.993972 0.358561
O O5 0.193132 0.750000 0.551467
O O6 0.422001 0.567703 0.672691
O O7 0.184025 0.476224 0.516284
O O8 0.129027 0.552357 0.605952
O O9 0.099705 0.250000 0.075002
O O10 0.298493 0.479908 0.157332
O O11 0.076050 0.460137 0.144079
O O12 0.000000 0.500000 0.000000
O O13 0.987582 0.250000 0.181357
O O14 0.796293 0.471456 0.076897
O O15 0.457312 0.250000 0.201951
O O16 0.597022 0.480022 0.226275
O O17 0.056810 0.250000 0.415700
O O18 0.348818 0.250000 0.776213
O O19 0.552296 0.403462 0.917250
O O20 0.623027 0.250000 0.039701
O O21 0.500000 0.000000 0.000000
#
# Coordination Sequence:
#
# PCOD8070358 Si02
#       8
#     4   4   4   4   4   4   4   4
#     4  11  21  33  52  78 110 143 177 218 268 324
#     4   9  18  32  51  78 111 143 178 219 266 322
#     4  10  22  40  60  81 108 145 187 230 272 315
#     4  10  21  36  54  75 105 143 182 223 272 323
#     4  10  20  35  56  80 106 141 183 224 267 318
#     4  10  19  32  52  79 113 146 176 213 270 331
#     4  10  20  32  48  75 108 139 174 218 268 319
#     4  10  19  31  46  68  99 134 170 212 259 310
#
# _framework density 18.228204000000002
#
# number of rings (size 3 to 8) (size 9 to 14) (size 15 to 20)
#    0.000    2.000    2.500    1.500    0.000    4.000 
#    0.000    0.000    0.000    0.750    0.000    0.000 
#    0.000    0.000    0.000    0.000    0.000    0.000 
#
# Total GULP energy -396619.541116 kJ/mol
# GULP energy per Si atom -12394.360660 kJ/mol
# Density = 1.818672 g / cm^3
# Si number density = 18.228204 Si / 1000 Ang^3
#
#
#
# Elastic Constant Matrix: (Units=GPa)
#
#
# Indices 1 2 3 4 5 6 
#
# 1 75.4394 39.4498 40.0552 0.0000 -9.9319 0.0000
# 2 39.4498 76.1770 51.7131 0.0000 -10.7817 0.0000
# 3 40.0552 51.7131 103.9215 0.0000 -6.7164 0.0000
# 4 0.0000 0.0000 0.0000 33.2845 0.0000 -5.5404
# 5 -9.9319 -10.7817 -6.7164 0.0000 31.4433 0.0000
# 6 0.0000 0.0000 0.0000 -5.5404 0.0000 22.1371
#
#
#
# Elastic Compliance Matrix: (Units=1/GPa)
#
#
# Indices 1 2 3 4 5 6 
#
# 1 0.019312 -0.007047 -0.003750 0.000000 0.002882 0.000000
# 2 -0.007047 0.023123 -0.008539 0.000000 0.003879 0.000000
# 3 -0.003750 -0.008539 0.015262 0.000000 -0.000853 0.000000
# 4 0.000000 0.000000 0.000000 0.031350 0.000000 0.007846
# 5 0.002882 0.003879 -0.000853 0.000000 0.033862 0.000000
# 6 0.000000 0.000000 0.000000 0.007846 0.000000 0.047137
#
#
# Mechanical properties :
#
#
# Convention : Reuss Voigt Hill
#
# Bulk Modulus (GPa) = 52.56749 57.55268 55.06008
# Shear Modulus (GPa) = 23.24937 25.66099 24.45518
#
# Velocity S-wave (km/s) = 3.57523 3.75609 3.66678
# Velocity P-wave (km/s) = 6.77822 7.10302 6.94252
#
# Compressibility (1/GPa) = 0.01902317
#
# Stress axis : x y z
#
# Youngs Moduli (GPa) = 51.78251 43.24756 65.52019
#
# Poissons Ratio (x) = 0.30476 0.24573
# Poissons Ratio (y) = 0.36491 0.55951
# Poissons Ratio (z) = 0.19421 0.36931
#
# Static dielectric constant tensor:
#      x y z
#    x 3.238500 0.000000 0.122020 
#    y 0.000000 3.376670 0.000000 
#    z 0.122020 0.000000 3.504830 
# 
# 
# High freq. dielectric constant tensor:
#      x y z
#    x 1.674980 0.000000 -0.001030 
#    y 0.000000 1.707560 0.000000 
#    z -0.001030 0.000000 1.709150 
# 
# From -- ./inp_files/64442.got.cif
#   From: 2010.06.25/outbox.cif.g09.slc.cpg/sg11_33_cif.got.tgz:64442.got - 2010.06.27 23:14:04.
