data_PCOD8070220
_publ_section_title
;
Structure prediction by ZEFSAII (Michael W. Deem and Ramdas Pophale) SiO2 
 PCOD8070220
Probable space group: P 21/M
;
_chemical_formula_sum "Si O2"
_cell_formula_units_Z 32
_cell_length_a 14.981660
_cell_length_b 9.118237
_cell_length_c 30.570561
_cell_angle_alpha 90.000000
_cell_angle_beta 28.635670
_cell_angle_gamma 90.000000
_cell_volume 2001.362675
_symmetry_space_group_name_H-M "P 21/M"
_symmetry_group_IT_number 11
_symmetry_cell_setting 'monoclinic'
loop_
_space_group_symop_operation_xyz
x,y,z
-x,1/2+y,-z
-x,-y,-z
x,1/2-y,z
loop_
_atom_site_type_symbol
_atom_site_label
_atom_site_fract_x
_atom_site_fract_y
_atom_site_fract_z
Si Si1 0.031366 0.080205 0.584778
Si Si2 0.936952 0.919568 0.094868
Si Si3 0.317065 0.419795 0.299079
Si Si4 0.351136 0.424129 0.382955
Si Si5 0.712471 0.917385 0.447722
Si Si6 0.341492 0.419568 0.626688
Si Si7 0.268107 0.917384 0.892085
Si Si8 0.745190 0.423899 0.251603
O O1 0.998297 0.250000 0.589340
O O2 0.183223 0.016369 0.485239
O O3 0.102688 0.052860 0.603484
O O4 0.836055 0.000000 0.663945
O O5 0.895144 0.750000 0.122214
O O6 0.795239 0.974370 0.118788
O O7 0.909853 0.011975 0.150682
O O8 0.148949 0.944132 0.987272
O O9 0.264613 0.250000 0.323024
O O10 0.322165 0.483631 0.346298
O O11 0.515829 0.447138 0.190343
O O12 0.357164 0.250000 0.380945
O O13 0.547620 0.480500 0.317460
O O14 0.642322 0.750000 0.485558
O O15 0.759714 0.944132 0.376507
O O16 0.553158 0.025630 0.532815
O O17 0.343069 0.250000 0.639573
O O18 0.228249 0.511975 0.711216
O O19 0.241318 0.750000 0.886561
O O20 0.761307 0.250000 0.246231
#
# Coordination Sequence:
#
# PCOD8070220 Si02
#       8
#     4   4   4   4   4   4   4   4
#     4  10  19  32  47  66  92 129 165 194 230 273
#     4  10  19  30  48  73  95 119 159 202 234 280
#     4  10  19  32  47  66  92 129 165 194 230 273
#     4   9  17  30  46  62  91 130 162 184 221 275
#     4   9  18  33  49  66  95 129 156 192 245 286
#     4  10  19  30  48  73  95 119 159 202 234 280
#     4   9  18  33  49  66  95 129 156 192 245 286
#     4  11  19  32  50  68  96 133 158 187 242 293
#
# _framework density 15.989105
#
# number of rings (size 3 to 8) (size 9 to 14) (size 15 to 20)
#    0.000    2.250    2.500    1.500    0.000    2.000 
#    0.000    0.000    0.000    0.000    0.000    0.875 
#    0.000    0.000    0.000    0.000    0.000    0.000 
#
# Total GULP energy -396813.196490 kJ/mol
# GULP energy per Si atom -12400.412390 kJ/mol
# Density = 1.595271 g / cm^3
# Si number density = 15.989105 Si / 1000 Ang^3
#
#
#
# Elastic Constant Matrix: (Units=GPa)
#
#
# Indices 1 2 3 4 5 6 
#
# 1 99.2604 43.2521 57.0503 0.0000 6.6225 0.0000
# 2 43.2521 74.1085 48.5169 0.0000 9.5060 0.0000
# 3 57.0503 48.5169 106.9911 0.0000 7.3385 0.0000
# 4 0.0000 0.0000 0.0000 25.6064 0.0000 1.3971
# 5 6.6225 9.5060 7.3385 0.0000 24.2308 0.0000
# 6 0.0000 0.0000 0.0000 1.3971 0.0000 24.8327
#
#
#
# Elastic Compliance Matrix: (Units=1/GPa)
#
#
# Indices 1 2 3 4 5 6 
#
# 1 0.015867 -0.005240 -0.006054 0.000000 -0.000448 0.000000
# 2 -0.005240 0.021533 -0.006627 0.000000 -0.005008 0.000000
# 3 -0.006054 -0.006627 0.015612 0.000000 -0.000474 0.000000
# 4 0.000000 0.000000 0.000000 0.039173 0.000000 -0.002204
# 5 -0.000448 -0.005008 -0.000474 0.000000 0.043500 0.000000
# 6 0.000000 0.000000 0.000000 -0.002204 0.000000 0.040393
#
#
# Mechanical properties :
#
#
# Convention : Reuss Voigt Hill
#
# Bulk Modulus (GPa) = 58.23823 64.22208 61.23016
# Shear Modulus (GPa) = 22.97332 23.70337 23.33834
#
# Velocity S-wave (km/s) = 3.79464 3.85446 3.82467
# Velocity P-wave (km/s) = 7.46337 7.75000 7.60803
#
# Compressibility (1/GPa) = 0.01717085
#
# Stress axis : x y z
#
# Youngs Moduli (GPa) = 63.02342 46.44108 64.05216
#
# Poissons Ratio (x) = 0.24334 0.38777
# Poissons Ratio (y) = 0.33023 0.42446
# Poissons Ratio (z) = 0.38154 0.30776
#
# Static dielectric constant tensor:
#      x y z
#    x 2.976760 0.000000 0.158710 
#    y 0.000000 2.987980 0.000000 
#    z 0.158710 0.000000 3.064640 
# 
# 
# High freq. dielectric constant tensor:
#      x y z
#    x 1.594340 0.000000 0.013880 
#    y 0.000000 1.612740 0.000000 
#    z 0.013880 0.000000 1.602030 
# 
# From -- ./inp_files/51257.got.cif
#   From: 2010.06.25/outbox.cif.g09.slc.cpg/sg11_26_cif.got.tgz:51257.got - 2010.06.27 23:14:04.
