data_PCOD8070782
_publ_section_title
;
Structure prediction by ZEFSAII (Michael W. Deem and Ramdas Pophale) SiO2 
 PCOD8070782
Probable space group: P 21/M
;
_chemical_formula_sum "Si O2"
_cell_formula_units_Z 28
_cell_length_a 22.650527
_cell_length_b 9.071018
_cell_length_c 11.756345
_cell_angle_alpha 90.000000
_cell_angle_beta 134.612977
_cell_angle_gamma 90.000000
_cell_volume 1719.513226
_symmetry_space_group_name_H-M "P 21/M"
_symmetry_group_IT_number 11
_symmetry_cell_setting 'monoclinic'
loop_
_space_group_symop_operation_xyz
x,y,z
-x,1/2+y,-z
-x,-y,-z
x,1/2-y,z
loop_
_atom_site_type_symbol
_atom_site_label
_atom_site_fract_x
_atom_site_fract_y
_atom_site_fract_z
Si Si1 0.777478 0.425780 0.332776
Si Si2 0.599325 0.412471 0.028871
Si Si3 0.876857 0.418177 0.857883
Si Si4 0.726791 0.425042 0.511357
Si Si5 0.994650 0.918641 0.171606
Si Si6 0.551402 0.413212 0.227168
Si Si7 0.945922 0.926212 0.523717
O O1 0.794113 0.250000 0.349155
O O2 0.694024 0.470727 0.150640
O O3 0.768289 0.480788 0.450521
O O4 0.852591 0.515570 0.379310
O O5 0.596674 0.250000 0.973569
O O6 0.570837 0.410971 0.120295
O O7 0.534757 0.503784 0.864691
O O8 0.876524 0.250000 0.901682
O O9 0.784288 0.470182 0.695983
O O10 0.933444 0.431447 0.823406
O O11 0.908412 0.524077 0.000683
O O12 0.719550 0.250000 0.490027
O O13 0.632396 0.486990 0.398284
O O14 0.983336 0.750000 0.197059
O O15 0.018048 0.022670 0.307099
O O16 0.537340 0.250000 0.255760
O O17 0.948650 0.750000 0.518755
O O18 0.000000 0.000000 0.500000
#
# Coordination Sequence:
#
# PCOD8070782 Si02
#       7
#     4   4   4   4   4   4   4
#     4   9  16  30  46  61  84 117 152 186 226 268
#     4   8  14  23  37  55  81 114 145 178 219 261
#     4   9  16  28  47  67  91 121 153 186 223 270
#     4   8  13  24  42  62  87 121 152 181 219 263
#     4  10  19  32  48  66  90 118 150 189 230 269
#     4   8  13  21  35  55  82 115 149 178 210 255
#     4  12  24  36  50  67  88 116 153 193 233 273
#
# _framework density 16.283677999999998
#
# number of rings (size 3 to 8) (size 9 to 14) (size 15 to 20)
#    0.000    2.857    1.429    3.429    0.000    1.143 
#    0.000    2.857    0.000    0.000    0.000    0.000 
#    0.000    1.143    0.000    3.429    0.000    5.286 
#
# Total GULP energy -346950.534617 kJ/mol
# GULP energy per Si atom -12391.090522 kJ/mol
# Density = 1.624662 g / cm^3
# Si number density = 16.283678 Si / 1000 Ang^3
#
#
#
# Elastic Constant Matrix: (Units=GPa)
#
#
# Indices 1 2 3 4 5 6 
#
# 1 53.9657 35.6334 43.0108 0.0000 22.1612 0.0000
# 2 35.6334 84.0335 48.4411 0.0000 17.6679 0.0000
# 3 43.0108 48.4411 116.3478 0.0000 42.8397 0.0000
# 4 0.0000 0.0000 0.0000 27.4372 0.0000 5.2259
# 5 22.1612 17.6679 42.8397 0.0000 25.3756 0.0000
# 6 0.0000 0.0000 0.0000 5.2259 0.0000 19.2479
#
#
#
# Elastic Compliance Matrix: (Units=1/GPa)
#
#
# Indices 1 2 3 4 5 6 
#
# 1 0.034580 -0.009658 -0.000313 0.000000 -0.022946 0.000000
# 2 -0.009658 0.018356 -0.006533 0.000000 0.006683 0.000000
# 3 -0.000313 -0.006533 0.025517 0.000000 -0.038255 0.000000
# 4 0.000000 0.000000 0.000000 0.038434 0.000000 -0.010435
# 5 -0.022946 0.006683 -0.038255 0.000000 0.119378 0.000000
# 6 0.000000 0.000000 0.000000 -0.010435 0.000000 0.054787
#
#
# Mechanical properties :
#
#
# Convention : Reuss Voigt Hill
#
# Bulk Modulus (GPa) = 22.00517 56.50195 39.25356
# Shear Modulus (GPa) = 14.74015 22.89626 18.81821
#
# Velocity S-wave (km/s) = 3.01194 3.75385 3.40317
# Velocity P-wave (km/s) = 5.06346 7.31863 6.29289
#
# Compressibility (1/GPa) = 0.04544387
#
# Stress axis : x y z
#
# Youngs Moduli (GPa) = 28.91821 54.47731 39.19027
#
# Poissons Ratio (x) = 0.52616 0.01228
# Poissons Ratio (y) = 0.27930 0.25603
# Poissons Ratio (z) = 0.00906 0.35590
#
# Static dielectric constant tensor:
#      x y z
#    x 2.741650 0.000000 0.394310 
#    y 0.000000 3.079720 0.000000 
#    z 0.394310 0.000000 3.400120 
# 
# 
# High freq. dielectric constant tensor:
#      x y z
#    x 1.570670 0.000000 0.037590 
#    y 0.000000 1.614170 0.000000 
#    z 0.037590 0.000000 1.632270 
# 
# From -- ./inp_files/42597.got.cif
#   From: 2010.06.25/outbox.cif.g09.slc.cpg/sg11_22_cif.got.tgz:42597.got - 2010.06.27 23:14:04.
