data_PCOD8070697
_publ_section_title
;
Structure prediction by ZEFSAII (Michael W. Deem and Ramdas Pophale) SiO2 
 PCOD8070697
Probable space group: P 21/M
;
_chemical_formula_sum "Si O2"
_cell_formula_units_Z 28
_cell_length_a 14.881318
_cell_length_b 9.235472
_cell_length_c 16.522295
_cell_angle_alpha 90.000000
_cell_angle_beta 133.928020
_cell_angle_gamma 90.000000
_cell_volume 1635.427033
_symmetry_space_group_name_H-M "P 21/M"
_symmetry_group_IT_number 11
_symmetry_cell_setting 'monoclinic'
loop_
_space_group_symop_operation_xyz
x,y,z
-x,1/2+y,-z
-x,-y,-z
x,1/2-y,z
loop_
_atom_site_type_symbol
_atom_site_label
_atom_site_fract_x
_atom_site_fract_y
_atom_site_fract_z
Si Si1 0.390583 0.583203 0.095257
Si Si2 0.926553 0.918309 0.838095
Si Si3 0.105337 0.918807 0.515473
Si Si4 0.268052 0.420069 0.875910
Si Si5 0.817916 0.417590 0.912308
Si Si6 0.324627 0.417227 0.729379
Si Si7 0.015443 0.582641 0.280383
O O1 0.362641 0.750000 0.057670
O O2 0.305690 0.532201 0.117378
O O3 0.533415 0.558658 0.209650
O O4 0.360831 0.494906 0.996243
O O5 0.896562 0.750000 0.812165
O O6 0.826148 0.988407 0.836108
O O7 0.911905 0.989994 0.741186
O O8 0.065349 0.949974 0.956704
O O9 0.099753 0.750000 0.534450
O O10 0.084049 0.943885 0.407581
O O11 0.240386 0.983216 0.619838
O O12 0.000000 0.000000 0.500000
O O13 0.281511 0.250000 0.896089
O O14 0.308808 0.467300 0.811937
O O15 0.126771 0.472030 0.801993
O O16 0.813290 0.250000 0.884342
O O17 0.283267 0.250000 0.694131
O O18 0.019277 0.750000 0.257173
#
# Coordination Sequence:
#
# PCOD8070697 Si02
#       7
#     4   4   4   4   4   4   4
#     4  10  20  34  53  77 108 142 176 214 257 312
#     4  10  19  31  51  78 103 133 172 214 258 311
#     4  11  22  37  56  77 104 139 180 220 261 305
#     4  10  19  32  50  75 109 142 172 209 258 311
#     4   9  18  32  49  74 106 137 168 207 261 314
#     4  10  21  37  53  75 108 143 179 217 258 306
#     4  10  20  34  52  75 106 139 168 212 265 306
#
# _framework density 17.120909999999999
#
# number of rings (size 3 to 8) (size 9 to 14) (size 15 to 20)
#    0.000    2.000    2.857    1.286    0.000    3.429 
#    0.000    0.000    0.000    0.857    0.000    0.000 
#    0.000    0.000    0.000    0.000    0.000    0.000 
#
# Total GULP energy -347318.487663 kJ/mol
# GULP energy per Si atom -12404.231702 kJ/mol
# Density = 1.708194 g / cm^3
# Si number density = 17.120910 Si / 1000 Ang^3
#
#
#
# Elastic Constant Matrix: (Units=GPa)
#
#
# Indices 1 2 3 4 5 6 
#
# 1 108.2571 46.1899 47.7736 0.0000 -12.5279 0.0000
# 2 46.1899 77.4886 51.9958 0.0000 -11.0772 0.0000
# 3 47.7736 51.9958 82.7018 0.0000 -2.1026 0.0000
# 4 0.0000 0.0000 0.0000 32.3349 0.0000 -2.7858
# 5 -12.5279 -11.0772 -2.1026 0.0000 25.1092 0.0000
# 6 0.0000 0.0000 0.0000 -2.7858 0.0000 23.4092
#
#
#
# Elastic Compliance Matrix: (Units=1/GPa)
#
#
# Indices 1 2 3 4 5 6 
#
# 1 0.013853 -0.003970 -0.005387 0.000000 0.004710 0.000000
# 2 -0.003970 0.025528 -0.013549 0.000000 0.008147 0.000000
# 3 -0.005387 -0.013549 0.023552 0.000000 -0.006693 0.000000
# 4 0.000000 0.000000 0.000000 0.031247 0.000000 0.003719
# 5 0.004710 0.008147 -0.006693 0.000000 0.045209 0.000000
# 6 0.000000 0.000000 0.000000 0.003719 0.000000 0.043161
#
#
# Mechanical properties :
#
#
# Convention : Reuss Voigt Hill
#
# Bulk Modulus (GPa) = 58.40819 62.26290 60.33554
# Shear Modulus (GPa) = 21.36120 24.33653 22.84887
#
# Velocity S-wave (km/s) = 3.53607 3.77430 3.65712
# Velocity P-wave (km/s) = 7.13168 7.44576 7.29041
#
# Compressibility (1/GPa) = 0.01712089
#
# Stress axis : x y z
#
# Youngs Moduli (GPa) = 72.18502 39.17282 42.45931
#
# Poissons Ratio (x) = 0.15551 0.22872
# Poissons Ratio (y) = 0.28657 0.57530
# Poissons Ratio (z) = 0.38885 0.53077
#
# Static dielectric constant tensor:
#      x y z
#    x 3.250450 0.000000 -0.019880 
#    y 0.000000 3.208380 0.000000 
#    z -0.019880 0.000000 3.039070 
# 
# 
# High freq. dielectric constant tensor:
#      x y z
#    x 1.661580 0.000000 -0.007850 
#    y 0.000000 1.663540 0.000000 
#    z -0.007850 0.000000 1.641550 
# 
# From -- ./inp_files/37409.got.cif
#   From: 2010.06.25/outbox.cif.g09.slc.cpg/sg11_19_cif.got.tgz:37409.got - 2010.06.27 23:14:04.
