data_PCOD8070320
_publ_section_title
;
Structure prediction by ZEFSAII (Michael W. Deem and Ramdas Pophale) SiO2 
 PCOD8070320
Probable space group: P 21/M
;
_chemical_formula_sum "Si O2"
_cell_formula_units_Z 32
_cell_length_a 12.649094
_cell_length_b 9.181363
_cell_length_c 31.564822
_cell_angle_alpha 90.000000
_cell_angle_beta 153.555279
_cell_angle_gamma 90.000000
_cell_volume 1632.510354
_symmetry_space_group_name_H-M "P 21/M"
_symmetry_group_IT_number 11
_symmetry_cell_setting 'monoclinic'
loop_
_space_group_symop_operation_xyz
x,y,z
-x,1/2+y,-z
-x,-y,-z
x,1/2-y,z
loop_
_atom_site_type_symbol
_atom_site_label
_atom_site_fract_x
_atom_site_fract_y
_atom_site_fract_z
Si Si1 0.718189 0.083564 0.373938
Si Si2 0.033676 0.585971 0.771850
Si Si3 0.209100 0.077394 0.513772
Si Si4 0.853981 0.091644 0.979820
Si Si5 0.141792 0.081193 0.892066
Si Si6 0.797768 0.592782 0.818086
Si Si7 0.521507 0.574055 0.553823
Si Si8 0.478920 0.085586 0.088224
O O1 0.757993 0.250000 0.403663
O O2 0.467771 0.060412 0.260160
O O3 0.925304 0.043654 0.414615
O O4 0.696394 0.980734 0.407338
O O5 0.000913 0.750000 0.776382
O O6 0.781821 0.527852 0.664598
O O7 0.159871 0.494787 0.853600
O O8 0.235332 0.577464 0.807848
O O9 0.261815 0.250000 0.527625
O O10 0.325246 0.991234 0.515785
O O11 0.789879 0.250000 0.937935
O O12 0.609788 0.013345 0.904996
O O13 0.022812 0.107425 0.079844
O O14 0.000000 0.000000 0.000000
O O15 0.140953 0.250000 0.882964
O O16 0.359546 0.033608 0.000770
O O17 0.885906 0.034220 0.818850
O O18 0.793675 0.750000 0.792365
O O19 0.500000 0.500000 0.500000
O O20 0.494837 0.750000 0.540723
O O21 0.389825 0.250000 0.064354
#
# Coordination Sequence:
#
# PCOD8070320 Si02
#       8
#     4   4   4   4   4   4   4   4
#     4   9  18  34  56  83 111 141 181 222 270 330
#     4  10  21  37  57  79 105 144 183 217 265 327
#     4  10  20  35  57  83 112 142 176 226 282 329
#     4  10  20  35  54  75 104 141 178 217 263 311
#     4  10  19  30  52  85 117 142 169 216 268 314
#     4   9  18  33  52  75 104 142 180 212 253 317
#     4  11  24  42  60  78 106 147 193 236 280 331
#     4   9  19  36  55  79 110 141 177 218 263 318
#
# _framework density 19.601713
#
# number of rings (size 3 to 8) (size 9 to 14) (size 15 to 20)
#    0.000    2.250    0.000    2.625    0.000    6.500 
#    2.250    0.000    0.000    0.000    0.000    0.000 
#    0.000    0.000    0.000    0.000    0.000    0.000 
#
# Total GULP energy -396487.225104 kJ/mol
# GULP energy per Si atom -12390.225785 kJ/mol
# Density = 1.955710 g / cm^3
# Si number density = 19.601713 Si / 1000 Ang^3
#
#
#
# Elastic Constant Matrix: (Units=GPa)
#
#
# Indices 1 2 3 4 5 6 
#
# 1 119.7727 53.4164 31.1230 0.0000 16.6053 0.0000
# 2 53.4164 89.1868 20.8676 0.0000 2.8384 0.0000
# 3 31.1230 20.8676 60.0366 0.0000 30.0666 0.0000
# 4 0.0000 0.0000 0.0000 22.1831 0.0000 1.3557
# 5 16.6053 2.8384 30.0666 0.0000 26.0073 0.0000
# 6 0.0000 0.0000 0.0000 1.3557 0.0000 38.7094
#
#
#
# Elastic Compliance Matrix: (Units=1/GPa)
#
#
# Indices 1 2 3 4 5 6 
#
# 1 0.012647 -0.007146 -0.000995 0.000000 -0.006144 0.000000
# 2 -0.007146 0.017086 -0.008516 0.000000 0.012543 0.000000
# 3 -0.000995 -0.008516 0.045956 0.000000 -0.051564 0.000000
# 4 0.000000 0.000000 0.000000 0.045176 0.000000 -0.001582
# 5 -0.006144 0.012543 -0.051564 0.000000 0.100617 0.000000
# 6 0.000000 0.000000 0.000000 -0.001582 0.000000 0.025889
#
#
# Mechanical properties :
#
#
# Convention : Reuss Voigt Hill
#
# Bulk Modulus (GPa) = 23.59902 53.31223 38.45562
# Shear Modulus (GPa) = 16.96020 28.28591 22.62306
#
# Velocity S-wave (km/s) = 2.94469 3.80285 3.40094
# Velocity P-wave (km/s) = 4.86076 6.82195 5.92309
#
# Compressibility (1/GPa) = 0.04237464
#
# Stress axis : x y z
#
# Youngs Moduli (GPa) = 79.07295 58.52877 21.76015
#
# Poissons Ratio (x) = 0.41825 0.02165
# Poissons Ratio (y) = 0.56506 0.18530
# Poissons Ratio (z) = 0.07868 0.49840
#
# Static dielectric constant tensor:
#      x y z
#    x 3.463100 0.000000 0.310220 
#    y 0.000000 3.897230 0.000000 
#    z 0.310220 0.000000 3.536170 
# 
# 
# High freq. dielectric constant tensor:
#      x y z
#    x 1.755980 0.000000 0.025320 
#    y 0.000000 1.771020 0.000000 
#    z 0.025320 0.000000 1.752070 
# 
# From -- ./inp_files/73207.got.cif
#   From: 2010.06.25/outbox.cif.g09.slc.cpg/sg11_37_cif.got.tgz:73207.got - 2010.06.27 23:14:04.
