data_PCOD8070528
_publ_section_title
;
Structure prediction by ZEFSAII (Michael W. Deem and Ramdas Pophale) SiO2 
 PCOD8070528
Probable space group: P 21/M
;
_chemical_formula_sum "Si O2"
_cell_formula_units_Z 28
_cell_length_a 9.417838
_cell_length_b 9.342205
_cell_length_c 31.494085
_cell_angle_alpha 90.000000
_cell_angle_beta 35.488855
_cell_angle_gamma 90.000000
_cell_volume 1608.663407
_symmetry_space_group_name_H-M "P 21/M"
_symmetry_group_IT_number 11
_symmetry_cell_setting 'monoclinic'
loop_
_space_group_symop_operation_xyz
x,y,z
-x,1/2+y,-z
-x,-y,-z
x,1/2-y,z
loop_
_atom_site_type_symbol
_atom_site_label
_atom_site_fract_x
_atom_site_fract_y
_atom_site_fract_z
Si Si1 0.333910 0.415873 0.807162
Si Si2 0.502513 0.909908 0.057776
Si Si3 0.747182 0.581572 0.565994
Si Si4 0.220971 0.411518 0.927733
Si Si5 0.674500 0.584235 0.489800
Si Si6 0.119678 0.084571 0.105175
Si Si7 0.762939 0.416285 0.642107
O O1 0.264180 0.250000 0.820419
O O2 0.323839 0.470460 0.858168
O O3 0.603992 0.443965 0.723001
O O4 0.136991 0.504704 0.828522
O O5 0.415824 0.750000 0.065653
O O6 0.551887 0.919444 0.095570
O O7 0.294650 0.024722 0.099210
O O8 0.752769 0.946068 0.971351
O O9 0.787929 0.750000 0.563876
O O10 0.596845 0.558128 0.558369
O O11 0.632177 0.508366 0.636072
O O12 0.000000 0.500000 0.500000
O O13 0.125040 0.250000 0.946024
O O14 0.000000 0.500000 0.000000
O O15 0.500000 0.500000 0.500000
O O16 0.647552 0.750000 0.484449
O O17 0.958539 0.535604 0.415424
O O18 0.072725 0.250000 0.125158
O O19 0.760969 0.250000 0.628705
#
# Coordination Sequence:
#
# PCOD8070528 Si02
#       7
#     4   4   4   4   4   4   4
#     4  10  20  34  53  74 101 135 170 214 265 311
#     4   9  18  32  48  69  97 128 166 211 257 308
#     4   9  17  31  52  77 103 133 168 207 244 292
#     4  10  19  32  51  74  99 131 172 217 262 311
#     4   9  18  32  52  78 107 135 167 205 245 295
#     4  10  19  31  49  72  97 127 165 211 257 306
#     4   9  19  35  52  75 104 136 174 211 252 307
#
# _framework density 17.405754999999999
#
# number of rings (size 3 to 8) (size 9 to 14) (size 15 to 20)
#    0.000    2.571    1.429    1.714    0.000    4.571 
#    0.000    1.429    0.000    3.429    0.000    0.000 
#    0.000    0.000    0.000    0.000    0.000    0.000 
#
# Total GULP energy -347039.140248 kJ/mol
# GULP energy per Si atom -12394.255009 kJ/mol
# Density = 1.736614 g / cm^3
# Si number density = 17.405755 Si / 1000 Ang^3
#
#
#
# Elastic Constant Matrix: (Units=GPa)
#
#
# Indices 1 2 3 4 5 6 
#
# 1 105.5210 53.8604 53.8274 0.0000 6.8630 0.0000
# 2 53.8604 79.0138 44.2705 0.0000 3.2958 0.0000
# 3 53.8274 44.2705 99.5083 0.0000 8.7981 0.0000
# 4 0.0000 0.0000 0.0000 24.1399 0.0000 -1.0666
# 5 6.8630 3.2958 8.7981 0.0000 24.4464 0.0000
# 6 0.0000 0.0000 0.0000 -1.0666 0.0000 31.7409
#
#
#
# Elastic Compliance Matrix: (Units=1/GPa)
#
#
# Indices 1 2 3 4 5 6 
#
# 1 0.016374 -0.008274 -0.005028 0.000000 -0.001672 0.000000
# 2 -0.008274 0.021044 -0.005000 0.000000 0.001285 0.000000
# 3 -0.005028 -0.005000 0.015296 0.000000 -0.003419 0.000000
# 4 0.000000 0.000000 0.000000 0.041487 0.000000 0.001394
# 5 -0.001672 0.001285 -0.003419 0.000000 0.042432 0.000000
# 6 0.000000 0.000000 0.000000 0.001394 0.000000 0.031552
#
#
# Mechanical properties :
#
#
# Convention : Reuss Voigt Hill
#
# Bulk Modulus (GPa) = 62.07779 65.32883 63.70331
# Shear Modulus (GPa) = 23.79132 24.87108 24.33120
#
# Velocity S-wave (km/s) = 3.70112 3.78418 3.74288
# Velocity P-wave (km/s) = 7.34894 7.53045 7.44025
#
# Compressibility (1/GPa) = 0.01610882
#
# Stress axis : x y z
#
# Youngs Moduli (GPa) = 61.07283 47.51886 65.37585
#
# Poissons Ratio (x) = 0.39319 0.32872
# Poissons Ratio (y) = 0.50534 0.32689
# Poissons Ratio (z) = 0.30708 0.23760
#
# Static dielectric constant tensor:
#      x y z
#    x 3.356390 0.000000 0.362850 
#    y 0.000000 3.450300 0.000000 
#    z 0.362850 0.000000 3.342070 
# 
# 
# High freq. dielectric constant tensor:
#      x y z
#    x 1.666520 0.000000 0.014100 
#    y 0.000000 1.676670 0.000000 
#    z 0.014100 0.000000 1.649410 
# 
# From -- ./inp_files/72724.got.cif
#   From: 2010.06.25/outbox.cif.g09.slc.cpg/sg11_37_cif.got.tgz:72724.got - 2010.06.27 23:14:04.
