data_PCOD8070245
_publ_section_title
;
Structure prediction by ZEFSAII (Michael W. Deem and Ramdas Pophale) SiO2 
 PCOD8070245
Probable space group: P 21/M
;
_chemical_formula_sum "Si O2"
_cell_formula_units_Z 32
_cell_length_a 14.302479
_cell_length_b 8.880351
_cell_length_c 20.707202
_cell_angle_alpha 90.000000
_cell_angle_beta 42.889622
_cell_angle_gamma 90.000000
_cell_volume 1789.976247
_symmetry_space_group_name_H-M "P 21/M"
_symmetry_group_IT_number 11
_symmetry_cell_setting 'monoclinic'
loop_
_space_group_symop_operation_xyz
x,y,z
-x,1/2+y,-z
-x,-y,-z
x,1/2-y,z
loop_
_atom_site_type_symbol
_atom_site_label
_atom_site_fract_x
_atom_site_fract_y
_atom_site_fract_z
Si Si1 0.871822 0.576250 0.683693
Si Si2 0.848957 0.921227 0.846713
Si Si3 0.842714 0.426502 0.309451
Si Si4 0.419247 0.927490 0.981804
Si Si5 0.569154 0.577827 0.641127
Si Si6 0.420889 0.427300 0.599938
Si Si7 0.587856 0.571412 0.774976
Si Si8 0.142425 0.421378 0.563188
O O1 0.902472 0.750000 0.651972
O O2 0.837932 0.555553 0.776022
O O3 0.741716 0.510441 0.710636
O O4 0.005584 0.479926 0.596649
O O5 0.813421 0.750000 0.883028
O O6 0.002711 0.963245 0.792522
O O7 0.740970 0.028851 0.936864
O O8 0.811695 0.250000 0.321429
O O9 0.736039 0.515160 0.318363
O O10 0.821730 0.475963 0.393792
O O11 0.435764 0.750000 0.979348
O O12 0.482677 0.988434 0.882435
O O13 0.500000 0.000000 0.000000
O O14 0.520312 0.750000 0.654816
O O15 0.490222 0.470043 0.632195
O O16 0.536241 0.520869 0.730351
O O17 0.732950 0.566459 0.549870
O O18 0.500000 0.500000 0.500000
O O19 0.423756 0.250000 0.588827
O O20 0.596485 0.750000 0.774221
O O21 0.120660 0.250000 0.597578
#
# Coordination Sequence:
#
# PCOD8070245 Si02
#       8
#     4   4   4   4   4   4   4   4
#     4   9  17  32  51  71 105 147 182 215 261 319
#     4   9  18  33  53  80 109 137 173 220 274 322
#     4  10  20  35  56  79 108 141 175 219 271 322
#     4  11  20  33  55  80 107 142 183 227 269 316
#     4  10  21  37  55  75 106 146 184 223 268 320
#     4  12  23  36  57  83 110 139 178 223 267 317
#     4   9  19  36  54  74 105 148 187 219 269 326
#     4  10  19  30  48  77 108 139 181 223 261 312
#
# _framework density 17.877331999999999
#
# number of rings (size 3 to 8) (size 9 to 14) (size 15 to 20)
#    0.000    2.000    2.500    3.000    0.000    3.500 
#    0.000    1.875    0.000    0.750    0.000    0.000 
#    0.000    0.000    0.000    0.000    0.000    0.000 
#
# Total GULP energy -396814.464661 kJ/mol
# GULP energy per Si atom -12400.452021 kJ/mol
# Density = 1.783664 g / cm^3
# Si number density = 17.877332 Si / 1000 Ang^3
#
#
#
# Elastic Constant Matrix: (Units=GPa)
#
#
# Indices 1 2 3 4 5 6 
#
# 1 113.0842 48.6144 58.9072 0.0000 -6.4268 0.0000
# 2 48.6144 90.1489 45.2161 0.0000 -4.9512 0.0000
# 3 58.9072 45.2161 98.8966 0.0000 -1.5809 0.0000
# 4 0.0000 0.0000 0.0000 25.3436 0.0000 -7.1143
# 5 -6.4268 -4.9512 -1.5809 0.0000 25.5948 0.0000
# 6 0.0000 0.0000 0.0000 -7.1143 0.0000 28.7684
#
#
#
# Elastic Compliance Matrix: (Units=1/GPa)
#
#
# Indices 1 2 3 4 5 6 
#
# 1 0.014175 -0.004282 -0.006449 0.000000 0.002333 0.000000
# 2 -0.004282 0.015833 -0.004661 0.000000 0.001700 0.000000
# 3 -0.006449 -0.004661 0.016059 0.000000 -0.001529 0.000000
# 4 0.000000 0.000000 0.000000 0.042401 0.000000 0.010486
# 5 0.002333 0.001700 -0.001529 0.000000 0.039891 0.000000
# 6 0.000000 0.000000 0.000000 0.010486 0.000000 0.037353
#
#
# Mechanical properties :
#
#
# Convention : Reuss Voigt Hill
#
# Bulk Modulus (GPa) = 65.42599 67.51169 66.46884
# Shear Modulus (GPa) = 24.80262 25.90081 25.35171
#
# Velocity S-wave (km/s) = 3.72879 3.81045 3.76984
# Velocity P-wave (km/s) = 7.43069 7.56341 7.49734
#
# Compressibility (1/GPa) = 0.01528445
#
# Stress axis : x y z
#
# Youngs Moduli (GPa) = 70.54460 63.15845 62.26879
#
# Poissons Ratio (x) = 0.27043 0.40154
# Poissons Ratio (y) = 0.30206 0.29026
# Poissons Ratio (z) = 0.45491 0.29441
#
# Static dielectric constant tensor:
#      x y z
#    x 3.367300 0.000000 -0.209870 
#    y 0.000000 3.258410 0.000000 
#    z -0.209870 0.000000 3.381770 
# 
# 
# High freq. dielectric constant tensor:
#      x y z
#    x 1.683400 0.000000 -0.018280 
#    y 0.000000 1.685880 0.000000 
#    z -0.018280 0.000000 1.678900 
# 
# From -- ./inp_files/54367.got.cif
#   From: 2010.06.25/outbox.cif.g09.slc.cpg/sg11_28_cif.got.tgz:54367.got - 2010.06.27 23:14:04.
