data_PCOD8070486
_publ_section_title
;
Structure prediction by ZEFSAII (Michael W. Deem and Ramdas Pophale) SiO2 
 PCOD8070486
Probable space group: P 21/M
;
_chemical_formula_sum "Si O2"
_cell_formula_units_Z 28
_cell_length_a 25.514498
_cell_length_b 9.257924
_cell_length_c 9.281812
_cell_angle_alpha 90.000000
_cell_angle_beta 45.297987
_cell_angle_gamma 90.000000
_cell_volume 1558.351433
_symmetry_space_group_name_H-M "P 21/M"
_symmetry_group_IT_number 11
_symmetry_cell_setting 'monoclinic'
loop_
_space_group_symop_operation_xyz
x,y,z
-x,1/2+y,-z
-x,-y,-z
x,1/2-y,z
loop_
_atom_site_type_symbol
_atom_site_label
_atom_site_fract_x
_atom_site_fract_y
_atom_site_fract_z
Si Si1 0.436715 0.081097 0.303274
Si Si2 0.846192 0.419951 0.478963
Si Si3 0.296613 0.078731 0.746096
Si Si4 0.419432 0.082412 0.006071
Si Si5 0.835310 0.919475 0.196456
Si Si6 0.275055 0.420864 0.112928
Si Si7 0.005012 0.086587 0.133431
O O1 0.449864 0.250000 0.299347
O O2 0.373061 0.020825 0.531232
O O3 0.512557 0.002145 0.196685
O O4 0.411839 0.044927 0.188888
O O5 0.827883 0.250000 0.504710
O O6 0.832454 0.491569 0.349931
O O7 0.796298 0.495465 0.694378
O O8 0.931372 0.447457 0.369276
O O9 0.296221 0.250000 0.740162
O O10 0.228124 0.019631 0.785147
O O11 0.290083 0.025084 0.922027
O O12 0.434580 0.250000 0.950141
O O13 0.344446 0.032767 0.075356
O O14 0.823165 0.750000 0.256657
O O15 0.913381 0.943272 0.958190
O O16 0.260447 0.250000 0.149218
O O17 0.000365 0.250000 0.091620
O O18 0.000000 0.000000 0.000000
#
# Coordination Sequence:
#
# PCOD8070486 Si02
#       7
#     4   4   4   4   4   4   4
#     4   9  17  31  50  71  94 120 154 197 240 279
#     4  10  19  31  48  73 101 126 158 201 245 284
#     4   9  18  32  51  73  96 126 165 201 231 277
#     4   9  18  32  50  71  94 121 156 196 236 282
#     4   9  16  31  54  74  94 125 163 199 238 284
#     4  10  20  34  50  69  96 131 167 197 231 281
#     4   8  15  27  46  71  96 122 155 197 240 282
#
# _framework density 17.967707000000001
#
# number of rings (size 3 to 8) (size 9 to 14) (size 15 to 20)
#    0.000    2.857    0.000    1.286    0.000    4.000 
#    0.000    5.714    0.000    0.000    0.000    0.000 
#    0.000    0.000    0.000    0.000    0.000    0.000 
#
# Total GULP energy -346981.846156 kJ/mol
# GULP energy per Si atom -12392.208791 kJ/mol
# Density = 1.792681 g / cm^3
# Si number density = 17.967707 Si / 1000 Ang^3
#
#
#
# Elastic Constant Matrix: (Units=GPa)
#
#
# Indices 1 2 3 4 5 6 
#
# 1 44.6103 25.4752 65.3340 0.0000 -11.7807 0.0000
# 2 25.4752 42.7401 48.4030 0.0000 -8.9836 0.0000
# 3 65.3340 48.4030 163.9167 0.0000 -22.3849 0.0000
# 4 0.0000 0.0000 0.0000 27.3698 0.0000 -6.3761
# 5 -11.7807 -8.9836 -22.3849 0.0000 28.5258 0.0000
# 6 0.0000 0.0000 0.0000 -6.3761 0.0000 16.8954
#
#
#
# Elastic Compliance Matrix: (Units=1/GPa)
#
#
# Indices 1 2 3 4 5 6 
#
# 1 0.058794 -0.012324 -0.019051 0.000000 0.005450 0.000000
# 2 -0.012324 0.038011 -0.006018 0.000000 0.002159 0.000000
# 3 -0.019051 -0.006018 0.015835 0.000000 0.002663 0.000000
# 4 0.000000 0.000000 0.000000 0.040058 0.000000 0.015118
# 5 0.005450 0.002159 0.002663 0.000000 0.040077 0.000000
# 6 0.000000 0.000000 0.000000 0.015118 0.000000 0.064893
#
#
# Mechanical properties :
#
#
# Convention : Reuss Voigt Hill
#
# Bulk Modulus (GPa) = 26.41584 58.85463 42.63523
# Shear Modulus (GPa) = 14.48976 22.02853 18.25915
#
# Velocity S-wave (km/s) = 2.84286 3.50524 3.19128
# Velocity P-wave (km/s) = 5.05070 7.01492 6.11223
#
# Compressibility (1/GPa) = 0.03785607
#
# Stress axis : x y z
#
# Youngs Moduli (GPa) = 17.00844 26.30784 63.15299
#
# Poissons Ratio (x) = 0.32421 1.20312
# Poissons Ratio (y) = 0.20961 0.38003
# Poissons Ratio (z) = 0.32403 0.15831
#
# Static dielectric constant tensor:
#      x y z
#    x 3.514490 0.000000 -0.447240 
#    y 0.000000 3.147750 0.000000 
#    z -0.447240 0.000000 3.606850 
# 
# 
# High freq. dielectric constant tensor:
#      x y z
#    x 1.686460 0.000000 -0.026900 
#    y 0.000000 1.677830 0.000000 
#    z -0.026900 0.000000 1.699010 
# 
# From -- ./inp_files/28415.got.cif
#   From: 2010.06.25/outbox.cif.g09.slc.cpg/sg11_15_cif.got.tgz:28415.got - 2010.06.27 23:14:04.
