data_PCOD8070977
_publ_section_title
;
Structure prediction by ZEFSAII (Michael W. Deem and Ramdas Pophale) SiO2 
 PCOD8070977
Probable space group: P 21/M
;
_chemical_formula_sum "Si O2"
_cell_formula_units_Z 32
_cell_length_a 11.415533
_cell_length_b 8.804967
_cell_length_c 17.824346
_cell_angle_alpha 90.000000
_cell_angle_beta 92.765799
_cell_angle_gamma 90.000000
_cell_volume 1789.498481
_symmetry_space_group_name_H-M "P 21/M"
_symmetry_group_IT_number 11
_symmetry_cell_setting 'monoclinic'
loop_
_space_group_symop_operation_xyz
x,y,z
-x,1/2+y,-z
-x,-y,-z
x,1/2-y,z
loop_
_atom_site_type_symbol
_atom_site_label
_atom_site_fract_x
_atom_site_fract_y
_atom_site_fract_z
Si Si1 0.225562 0.929602 0.350487
Si Si2 0.374712 0.428868 0.482354
Si Si3 0.368626 0.080051 0.916252
Si Si4 0.992874 0.575373 0.580733
Si Si5 0.335400 0.428046 0.214889
Si Si6 0.605323 0.072101 0.233990
Si Si7 0.352990 0.920494 0.063465
Si Si8 0.256285 0.923621 0.615684
O O1 0.231985 0.750000 0.359983
O O2 0.325725 0.006407 0.403504
O O3 0.097678 0.986153 0.370244
O O4 0.249068 0.978444 0.265919
O O5 0.500000 0.500000 0.500000
O O6 0.386955 0.250000 0.475326
O O7 0.286872 0.470801 0.546479
O O8 0.318627 0.250000 0.916835
O O9 0.507432 0.078590 0.930234
O O10 0.334736 0.006637 0.835725
O O11 0.309335 0.987525 0.982658
O O12 0.952469 0.750000 0.570246
O O13 0.000000 0.500000 0.500000
O O14 0.117829 0.565001 0.626137
O O15 0.313480 0.250000 0.224494
O O16 0.469336 0.473506 0.238402
O O17 0.303844 0.475549 0.129078
O O18 0.618860 0.250000 0.221940
O O19 0.674285 0.016146 0.309649
O O20 0.304173 0.750000 0.070632
O O21 0.292935 0.750000 0.598367
#
# Coordination Sequence:
#
# PCOD8070977 Si02
#       8
#     4   4   4   4   4   4   4   4
#     4  12  24  38  55  76 104 137 177 220 265 314
#     4  12  24  37  55  77 105 137 172 211 260 318
#     4   9  16  26  43  69 101 137 174 209 247 299
#     4  11  22  38  59  79 101 133 176 225 270 313
#     4  10  19  32  51  76 107 139 173 214 263 314
#     4   9  18  32  50  74 105 138 169 209 259 312
#     4   9  16  27  44  68 101 139 175 209 250 302
#     4  10  21  37  56  77 103 135 175 218 264 314
#
# _framework density 17.882104999999999
#
# number of rings (size 3 to 8) (size 9 to 14) (size 15 to 20)
#    0.000    1.750    1.250    4.500    0.000    5.500 
#    0.000    0.000    0.000    0.000    0.000    0.875 
#    0.000    0.000    0.000    0.000    0.000    0.000 
#
# Total GULP energy -396905.617003 kJ/mol
# GULP energy per Si atom -12403.300531 kJ/mol
# Density = 1.784140 g / cm^3
# Si number density = 17.882105 Si / 1000 Ang^3
#
#
#
# Elastic Constant Matrix: (Units=GPa)
#
#
# Indices 1 2 3 4 5 6 
#
# 1 57.3820 28.3366 21.6781 0.0000 -15.4388 0.0000
# 2 28.3366 122.3033 41.4545 0.0000 -12.2077 0.0000
# 3 21.6781 41.4545 106.4195 0.0000 -19.5238 0.0000
# 4 0.0000 0.0000 0.0000 35.6237 0.0000 -4.9917
# 5 -15.4388 -12.2077 -19.5238 0.0000 14.8958 0.0000
# 6 0.0000 0.0000 0.0000 -4.9917 0.0000 22.5626
#
#
#
# Elastic Compliance Matrix: (Units=1/GPa)
#
#
# Indices 1 2 3 4 5 6 
#
# 1 0.025555 -0.003732 0.000719 0.000000 0.024371 0.000000
# 2 -0.003732 0.010134 -0.003125 0.000000 0.000342 0.000000
# 3 0.000719 -0.003125 0.013343 0.000000 0.015673 0.000000
# 4 0.000000 0.000000 0.000000 0.028969 0.000000 0.006409
# 5 0.024371 0.000342 0.015673 0.000000 0.113215 0.000000
# 6 0.000000 0.000000 0.000000 0.006409 0.000000 0.045739
#
#
# Mechanical properties :
#
#
# Convention : Reuss Voigt Hill
#
# Bulk Modulus (GPa) = 27.20556 52.11591 39.66074
# Shear Modulus (GPa) = 19.12164 27.59212 23.35688
#
# Velocity S-wave (km/s) = 3.27359 3.93237 3.61800
# Velocity P-wave (km/s) = 5.43465 7.05872 6.29924
#
# Compressibility (1/GPa) = 0.03675719
#
# Stress axis : x y z
#
# Youngs Moduli (GPa) = 39.13056 98.67438 74.94653
#
# Poissons Ratio (x) = 0.36827 -0.05390
# Poissons Ratio (y) = 0.14604 0.23419
# Poissons Ratio (z) = -0.02814 0.30833
#
# Static dielectric constant tensor:
#      x y z
#    x 3.114930 0.000000 -0.039840 
#    y 0.000000 3.484740 0.000000 
#    z -0.039840 0.000000 3.445930 
# 
# 
# High freq. dielectric constant tensor:
#      x y z
#    x 1.650110 0.000000 -0.007900 
#    y 0.000000 1.706320 0.000000 
#    z -0.007900 0.000000 1.698480 
# 
# From -- ./inp_files/58721.got.cif
#   From: 2010.06.25/outbox.cif.g09.slc.cpg/sg11_30_cif.got.tgz:58721.got - 2010.06.27 23:14:04.
