data_PCOD8070828
_publ_section_title
;
Structure prediction by ZEFSAII (Michael W. Deem and Ramdas Pophale) SiO2 
 PCOD8070828
Probable space group: P 21/M
;
_chemical_formula_sum "Si O2"
_cell_formula_units_Z 32
_cell_length_a 20.562817
_cell_length_b 8.582252
_cell_length_c 14.151350
_cell_angle_alpha 90.000000
_cell_angle_beta 48.984821
_cell_angle_gamma 90.000000
_cell_volume 1884.349974
_symmetry_space_group_name_H-M "P 21/M"
_symmetry_group_IT_number 11
_symmetry_cell_setting 'monoclinic'
loop_
_space_group_symop_operation_xyz
x,y,z
-x,1/2+y,-z
-x,-y,-z
x,1/2-y,z
loop_
_atom_site_type_symbol
_atom_site_label
_atom_site_fract_x
_atom_site_fract_y
_atom_site_fract_z
Si Si1 0.508986 0.931235 0.093143
Si Si2 0.098871 0.428621 0.012777
Si Si3 0.991881 0.432877 0.403782
Si Si4 0.306582 0.067872 0.112447
Si Si5 0.166769 0.429434 0.545567
Si Si6 0.916353 0.571014 0.182128
Si Si7 0.325857 0.567184 0.300076
Si Si8 0.151883 0.569428 0.145477
O O1 0.497306 0.750000 0.093535
O O2 0.424764 0.986716 0.233179
O O3 0.606677 0.972767 0.033191
O O4 0.500000 0.000000 0.000000
O O5 0.116257 0.250000 0.022782
O O6 0.154774 0.534206 0.030667
O O7 0.997463 0.460287 0.121941
O O8 0.127130 0.466384 0.878008
O O9 0.011124 0.250000 0.386147
O O10 0.058566 0.519756 0.272098
O O11 0.000000 0.500000 0.500000
O O12 0.896125 0.464564 0.457269
O O13 0.304943 0.250000 0.140002
O O14 0.303904 0.972293 0.212216
O O15 0.224914 0.028088 0.127651
O O16 0.148834 0.250000 0.537167
O O17 0.153296 0.460730 0.669873
O O18 0.264664 0.473314 0.429091
O O19 0.949056 0.750000 0.152350
O O20 0.311009 0.750000 0.329759
O O21 0.168036 0.750000 0.149095
#
# Coordination Sequence:
#
# PCOD8070828 Si02
#       8
#     4   4   4   4   4   4   4   4
#     4   8  16  30  49  70  95 125 161 203 245 284
#     4  10  19  33  53  74  94 124 163 204 248 292
#     4  12  24  37  50  67  94 133 170 203 237 283
#     4  10  19  33  51  72  97 130 168 205 243 289
#     4  11  21  34  50  72 100 131 163 199 240 288
#     4   9  19  34  52  72  97 125 160 205 249 289
#     4  10  19  32  49  73 102 132 164 201 242 289
#     4  12  23  35  49  71 100 131 163 202 245 292
#
# _framework density 16.981983
#
# number of rings (size 3 to 8) (size 9 to 14) (size 15 to 20)
#    0.000    1.750    1.250    4.500    0.000    2.000 
#    0.000    0.000    0.000    0.000    0.000    0.875 
#    0.000    0.000    0.000    0.000    0.000    0.000 
#
# Total GULP energy -396641.972686 kJ/mol
# GULP energy per Si atom -12395.061646 kJ/mol
# Density = 1.694333 g / cm^3
# Si number density = 16.981983 Si / 1000 Ang^3
#
#
#
# Elastic Constant Matrix: (Units=GPa)
#
#
# Indices 1 2 3 4 5 6 
#
# 1 34.3283 10.6206 39.2220 0.0000 5.8242 0.0000
# 2 10.6206 44.4135 21.1556 0.0000 3.7438 0.0000
# 3 39.2220 21.1556 112.1394 0.0000 -2.1486 0.0000
# 4 0.0000 0.0000 0.0000 23.6541 0.0000 1.0626
# 5 5.8242 3.7438 -2.1486 0.0000 28.4194 0.0000
# 6 0.0000 0.0000 0.0000 1.0626 0.0000 20.6396
#
#
#
# Elastic Compliance Matrix: (Units=1/GPa)
#
#
# Indices 1 2 3 4 5 6 
#
# 1 0.052748 -0.002994 -0.018110 0.000000 -0.011785 0.000000
# 2 -0.002994 0.025286 -0.003781 0.000000 -0.003003 0.000000
# 3 -0.018110 -0.003781 0.016069 0.000000 0.005424 0.000000
# 4 0.000000 0.000000 0.000000 0.042374 0.000000 -0.002182
# 5 -0.011785 -0.003003 0.005424 0.000000 0.038408 0.000000
# 6 0.000000 0.000000 0.000000 -0.002182 0.000000 0.048563
#
#
# Mechanical properties :
#
#
# Convention : Reuss Voigt Hill
#
# Bulk Modulus (GPa) = 22.55640 36.98640 29.77140
# Shear Modulus (GPa) = 17.36142 22.53482 19.94812
#
# Velocity S-wave (km/s) = 3.20088 3.64673 3.43106
# Velocity P-wave (km/s) = 5.19348 6.28956 5.76762
#
# Compressibility (1/GPa) = 0.04433331
#
# Stress axis : x y z
#
# Youngs Moduli (GPa) = 18.95803 39.54816 62.23188
#
# Poissons Ratio (x) = 0.11839 1.12704
# Poissons Ratio (y) = 0.05675 0.23528
# Poissons Ratio (z) = 0.34334 0.14952
#
# Static dielectric constant tensor:
#      x y z
#    x 3.130720 0.000000 -0.200610 
#    y 0.000000 3.260140 0.000000 
#    z -0.200610 0.000000 3.435890 
# 
# 
# High freq. dielectric constant tensor:
#      x y z
#    x 1.629620 0.000000 -0.005930 
#    y 0.000000 1.668950 0.000000 
#    z -0.005930 0.000000 1.647370 
# 
# From -- ./inp_files/54246.got.cif
#   From: 2010.06.25/outbox.cif.g09.slc.cpg/sg11_28_cif.got.tgz:54246.got - 2010.06.27 23:14:04.
