data_PCOD8070020
_publ_section_title
;
Structure prediction by ZEFSAII (Michael W. Deem and Ramdas Pophale) SiO2 
 PCOD8070020
Probable space group: P 21/M
;
_chemical_formula_sum "Si O2"
_cell_formula_units_Z 32
_cell_length_a 11.620947
_cell_length_b 8.556286
_cell_length_c 21.485724
_cell_angle_alpha 90.000000
_cell_angle_beta 57.297600
_cell_angle_gamma 90.000000
_cell_volume 1797.731430
_symmetry_space_group_name_H-M "P 21/M"
_symmetry_group_IT_number 11
_symmetry_cell_setting 'monoclinic'
loop_
_space_group_symop_operation_xyz
x,y,z
-x,1/2+y,-z
-x,-y,-z
x,1/2-y,z
loop_
_atom_site_type_symbol
_atom_site_label
_atom_site_fract_x
_atom_site_fract_y
_atom_site_fract_z
Si Si1 0.398246 0.932592 0.229830
Si Si2 0.069186 0.930917 0.420810
Si Si3 0.863032 0.433169 0.774951
Si Si4 0.905894 0.429611 0.363230
Si Si5 0.651065 0.566911 0.632628
Si Si6 0.621314 0.437046 0.506147
Si Si7 0.288782 0.076289 0.071018
Si Si8 0.444535 0.923762 0.923108
O O1 0.394920 0.750000 0.246246
O O2 0.250761 0.988726 0.243453
O O3 0.442481 0.030857 0.279476
O O4 0.519084 0.965543 0.145492
O O5 0.031020 0.750000 0.418926
O O6 0.228249 0.948528 0.384905
O O7 0.000000 0.000000 0.500000
O O8 0.020722 0.043995 0.381013
O O9 0.859930 0.250000 0.775280
O O10 0.826119 0.491087 0.854510
O O11 0.021177 0.487157 0.716836
O O12 0.885683 0.250000 0.352469
O O13 0.761501 0.496779 0.431549
O O14 0.689140 0.750000 0.617800
O O15 0.596544 0.513111 0.581273
O O16 0.500000 0.500000 0.500000
O O17 0.620774 0.250000 0.512133
O O18 0.236234 0.250000 0.072043
O O19 0.429494 0.080479 0.066888
O O20 0.312147 0.988979 0.998477
O O21 0.411378 0.750000 0.908450
#
# Coordination Sequence:
#
# PCOD8070020 Si02
#       8
#     4   4   4   4   4   4   4   4
#     4  10  19  30  45  69 101 133 170 210 252 299
#     4  12  22  33  50  75 102 131 165 205 254 305
#     4  10  19  29  45  69 100 133 169 210 252 299
#     4  11  22  35  53  75 102 132 167 211 257 306
#     4  12  23  35  54  76 103 134 169 212 259 305
#     4  11  25  43  60  76  99 131 172 214 259 311
#     4   9  16  26  40  59  90 131 172 207 245 293
#     4   9  16  26  40  60  90 130 173 207 245 294
#
# _framework density 17.800211999999998
#
# number of rings (size 3 to 8) (size 9 to 14) (size 15 to 20)
#    0.000    1.500    2.500    4.500    0.000    5.500 
#    0.000    0.000    0.000    0.000    0.000    0.000 
#    0.000    1.000    0.000    3.750    0.000    5.750 
#
# Total GULP energy -396471.009546 kJ/mol
# GULP energy per Si atom -12389.719048 kJ/mol
# Density = 1.775970 g / cm^3
# Si number density = 17.800212 Si / 1000 Ang^3
#
#
#
# Elastic Constant Matrix: (Units=GPa)
#
#
# Indices 1 2 3 4 5 6 
#
# 1 52.6650 15.8508 33.9603 0.0000 4.3556 0.0000
# 2 15.8508 84.9388 45.9645 0.0000 -0.1430 0.0000
# 3 33.9603 45.9645 148.3085 0.0000 -0.4367 0.0000
# 4 0.0000 0.0000 0.0000 34.2746 0.0000 1.5132
# 5 4.3556 -0.1430 -0.4367 0.0000 7.6261 0.0000
# 6 0.0000 0.0000 0.0000 1.5132 0.0000 17.7437
#
#
#
# Elastic Compliance Matrix: (Units=1/GPa)
#
#
# Indices 1 2 3 4 5 6 
#
# 1 0.023876 -0.001800 -0.004950 0.000000 -0.013954 0.000000
# 2 -0.001800 0.014281 -0.004011 0.000000 0.001066 0.000000
# 3 -0.004950 -0.004011 0.009129 0.000000 0.003275 0.000000
# 4 0.000000 0.000000 0.000000 0.029286 0.000000 -0.002498
# 5 -0.013954 0.001066 0.003275 0.000000 0.139307 0.000000
# 6 0.000000 0.000000 0.000000 -0.002498 0.000000 0.056571
#
#
# Mechanical properties :
#
#
# Convention : Reuss Voigt Hill
#
# Bulk Modulus (GPa) = 38.81453 53.05150 45.93302
# Shear Modulus (GPa) = 16.52559 24.60463 20.56511
#
# Velocity S-wave (km/s) = 3.05026 3.72192 3.40270
# Velocity P-wave (km/s) = 5.85307 6.95261 6.42640
#
# Compressibility (1/GPa) = 0.02576355
#
# Stress axis : x y z
#
# Youngs Moduli (GPa) = 41.88302 70.02131 109.54162
#
# Poissons Ratio (x) = 0.12605 0.54227
# Poissons Ratio (y) = 0.07540 0.43935
# Poissons Ratio (z) = 0.20734 0.28084
#
# Static dielectric constant tensor:
#      x y z
#    x 2.787070 0.000000 -0.011220 
#    y 0.000000 3.392030 0.000000 
#    z -0.011220 0.000000 3.784590 
# 
# 
# High freq. dielectric constant tensor:
#      x y z
#    x 1.604050 0.000000 0.000720 
#    y 0.000000 1.703690 0.000000 
#    z 0.000720 0.000000 1.714870 
# 
# From -- ./inp_files/68252.got.cif
#   From: 2010.06.25/outbox.cif.g09.slc.cpg/sg11_35_cif.got.tgz:68252.got - 2010.06.27 23:14:04.
