data_PCOD8070117
_publ_section_title
;
Structure prediction by ZEFSAII (Michael W. Deem and Ramdas Pophale) SiO2 
 PCOD8070117
Probable space group: P 21/M
;
_chemical_formula_sum "Si O2"
_cell_formula_units_Z 32
_cell_length_a 15.801408
_cell_length_b 8.881766
_cell_length_c 12.145925
_cell_angle_alpha 90.000000
_cell_angle_beta 99.847588
_cell_angle_gamma 90.000000
_cell_volume 1679.497216
_symmetry_space_group_name_H-M "P 21/M"
_symmetry_group_IT_number 11
_symmetry_cell_setting 'monoclinic'
loop_
_space_group_symop_operation_xyz
x,y,z
-x,1/2+y,-z
-x,-y,-z
x,1/2-y,z
loop_
_atom_site_type_symbol
_atom_site_label
_atom_site_fract_x
_atom_site_fract_y
_atom_site_fract_z
Si Si1 0.930586 0.586574 0.919766
Si Si2 0.284235 0.578450 0.257194
Si Si3 0.209835 0.929476 0.803016
Si Si4 0.857075 0.072327 0.599635
Si Si5 0.016402 0.916850 0.709827
Si Si6 0.591880 0.075411 0.516428
Si Si7 0.734121 0.929407 0.403047
Si Si8 0.247899 0.072193 0.040659
O O1 0.925152 0.750000 0.973702
O O2 0.954556 0.597377 0.799497
O O3 0.839170 0.511798 0.920737
O O4 0.000000 0.500000 0.000000
O O5 0.271389 0.750000 0.218451
O O6 0.197864 0.523690 0.304138
O O7 0.365276 0.558195 0.354916
O O8 0.310899 0.485206 0.152148
O O9 0.216498 0.750000 0.803557
O O10 0.109798 0.981215 0.765354
O O11 0.265124 0.003735 0.719325
O O12 0.253212 0.990585 0.924575
O O13 0.847938 0.250000 0.579443
O O14 0.958833 0.028469 0.622160
O O15 0.818127 0.989753 0.484802
O O16 0.027030 0.750000 0.658270
O O17 0.585445 0.250000 0.480600
O O18 0.500000 0.000000 0.500000
O O19 0.647160 0.987198 0.438563
O O20 0.735508 0.750000 0.400395
O O21 0.258752 0.250000 0.026240
#
# Coordination Sequence:
#
# PCOD8070117 Si02
#       8
#     4   4   4   4   4   4   4   4
#     4  10  19  30  45  70 102 141 191 243 286 325
#     4   9  19  34  54  83 116 146 180 224 275 328
#     4  11  23  38  54  74 109 154 198 238 281 335
#     4  10  20  34  54  78 107 145 190 241 291 335
#     4  10  20  33  49  73 104 146 195 243 290 332
#     4  10  21  40  67  98 122 144 176 217 272 333
#     4  11  23  40  60  82 112 147 186 231 280 336
#     4  11  21  32  51  78 110 147 191 236 281 330
#
# _framework density 19.053319999999999
#
# number of rings (size 3 to 8) (size 9 to 14) (size 15 to 20)
#    0.000    1.750    2.500    3.375    0.000    5.000 
#    0.000    0.000    0.000    0.750    0.000    0.000 
#    0.000    0.000    0.000    0.000    0.000    0.000 
#
# Total GULP energy -396567.233165 kJ/mol
# GULP energy per Si atom -12392.726036 kJ/mol
# Density = 1.900995 g / cm^3
# Si number density = 19.053320 Si / 1000 Ang^3
#
#
#
# Elastic Constant Matrix: (Units=GPa)
#
#
# Indices 1 2 3 4 5 6 
#
# 1 60.2337 30.1342 28.5439 0.0000 6.1744 0.0000
# 2 30.1342 110.7307 55.0390 0.0000 0.2732 0.0000
# 3 28.5439 55.0390 122.6039 0.0000 -7.4554 0.0000
# 4 0.0000 0.0000 0.0000 33.4076 0.0000 1.4452
# 5 6.1744 0.2732 -7.4554 0.0000 16.9401 0.0000
# 6 0.0000 0.0000 0.0000 1.4452 0.0000 27.9088
#
#
#
# Elastic Compliance Matrix: (Units=1/GPa)
#
#
# Indices 1 2 3 4 5 6 
#
# 1 0.021302 -0.003895 -0.003780 0.000000 -0.009365 0.000000
# 2 -0.003895 0.012445 -0.004733 0.000000 -0.000864 0.000000
# 3 -0.003780 -0.004733 0.011559 0.000000 0.006541 0.000000
# 4 0.000000 0.000000 0.000000 0.030001 0.000000 -0.001554
# 5 -0.009365 -0.000864 0.006541 0.000000 0.065338 0.000000
# 6 0.000000 0.000000 0.000000 -0.001554 0.000000 0.035911
#
#
# Mechanical properties :
#
#
# Convention : Reuss Voigt Hill
#
# Bulk Modulus (GPa) = 48.80374 57.88917 53.34646
# Shear Modulus (GPa) = 24.01507 27.64137 25.82822
#
# Velocity S-wave (km/s) = 3.55408 3.81299 3.68581
# Velocity P-wave (km/s) = 6.52012 7.05931 6.79506
#
# Compressibility (1/GPa) = 0.02049023
#
# Stress axis : x y z
#
# Youngs Moduli (GPa) = 46.94367 80.35080 86.51385
#
# Poissons Ratio (x) = 0.31296 0.32706
# Poissons Ratio (y) = 0.18284 0.40944
# Poissons Ratio (z) = 0.17747 0.38028
#
# Static dielectric constant tensor:
#      x y z
#    x 3.224210 0.000000 0.069430 
#    y 0.000000 3.574880 0.000000 
#    z 0.069430 0.000000 3.507790 
# 
# 
# High freq. dielectric constant tensor:
#      x y z
#    x 1.706770 0.000000 0.004810 
#    y 0.000000 1.749020 0.000000 
#    z 0.004810 0.000000 1.743850 
# 
# From -- ./inp_files/38123.got.cif
#   From: 2010.06.25/outbox.cif.g09.slc.cpg/sg11_20_cif.got.tgz:38123.got - 2010.06.27 23:14:04.
