data_PCOD8070995
_publ_section_title
;
Structure prediction by ZEFSAII (Michael W. Deem and Ramdas Pophale) SiO2 
 PCOD8070995
Probable space group: P 21/M
;
_chemical_formula_sum "Si O2"
_cell_formula_units_Z 32
_cell_length_a 24.987633
_cell_length_b 8.866526
_cell_length_c 20.094257
_cell_angle_alpha 90.000000
_cell_angle_beta 23.263812
_cell_angle_gamma 90.000000
_cell_volume 1758.367069
_symmetry_space_group_name_H-M "P 21/M"
_symmetry_group_IT_number 11
_symmetry_cell_setting 'monoclinic'
loop_
_space_group_symop_operation_xyz
x,y,z
-x,1/2+y,-z
-x,-y,-z
x,1/2-y,z
loop_
_atom_site_type_symbol
_atom_site_label
_atom_site_fract_x
_atom_site_fract_y
_atom_site_fract_z
Si Si1 0.085419 0.422138 0.556465
Si Si2 0.680140 0.071808 0.470219
Si Si3 0.103545 0.573177 0.668929
Si Si4 0.856508 0.925290 0.653726
Si Si5 0.142448 0.573375 0.852689
Si Si6 0.172610 0.573182 0.969614
Si Si7 0.776525 0.425848 0.869924
Si Si8 0.377892 0.429314 0.834934
O O1 0.097289 0.250000 0.567337
O O2 0.140109 0.532937 0.551069
O O3 0.179265 0.447478 0.383612
O O4 0.928764 0.460112 0.720149
O O5 0.671495 0.250000 0.476930
O O6 0.771432 0.021094 0.428320
O O7 0.746192 0.009853 0.326351
O O8 0.529358 0.006758 0.650654
O O9 0.073182 0.750000 0.710878
O O10 0.973279 0.479668 0.839438
O O11 0.865723 0.750000 0.661431
O O12 0.752129 0.006294 0.823476
O O13 0.000000 0.000000 0.500000
O O14 0.121899 0.750000 0.866307
O O15 0.192219 0.534157 0.869746
O O16 0.000000 0.500000 0.000000
O O17 0.186101 0.750000 0.969162
O O18 0.288640 0.485291 0.875661
O O19 0.744766 0.250000 0.904214
O O20 0.672850 0.506178 0.037375
O O21 0.372334 0.250000 0.844296
#
# Coordination Sequence:
#
# PCOD8070995 Si02
#       8
#     4   4   4   4   4   4   4   4
#     4   9  18  31  49  77 113 141 174 227 273 313
#     4   9  21  39  56  80 110 141 184 231 273 324
#     4  11  20  33  57  81 107 144 185 225 269 326
#     4   9  17  29  47  74 109 146 181 221 272 323
#     4  10  20  37  59  81 110 143 178 227 277 325
#     4  11  22  35  55  83 112 141 179 228 276 323
#     4  10  19  32  51  77 112 143 177 228 275 323
#     4  11  22  37  57  78 108 149 186 224 273 330
#
# _framework density 18.198703999999999
#
# number of rings (size 3 to 8) (size 9 to 14) (size 15 to 20)
#    0.000    2.000    2.500    2.625    0.000    3.500 
#    0.000    3.750    0.000    0.750    0.000    0.000 
#    0.000    0.000    0.000    0.000    0.000    0.000 
#
# Total GULP energy -396763.811348 kJ/mol
# GULP energy per Si atom -12398.869105 kJ/mol
# Density = 1.815728 g / cm^3
# Si number density = 18.198704 Si / 1000 Ang^3
#
#
#
# Elastic Constant Matrix: (Units=GPa)
#
#
# Indices 1 2 3 4 5 6 
#
# 1 104.7668 50.6728 82.8657 0.0000 25.4873 0.0000
# 2 50.6728 71.6514 43.4709 0.0000 10.9452 0.0000
# 3 82.8657 43.4709 134.4798 0.0000 13.0634 0.0000
# 4 0.0000 0.0000 0.0000 16.4816 0.0000 10.3241
# 5 25.4873 10.9452 13.0634 0.0000 34.0892 0.0000
# 6 0.0000 0.0000 0.0000 10.3241 0.0000 24.3935
#
#
#
# Elastic Compliance Matrix: (Units=1/GPa)
#
#
# Indices 1 2 3 4 5 6 
#
# 1 0.026954 -0.009739 -0.012263 0.000000 -0.012326 0.000000
# 2 -0.009739 0.021306 -0.000965 0.000000 0.000811 0.000000
# 3 -0.012263 -0.000965 0.014940 0.000000 0.003753 0.000000
# 4 0.000000 0.000000 0.000000 0.082562 0.000000 -0.034943
# 5 -0.012326 0.000811 0.003753 0.000000 0.036852 0.000000
# 6 0.000000 0.000000 0.000000 -0.034943 0.000000 0.055784
#
#
# Mechanical properties :
#
#
# Convention : Reuss Voigt Hill
#
# Bulk Modulus (GPa) = 57.91997 73.87965 65.89981
# Shear Modulus (GPa) = 17.23628 23.91877 20.57752
#
# Velocity S-wave (km/s) = 3.08086 3.62928 3.36626
# Velocity P-wave (km/s) = 6.67466 7.63194 7.16929
#
# Compressibility (1/GPa) = 0.01726520
#
# Stress axis : x y z
#
# Youngs Moduli (GPa) = 37.10034 46.93624 66.93515
#
# Poissons Ratio (x) = 0.45712 0.82085
# Poissons Ratio (y) = 0.36133 0.06456
# Poissons Ratio (z) = 0.45497 0.04527
#
# Static dielectric constant tensor:
#      x y z
#    x 3.712430 0.000000 0.382870 
#    y 0.000000 3.369210 0.000000 
#    z 0.382870 0.000000 3.473440 
# 
# 
# High freq. dielectric constant tensor:
#      x y z
#    x 1.707720 0.000000 0.029200 
#    y 0.000000 1.705280 0.000000 
#    z 0.029200 0.000000 1.688820 
# 
# From -- ./inp_files/67092.got.cif
#   From: 2010.06.25/outbox.cif.g09.slc.cpg/sg11_34_cif.got.tgz:67092.got - 2010.06.27 23:14:04.
