data_PCOD8070638
_publ_section_title
;
Structure prediction by ZEFSAII (Michael W. Deem and Ramdas Pophale) SiO2 
 PCOD8070638
Probable space group: P 21/M
;
_chemical_formula_sum "Si O2"
_cell_formula_units_Z 32
_cell_length_a 20.898321
_cell_length_b 8.624792
_cell_length_c 14.374480
_cell_angle_alpha 90.000000
_cell_angle_beta 136.663666
_cell_angle_gamma 90.000000
_cell_volume 1778.088368
_symmetry_space_group_name_H-M "P 21/M"
_symmetry_group_IT_number 11
_symmetry_cell_setting 'monoclinic'
loop_
_space_group_symop_operation_xyz
x,y,z
-x,1/2+y,-z
-x,-y,-z
x,1/2-y,z
loop_
_atom_site_type_symbol
_atom_site_label
_atom_site_fract_x
_atom_site_fract_y
_atom_site_fract_z
Si Si1 0.483921 0.566798 0.585138
Si Si2 0.137992 0.933581 0.416186
Si Si3 0.725232 0.431912 0.593121
Si Si4 0.799778 0.566508 0.142257
Si Si5 0.792870 0.568012 0.847709
Si Si6 0.659276 0.432632 0.857381
Si Si7 0.101261 0.566255 0.583209
Si Si8 0.945693 0.932557 0.144276
O O1 0.500000 0.500000 0.500000
O O2 0.497050 0.750000 0.594722
O O3 0.382040 0.518554 0.514457
O O4 0.554366 0.493892 0.734171
O O5 0.130077 0.750000 0.411196
O O6 0.232765 0.982068 0.462842
O O7 0.134992 0.996992 0.518166
O O8 0.049220 0.002947 0.264628
O O9 0.737744 0.250000 0.624362
O O10 0.786505 0.521430 0.734183
O O11 0.796994 0.750000 0.150000
O O12 0.818750 0.490242 0.261977
O O13 0.881946 0.507361 0.161614
O O14 0.702101 0.509150 0.995626
O O15 0.774732 0.750000 0.843357
O O16 0.714634 0.477500 0.822756
O O17 0.895835 0.520192 0.994520
O O18 0.658920 0.250000 0.869383
O O19 0.093610 0.750000 0.576560
O O20 0.000000 0.500000 0.500000
O O21 0.951756 0.750000 0.158600
#
# Coordination Sequence:
#
# PCOD8070638 Si02
#       8
#     4   4   4   4   4   4   4   4
#     4  11  21  34  54  80 107 140 181 226 274 319
#     4   9  18  34  53  75 106 145 182 221 266 316
#     4  10  21  35  53  75 104 143 186 223 265 321
#     4  10  19  34  55  81 111 139 172 221 274 321
#     4  10  19  31  50  75 108 144 179 218 263 314
#     4  11  21  34  54  81 108 138 178 222 269 323
#     4  11  20  33  56  82 109 143 184 225 268 316
#     4   8  15  29  49  73 103 141 175 208 258 312
#
# _framework density 17.996856999999999
#
# number of rings (size 3 to 8) (size 9 to 14) (size 15 to 20)
#    0.000    2.000    2.500    3.375    0.000    1.000 
#    0.000    1.250    0.000    0.750    0.000    0.000 
#    0.000    0.000    0.000    0.000    0.000    0.000 
#
# Total GULP energy -396720.922084 kJ/mol
# GULP energy per Si atom -12397.528815 kJ/mol
# Density = 1.795590 g / cm^3
# Si number density = 17.996857 Si / 1000 Ang^3
#
#
#
# Elastic Constant Matrix: (Units=GPa)
#
#
# Indices 1 2 3 4 5 6 
#
# 1 120.8766 29.7625 75.0174 0.0000 -0.6866 0.0000
# 2 29.7625 61.1750 30.9671 0.0000 -1.1696 0.0000
# 3 75.0174 30.9671 144.8149 0.0000 -3.1389 0.0000
# 4 0.0000 0.0000 0.0000 30.7938 0.0000 -2.7953
# 5 -0.6866 -1.1696 -3.1389 0.0000 25.8640 0.0000
# 6 0.0000 0.0000 0.0000 -2.7953 0.0000 16.8611
#
#
#
# Elastic Compliance Matrix: (Units=1/GPa)
#
#
# Indices 1 2 3 4 5 6 
#
# 1 0.012735 -0.003208 -0.005923 0.000000 -0.000526 0.000000
# 2 -0.003208 0.019142 -0.002421 0.000000 0.000487 0.000000
# 3 -0.005923 -0.002421 0.010513 0.000000 0.001009 0.000000
# 4 0.000000 0.000000 0.000000 0.032970 0.000000 0.005466
# 5 -0.000526 0.000487 0.001009 0.000000 0.038794 0.000000
# 6 0.000000 0.000000 0.000000 0.005466 0.000000 0.060214
#
#
# Mechanical properties :
#
#
# Convention : Reuss Voigt Hill
#
# Bulk Modulus (GPa) = 51.84744 66.48451 59.16597
# Shear Modulus (GPa) = 24.52162 27.44509 25.98336
#
# Velocity S-wave (km/s) = 3.69528 3.90935 3.80382
# Velocity P-wave (km/s) = 6.86138 7.57627 7.22767
#
# Compressibility (1/GPa) = 0.01928736
#
# Stress axis : x y z
#
# Youngs Moduli (GPa) = 78.52092 52.24091 95.12015
#
# Poissons Ratio (x) = 0.16759 0.56337
# Poissons Ratio (y) = 0.25189 0.23028
# Poissons Ratio (z) = 0.46505 0.12647
#
# Static dielectric constant tensor:
#      x y z
#    x 3.291350 0.000000 0.021600 
#    y 0.000000 3.184830 0.000000 
#    z 0.021600 0.000000 3.650530 
# 
# 
# High freq. dielectric constant tensor:
#      x y z
#    x 1.668370 0.000000 -0.000830 
#    y 0.000000 1.686340 0.000000 
#    z -0.000830 0.000000 1.707670 
# 
# From -- ./inp_files/54369.got.cif
#   From: 2010.06.25/outbox.cif.g09.slc.cpg/sg11_28_cif.got.tgz:54369.got - 2010.06.27 23:14:04.
