data_PCOD8070711
_publ_section_title
;
Structure prediction by ZEFSAII (Michael W. Deem and Ramdas Pophale) SiO2 
 PCOD8070711
Probable space group: P 21/M
;
_chemical_formula_sum "Si O2"
_cell_formula_units_Z 28
_cell_length_a 16.443952
_cell_length_b 9.303355
_cell_length_c 11.053251
_cell_angle_alpha 90.000000
_cell_angle_beta 59.874987
_cell_angle_gamma 90.000000
_cell_volume 1462.574480
_symmetry_space_group_name_H-M "P 21/M"
_symmetry_group_IT_number 11
_symmetry_cell_setting 'monoclinic'
loop_
_space_group_symop_operation_xyz
x,y,z
-x,1/2+y,-z
-x,-y,-z
x,1/2-y,z
loop_
_atom_site_type_symbol
_atom_site_label
_atom_site_fract_x
_atom_site_fract_y
_atom_site_fract_z
Si Si1 0.117815 0.585651 0.693861
Si Si2 0.909305 0.585120 0.805314
Si Si3 0.816462 0.582404 0.127119
Si Si4 0.697655 0.084640 0.592352
Si Si5 0.746690 0.082433 0.820157
Si Si6 0.467455 0.082666 0.405935
Si Si7 0.655294 0.085148 0.136106
O O1 0.115913 0.750000 0.742537
O O2 0.132295 0.482013 0.795710
O O3 0.197271 0.562621 0.534476
O O4 0.018596 0.546464 0.705484
O O5 0.887987 0.750000 0.791977
O O6 0.847320 0.493661 0.758622
O O7 0.881492 0.548282 0.963763
O O8 0.800172 0.750000 0.160141
O O9 0.714515 0.509971 0.186000
O O10 0.664891 0.250000 0.601716
O O11 0.696647 0.035918 0.733107
O O12 0.629542 0.982386 0.568342
O O13 0.768627 0.250000 0.801257
O O14 0.676893 0.038927 0.981841
O O15 0.452875 0.250000 0.447865
O O16 0.545329 0.061336 0.243132
O O17 0.500000 0.000000 0.500000
O O18 0.684622 0.250000 0.136589
#
# Coordination Sequence:
#
# PCOD8070711 Si02
#       7
#     4   4   4   4   4   4   4
#     4  10  20  34  51  73 106 144 174 208 261 312
#     4   9  19  34  52  76 106 138 173 215 259 304
#     4  10  19  31  51  80 107 133 173 219 258 302
#     4  10  22  38  55  77 106 139 174 213 256 305
#     4   9  19  37  57  77 103 136 175 214 254 305
#     4  11  23  38  57  81 107 136 170 210 259 311
#     4   9  19  36  56  76 103 139 172 208 260 313
#
# _framework density 19.144323
#
# number of rings (size 3 to 8) (size 9 to 14) (size 15 to 20)
#    0.000    2.286    0.000    2.143    0.000    8.000 
#    0.000    0.000    0.000    0.000    0.000    0.000 
#    0.000    0.000    0.000    0.000    0.000    0.000 
#
# Total GULP energy -347295.211728 kJ/mol
# GULP energy per Si atom -12403.400419 kJ/mol
# Density = 1.910075 g / cm^3
# Si number density = 19.144323 Si / 1000 Ang^3
#
#
#
# Elastic Constant Matrix: (Units=GPa)
#
#
# Indices 1 2 3 4 5 6 
#
# 1 104.8047 53.9636 51.6300 0.0000 4.8341 0.0000
# 2 53.9636 83.6000 40.4425 0.0000 5.3313 0.0000
# 3 51.6300 40.4425 74.7539 0.0000 -1.4202 0.0000
# 4 0.0000 0.0000 0.0000 23.1553 0.0000 -0.4502
# 5 4.8341 5.3313 -1.4202 0.0000 34.6565 0.0000
# 6 0.0000 0.0000 0.0000 -0.4502 0.0000 35.5277
#
#
#
# Elastic Compliance Matrix: (Units=1/GPa)
#
#
# Indices 1 2 3 4 5 6 
#
# 1 0.017284 -0.007127 -0.008113 0.000000 -0.001647 0.000000
# 2 -0.007127 0.019428 -0.005631 0.000000 -0.002225 0.000000
# 3 -0.008113 -0.005631 0.022082 0.000000 0.002903 0.000000
# 4 0.000000 0.000000 0.000000 0.043197 0.000000 0.000547
# 5 -0.001647 -0.002225 0.002903 0.000000 0.029546 0.000000
# 6 0.000000 0.000000 0.000000 0.000547 0.000000 0.028154
#
#
# Mechanical properties :
#
#
# Convention : Reuss Voigt Hill
#
# Bulk Modulus (GPa) = 58.64163 61.69230 60.16696
# Shear Modulus (GPa) = 24.14109 26.47607 25.30858
#
# Velocity S-wave (km/s) = 3.55492 3.72287 3.63986
# Velocity P-wave (km/s) = 6.89549 7.12562 7.01150
#
# Compressibility (1/GPa) = 0.01705273
#
# Stress axis : x y z
#
# Youngs Moduli (GPa) = 57.85756 51.47228 45.28600
#
# Poissons Ratio (x) = 0.36684 0.36740
# Poissons Ratio (y) = 0.41235 0.25499
# Poissons Ratio (z) = 0.46939 0.28982
#
# Static dielectric constant tensor:
#      x y z
#    x 3.426260 0.000000 -0.054560 
#    y 0.000000 3.529470 0.000000 
#    z -0.054560 0.000000 3.668550 
# 
# 
# High freq. dielectric constant tensor:
#      x y z
#    x 1.739730 0.000000 -0.005300 
#    y 0.000000 1.744240 0.000000 
#    z -0.005300 0.000000 1.747050 
# 
# From -- ./inp_files/37467.got.cif
#   From: 2010.06.25/outbox.cif.g09.slc.cpg/sg11_19_cif.got.tgz:37467.got - 2010.06.27 23:14:04.
