data_PCOD8070854
_publ_section_title
;
Structure prediction by ZEFSAII (Michael W. Deem and Ramdas Pophale) SiO2 
 PCOD8070854
Probable space group: P 21/M
;
_chemical_formula_sum "Si O2"
_cell_formula_units_Z 32
_cell_length_a 32.109076
_cell_length_b 8.902486
_cell_length_c 11.714808
_cell_angle_alpha 90.000000
_cell_angle_beta 148.670798
_cell_angle_gamma 90.000000
_cell_volume 1741.163903
_symmetry_space_group_name_H-M "P 21/M"
_symmetry_group_IT_number 11
_symmetry_cell_setting 'monoclinic'
loop_
_space_group_symop_operation_xyz
x,y,z
-x,1/2+y,-z
-x,-y,-z
x,1/2-y,z
loop_
_atom_site_type_symbol
_atom_site_label
_atom_site_fract_x
_atom_site_fract_y
_atom_site_fract_z
Si Si1 0.863542 0.574529 0.669080
Si Si2 0.780824 0.427169 0.141068
Si Si3 0.574109 0.926437 0.035977
Si Si4 0.059154 0.571720 0.358315
Si Si5 0.105031 0.928514 0.016483
Si Si6 0.298062 0.422863 0.842077
Si Si7 0.756785 0.428122 0.831764
Si Si8 0.604239 0.427155 0.339819
O O1 0.885655 0.750000 0.727541
O O2 0.927356 0.491592 0.737316
O O3 0.867181 0.501314 0.800881
O O4 0.774723 0.546788 0.414444
O O5 0.774888 0.250000 0.125184
O O6 0.868008 0.478576 0.389544
O O7 0.711837 0.485588 0.064249
O O8 0.767052 0.495453 0.982937
O O9 0.583673 0.750000 0.077989
O O10 0.481256 0.974092 0.806095
O O11 0.620724 0.976596 0.030729
O O12 0.614773 0.005039 0.239195
O O13 0.049074 0.750000 0.329091
O O14 0.979727 0.495350 0.222734
O O15 0.099935 0.750000 0.017622
O O16 0.168442 0.978871 0.069436
O O17 0.302785 0.250000 0.887938
O O18 0.752896 0.250000 0.829469
O O19 0.674293 0.491237 0.584803
O O20 0.611610 0.250000 0.344162
#
# Coordination Sequence:
#
# PCOD8070854 Si02
#       8
#     4   4   4   4   4   4   4   4
#     4  10  19  32  50  72 100 129 158 195 240 289
#     4   9  19  36  54  69  91 127 168 205 236 278
#     4   9  17  30  50  77 106 130 155 193 240 286
#     4  10  20  34  51  71  95 124 161 202 243 286
#     4  11  21  32  49  72  98 126 158 199 245 292
#     4   9  18  32  50  73 100 129 160 197 242 285
#     4   9  19  35  52  71  96 128 165 201 239 282
#     4   9  17  31  52  75 101 132 161 192 234 286
#
# _framework density 18.378511
#
# number of rings (size 3 to 8) (size 9 to 14) (size 15 to 20)
#    0.000    2.500    0.000    2.250    0.000    2.000 
#    0.000    3.125    0.000    0.000    0.000    0.000 
#    0.000    0.000    0.000    0.000    0.000    0.000 
#
# Total GULP energy -396828.508453 kJ/mol
# GULP energy per Si atom -12400.890889 kJ/mol
# Density = 1.833668 g / cm^3
# Si number density = 18.378511 Si / 1000 Ang^3
#
#
#
# Elastic Constant Matrix: (Units=GPa)
#
#
# Indices 1 2 3 4 5 6 
#
# 1 157.7188 32.0220 91.3308 0.0000 -2.7496 0.0000
# 2 32.0220 41.1360 29.0846 0.0000 -1.6481 0.0000
# 3 91.3308 29.0846 102.2929 0.0000 -0.2235 0.0000
# 4 0.0000 0.0000 0.0000 19.3882 0.0000 1.5665
# 5 -2.7496 -1.6481 -0.2235 0.0000 30.7027 0.0000
# 6 0.0000 0.0000 0.0000 1.5665 0.0000 25.5076
#
#
#
# Elastic Compliance Matrix: (Units=1/GPa)
#
#
# Indices 1 2 3 4 5 6 
#
# 1 0.013352 -0.002412 -0.011233 0.000000 0.000985 0.000000
# 2 -0.002412 0.030938 -0.006640 0.000000 0.001396 0.000000
# 3 -0.011233 -0.006640 0.021691 0.000000 -0.001205 0.000000
# 4 0.000000 0.000000 0.000000 0.051835 0.000000 -0.003183
# 5 0.000985 0.001396 -0.001205 0.000000 0.032725 0.000000
# 6 0.000000 0.000000 0.000000 -0.003183 0.000000 0.039400
#
#
# Mechanical properties :
#
#
# Convention : Reuss Voigt Hill
#
# Bulk Modulus (GPa) = 39.35431 67.33584 53.34508
# Shear Modulus (GPa) = 20.92219 25.03371 22.97795
#
# Velocity S-wave (km/s) = 3.37769 3.69469 3.53974
# Velocity P-wave (km/s) = 6.05569 7.41073 6.76721
#
# Compressibility (1/GPa) = 0.02541018
#
# Stress axis : x y z
#
# Youngs Moduli (GPa) = 74.89373 32.32286 46.10282
#
# Poissons Ratio (x) = 0.07797 0.51789
# Poissons Ratio (y) = 0.18065 0.30611
# Poissons Ratio (z) = 0.84131 0.21462
#
# Static dielectric constant tensor:
#      x y z
#    x 3.531440 0.000000 0.078100 
#    y 0.000000 3.258860 0.000000 
#    z 0.078100 0.000000 3.568470 
# 
# 
# High freq. dielectric constant tensor:
#      x y z
#    x 1.714020 0.000000 0.009370 
#    y 0.000000 1.700810 0.000000 
#    z 0.009370 0.000000 1.710080 
# 
# From -- ./inp_files/45348.got.cif
#   From: 2010.06.25/outbox.cif.g09.slc.cpg/sg11_23_cif.got.tgz:45348.got - 2010.06.27 23:14:04.
