data_PCOD8070125
_publ_section_title
;
Structure prediction by ZEFSAII (Michael W. Deem and Ramdas Pophale) SiO2 
 PCOD8070125
Probable space group: P 21/M
;
_chemical_formula_sum "Si O2"
_cell_formula_units_Z 32
_cell_length_a 15.796605
_cell_length_b 10.068305
_cell_length_c 28.133202
_cell_angle_alpha 90.000000
_cell_angle_beta 154.537248
_cell_angle_gamma 90.000000
_cell_volume 1923.672840
_symmetry_space_group_name_H-M "P 21/M"
_symmetry_group_IT_number 11
_symmetry_cell_setting 'monoclinic'
loop_
_space_group_symop_operation_xyz
x,y,z
-x,1/2+y,-z
-x,-y,-z
x,1/2-y,z
loop_
_atom_site_type_symbol
_atom_site_label
_atom_site_fract_x
_atom_site_fract_y
_atom_site_fract_z
Si Si1 0.719012 0.094045 0.799243
Si Si2 0.608545 0.901628 0.826368
Si Si3 0.685222 0.902483 0.146503
Si Si4 0.895899 0.596325 0.055727
Si Si5 0.971286 0.603168 0.374446
Si Si6 0.215201 0.461316 0.625972
Si Si7 0.323909 0.403919 0.965571
Si Si8 0.294734 0.107945 0.565686
O O1 0.747322 0.250000 0.827700
O O2 0.521068 0.075140 0.667056
O O3 0.901437 0.033953 0.861436
O O4 0.707017 0.003533 0.839841
O O5 0.649603 0.750000 0.831223
O O6 0.371726 0.918651 0.711429
O O7 0.709061 0.934080 0.927642
O O8 0.615907 0.750000 0.120213
O O9 0.864981 0.939954 0.272101
O O10 0.759220 0.920649 0.129842
O O11 0.511433 0.003783 0.069262
O O12 0.941234 0.750000 0.081389
O O13 0.843303 0.546424 0.082250
O O14 0.061901 0.750000 0.415250
O O15 0.811272 0.607227 0.336194
O O16 0.151892 0.505165 0.474687
O O17 0.296217 0.371606 0.624032
O O18 0.000000 0.500000 0.500000
O O19 0.383568 0.250000 0.005772
O O20 0.230248 0.250000 0.510884
#
# Coordination Sequence:
#
# PCOD8070125 Si02
#       8
#     4   4   4   4   4   4   4   4
#     4   9  18  32  47  65  92 121 150 186 226 264
#     4  10  19  30  46  68  92 119 154 188 219 262
#     4   9  18  31  47  70  96 118 145 184 229 270
#     4   9  17  30  49  70  90 117 153 188 221 264
#     4  10  19  30  46  67  91 119 150 187 228 267
#     4   9  18  28  41  62  91 120 147 179 218 259
#     4   9  17  31  50  69  91 121 152 181 219 270
#     4   9  18  30  44  63  87 118 153 185 220 266
#
# _framework density 16.634844999999999
#
# number of rings (size 3 to 8) (size 9 to 14) (size 15 to 20)
#    0.000    2.750    0.000    1.500    0.000    7.500 
#    0.000    1.250    0.000    0.750    0.000    0.000 
#    0.000    0.000    0.000    0.000    0.000    0.000 
#
# Total GULP energy -396440.144768 kJ/mol
# GULP energy per Si atom -12388.754524 kJ/mol
# Density = 1.659698 g / cm^3
# Si number density = 16.634845 Si / 1000 Ang^3
#
#
#
# Elastic Constant Matrix: (Units=GPa)
#
#
# Indices 1 2 3 4 5 6 
#
# 1 103.4645 37.3289 61.2482 0.0000 4.6101 0.0000
# 2 37.3289 74.9754 45.4605 0.0000 -3.8413 0.0000
# 3 61.2482 45.4605 106.2672 0.0000 2.9153 0.0000
# 4 0.0000 0.0000 0.0000 24.5828 0.0000 -1.0278
# 5 4.6101 -3.8413 2.9153 0.0000 25.7243 0.0000
# 6 0.0000 0.0000 0.0000 -1.0278 0.0000 16.3643
#
#
#
# Elastic Compliance Matrix: (Units=1/GPa)
#
#
# Indices 1 2 3 4 5 6 
#
# 1 0.015311 -0.003288 -0.007352 0.000000 -0.002402 0.000000
# 2 -0.003288 0.019049 -0.006368 0.000000 0.004155 0.000000
# 3 -0.007352 -0.006368 0.016413 0.000000 -0.001493 0.000000
# 4 0.000000 0.000000 0.000000 0.040786 0.000000 0.002562
# 5 -0.002402 0.004155 -0.001493 0.000000 0.040094 0.000000
# 6 0.000000 0.000000 0.000000 0.002562 0.000000 0.061270
#
#
# Mechanical properties :
#
#
# Convention : Reuss Voigt Hill
#
# Bulk Modulus (GPa) = 59.67891 63.64249 61.66070
# Shear Modulus (GPa) = 21.50329 22.71225 22.10777
#
# Velocity S-wave (km/s) = 3.59927 3.69906 3.64951
# Velocity P-wave (km/s) = 7.29566 7.52235 7.40987
#
# Compressibility (1/GPa) = 0.01675634
#
# Stress axis : x y z
#
# Youngs Moduli (GPa) = 65.31413 52.49684 60.92862
#
# Poissons Ratio (x) = 0.17262 0.44794
# Poissons Ratio (y) = 0.21477 0.38798
# Poissons Ratio (z) = 0.48018 0.33429
#
# Static dielectric constant tensor:
#      x y z
#    x 3.514750 0.000000 0.131580 
#    y 0.000000 3.054180 0.000000 
#    z 0.131580 0.000000 3.131330 
# 
# 
# High freq. dielectric constant tensor:
#      x y z
#    x 1.627210 0.000000 0.003500 
#    y 0.000000 1.634590 0.000000 
#    z 0.003500 0.000000 1.634280 
# 
# From -- ./inp_files/71648.got.cif
#   From: 2010.06.25/outbox.cif.g09.slc.cpg/sg11_36_cif.got.tgz:71648.got - 2010.06.27 23:14:04.
