data_PCOD8070085
_publ_section_title
;
Structure prediction by ZEFSAII (Michael W. Deem and Ramdas Pophale) SiO2 
 PCOD8070085
Probable space group: P 21/M
;
_chemical_formula_sum "Si O2"
_cell_formula_units_Z 28
_cell_length_a 11.879354
_cell_length_b 9.071617
_cell_length_c 20.818835
_cell_angle_alpha 90.000000
_cell_angle_beta 53.805761
_cell_angle_gamma 90.000000
_cell_volume 1810.581531
_symmetry_space_group_name_H-M "P 21/M"
_symmetry_group_IT_number 11
_symmetry_cell_setting 'monoclinic'
loop_
_space_group_symop_operation_xyz
x,y,z
-x,1/2+y,-z
-x,-y,-z
x,1/2-y,z
loop_
_atom_site_type_symbol
_atom_site_label
_atom_site_fract_x
_atom_site_fract_y
_atom_site_fract_z
Si Si1 0.094565 0.924881 0.414533
Si Si2 0.623924 0.922013 0.494803
Si Si3 0.675587 0.083738 0.236251
Si Si4 0.630145 0.920156 0.642553
Si Si5 0.089848 0.423202 0.785877
Si Si6 0.944936 0.083610 0.079976
Si Si7 0.077824 0.076077 0.647632
O O1 0.085113 0.750000 0.426538
O O2 0.038290 0.977130 0.363879
O O3 0.253465 0.976913 0.365370
O O4 0.000000 0.000000 0.500000
O O5 0.613564 0.750000 0.483327
O O6 0.612136 0.955055 0.573991
O O7 0.771030 0.989992 0.421345
O O8 0.500000 0.000000 0.500000
O O9 0.673946 0.250000 0.265711
O O10 0.517071 0.037840 0.273654
O O11 0.774297 0.079611 0.138975
O O12 0.747119 0.974745 0.264534
O O13 0.671895 0.750000 0.639789
O O14 0.079398 0.250000 0.800993
O O15 0.001253 0.505750 0.871886
O O16 0.032613 0.470285 0.735041
O O17 0.002053 0.250000 0.058952
O O18 0.000000 0.000000 0.000000
O O19 0.092730 0.250000 0.638370
#
# Coordination Sequence:
#
# PCOD8070085 Si02
#       7
#     4   4   4   4   4   4   4
#     4  11  21  35  50  66  89 126 173 213 245 281
#     4  10  19  30  45  64  91 123 158 196 238 281
#     4   8  17  30  46  69 100 126 150 189 237 284
#     4  10  19  34  49  65  94 128 161 204 245 278
#     4   9  16  28  48  70  96 126 155 188 232 284
#     4   9  17  30  48  73 101 128 152 184 232 288
#     4   9  18  32  46  63  93 126 158 200 241 275
#
# _framework density 15.464644
#
# number of rings (size 3 to 8) (size 9 to 14) (size 15 to 20)
#    0.857    1.714    1.429    1.714    0.000    1.143 
#    0.000    2.857    0.000    0.000    0.000    1.000 
#    0.000    0.000    0.000    0.000    0.000    0.000 
#
# Total GULP energy -346917.693367 kJ/mol
# GULP energy per Si atom -12389.917620 kJ/mol
# Density = 1.542945 g / cm^3
# Si number density = 15.464644 Si / 1000 Ang^3
#
#
#
# Elastic Constant Matrix: (Units=GPa)
#
#
# Indices 1 2 3 4 5 6 
#
# 1 110.6596 44.9045 50.4951 0.0000 11.4443 0.0000
# 2 44.9045 74.1044 44.6108 0.0000 8.8009 0.0000
# 3 50.4951 44.6108 101.4049 0.0000 12.7263 0.0000
# 4 0.0000 0.0000 0.0000 22.8928 0.0000 -1.7173
# 5 11.4443 8.8009 12.7263 0.0000 15.9057 0.0000
# 6 0.0000 0.0000 0.0000 -1.7173 0.0000 24.9166
#
#
#
# Elastic Compliance Matrix: (Units=1/GPa)
#
#
# Indices 1 2 3 4 5 6 
#
# 1 0.013323 -0.005340 -0.003838 0.000000 -0.003560 0.000000
# 2 -0.005340 0.020741 -0.006122 0.000000 -0.002736 0.000000
# 3 -0.003838 -0.006122 0.015223 0.000000 -0.006031 0.000000
# 4 0.000000 0.000000 0.000000 0.043909 0.000000 0.003026
# 5 -0.003560 -0.002736 -0.006031 0.000000 0.071772 0.000000
# 6 0.000000 0.000000 0.000000 0.003026 0.000000 0.040343
#
#
# Mechanical properties :
#
#
# Convention : Reuss Voigt Hill
#
# Bulk Modulus (GPa) = 53.51526 62.90996 58.21261
# Shear Modulus (GPa) = 20.64929 22.48690 21.56810
#
# Velocity S-wave (km/s) = 3.65808 3.81738 3.73858
# Velocity P-wave (km/s) = 7.24721 7.75874 7.50734
#
# Compressibility (1/GPa) = 0.01868626
#
# Stress axis : x y z
#
# Youngs Moduli (GPa) = 75.05649 48.21465 65.69042
#
# Poissons Ratio (x) = 0.25746 0.25215
# Poissons Ratio (y) = 0.40079 0.40216
# Poissons Ratio (z) = 0.28810 0.29517
#
# Static dielectric constant tensor:
#      x y z
#    x 2.992420 0.000000 0.033000 
#    y 0.000000 2.917580 0.000000 
#    z 0.033000 0.000000 2.906660 
# 
# 
# High freq. dielectric constant tensor:
#      x y z
#    x 1.572930 0.000000 0.001430 
#    y 0.000000 1.592480 0.000000 
#    z 0.001430 0.000000 1.578630 
# 
# From -- ./inp_files/64072.got.cif
#   From: 2010.06.25/outbox.cif.g09.slc.cpg/sg11_33_cif.got.tgz:64072.got - 2010.06.27 23:14:04.
