data_PCOD8070823
_publ_section_title
;
Structure prediction by ZEFSAII (Michael W. Deem and Ramdas Pophale) SiO2 
 PCOD8070823
Probable space group: P 21/M
;
_chemical_formula_sum "Si O2"
_cell_formula_units_Z 32
_cell_length_a 20.968246
_cell_length_b 8.753147
_cell_length_c 12.620685
_cell_angle_alpha 90.000000
_cell_angle_beta 126.356287
_cell_angle_gamma 90.000000
_cell_volume 1865.485691
_symmetry_space_group_name_H-M "P 21/M"
_symmetry_group_IT_number 11
_symmetry_cell_setting 'monoclinic'
loop_
_space_group_symop_operation_xyz
x,y,z
-x,1/2+y,-z
-x,-y,-z
x,1/2-y,z
loop_
_atom_site_type_symbol
_atom_site_label
_atom_site_fract_x
_atom_site_fract_y
_atom_site_fract_z
Si Si1 0.680883 0.071026 0.476064
Si Si2 0.415595 0.573068 0.028503
Si Si3 0.837856 0.571976 0.707215
Si Si4 0.585651 0.929668 0.571524
Si Si5 0.005482 0.572142 0.119617
Si Si6 0.402212 0.073394 0.796224
Si Si7 0.831065 0.575272 0.949851
Si Si8 0.322932 0.572401 0.146817
O O1 0.673924 0.250000 0.489731
O O2 0.771085 0.019028 0.578477
O O3 0.623663 0.984137 0.500045
O O4 0.653996 0.030150 0.331267
O O5 0.403595 0.750000 0.987156
O O6 0.386368 0.470974 0.902183
O O7 0.506957 0.539165 0.145361
O O8 0.363881 0.523685 0.078057
O O9 0.829504 0.750000 0.674305
O O10 0.923324 0.512568 0.748094
O O11 0.830139 0.536134 0.824161
O O12 0.576857 0.750000 0.557668
O O13 0.500000 0.000000 0.500000
O O14 0.641189 0.974166 0.723299
O O15 0.025891 0.750000 0.129729
O O16 0.000000 0.500000 0.000000
O O17 0.918634 0.548233 0.086627
O O18 0.380752 0.250000 0.758209
O O19 0.804825 0.750000 0.940552
O O20 0.770391 0.465313 0.951694
O O21 0.336755 0.750000 0.184298
#
# Coordination Sequence:
#
# PCOD8070823 Si02
#       8
#     4   4   4   4   4   4   4   4
#     4  12  23  35  53  76 104 138 173 211 259 309
#     4   9  20  37  54  75 101 130 171 219 261 305
#     4  10  19  32  49  72 103 136 171 213 255 303
#     4  12  24  37  51  71 103 138 175 211 253 309
#     4   9  17  29  46  68  98 135 173 210 253 302
#     4  10  20  36  57  76  99 132 172 220 265 304
#     4   9  18  31  47  70 103 138 171 211 252 300
#     4  11  21  33  52  76 104 138 173 211 257 305
#
# _framework density 17.153708999999999
#
# number of rings (size 3 to 8) (size 9 to 14) (size 15 to 20)
#    0.000    1.750    1.250    5.250    0.000    5.000 
#    0.000    0.000    0.000    0.000    0.000    0.875 
#    0.000    0.000    0.000    0.000    0.000    0.000 
#
# Total GULP energy -396850.651621 kJ/mol
# GULP energy per Si atom -12401.582863 kJ/mol
# Density = 1.711467 g / cm^3
# Si number density = 17.153709 Si / 1000 Ang^3
#
#
#
# Elastic Constant Matrix: (Units=GPa)
#
#
# Indices 1 2 3 4 5 6 
#
# 1 56.3270 24.9765 37.3893 0.0000 11.1419 0.0000
# 2 24.9765 96.3231 34.7075 0.0000 4.2726 0.0000
# 3 37.3893 34.7075 79.1385 0.0000 12.3853 0.0000
# 4 0.0000 0.0000 0.0000 27.5838 0.0000 5.8372
# 5 11.1419 4.2726 12.3853 0.0000 25.4056 0.0000
# 6 0.0000 0.0000 0.0000 5.8372 0.0000 28.4589
#
#
#
# Elastic Compliance Matrix: (Units=1/GPa)
#
#
# Indices 1 2 3 4 5 6 
#
# 1 0.027393 -0.002988 -0.010642 0.000000 -0.006323 0.000000
# 2 -0.002988 0.012665 -0.004346 0.000000 0.001299 0.000000
# 3 -0.010642 -0.004346 0.020272 0.000000 -0.004484 0.000000
# 4 0.000000 0.000000 0.000000 0.037898 0.000000 -0.007773
# 5 -0.006323 0.001299 -0.004484 0.000000 0.044102 0.000000
# 6 0.000000 0.000000 0.000000 -0.007773 0.000000 0.036733
#
#
# Mechanical properties :
#
#
# Convention : Reuss Voigt Hill
#
# Bulk Modulus (GPa) = 41.02097 47.32615 44.17356
# Shear Modulus (GPa) = 22.40735 25.27067 23.83901
#
# Velocity S-wave (km/s) = 3.61815 3.84238 3.73195
# Velocity P-wave (km/s) = 6.43587 6.88001 6.66164
#
# Compressibility (1/GPa) = 0.02437777
#
# Stress axis : x y z
#
# Youngs Moduli (GPa) = 36.50534 78.95867 49.32964
#
# Poissons Ratio (x) = 0.23593 0.52497
# Poissons Ratio (y) = 0.10908 0.21439
# Poissons Ratio (z) = 0.38849 0.34315
#
# Static dielectric constant tensor:
#      x y z
#    x 3.364800 0.000000 0.363970 
#    y 0.000000 3.337220 0.000000 
#    z 0.363970 0.000000 3.170150 
# 
# 
# High freq. dielectric constant tensor:
#      x y z
#    x 1.648930 0.000000 0.025660 
#    y 0.000000 1.677630 0.000000 
#    z 0.025660 0.000000 1.642780 
# 
# From -- ./inp_files/42873.got.cif
#   From: 2010.06.25/outbox.cif.g09.slc.cpg/sg11_22_cif.got.tgz:42873.got - 2010.06.27 23:14:04.
