data_PCOD8070618
_publ_section_title
;
Structure prediction by ZEFSAII (Michael W. Deem and Ramdas Pophale) SiO2 
 PCOD8070618
Probable space group: P 21/M
;
_chemical_formula_sum "Si O2"
_cell_formula_units_Z 28
_cell_length_a 7.026394
_cell_length_b 20.585760
_cell_length_c 13.210988
_cell_angle_alpha 90.000000
_cell_angle_beta 54.354535
_cell_angle_gamma 90.000000
_cell_volume 1552.859417
_symmetry_space_group_name_H-M "P 21/M"
_symmetry_group_IT_number 11
_symmetry_cell_setting 'monoclinic'
loop_
_space_group_symop_operation_xyz
x,y,z
-x,1/2+y,-z
-x,-y,-z
x,1/2-y,z
loop_
_atom_site_type_symbol
_atom_site_label
_atom_site_fract_x
_atom_site_fract_y
_atom_site_fract_z
Si Si1 0.193649 0.979425 0.638137
Si Si2 0.460636 0.675311 0.220955
Si Si3 0.157716 0.112592 0.758623
Si Si4 0.672909 0.537190 0.807759
Si Si5 0.927716 0.824178 0.422690
Si Si6 0.636376 0.403151 0.933764
Si Si7 0.352381 0.060525 0.413999
O O1 0.400977 0.929614 0.602575
O O2 0.946563 0.944206 0.731829
O O3 0.227562 0.041570 0.699294
O O4 0.207783 0.003656 0.516895
O O5 0.530697 0.750000 0.208117
O O6 0.653788 0.633381 0.217973
O O7 0.460264 0.656555 0.102490
O O8 0.204616 0.661726 0.347938
O O9 0.154408 0.162856 0.666527
O O10 0.900604 0.110189 0.889664
O O11 0.627577 0.465262 0.862633
O O12 0.592283 0.539631 0.717039
O O13 0.525207 0.588982 0.917890
O O14 0.868467 0.750000 0.469606
O O15 0.789545 0.871686 0.541553
#
# Coordination Sequence:
#
# PCOD8070618 Si02
#       7
#     4   4   4   4   4   4   4
#     4   9  19  31  50  79 102 125 162 202 247 302
#     4  10  19  33  54  75  98 130 166 205 245 286
#     4   9  17  32  52  75 100 125 158 205 252 290
#     4  10  19  34  52  72 102 134 160 201 251 291
#     4   9  19  33  49  73  99 127 167 205 241 293
#     4   9  20  34  51  75 100 128 167 204 240 293
#     4  10  19  31  50  74 103 133 161 202 249 293
#
# _framework density 18.031251999999999
#
# number of rings (size 3 to 8) (size 9 to 14) (size 15 to 20)
#    0.000    2.571    0.000    2.571    0.000    5.143 
#    0.000    5.000    0.000    2.571    0.000    0.000 
#    0.000    0.000    0.000    0.000    0.000    0.000 
#
# Total GULP energy -347195.655995 kJ/mol
# GULP energy per Si atom -12399.844857 kJ/mol
# Density = 1.799021 g / cm^3
# Si number density = 18.031252 Si / 1000 Ang^3
#
#
#
# Elastic Constant Matrix: (Units=GPa)
#
#
# Indices 1 2 3 4 5 6 
#
# 1 103.5030 34.0364 46.0990 0.0000 -2.4658 0.0000
# 2 34.0364 53.1178 28.4761 0.0000 0.7780 0.0000
# 3 46.0990 28.4761 113.2278 0.0000 -4.6661 0.0000
# 4 0.0000 0.0000 0.0000 19.2156 0.0000 -6.7302
# 5 -2.4658 0.7780 -4.6661 0.0000 21.1516 0.0000
# 6 0.0000 0.0000 0.0000 -6.7302 0.0000 23.6571
#
#
#
# Elastic Compliance Matrix: (Units=1/GPa)
#
#
# Indices 1 2 3 4 5 6 
#
# 1 0.013575 -0.006671 -0.003808 0.000000 0.000988 0.000000
# 2 -0.006671 0.025125 -0.003706 0.000000 -0.002520 0.000000
# 3 -0.003808 -0.003706 0.011405 0.000000 0.002208 0.000000
# 4 0.000000 0.000000 0.000000 0.057800 0.000000 0.016444
# 5 0.000988 -0.002520 0.002208 0.000000 0.047973 0.000000
# 6 0.000000 0.000000 0.000000 0.016444 0.000000 0.046949
#
#
# Mechanical properties :
#
#
# Convention : Reuss Voigt Hill
#
# Bulk Modulus (GPa) = 46.01298 54.11906 50.06602
# Shear Modulus (GPa) = 20.96931 23.55400 22.26166
#
# Velocity S-wave (km/s) = 3.41389 3.61818 3.51752
# Velocity P-wave (km/s) = 6.41197 6.89450 6.65761
#
# Compressibility (1/GPa) = 0.02173300
#
# Stress axis : x y z
#
# Youngs Moduli (GPa) = 73.66398 39.80133 87.67758
#
# Poissons Ratio (x) = 0.26553 0.33391
# Poissons Ratio (y) = 0.49144 0.32497
# Poissons Ratio (z) = 0.28054 0.14752
#
# Static dielectric constant tensor:
#      x y z
#    x 3.334320 0.000000 -0.175730 
#    y 0.000000 3.182150 0.000000 
#    z -0.175730 0.000000 3.266560 
# 
# 
# High freq. dielectric constant tensor:
#      x y z
#    x 1.708860 0.000000 -0.008120 
#    y 0.000000 1.673060 0.000000 
#    z -0.008120 0.000000 1.682390 
# 
# From -- ./inp_files/29872.got.cif
#   From: 2010.06.25/outbox.cif.g09.slc.cpg/sg11_15_cif.got.tgz:29872.got - 2010.06.27 23:14:04.
