data_PCOD8070720
_publ_section_title
;
Structure prediction by ZEFSAII (Michael W. Deem and Ramdas Pophale) SiO2 
 PCOD8070720
Probable space group: P 21/M
;
_chemical_formula_sum "Si O2"
_cell_formula_units_Z 28
_cell_length_a 27.927851
_cell_length_b 9.388568
_cell_length_c 5.285512
_cell_angle_alpha 90.000000
_cell_angle_beta 71.974263
_cell_angle_gamma 90.000000
_cell_volume 1317.852573
_symmetry_space_group_name_H-M "P 21/M"
_symmetry_group_IT_number 11
_symmetry_cell_setting 'monoclinic'
loop_
_space_group_symop_operation_xyz
x,y,z
-x,1/2+y,-z
-x,-y,-z
x,1/2-y,z
loop_
_atom_site_type_symbol
_atom_site_label
_atom_site_fract_x
_atom_site_fract_y
_atom_site_fract_z
Si Si1 0.717288 0.081246 0.451792
Si Si2 0.365154 0.093564 0.176744
Si Si3 0.426958 0.588586 0.780685
Si Si4 0.111030 0.581341 0.316695
Si Si5 0.776606 0.082159 0.860377
Si Si6 0.466893 0.405809 0.279773
Si Si7 0.947736 0.080691 0.088161
O O1 0.705952 0.250000 0.464171
O O2 0.750168 0.037555 0.642978
O O3 0.666021 0.990589 0.558062
O O4 0.745431 0.026928 0.153908
O O5 0.341352 0.250000 0.159690
O O6 0.423810 0.110753 0.142846
O O7 0.373341 0.992827 0.918625
O O8 0.409127 0.750000 0.782969
O O9 0.451463 0.535250 0.484119
O O10 0.474045 0.572105 0.910937
O O11 0.114493 0.750000 0.316332
O O12 0.167303 0.515565 0.225390
O O13 0.082054 0.528691 0.614203
O O14 0.082877 0.530736 0.109334
O O15 0.781228 0.250000 0.873825
O O16 0.468449 0.250000 0.419539
O O17 0.956804 0.250000 0.074357
O O18 0.000000 0.000000 0.000000
#
# Coordination Sequence:
#
# PCOD8070720 Si02
#       7
#     4   4   4   4   4   4   4
#     4  10  21  36  57  84 109 138 182 238 290 331
#     4  11  23  37  54  76 108 145 178 219 280 348
#     4  10  20  35  57  81 105 135 178 226 271 330
#     4   9  17  31  54  80 107 147 190 233 279 327
#     4   9  18  35  58  83 109 138 187 243 284 326
#     4   9  20  37  55  78 107 141 176 216 273 340
#     4  10  19  31  51  81 116 150 188 226 275 330
#
# _framework density 21.246684999999999
#
# number of rings (size 3 to 8) (size 9 to 14) (size 15 to 20)
#    0.000    2.286    0.000    2.571    2.000    5.143 
#    0.000    0.000    0.000    5.143    0.000    0.000 
#    0.000    0.000    0.000    0.000    0.000    0.000 
#
# Total GULP energy -346913.213939 kJ/mol
# GULP energy per Si atom -12389.757641 kJ/mol
# Density = 2.119833 g / cm^3
# Si number density = 21.246685 Si / 1000 Ang^3
#
#
#
# Elastic Constant Matrix: (Units=GPa)
#
#
# Indices 1 2 3 4 5 6 
#
# 1 63.5578 27.9486 35.4693 0.0000 -15.2696 0.0000
# 2 27.9486 82.2056 28.4532 0.0000 -20.0711 0.0000
# 3 35.4693 28.4532 138.9103 0.0000 -20.7315 0.0000
# 4 0.0000 0.0000 0.0000 16.7921 0.0000 -6.4224
# 5 -15.2696 -20.0711 -20.7315 0.0000 40.0787 0.0000
# 6 0.0000 0.0000 0.0000 -6.4224 0.0000 20.8111
#
#
#
# Elastic Compliance Matrix: (Units=1/GPa)
#
#
# Indices 1 2 3 4 5 6 
#
# 1 0.020860 -0.004919 -0.003793 0.000000 0.003522 0.000000
# 2 -0.004919 0.015527 -0.001131 0.000000 0.005316 0.000000
# 3 -0.003793 -0.001131 0.008776 0.000000 0.002528 0.000000
# 4 0.000000 0.000000 0.000000 0.067522 0.000000 0.020838
# 5 0.003522 0.005316 0.002528 0.000000 0.030263 0.000000
# 6 0.000000 0.000000 0.000000 0.020838 0.000000 0.054482
#
#
# Mechanical properties :
#
#
# Convention : Reuss Voigt Hill
#
# Bulk Modulus (GPa) = 39.25201 52.04624 45.64912
# Shear Modulus (GPa) = 22.16238 28.38989 25.27614
#
# Velocity S-wave (km/s) = 3.23321 3.65938 3.45287
# Velocity P-wave (km/s) = 5.69673 6.51184 6.11787
#
# Compressibility (1/GPa) = 0.02547640
#
# Stress axis : x y z
#
# Youngs Moduli (GPa) = 47.93910 64.40587 113.94219
#
# Poissons Ratio (x) = 0.31683 0.43220
# Poissons Ratio (y) = 0.23582 0.12885
# Poissons Ratio (z) = 0.18184 0.07283
#
# Static dielectric constant tensor:
#      x y z
#    x 4.044260 0.000000 -0.036560 
#    y 0.000000 3.945250 0.000000 
#    z -0.036560 0.000000 3.934040 
# 
# 
# High freq. dielectric constant tensor:
#      x y z
#    x 1.833310 0.000000 -0.005890 
#    y 0.000000 1.806060 0.000000 
#    z -0.005890 0.000000 1.836380 
# 
# From -- ./inp_files/9593.got.cif
#   From: 2010.06.25/outbox.cif.g09.slc.cpg/sg11_5_cif.got.tgz:9593.got - 2010.06.27 23:14:04.
