data_PCOD8070702
_publ_section_title
;
Structure prediction by ZEFSAII (Michael W. Deem and Ramdas Pophale) SiO2 
 PCOD8070702
Probable space group: P 21/M
;
_chemical_formula_sum "Si O2"
_cell_formula_units_Z 24
_cell_length_a 11.283081
_cell_length_b 8.828911
_cell_length_c 23.969260
_cell_angle_alpha 90.000000
_cell_angle_beta 145.915184
_cell_angle_gamma 90.000000
_cell_volume 1338.143635
_symmetry_space_group_name_H-M "P 21/M"
_symmetry_group_IT_number 11
_symmetry_cell_setting 'monoclinic'
loop_
_space_group_symop_operation_xyz
x,y,z
-x,1/2+y,-z
-x,-y,-z
x,1/2-y,z
loop_
_atom_site_type_symbol
_atom_site_label
_atom_site_fract_x
_atom_site_fract_y
_atom_site_fract_z
Si Si1 0.294168 0.926897 0.354091
Si Si2 0.869894 0.926044 0.820075
Si Si3 0.142983 0.074625 0.009460
Si Si4 0.223538 0.073394 0.441434
Si Si5 0.077282 0.427065 0.586890
Si Si6 0.487204 0.421814 0.227228
O O1 0.255974 0.750000 0.349091
O O2 0.542503 0.963535 0.444654
O O3 0.174697 0.981077 0.252809
O O4 0.196908 0.017310 0.367967
O O5 0.893031 0.750000 0.814845
O O6 0.683328 0.957127 0.791311
O O7 0.093185 0.987862 0.932114
O O8 0.082009 0.250000 0.979102
O O9 0.384269 0.057027 0.125302
O O10 0.000000 0.000000 0.000000
O O11 0.172196 0.250000 0.424112
O O12 0.057323 0.985917 0.414069
O O13 0.045412 0.250000 0.569081
O O14 0.000000 0.500000 0.500000
O O15 0.322458 0.462078 0.692611
O O16 0.570703 0.250000 0.266463
#
# Coordination Sequence:
#
# PCOD8070702 Si02
#       6
#     4   4   4   4   4   4
#     4  10  20  34  54  78 103 133 170 211 253 300
#     4  10  19  31  51  78 106 136 171 211 253 300
#     4   9  17  30  49  73 102 134 168 210 256 302
#     4  10  21  37  55  75 102 135 170 210 255 301
#     4  12  24  36  53  76 104 137 172 209 250 302
#     4   9  19  34  51  74 105 138 171 209 254 302
#
# _framework density 17.935295
#
# number of rings (size 3 to 8) (size 9 to 14) (size 15 to 20)
#    0.000    2.000    0.000    5.500    0.000    8.667 
#    0.000    0.000    0.000    1.000    0.000    0.000 
#    0.000    0.000    0.000    0.000    0.000    0.000 
#
# Total GULP energy -297602.572263 kJ/mol
# GULP energy per Si atom -12400.107178 kJ/mol
# Density = 1.789447 g / cm^3
# Si number density = 17.935295 Si / 1000 Ang^3
#
#
#
# Elastic Constant Matrix: (Units=GPa)
#
#
# Indices 1 2 3 4 5 6 
#
# 1 62.6428 35.8757 38.8365 0.0000 -4.6609 0.0000
# 2 35.8757 101.9707 41.3313 0.0000 1.3573 0.0000
# 3 38.8365 41.3313 113.3853 0.0000 -19.2979 0.0000
# 4 0.0000 0.0000 0.0000 34.8356 0.0000 -4.4882
# 5 -4.6609 1.3573 -19.2979 0.0000 25.1283 0.0000
# 6 0.0000 0.0000 0.0000 -4.4882 0.0000 30.7088
#
#
#
# Elastic Compliance Matrix: (Units=1/GPa)
#
#
# Indices 1 2 3 4 5 6 
#
# 1 0.022773 -0.005707 -0.005693 0.000000 0.000161 0.000000
# 2 -0.005707 0.013380 -0.003711 0.000000 -0.004631 0.000000
# 3 -0.005693 -0.003711 0.013777 0.000000 0.009725 0.000000
# 4 0.000000 0.000000 0.000000 0.029257 0.000000 0.004276
# 5 0.000161 -0.004631 0.009725 0.000000 0.047544 0.000000
# 6 0.000000 0.000000 0.000000 0.004276 0.000000 0.033189
#
#
# Mechanical properties :
#
#
# Convention : Reuss Voigt Hill
#
# Bulk Modulus (GPa) = 50.73616 56.67621 53.70619
# Shear Modulus (GPa) = 25.41792 28.93157 27.17475
#
# Velocity S-wave (km/s) = 3.76866 4.02071 3.89672
# Velocity P-wave (km/s) = 6.87655 7.29546 7.08910
#
# Compressibility (1/GPa) = 0.01970981
#
# Stress axis : x y z
#
# Youngs Moduli (GPa) = 43.91160 74.73654 72.58388
#
# Poissons Ratio (x) = 0.42651 0.41319
# Poissons Ratio (y) = 0.25060 0.26935
# Poissons Ratio (z) = 0.24997 0.27734
#
# Static dielectric constant tensor:
#      x y z
#    x 3.291940 0.000000 -0.171650 
#    y 0.000000 3.352180 0.000000 
#    z -0.171650 0.000000 3.675100 
# 
# 
# High freq. dielectric constant tensor:
#      x y z
#    x 1.663160 0.000000 -0.017730 
#    y 0.000000 1.711940 0.000000 
#    z -0.017730 0.000000 1.702240 
# 
# From -- ./inp_files/42652.got.cif
#   From: 2010.06.25/outbox.cif.g09.slc.cpg/sg11_22_cif.got.tgz:42652.got - 2010.06.27 23:14:04.
