data_PCOD8070706
_publ_section_title
;
Structure prediction by ZEFSAII (Michael W. Deem and Ramdas Pophale) SiO2 
 PCOD8070706
Probable space group: P 21/M
;
_chemical_formula_sum "Si O2"
_cell_formula_units_Z 28
_cell_length_a 29.067809
_cell_length_b 8.848701
_cell_length_c 9.072003
_cell_angle_alpha 90.000000
_cell_angle_beta 141.205566
_cell_angle_gamma 90.000000
_cell_volume 1461.960225
_symmetry_space_group_name_H-M "P 21/M"
_symmetry_group_IT_number 11
_symmetry_cell_setting 'monoclinic'
loop_
_space_group_symop_operation_xyz
x,y,z
-x,1/2+y,-z
-x,-y,-z
x,1/2-y,z
loop_
_atom_site_type_symbol
_atom_site_label
_atom_site_fract_x
_atom_site_fract_y
_atom_site_fract_z
Si Si1 0.999849 0.425724 0.343550
Si Si2 0.565824 0.570740 0.255133
Si Si3 0.158335 0.426330 0.746484
Si Si4 0.289210 0.425801 0.559101
Si Si5 0.158547 0.927688 0.065260
Si Si6 0.300863 0.073174 0.926305
Si Si7 0.566555 0.070885 0.577497
O O1 0.995600 0.250000 0.360017
O O2 0.079259 0.468079 0.470299
O O3 0.000000 0.500000 0.500000
O O4 0.923041 0.474635 0.073710
O O5 0.555646 0.750000 0.240319
O O6 0.641423 0.525868 0.364781
O O7 0.567011 0.498510 0.417531
O O8 0.500000 0.500000 0.000000
O O9 0.161789 0.250000 0.793659
O O10 0.220435 0.470384 0.784754
O O11 0.171423 0.511212 0.932712
O O12 0.272932 0.250000 0.504521
O O13 0.217032 0.509735 0.325145
O O14 0.305520 0.471377 0.767449
O O15 0.168458 0.750000 0.081947
O O16 0.319009 0.250000 0.996983
O O17 0.358026 0.969987 0.154817
O O18 0.556678 0.250000 0.543352
O O19 0.500000 0.000000 0.500000
#
# Coordination Sequence:
#
# PCOD8070706 Si02
#       7
#     4   4   4   4   4   4   4
#     4   8  15  28  47  74 104 137 177 223 272 321
#     4  11  23  40  62  87 115 148 185 227 274 328
#     4   9  17  32  55  78 105 141 181 225 275 327
#     4  10  22  38  55  77 109 146 182 220 269 327
#     4  10  19  31  51  78 108 140 181 229 273 322
#     4  10  21  38  58  81 109 144 186 229 272 325
#     4  12  25  41  62  87 115 146 181 225 275 330
#
# _framework density 19.152367999999999
#
# number of rings (size 3 to 8) (size 9 to 14) (size 15 to 20)
#    0.000    2.000    0.000    3.857    0.000    7.429 
#    0.000    0.714    0.000    0.000    0.000    0.000 
#    0.000    0.000    0.000    0.000    0.000    0.000 
#
# Total GULP energy -347030.410300 kJ/mol
# GULP energy per Si atom -12393.943225 kJ/mol
# Density = 1.910878 g / cm^3
# Si number density = 19.152368 Si / 1000 Ang^3
#
#
#
# Elastic Constant Matrix: (Units=GPa)
#
#
# Indices 1 2 3 4 5 6 
#
# 1 140.0608 48.5411 84.9202 0.0000 9.5753 0.0000
# 2 48.5411 64.3452 62.5695 0.0000 8.2721 0.0000
# 3 84.9202 62.5695 150.8374 0.0000 16.8322 0.0000
# 4 0.0000 0.0000 0.0000 35.5299 0.0000 0.6067
# 5 9.5753 8.2721 16.8322 0.0000 35.9991 0.0000
# 6 0.0000 0.0000 0.0000 0.6067 0.0000 23.7518
#
#
#
# Elastic Compliance Matrix: (Units=1/GPa)
#
#
# Indices 1 2 3 4 5 6 
#
# 1 0.011412 -0.003962 -0.004794 0.000000 0.000117 0.000000
# 2 -0.003962 0.027457 -0.009044 0.000000 -0.001026 0.000000
# 3 -0.004794 -0.009044 0.013406 0.000000 -0.002915 0.000000
# 4 0.000000 0.000000 0.000000 0.028158 0.000000 -0.000719
# 5 0.000117 -0.001026 -0.002915 0.000000 0.029346 0.000000
# 6 0.000000 0.000000 0.000000 -0.000719 0.000000 0.042120
#
#
# Mechanical properties :
#
#
# Convention : Reuss Voigt Hill
#
# Bulk Modulus (GPa) = 59.97671 83.03386 71.50528
# Shear Modulus (GPa) = 25.89908 29.67033 27.78471
#
# Velocity S-wave (km/s) = 3.68131 3.94022 3.81296
# Velocity P-wave (km/s) = 7.03227 8.00930 7.53664
#
# Compressibility (1/GPa) = 0.01667314
#
# Stress axis : x y z
#
# Youngs Moduli (GPa) = 87.62977 36.42100 74.59459
#
# Poissons Ratio (x) = 0.14429 0.35763
# Poissons Ratio (y) = 0.34717 0.67466
# Poissons Ratio (z) = 0.42012 0.32941
#
# Static dielectric constant tensor:
#      x y z
#    x 3.552430 0.000000 0.514830 
#    y 0.000000 3.103640 0.000000 
#    z 0.514830 0.000000 3.859750 
# 
# 
# High freq. dielectric constant tensor:
#      x y z
#    x 1.744360 0.000000 0.023440 
#    y 0.000000 1.745880 0.000000 
#    z 0.023440 0.000000 1.756880 
# 
# From -- ./inp_files/28555.got.cif
#   From: 2010.06.25/outbox.cif.g09.slc.cpg/sg11_15_cif.got.tgz:28555.got - 2010.06.27 23:14:04.
