data_PCOD8070426
_publ_section_title
;
Structure prediction by ZEFSAII (Michael W. Deem and Ramdas Pophale) SiO2 
 PCOD8070426
Probable space group: P 21/M
;
_chemical_formula_sum "Si O2"
_cell_formula_units_Z 24
_cell_length_a 17.971160
_cell_length_b 9.724683
_cell_length_c 10.721931
_cell_angle_alpha 90.000000
_cell_angle_beta 45.734399
_cell_angle_gamma 90.000000
_cell_volume 1341.854641
_symmetry_space_group_name_H-M "P 21/M"
_symmetry_group_IT_number 11
_symmetry_cell_setting 'monoclinic'
loop_
_space_group_symop_operation_xyz
x,y,z
-x,1/2+y,-z
-x,-y,-z
x,1/2-y,z
loop_
_atom_site_type_symbol
_atom_site_label
_atom_site_fract_x
_atom_site_fract_y
_atom_site_fract_z
Si Si1 0.033759 0.089162 0.343512
Si Si2 0.826894 0.507863 0.175894
Si Si3 0.386550 0.599431 0.510535
Si Si4 0.743685 0.901442 0.018199
Si Si5 0.561475 0.404298 0.260891
Si Si6 0.984908 0.898353 0.183406
O O1 0.002213 0.250000 0.392352
O O2 0.157373 0.071652 0.185257
O O3 0.976996 0.024669 0.288990
O O4 0.000000 0.000000 0.500000
O O5 0.735731 0.430658 0.357169
O O6 0.887656 0.601149 0.203613
O O7 0.776518 0.598843 0.125148
O O8 0.907970 0.401350 0.020154
O O9 0.407683 0.750000 0.427118
O O10 0.454443 0.485741 0.357210
O O11 0.420942 0.601945 0.613201
O O12 0.697051 0.750000 0.046258
O O13 0.657992 0.015818 0.084847
O O14 0.554350 0.250000 0.213176
O O15 0.982920 0.750000 0.255259
#
# Coordination Sequence:
#
# PCOD8070426 Si02
#       6
#     4   4   4   4   4   4
#     4  10  21  35  51  70  92 120 156 196 235 277
#     4   9  18  28  45  70  97 127 158 188 226 274
#     4   9  16  26  40  59  89 125 157 188 221 265
#     4   9  17  30  47  67  93 123 154 188 228 273
#     4   9  17  26  39  62  89 120 155 189 227 268
#     4  10  19  31  48  69  96 127 158 193 233 277
#
# _framework density 17.885694000000001
#
# number of rings (size 3 to 8) (size 9 to 14) (size 15 to 20)
#    0.000    2.667    0.000    2.000    0.000   14.000 
#    0.000    0.000    0.000    0.000    0.000    1.167 
#    0.000    0.000    0.000    0.000    0.000    0.000 
#
# Total GULP energy -297455.582290 kJ/mol
# GULP energy per Si atom -12393.982595 kJ/mol
# Density = 1.784499 g / cm^3
# Si number density = 17.885694 Si / 1000 Ang^3
#
#
#
# Elastic Constant Matrix: (Units=GPa)
#
#
# Indices 1 2 3 4 5 6 
#
# 1 49.2416 35.1355 38.8758 0.0000 -16.6641 0.0000
# 2 35.1355 173.6672 67.3223 0.0000 -14.1771 0.0000
# 3 38.8758 67.3223 85.3252 0.0000 -14.9746 0.0000
# 4 0.0000 0.0000 0.0000 26.0464 0.0000 0.8768
# 5 -16.6641 -14.1771 -14.9746 0.0000 24.9131 0.0000
# 6 0.0000 0.0000 0.0000 0.8768 0.0000 10.7038
#
#
#
# Elastic Compliance Matrix: (Units=1/GPa)
#
#
# Indices 1 2 3 4 5 6 
#
# 1 0.036920 -0.001049 -0.013152 0.000000 0.016193 0.000000
# 2 -0.001049 0.008342 -0.006030 0.000000 0.000421 0.000000
# 3 -0.013152 -0.006030 0.022721 0.000000 0.001428 0.000000
# 4 0.000000 0.000000 0.000000 0.038499 0.000000 -0.003154
# 5 0.016193 0.000421 0.001428 0.000000 0.052069 0.000000
# 6 0.000000 0.000000 0.000000 -0.003154 0.000000 0.093684
#
#
# Mechanical properties :
#
#
# Convention : Reuss Voigt Hill
#
# Bulk Modulus (GPa) = 36.33666 65.65571 50.99618
# Shear Modulus (GPa) = 16.56341 23.45933 20.01137
#
# Velocity S-wave (km/s) = 3.04644 3.62557 3.34855
# Velocity P-wave (km/s) = 5.72141 7.36984 6.59731
#
# Compressibility (1/GPa) = 0.02752042
#
# Stress axis : x y z
#
# Youngs Moduli (GPa) = 27.08577 119.86893 44.01290
#
# Poissons Ratio (x) = 0.12578 0.57884
# Poissons Ratio (y) = 0.02842 0.26541
# Poissons Ratio (z) = 0.35622 0.72285
#
# Static dielectric constant tensor:
#      x y z
#    x 2.977680 0.000000 -0.324700 
#    y 0.000000 3.558280 0.000000 
#    z -0.324700 0.000000 3.191530 
# 
# 
# High freq. dielectric constant tensor:
#      x y z
#    x 1.644750 0.000000 -0.036700 
#    y 0.000000 1.708850 0.000000 
#    z -0.036700 0.000000 1.669180 
# 
# From -- ./inp_files/42257.got.cif
#   From: 2010.06.25/outbox.cif.g09.slc.cpg/sg11_22_cif.got.tgz:42257.got - 2010.06.27 23:14:04.
