data_PCOD8070565
_publ_section_title
;
Structure prediction by ZEFSAII (Michael W. Deem and Ramdas Pophale) SiO2 
 PCOD8070565
Probable space group: P 21/M
;
_chemical_formula_sum "Si O2"
_cell_formula_units_Z 24
_cell_length_a 20.066432
_cell_length_b 9.245957
_cell_length_c 9.593213
_cell_angle_alpha 90.000000
_cell_angle_beta 130.557918
_cell_angle_gamma 90.000000
_cell_volume 1352.247836
_symmetry_space_group_name_H-M "P 21/M"
_symmetry_group_IT_number 11
_symmetry_cell_setting 'monoclinic'
loop_
_space_group_symop_operation_xyz
x,y,z
-x,1/2+y,-z
-x,-y,-z
x,1/2-y,z
loop_
_atom_site_type_symbol
_atom_site_label
_atom_site_fract_x
_atom_site_fract_y
_atom_site_fract_z
Si Si1 0.259647 0.419484 0.374787
Si Si2 0.968278 0.418880 0.592871
Si Si3 0.278898 0.080538 0.946348
Si Si4 0.589065 0.915527 0.635520
Si Si5 0.861170 0.918929 0.027599
Si Si6 0.228527 0.578465 0.611977
O O1 0.252277 0.250000 0.403101
O O2 0.345812 0.453538 0.402086
O O3 0.266368 0.514405 0.521611
O O4 0.174879 0.475742 0.170038
O O5 0.969556 0.250000 0.559346
O O6 0.872808 0.470749 0.510690
O O7 0.000000 0.500000 0.500000
O O8 0.036237 0.454908 0.811446
O O9 0.269887 0.250000 0.897226
O O10 0.194553 0.020378 0.917322
O O11 0.285506 0.988237 0.814447
O O12 0.365540 0.049283 0.154826
O O13 0.562934 0.750000 0.593149
O O14 0.500000 0.000000 0.500000
O O15 0.839740 0.750000 0.997808
O O16 0.238982 0.750000 0.625556
#
# Coordination Sequence:
#
# PCOD8070565 Si02
#       6
#     4   4   4   4   4   4
#     4   9  19  36  55  74 101 140 177 205 251 317
#     4  10  19  31  49  74 104 137 178 219 254 297
#     4   9  17  33  56  76  99 138 178 205 249 316
#     4   9  19  36  60  85 102 127 170 213 256 314
#     4   8  15  31  53  72  95 135 182 217 243 292
#     4  11  22  32  47  79 113 137 169 218 264 295
#
# _framework density 17.748225999999999
#
# number of rings (size 3 to 8) (size 9 to 14) (size 15 to 20)
#    0.000    2.667    1.667    2.500    0.000    2.667 
#    0.000    4.167    0.000    0.000    0.000    0.000 
#    0.000    0.000    0.000    0.000    0.000    0.000 
#
# Total GULP energy -297525.502902 kJ/mol
# GULP energy per Si atom -12396.895954 kJ/mol
# Density = 1.770783 g / cm^3
# Si number density = 17.748226 Si / 1000 Ang^3
#
#
#
# Elastic Constant Matrix: (Units=GPa)
#
#
# Indices 1 2 3 4 5 6 
#
# 1 84.3875 50.4486 74.5671 0.0000 -2.1957 0.0000
# 2 50.4486 65.3868 60.2607 0.0000 -4.1752 0.0000
# 3 74.5671 60.2607 131.1827 0.0000 -9.5758 0.0000
# 4 0.0000 0.0000 0.0000 26.8023 0.0000 0.7249
# 5 -2.1957 -4.1752 -9.5758 0.0000 36.4503 0.0000
# 6 0.0000 0.0000 0.0000 0.7249 0.0000 26.5796
#
#
#
# Elastic Compliance Matrix: (Units=1/GPa)
#
#
# Indices 1 2 3 4 5 6 
#
# 1 0.028762 -0.012339 -0.010866 0.000000 -0.002535 0.000000
# 2 -0.012339 0.031816 -0.007534 0.000000 0.000922 0.000000
# 3 -0.010866 -0.007534 0.017485 0.000000 0.003076 0.000000
# 4 0.000000 0.000000 0.000000 0.037338 0.000000 -0.001018
# 5 -0.002535 0.000922 0.003076 0.000000 0.028196 0.000000
# 6 0.000000 0.000000 0.000000 -0.001018 0.000000 0.037651
#
#
# Mechanical properties :
#
#
# Convention : Reuss Voigt Hill
#
# Bulk Modulus (GPa) = 60.29612 72.38999 66.34306
# Shear Modulus (GPa) = 20.14075 24.34516 22.24295
#
# Velocity S-wave (km/s) = 3.37234 3.70766 3.54397
# Velocity P-wave (km/s) = 7.01501 7.69446 7.36258
#
# Compressibility (1/GPa) = 0.01658481
#
# Stress axis : x y z
#
# Youngs Moduli (GPa) = 34.76804 31.43081 57.19229
#
# Poissons Ratio (x) = 0.38782 0.62145
# Poissons Ratio (y) = 0.42900 0.43089
# Poissons Ratio (z) = 0.37779 0.23680
#
# Static dielectric constant tensor:
#      x y z
#    x 3.097830 0.000000 0.039690 
#    y 0.000000 3.071670 0.000000 
#    z 0.039690 0.000000 3.447860 
# 
# 
# High freq. dielectric constant tensor:
#      x y z
#    x 1.667510 0.000000 -0.000690 
#    y 0.000000 1.668400 0.000000 
#    z -0.000690 0.000000 1.697270 
# 
# From -- ./inp_files/23716.got.cif
#   From: 2010.06.25/outbox.cif.g09.slc.cpg/sg11_12_cif.got.tgz:23716.got - 2010.06.27 23:14:04.
