data_PCOD8070013
_publ_section_title
;
Structure prediction by ZEFSAII (Michael W. Deem and Ramdas Pophale) SiO2 
 PCOD8070013
Probable space group: P 21/M
;
_chemical_formula_sum "Si O2"
_cell_formula_units_Z 28
_cell_length_a 9.745647
_cell_length_b 8.663662
_cell_length_c 28.662271
_cell_angle_alpha 90.000000
_cell_angle_beta 38.766602
_cell_angle_gamma 90.000000
_cell_volume 1515.307459
_symmetry_space_group_name_H-M "P 21/M"
_symmetry_group_IT_number 11
_symmetry_cell_setting 'monoclinic'
loop_
_space_group_symop_operation_xyz
x,y,z
-x,1/2+y,-z
-x,-y,-z
x,1/2-y,z
loop_
_atom_site_type_symbol
_atom_site_label
_atom_site_fract_x
_atom_site_fract_y
_atom_site_fract_z
Si Si1 0.358412 0.073493 0.607246
Si Si2 0.949774 0.431484 0.237675
Si Si3 0.785954 0.073558 0.447868
Si Si4 0.201134 0.932319 0.918816
Si Si5 0.740773 0.571475 0.693711
Si Si6 0.270158 0.567878 0.796477
Si Si7 0.339458 0.930907 0.188028
O O1 0.304683 0.250000 0.634929
O O2 0.622393 0.042684 0.534863
O O3 0.248459 0.962398 0.673984
O O4 0.265769 0.041775 0.580401
O O5 0.995761 0.250000 0.224334
O O6 0.875646 0.499574 0.206901
O O7 0.172855 0.517902 0.191731
O O8 0.753799 0.250000 0.438901
O O9 0.040242 0.046688 0.395432
O O10 0.192828 0.750000 0.923456
O O11 0.185683 0.991023 0.869215
O O12 0.427198 0.988054 0.881997
O O13 0.000000 0.000000 0.000000
O O14 0.710347 0.750000 0.716529
O O15 0.525377 0.515992 0.722632
O O16 0.767555 0.476711 0.734363
O O17 0.253523 0.750000 0.797940
O O18 0.376259 0.750000 0.175636
#
# Coordination Sequence:
#
# PCOD8070013 Si02
#       7
#     4   4   4   4   4   4   4
#     4  10  19  29  44  72 105 136 175 226 271 312
#     4  11  20  34  52  74 105 144 180 215 261 312
#     4   9  17  29  48  71  99 136 178 223 273 317
#     4  10  20  39  63  87 110 136 169 210 255 308
#     4   9  16  32  54  75  98 134 181 226 266 313
#     4   8  18  34  55  78 104 137 175 213 257 313
#     4  11  21  33  53  82 108 137 175 218 258 306
#
# _framework density 18.478099
#
# number of rings (size 3 to 8) (size 9 to 14) (size 15 to 20)
#    0.000    2.286    1.429    3.429    0.000    0.571 
#    0.000    8.571    0.000    0.000    0.000    0.000 
#    0.000    0.000    0.000    0.000    0.000    0.000 
#
# Total GULP energy -347074.648892 kJ/mol
# GULP energy per Si atom -12395.523175 kJ/mol
# Density = 1.843604 g / cm^3
# Si number density = 18.478099 Si / 1000 Ang^3
#
#
#
# Elastic Constant Matrix: (Units=GPa)
#
#
# Indices 1 2 3 4 5 6 
#
# 1 124.1920 22.9336 54.0350 0.0000 -12.5682 0.0000
# 2 22.9336 61.6759 26.1729 0.0000 -4.6956 0.0000
# 3 54.0350 26.1729 132.3154 0.0000 -21.8441 0.0000
# 4 0.0000 0.0000 0.0000 28.8145 0.0000 -4.0722
# 5 -12.5682 -4.6956 -21.8441 0.0000 22.6493 0.0000
# 6 0.0000 0.0000 0.0000 -4.0722 0.0000 12.9653
#
#
#
# Elastic Compliance Matrix: (Units=1/GPa)
#
#
# Indices 1 2 3 4 5 6 
#
# 1 0.010121 -0.002181 -0.003389 0.000000 0.001896 0.000000
# 2 -0.002181 0.018172 -0.002714 0.000000 -0.000060 0.000000
# 3 -0.003389 -0.002714 0.010794 0.000000 0.007967 0.000000
# 4 0.000000 0.000000 0.000000 0.036317 0.000000 0.011406
# 5 0.001896 -0.000060 0.007967 0.000000 0.052875 0.000000
# 6 0.000000 0.000000 0.000000 0.011406 0.000000 0.080711
#
#
# Mechanical properties :
#
#
# Convention : Reuss Voigt Hill
#
# Bulk Modulus (GPa) = 44.40630 58.27403 51.34016
# Shear Modulus (GPa) = 21.45343 27.22194 24.33768
#
# Velocity S-wave (km/s) = 3.41107 3.84239 3.63314
# Velocity P-wave (km/s) = 6.29269 7.16174 6.74123
#
# Compressibility (1/GPa) = 0.02251933
#
# Stress axis : x y z
#
# Youngs Moduli (GPa) = 98.80327 55.03025 92.64636
#
# Poissons Ratio (x) = 0.12002 0.31397
# Poissons Ratio (y) = 0.21549 0.25142
# Poissons Ratio (z) = 0.33483 0.14934
#
# Static dielectric constant tensor:
#      x y z
#    x 3.472940 0.000000 -0.188100 
#    y 0.000000 3.293290 0.000000 
#    z -0.188100 0.000000 3.389770 
# 
# 
# High freq. dielectric constant tensor:
#      x y z
#    x 1.693840 0.000000 -0.023680 
#    y 0.000000 1.710390 0.000000 
#    z -0.023680 0.000000 1.714600 
# 
# From -- ./inp_files/72710.got.cif
#   From: 2010.06.25/outbox.cif.g09.slc.cpg/sg11_37_cif.got.tgz:72710.got - 2010.06.27 23:14:04.
