data_PCOD8070206
_publ_section_title
;
Structure prediction by ZEFSAII (Michael W. Deem and Ramdas Pophale) SiO2 
 PCOD8070206
Probable space group: P 21/M
;
_chemical_formula_sum "Si O2"
_cell_formula_units_Z 32
_cell_length_a 20.868954
_cell_length_b 9.111256
_cell_length_c 12.279649
_cell_angle_alpha 90.000000
_cell_angle_beta 46.397637
_cell_angle_gamma 90.000000
_cell_volume 1690.789229
_symmetry_space_group_name_H-M "P 21/M"
_symmetry_group_IT_number 11
_symmetry_cell_setting 'monoclinic'
loop_
_space_group_symop_operation_xyz
x,y,z
-x,1/2+y,-z
-x,-y,-z
x,1/2-y,z
loop_
_atom_site_type_symbol
_atom_site_label
_atom_site_fract_x
_atom_site_fract_y
_atom_site_fract_z
Si Si1 0.731267 0.421691 0.882947
Si Si2 0.960149 0.422927 0.877189
Si Si3 0.435391 0.076173 0.991519
Si Si4 0.513760 0.916689 0.700929
Si Si5 0.878646 0.918513 0.167104
Si Si6 0.066425 0.922994 0.339065
Si Si7 0.663465 0.087542 0.197257
Si Si8 0.684518 0.917738 0.385931
O O1 0.711193 0.250000 0.888000
O O2 0.833591 0.460458 0.739755
O O3 0.665456 0.513568 0.881176
O O4 0.710160 0.465590 0.031784
O O5 0.945226 0.250000 0.894950
O O6 0.949931 0.481626 0.765383
O O7 0.055955 0.470028 0.813093
O O8 0.888232 0.491682 0.043364
O O9 0.432982 0.250000 0.012096
O O10 0.476395 0.034343 0.828254
O O11 0.500000 0.000000 0.000000
O O12 0.524163 0.750000 0.737801
O O13 0.443127 0.911271 0.686022
O O14 0.606643 0.985764 0.550810
O O15 0.897187 0.750000 0.115160
O O16 0.779866 0.940268 0.330837
O O17 0.048967 0.750000 0.363868
O O18 0.000000 0.000000 0.500000
O O19 0.698120 0.250000 0.185402
O O20 0.692856 0.980483 0.256498
O O21 0.658121 0.750000 0.402544
#
# Coordination Sequence:
#
# PCOD8070206 Si02
#       8
#     4   4   4   4   4   4   4   4
#     4   9  19  37  57  79 108 142 182 228 275 322
#     4   9  18  35  55  74 103 142 180 219 272 329
#     4  11  22  38  60  82 105 138 179 224 269 323
#     4   9  19  35  50  71 107 143 175 214 265 318
#     4   9  18  32  52  78 105 137 178 222 266 321
#     4  10  21  37  57  81 113 147 183 234 285 332
#     4   9  17  30  51  74 102 141 178 217 263 315
#     4  10  19  30  47  75 109 140 171 215 264 312
#
# _framework density 18.926072000000001
#
# number of rings (size 3 to 8) (size 9 to 14) (size 15 to 20)
#    0.000    2.500    0.000    3.000    0.000    5.000 
#    2.250    0.000    0.000    0.000    0.000    0.000 
#    0.000    0.000    0.000    0.000    0.000    0.000 
#
# Total GULP energy -396638.916353 kJ/mol
# GULP energy per Si atom -12394.966136 kJ/mol
# Density = 1.888300 g / cm^3
# Si number density = 18.926072 Si / 1000 Ang^3
#
#
#
# Elastic Constant Matrix: (Units=GPa)
#
#
# Indices 1 2 3 4 5 6 
#
# 1 108.7108 42.4359 55.0315 0.0000 -11.4945 0.0000
# 2 42.4359 62.0585 30.6269 0.0000 -4.4679 0.0000
# 3 55.0315 30.6269 93.8581 0.0000 -24.5686 0.0000
# 4 0.0000 0.0000 0.0000 29.3443 0.0000 1.0602
# 5 -11.4945 -4.4679 -24.5686 0.0000 32.0693 0.0000
# 6 0.0000 0.0000 0.0000 1.0602 0.0000 27.7737
#
#
#
# Elastic Compliance Matrix: (Units=1/GPa)
#
#
# Indices 1 2 3 4 5 6 
#
# 1 0.015414 -0.007196 -0.006887 0.000000 -0.000754 0.000000
# 2 -0.007196 0.022749 -0.003815 0.000000 -0.002332 0.000000
# 3 -0.006887 -0.003815 0.018953 0.000000 0.011520 0.000000
# 4 0.000000 0.000000 0.000000 0.034125 0.000000 -0.001303
# 5 -0.000754 -0.002332 0.011520 0.000000 0.039413 0.000000
# 6 0.000000 0.000000 0.000000 -0.001303 0.000000 0.036055
#
#
# Mechanical properties :
#
#
# Convention : Reuss Voigt Hill
#
# Bulk Modulus (GPa) = 46.90214 57.86846 52.38530
# Shear Modulus (GPa) = 23.85369 26.93966 25.39667
#
# Velocity S-wave (km/s) = 3.55401 3.77691 3.66715
# Velocity P-wave (km/s) = 6.45576 7.04716 6.75793
#
# Compressibility (1/GPa) = 0.02132099
#
# Stress axis : x y z
#
# Youngs Moduli (GPa) = 64.87481 43.95794 52.76287
#
# Poissons Ratio (x) = 0.31631 0.36338
# Poissons Ratio (y) = 0.46682 0.20127
# Poissons Ratio (z) = 0.44680 0.16768
#
# Static dielectric constant tensor:
#      x y z
#    x 3.832970 0.000000 -0.221830 
#    y 0.000000 3.069930 0.000000 
#    z -0.221830 0.000000 3.387320 
# 
# 
# High freq. dielectric constant tensor:
#      x y z
#    x 1.742180 0.000000 -0.020280 
#    y 0.000000 1.722580 0.000000 
#    z -0.020280 0.000000 1.721160 
# 
# From -- ./inp_files/42758.got.cif
#   From: 2010.06.25/outbox.cif.g09.slc.cpg/sg11_22_cif.got.tgz:42758.got - 2010.06.27 23:14:04.
