data_PCOD8070271
_publ_section_title
;
Structure prediction by ZEFSAII (Michael W. Deem and Ramdas Pophale) SiO2 
 PCOD8070271
Probable space group: P 21/M
;
_chemical_formula_sum "Si O2"
_cell_formula_units_Z 32
_cell_length_a 31.313808
_cell_length_b 9.318548
_cell_length_c 12.348098
_cell_angle_alpha 90.000000
_cell_angle_beta 27.602233
_cell_angle_gamma 90.000000
_cell_volume 1669.456690
_symmetry_space_group_name_H-M "P 21/M"
_symmetry_group_IT_number 11
_symmetry_cell_setting 'monoclinic'
loop_
_space_group_symop_operation_xyz
x,y,z
-x,1/2+y,-z
-x,-y,-z
x,1/2-y,z
loop_
_atom_site_type_symbol
_atom_site_label
_atom_site_fract_x
_atom_site_fract_y
_atom_site_fract_z
Si Si1 0.072708 0.095624 0.781293
Si Si2 0.254171 0.083207 0.483360
Si Si3 0.979350 0.588446 0.346468
Si Si4 0.800437 0.080501 0.776907
Si Si5 0.328090 0.582228 0.133651
Si Si6 0.293661 0.413056 0.827098
Si Si7 0.500116 0.086212 0.389959
Si Si8 0.830247 0.918346 0.099107
O O1 0.061774 0.250000 0.862262
O O2 0.173361 0.040822 0.581984
O O3 0.056657 0.104973 0.692250
O O4 0.000000 0.000000 0.000000
O O5 0.281818 0.250000 0.423764
O O6 0.224303 0.030265 0.670080
O O7 0.331832 0.993566 0.244642
O O8 0.988835 0.750000 0.376114
O O9 0.898769 0.495522 0.583995
O O10 0.076577 0.507168 0.130202
O O11 0.814032 0.250000 0.761409
O O12 0.758601 0.045868 0.751841
O O13 0.728628 0.022209 0.026456
O O14 0.330857 0.750000 0.150967
O O15 0.421520 0.527128 0.866342
O O16 0.271208 0.250000 0.914947
O O17 0.400952 0.428340 0.554911
O O18 0.236374 0.453591 0.849785
O O19 0.523157 0.250000 0.367945
O O20 0.500000 0.000000 0.500000
O O21 0.855287 0.750000 0.052430
#
# Coordination Sequence:
#
# PCOD8070271 Si02
#       8
#     4   4   4   4   4   4   4   4
#     4  10  19  30  49  77 107 141 184 231 274 320
#     4  10  20  35  55  80 114 151 189 231 277 332
#     4  11  22  35  54  83 115 150 192 233 280 334
#     4  11  22  36  57  85 117 148 184 235 286 337
#     4  10  21  35  55  87 119 144 179 231 290 339
#     4  10  22  40  62  83 111 149 189 234 283 340
#     4  10  20  37  61  89 115 143 182 233 289 340
#     4  10  22  40  58  80 112 155 197 230 275 333
#
# _framework density 19.167912000000001
#
# number of rings (size 3 to 8) (size 9 to 14) (size 15 to 20)
#    0.000    1.750    3.750    0.750    0.000    3.500 
#    0.000    0.625    0.000    0.000    0.000    0.000 
#    0.000    0.000    0.000    0.000    0.000    0.000 
#
# Total GULP energy -396564.769666 kJ/mol
# GULP energy per Si atom -12392.649052 kJ/mol
# Density = 1.912429 g / cm^3
# Si number density = 19.167912 Si / 1000 Ang^3
#
#
#
# Elastic Constant Matrix: (Units=GPa)
#
#
# Indices 1 2 3 4 5 6 
#
# 1 59.5416 23.9603 17.6646 0.0000 -1.4616 0.0000
# 2 23.9603 73.5954 49.2686 0.0000 8.8413 0.0000
# 3 17.6646 49.2686 111.8676 0.0000 3.2089 0.0000
# 4 0.0000 0.0000 0.0000 35.0352 0.0000 5.3765
# 5 -1.4616 8.8413 3.2089 0.0000 15.5404 0.0000
# 6 0.0000 0.0000 0.0000 5.3765 0.0000 19.9039
#
#
#
# Elastic Compliance Matrix: (Units=1/GPa)
#
#
# Indices 1 2 3 4 5 6 
#
# 1 0.019829 -0.007028 -0.000205 0.000000 0.005905 0.000000
# 2 -0.007028 0.023184 -0.008755 0.000000 -0.012043 0.000000
# 3 -0.000205 -0.008755 0.012761 0.000000 0.002327 0.000000
# 4 0.000000 0.000000 0.000000 0.029777 0.000000 -0.008043
# 5 0.005905 -0.012043 0.002327 0.000000 0.071275 0.000000
# 6 0.000000 0.000000 0.000000 -0.008043 0.000000 0.052414
#
#
# Mechanical properties :
#
#
# Convention : Reuss Voigt Hill
#
# Bulk Modulus (GPa) = 42.02257 47.42128 44.72192
# Shear Modulus (GPa) = 20.06834 24.36998 22.21916
#
# Velocity S-wave (km/s) = 3.23921 3.56953 3.40837
# Velocity P-wave (km/s) = 5.99675 6.46393 6.23471
#
# Compressibility (1/GPa) = 0.02379674
#
# Stress axis : x y z
#
# Youngs Moduli (GPa) = 50.43153 43.13351 78.36442
#
# Poissons Ratio (x) = 0.30312 0.01610
# Poissons Ratio (y) = 0.35441 0.68612
# Poissons Ratio (z) = 0.01036 0.37765
#
# Static dielectric constant tensor:
#      x y z
#    x 3.367530 0.000000 -0.063590 
#    y 0.000000 3.676840 0.000000 
#    z -0.063590 0.000000 3.652760 
# 
# 
# High freq. dielectric constant tensor:
#      x y z
#    x 1.729000 0.000000 0.002640 
#    y 0.000000 1.745220 0.000000 
#    z 0.002640 0.000000 1.751640 
# 
# From -- ./inp_files/45231.got.cif
#   From: 2010.06.25/outbox.cif.g09.slc.cpg/sg11_23_cif.got.tgz:45231.got - 2010.06.27 23:14:04.
