data_PCOD8070060
_publ_section_title
;
Structure prediction by ZEFSAII (Michael W. Deem and Ramdas Pophale) SiO2 
 PCOD8070060
Probable space group: P 21/M
;
_chemical_formula_sum "Si O2"
_cell_formula_units_Z 32
_cell_length_a 21.140423
_cell_length_b 9.114348
_cell_length_c 27.832248
_cell_angle_alpha 90.000000
_cell_angle_beta 158.922102
_cell_angle_gamma 90.000000
_cell_volume 1928.642803
_symmetry_space_group_name_H-M "P 21/M"
_symmetry_group_IT_number 11
_symmetry_cell_setting 'monoclinic'
loop_
_space_group_symop_operation_xyz
x,y,z
-x,1/2+y,-z
-x,-y,-z
x,1/2-y,z
loop_
_atom_site_type_symbol
_atom_site_label
_atom_site_fract_x
_atom_site_fract_y
_atom_site_fract_z
Si Si1 0.656030 0.418160 0.810192
Si Si2 0.396911 0.415640 0.703272
Si Si3 0.281942 0.418724 0.807261
Si Si4 0.067013 0.421282 0.930528
Si Si5 0.139500 0.918043 0.130774
Si Si6 0.616386 0.578812 0.013910
Si Si7 0.055212 0.579524 0.490974
Si Si8 0.740724 0.080059 0.010865
O O1 0.715110 0.250000 0.865264
O O2 0.459031 0.439486 0.691650
O O3 0.670854 0.441261 0.762103
O O4 0.779249 0.535808 0.923521
O O5 0.328273 0.250000 0.662787
O O6 0.243130 0.527526 0.605494
O O7 0.561390 0.448185 0.854586
O O8 0.333309 0.250000 0.834020
O O9 0.418396 0.516575 0.873946
O O10 0.086790 0.454866 0.650936
O O11 0.289212 0.455842 0.868714
O O12 0.078855 0.250000 0.925710
O O13 0.091860 0.513723 0.899351
O O14 0.881859 0.462438 0.827641
O O15 0.083192 0.750000 0.088893
O O16 0.000000 0.000000 0.000000
O O17 0.606536 0.750000 0.995550
O O18 0.731708 0.500048 0.055401
O O19 0.067138 0.750000 0.510981
O O20 0.000000 0.500000 0.500000
O O21 0.776497 0.250000 0.045145
#
# Coordination Sequence:
#
# PCOD8070060 Si02
#       8
#     4   4   4   4   4   4   4   4
#     4   8  14  25  38  53  79 114 144 174 215 253
#     4   9  18  30  43  61  87 117 147 177 209 250
#     4   9  20  36  49  65  89 113 137 172 219 259
#     4   9  15  22  35  57  82 109 145 181 207 246
#     4   8  13  21  34  52  76 108 143 175 208 247
#     4  10  19  32  51  69  84 107 142 179 212 254
#     4  11  22  34  48  65  88 115 142 174 211 251
#     4  10  19  30  43  61  89 120 145 175 218 257
#
# _framework density 16.591978999999998
#
# number of rings (size 3 to 8) (size 9 to 14) (size 15 to 20)
#    0.000    2.750    0.000    3.000    0.000    7.500 
#    0.000    0.000    0.000    0.000    0.000    0.000 
#    0.000    1.000    0.000    2.000    0.000    4.250 
#
# Total GULP energy -396417.855678 kJ/mol
# GULP energy per Si atom -12388.057990 kJ/mol
# Density = 1.655422 g / cm^3
# Si number density = 16.591979 Si / 1000 Ang^3
#
#
#
# Elastic Constant Matrix: (Units=GPa)
#
#
# Indices 1 2 3 4 5 6 
#
# 1 164.2021 58.7636 28.3434 0.0000 18.9321 0.0000
# 2 58.7636 75.4110 20.2572 0.0000 3.4670 0.0000
# 3 28.3434 20.2572 34.3687 0.0000 3.8223 0.0000
# 4 0.0000 0.0000 0.0000 17.0916 0.0000 2.2496
# 5 18.9321 3.4670 3.8223 0.0000 15.8557 0.0000
# 6 0.0000 0.0000 0.0000 2.2496 0.0000 28.3010
#
#
#
# Elastic Compliance Matrix: (Units=1/GPa)
#
#
# Indices 1 2 3 4 5 6 
#
# 1 0.010162 -0.006545 -0.003425 0.000000 -0.009877 0.000000
# 2 -0.006545 0.019994 -0.006957 0.000000 0.005120 0.000000
# 3 -0.003425 -0.006957 0.036372 0.000000 -0.003158 0.000000
# 4 0.000000 0.000000 0.000000 0.059127 0.000000 -0.004700
# 5 -0.009877 0.005120 -0.003158 0.000000 0.074504 0.000000
# 6 0.000000 0.000000 0.000000 -0.004700 0.000000 0.035708
#
#
# Mechanical properties :
#
#
# Convention : Reuss Voigt Hill
#
# Bulk Modulus (GPa) = 30.60337 54.30113 42.45225
# Shear Modulus (GPa) = 17.81824 23.35751 20.58787
#
# Velocity S-wave (km/s) = 3.28061 3.75608 3.52637
# Velocity P-wave (km/s) = 5.73014 7.18396 6.49784
#
# Compressibility (1/GPa) = 0.03267614
#
# Stress axis : x y z
#
# Youngs Moduli (GPa) = 98.40345 50.01496 27.49374
#
# Poissons Ratio (x) = 0.32734 0.09415
# Poissons Ratio (y) = 0.64403 0.19126
# Poissons Ratio (z) = 0.33699 0.34793
#
# Static dielectric constant tensor:
#      x y z
#    x 3.612580 0.000000 0.120780 
#    y 0.000000 2.961440 0.000000 
#    z 0.120780 0.000000 2.593100 
# 
# 
# High freq. dielectric constant tensor:
#      x y z
#    x 1.666400 0.000000 0.018230 
#    y 0.000000 1.651550 0.000000 
#    z 0.018230 0.000000 1.563770 
# 
# From -- ./inp_files/43804.got.cif
#   From: 2010.06.25/outbox.cif.g09.slc.cpg/sg11_22_cif.got.tgz:43804.got - 2010.06.27 23:14:04.
