data_PCOD8070180
_publ_section_title
;
Structure prediction by ZEFSAII (Michael W. Deem and Ramdas Pophale) SiO2 
 PCOD8070180
Probable space group: P 21/M
;
_chemical_formula_sum "Si O2"
_cell_formula_units_Z 24
_cell_length_a 23.544014
_cell_length_b 8.982959
_cell_length_c 13.624810
_cell_angle_alpha 90.000000
_cell_angle_beta 29.999346
_cell_angle_gamma 90.000000
_cell_volume 1440.760514
_symmetry_space_group_name_H-M "P 21/M"
_symmetry_group_IT_number 11
_symmetry_cell_setting 'monoclinic'
loop_
_space_group_symop_operation_xyz
x,y,z
-x,1/2+y,-z
-x,-y,-z
x,1/2-y,z
loop_
_atom_site_type_symbol
_atom_site_label
_atom_site_fract_x
_atom_site_fract_y
_atom_site_fract_z
Si Si1 0.377219 0.420071 0.589259
Si Si2 0.828556 0.924466 0.787988
Si Si3 0.961548 0.577268 0.210844
Si Si4 0.633939 0.422732 0.193671
Si Si5 0.843695 0.579924 0.189829
Si Si6 0.945092 0.424463 0.438367
O O1 0.371237 0.250000 0.636418
O O2 0.502996 0.455713 0.361331
O O3 0.342685 0.525817 0.730440
O O4 0.289332 0.447708 0.632007
O O5 0.818569 0.750000 0.785769
O O6 0.927285 0.963991 0.718150
O O7 0.854001 0.999997 0.646001
O O8 0.709806 0.985671 0.004725
O O9 0.968717 0.750000 0.227794
O O10 0.867322 0.544284 0.268351
O O11 0.924330 0.485679 0.361145
O O12 0.084188 0.525804 0.988945
O O13 0.665232 0.250000 0.138257
O O14 0.878887 0.750000 0.113468
O O15 0.922896 0.250000 0.472764
#
# Coordination Sequence:
#
# PCOD8070180 Si02
#       6
#     4   4   4   4   4   4
#     4   9  18  32  48  67  94 127 158 188 226 272
#     4  10  20  33  49  69  94 123 153 187 229 276
#     4  10  19  30  47  71  96 122 154 192 231 271
#     4  10  19  30  47  71  96 122 154 192 231 271
#     4   9  18  32  48  67  94 127 158 188 226 272
#     4  10  20  33  49  69  94 123 153 187 229 276
#
# _framework density 16.657869000000002
#
# number of rings (size 3 to 8) (size 9 to 14) (size 15 to 20)
#    0.000    2.333    0.000    3.000    0.000    8.000 
#    0.000    0.000    0.000    1.000    0.000    0.000 
#    0.000    0.000    0.000    0.000    0.000    0.000 
#
# Total GULP energy -297668.063525 kJ/mol
# GULP energy per Si atom -12402.835980 kJ/mol
# Density = 1.661995 g / cm^3
# Si number density = 16.657869 Si / 1000 Ang^3
#
#
#
# Elastic Constant Matrix: (Units=GPa)
#
#
# Indices 1 2 3 4 5 6 
#
# 1 106.2072 41.8460 61.2422 0.0000 0.2374 0.0000
# 2 41.8460 80.3155 55.1620 0.0000 6.8544 0.0000
# 3 61.2422 55.1620 116.9994 0.0000 5.3227 0.0000
# 4 0.0000 0.0000 0.0000 34.1430 0.0000 4.6895
# 5 0.2374 6.8544 5.3227 0.0000 25.3293 0.0000
# 6 0.0000 0.0000 0.0000 4.6895 0.0000 25.0301
#
#
#
# Elastic Compliance Matrix: (Units=1/GPa)
#
#
# Indices 1 2 3 4 5 6 
#
# 1 0.014178 -0.003551 -0.005841 0.000000 0.002055 0.000000
# 2 -0.003551 0.019562 -0.007193 0.000000 -0.003749 0.000000
# 3 -0.005841 -0.007193 0.015049 0.000000 -0.001161 0.000000
# 4 0.000000 0.000000 0.000000 0.030062 0.000000 -0.005632
# 5 0.002055 -0.003749 -0.001161 0.000000 0.040719 0.000000
# 6 0.000000 0.000000 0.000000 -0.005632 0.000000 0.041007
#
#
# Mechanical properties :
#
#
# Convention : Reuss Voigt Hill
#
# Bulk Modulus (GPa) = 64.02884 68.89137 66.46010
# Shear Modulus (GPa) = 25.13162 26.58528 25.85845
#
# Velocity S-wave (km/s) = 3.88840 3.99928 3.94423
# Velocity P-wave (km/s) = 7.66033 7.92288 7.79271
#
# Compressibility (1/GPa) = 0.01561796
#
# Stress axis : x y z
#
# Youngs Moduli (GPa) = 70.53218 51.12075 66.45132
#
# Poissons Ratio (x) = 0.18153 0.38812
# Poissons Ratio (y) = 0.25046 0.47802
# Poissons Ratio (z) = 0.41195 0.36774
#
# Static dielectric constant tensor:
#      x y z
#    x 3.120870 0.000000 -0.047350 
#    y 0.000000 3.260280 0.000000 
#    z -0.047350 0.000000 3.028780 
# 
# 
# High freq. dielectric constant tensor:
#      x y z
#    x 1.630440 0.000000 -0.000800 
#    y 0.000000 1.656880 0.000000 
#    z -0.000800 0.000000 1.628880 
# 
# From -- ./inp_files/42657.got.cif
#   From: 2010.06.25/outbox.cif.g09.slc.cpg/sg11_22_cif.got.tgz:42657.got - 2010.06.27 23:14:04.
