data_PCOD8070926
_publ_section_title
;
Structure prediction by ZEFSAII (Michael W. Deem and Ramdas Pophale) SiO2 
 PCOD8070926
Probable space group: P 21/M
;
_chemical_formula_sum "Si O2"
_cell_formula_units_Z 28
_cell_length_a 14.340675
_cell_length_b 10.185702
_cell_length_c 21.044168
_cell_angle_alpha 90.000000
_cell_angle_beta 31.030943
_cell_angle_gamma 90.000000
_cell_volume 1584.607707
_symmetry_space_group_name_H-M "P 21/M"
_symmetry_group_IT_number 11
_symmetry_cell_setting 'monoclinic'
loop_
_space_group_symop_operation_xyz
x,y,z
-x,1/2+y,-z
-x,-y,-z
x,1/2-y,z
loop_
_atom_site_type_symbol
_atom_site_label
_atom_site_fract_x
_atom_site_fract_y
_atom_site_fract_z
Si Si1 0.327155 0.603259 0.859153
Si Si2 0.270717 0.030416 0.374088
Si Si3 0.898262 0.106979 0.640813
Si Si4 0.733067 0.598844 0.214957
Si Si5 0.955080 0.097508 0.875129
Si Si6 0.046964 0.406390 0.683711
Si Si7 0.675073 0.396467 0.530466
O O1 0.262188 0.750000 0.876806
O O2 0.543355 0.610051 0.738682
O O3 0.254613 0.495557 0.852874
O O4 0.237106 0.565825 0.979664
O O5 0.229399 0.983602 0.326827
O O6 0.292690 0.912844 0.412371
O O7 0.103283 0.119060 0.494285
O O8 0.809894 0.250000 0.690299
O O9 0.906603 0.057302 0.709014
O O10 0.773665 0.750000 0.170591
O O11 0.536592 0.589324 0.361839
O O12 0.878971 0.542698 0.179663
O O13 0.989444 0.250000 0.848072
O O14 0.959485 0.042365 0.800622
O O15 0.092891 0.250000 0.655333
O O16 0.228902 0.490348 0.566447
O O17 0.743811 0.250000 0.472124
#
# Coordination Sequence:
#
# PCOD8070926 Si02
#       7
#     4   4   4   4   4   4   4
#     4  10  19  32  51  73  96 123 159 198 234 278
#     4   9  17  28  46  72  96 119 151 196 243 281
#     4   9  16  28  47  69  92 121 156 193 235 283
#     4   9  18  32  50  72  97 125 157 194 240 284
#     4   9  18  33  50  68  96 132 161 191 234 279
#     4   9  18  32  49  69  95 128 164 195 228 279
#     4   9  17  29  46  69  97 124 153 196 244 282
#
# _framework density 17.669988
#
# number of rings (size 3 to 8) (size 9 to 14) (size 15 to 20)
#    0.000    2.857    0.000    1.286    0.000    4.571 
#    0.000    2.857    0.000    0.000    0.000    0.000 
#    0.000    0.000    0.000    0.000    0.000    0.000 
#
# Total GULP energy -346956.638578 kJ/mol
# GULP energy per Si atom -12391.308521 kJ/mol
# Density = 1.762977 g / cm^3
# Si number density = 17.669988 Si / 1000 Ang^3
#
#
#
# Elastic Constant Matrix: (Units=GPa)
#
#
# Indices 1 2 3 4 5 6 
#
# 1 99.4327 21.9985 40.7916 0.0000 19.2593 0.0000
# 2 21.9985 66.9539 22.7306 0.0000 14.7559 0.0000
# 3 40.7916 22.7306 70.4235 0.0000 20.5127 0.0000
# 4 0.0000 0.0000 0.0000 18.9313 0.0000 4.0965
# 5 19.2593 14.7559 20.5127 0.0000 27.7547 0.0000
# 6 0.0000 0.0000 0.0000 4.0965 0.0000 15.1968
#
#
#
# Elastic Compliance Matrix: (Units=1/GPa)
#
#
# Indices 1 2 3 4 5 6 
#
# 1 0.013764 -0.001478 -0.006298 0.000000 -0.004110 0.000000
# 2 -0.001478 0.017833 -0.003105 0.000000 -0.006160 0.000000
# 3 -0.006298 -0.003105 0.021786 0.000000 -0.010080 0.000000
# 4 0.000000 0.000000 0.000000 0.056095 0.000000 -0.015121
# 5 -0.004110 -0.006160 -0.010080 0.000000 0.049607 0.000000
# 6 0.000000 0.000000 0.000000 -0.015121 0.000000 0.069879
#
#
# Mechanical properties :
#
#
# Convention : Reuss Voigt Hill
#
# Bulk Modulus (GPa) = 31.62569 45.31685 38.47127
# Shear Modulus (GPa) = 19.13737 22.46251 20.79994
#
# Velocity S-wave (km/s) = 3.29453 3.56929 3.43466
# Velocity P-wave (km/s) = 5.69287 6.53363 6.12769
#
# Compressibility (1/GPa) = 0.03161987
#
# Stress axis : x y z
#
# Youngs Moduli (GPa) = 72.65316 56.07491 45.90001
#
# Poissons Ratio (x) = 0.08289 0.28909
# Poissons Ratio (y) = 0.10740 0.14254
# Poissons Ratio (z) = 0.45759 0.17414
#
# Static dielectric constant tensor:
#      x y z
#    x 3.396180 0.000000 0.090340 
#    y 0.000000 3.145880 0.000000 
#    z 0.090340 0.000000 3.188530 
# 
# 
# High freq. dielectric constant tensor:
#      x y z
#    x 1.679210 0.000000 -0.000020 
#    y 0.000000 1.669820 0.000000 
#    z -0.000020 0.000000 1.666530 
# 
# From -- ./inp_files/43029.got.cif
#   From: 2010.06.25/outbox.cif.g09.slc.cpg/sg11_22_cif.got.tgz:43029.got - 2010.06.27 23:14:04.
