data_PCOD8070134
_publ_section_title
;
Structure prediction by ZEFSAII (Michael W. Deem and Ramdas Pophale) SiO2 
 PCOD8070134
Probable space group: P 21/M
;
_chemical_formula_sum "Si O2"
_cell_formula_units_Z 32
_cell_length_a 27.760463
_cell_length_b 8.852941
_cell_length_c 20.879154
_cell_angle_alpha 90.000000
_cell_angle_beta 158.791693
_cell_angle_gamma 90.000000
_cell_volume 1856.296749
_symmetry_space_group_name_H-M "P 21/M"
_symmetry_group_IT_number 11
_symmetry_cell_setting 'monoclinic'
loop_
_space_group_symop_operation_xyz
x,y,z
-x,1/2+y,-z
-x,-y,-z
x,1/2-y,z
loop_
_atom_site_type_symbol
_atom_site_label
_atom_site_fract_x
_atom_site_fract_y
_atom_site_fract_z
Si Si1 0.790218 0.425592 0.247934
Si Si2 0.302582 0.077530 0.602563
Si Si3 0.001506 0.075307 0.272060
Si Si4 0.036470 0.074168 0.641096
Si Si5 0.921291 0.920481 0.049294
Si Si6 0.478498 0.427436 0.041868
Si Si7 0.772413 0.082064 0.610688
Si Si8 0.865746 0.427197 0.858060
O O1 0.754244 0.250000 0.198676
O O2 0.851991 0.479032 0.257559
O O3 0.892018 0.459219 0.431848
O O4 0.658195 0.519314 0.096552
O O5 0.348414 0.250000 0.666929
O O6 0.156283 0.049956 0.448966
O O7 0.400798 0.969846 0.762370
O O8 0.306765 0.035008 0.532256
O O9 0.969886 0.250000 0.245691
O O10 0.963208 0.976915 0.285589
O O11 0.910139 0.016653 0.100569
O O12 0.072353 0.250000 0.680349
O O13 0.872618 0.750000 0.001731
O O14 0.071746 0.923936 0.211418
O O15 0.826609 0.995757 0.877329
O O16 0.474783 0.250000 0.027854
O O17 0.500000 0.500000 0.000000
O O18 0.717621 0.250000 0.528386
O O19 0.754573 0.043804 0.664509
O O20 0.888335 0.250000 0.897024
O O21 0.000000 0.500000 0.000000
#
# Coordination Sequence:
#
# PCOD8070134 Si02
#       8
#     4   4   4   4   4   4   4   4
#     4  10  21  37  55  74  96 122 155 194 235 280
#     4  10  20  32  47  68  94 125 162 199 236 281
#     4  10  19  30  46  68  95 127 161 197 237 281
#     4  10  20  34  53  74  96 123 155 193 236 281
#     4   9  16  25  38  58  86 119 155 193 232 277
#     4  12  24  37  53  72  97 126 158 195 236 281
#     4   8  15  26  39  57  84 119 155 191 232 276
#     4   9  15  23  36  55  82 116 153 190 229 275
#
# _framework density 17.238623
#
# number of rings (size 3 to 8) (size 9 to 14) (size 15 to 20)
#    0.000    2.250    0.000    4.875    0.000    8.500 
#    0.000    0.000    0.000    0.000    0.000    0.000 
#    0.000    1.000    0.000    3.750    0.000    6.750 
#
# Total GULP energy -396740.346356 kJ/mol
# GULP energy per Si atom -12398.135824 kJ/mol
# Density = 1.719939 g / cm^3
# Si number density = 17.238623 Si / 1000 Ang^3
#
#
#
# Elastic Constant Matrix: (Units=GPa)
#
#
# Indices 1 2 3 4 5 6 
#
# 1 98.0813 40.0519 38.8596 0.0000 -28.1062 0.0000
# 2 40.0519 108.4744 35.1255 0.0000 -8.8877 0.0000
# 3 38.8596 35.1255 44.8820 0.0000 -14.0042 0.0000
# 4 0.0000 0.0000 0.0000 23.9763 0.0000 -6.4900
# 5 -28.1062 -8.8877 -14.0042 0.0000 24.0684 0.0000
# 6 0.0000 0.0000 0.0000 -6.4900 0.0000 34.1645
#
#
#
# Elastic Compliance Matrix: (Units=1/GPa)
#
#
# Indices 1 2 3 4 5 6 
#
# 1 0.020046 -0.002810 -0.009991 0.000000 0.016559 0.000000
# 2 -0.002810 0.012775 -0.008696 0.000000 -0.003623 0.000000
# 3 -0.009991 -0.008696 0.040435 0.000000 0.008649 0.000000
# 4 0.000000 0.000000 0.000000 0.043969 0.000000 0.008352
# 5 0.016559 -0.003623 0.008649 0.000000 0.064580 0.000000
# 6 0.000000 0.000000 0.000000 0.008352 0.000000 0.030857
#
#
# Mechanical properties :
#
#
# Convention : Reuss Voigt Hill
#
# Bulk Modulus (GPa) = 33.04284 53.27907 43.16095
# Shear Modulus (GPa) = 18.81517 25.60188 22.20853
#
# Velocity S-wave (km/s) = 3.30730 3.85794 3.59318
# Velocity P-wave (km/s) = 5.81325 7.12873 6.50433
#
# Compressibility (1/GPa) = 0.03026375
#
# Stress axis : x y z
#
# Youngs Moduli (GPa) = 49.88412 78.27659 24.73092
#
# Poissons Ratio (x) = 0.21994 0.24708
# Poissons Ratio (y) = 0.14017 0.21506
# Poissons Ratio (z) = 0.49838 0.68069
#
# Static dielectric constant tensor:
#      x y z
#    x 3.352510 0.000000 -0.380120 
#    y 0.000000 3.398800 0.000000 
#    z -0.380120 0.000000 3.033950 
# 
# 
# High freq. dielectric constant tensor:
#      x y z
#    x 1.661940 0.000000 -0.038070 
#    y 0.000000 1.684690 0.000000 
#    z -0.038070 0.000000 1.620490 
# 
# From -- ./inp_files/67161.got.cif
#   From: 2010.06.25/outbox.cif.g09.slc.cpg/sg11_34_cif.got.tgz:67161.got - 2010.06.27 23:14:04.
