data_PCOD8070503
_publ_section_title
;
Structure prediction by ZEFSAII (Michael W. Deem and Ramdas Pophale) SiO2 
 PCOD8070503
Probable space group: P 21/M
;
_chemical_formula_sum "Si O2"
_cell_formula_units_Z 32
_cell_length_a 26.212486
_cell_length_b 8.835664
_cell_length_c 12.096599
_cell_angle_alpha 90.000000
_cell_angle_beta 135.731145
_cell_angle_gamma 90.000000
_cell_volume 1955.610575
_symmetry_space_group_name_H-M "P 21/M"
_symmetry_group_IT_number 11
_symmetry_cell_setting 'monoclinic'
loop_
_space_group_symop_operation_xyz
x,y,z
-x,1/2+y,-z
-x,-y,-z
x,1/2-y,z
loop_
_atom_site_type_symbol
_atom_site_label
_atom_site_fract_x
_atom_site_fract_y
_atom_site_fract_z
Si Si1 0.932633 0.926961 0.835659
Si Si2 0.806596 0.572729 0.798326
Si Si3 0.127773 0.068897 0.874290
Si Si4 0.031476 0.429086 0.353603
Si Si5 0.422644 0.421759 0.879852
Si Si6 0.701948 0.922936 0.461364
Si Si7 0.155006 0.929759 0.689486
Si Si8 0.285311 0.927014 0.733759
O O1 0.941639 0.750000 0.863549
O O2 0.860616 0.986522 0.786071
O O3 0.930522 0.971526 0.703513
O O4 0.000000 0.000000 0.000000
O O5 0.814726 0.750000 0.827348
O O6 0.725938 0.527566 0.623537
O O7 0.826077 0.504751 0.948285
O O8 0.130118 0.250000 0.866179
O O9 0.166511 0.989740 0.830886
O O10 0.044870 0.015359 0.757211
O O11 0.018692 0.250000 0.348306
O O12 0.083318 0.489485 0.530593
O O13 0.434884 0.250000 0.934386
O O14 0.385616 0.435604 0.698633
O O15 0.365279 0.495767 0.878312
O O16 0.500000 0.500000 0.000000
O O17 0.728411 0.750000 0.484662
O O18 0.743899 0.021882 0.432841
O O19 0.143549 0.750000 0.668758
O O20 0.227221 0.979936 0.734862
O O21 0.297386 0.750000 0.756038
#
# Coordination Sequence:
#
# PCOD8070503 Si02
#       8
#     4   4   4   4   4   4   4   4
#     4  10  19  31  49  69  93 121 155 203 249 300
#     4   9  17  32  49  68  94 124 161 199 245 298
#     4  11  22  35  52  68  92 129 170 216 254 297
#     4  11  22  35  52  71  93 125 167 214 259 305
#     4   9  17  29  51  78 110 137 156 189 230 287
#     4   8  16  30  50  73  99 130 156 189 236 288
#     4  11  23  37  51  68  96 129 168 215 253 296
#     4   9  18  32  50  74 101 129 161 197 242 288
#
# _framework density 16.363177
#
# number of rings (size 3 to 8) (size 9 to 14) (size 15 to 20)
#    0.750    1.500    1.250    2.625    0.000    3.500 
#    0.000    1.875    0.000    0.000    0.000    0.875 
#    0.000    0.000    0.000    0.000    0.000    0.000 
#
# Total GULP energy -396428.502391 kJ/mol
# GULP energy per Si atom -12388.390700 kJ/mol
# Density = 1.632593 g / cm^3
# Si number density = 16.363177 Si / 1000 Ang^3
#
#
#
# Elastic Constant Matrix: (Units=GPa)
#
#
# Indices 1 2 3 4 5 6 
#
# 1 69.1987 24.5314 62.0251 0.0000 -5.1656 0.0000
# 2 24.5314 52.2944 29.3979 0.0000 2.7664 0.0000
# 3 62.0251 29.3979 112.0981 0.0000 -1.2502 0.0000
# 4 0.0000 0.0000 0.0000 20.3725 0.0000 1.1199
# 5 -5.1656 2.7664 -1.2502 0.0000 27.0031 0.0000
# 6 0.0000 0.0000 0.0000 1.1199 0.0000 23.7911
#
#
#
# Elastic Compliance Matrix: (Units=1/GPa)
#
#
# Indices 1 2 3 4 5 6 
#
# 1 0.030868 -0.006126 -0.015408 0.000000 0.005819 0.000000
# 2 -0.006126 0.023825 -0.002900 0.000000 -0.003747 0.000000
# 3 -0.015408 -0.002900 0.018187 0.000000 -0.001808 0.000000
# 4 0.000000 0.000000 0.000000 0.049213 0.000000 -0.002317
# 5 0.005819 -0.003747 -0.001808 0.000000 0.038446 0.000000
# 6 0.000000 0.000000 0.000000 -0.002317 0.000000 0.042142
#
#
# Mechanical properties :
#
#
# Convention : Reuss Voigt Hill
#
# Bulk Modulus (GPa) = 41.64836 51.72222 46.68529
# Shear Modulus (GPa) = 19.26385 22.07580 20.66982
#
# Velocity S-wave (km/s) = 3.43486 3.67701 3.55800
# Velocity P-wave (km/s) = 6.42174 7.05016 6.74327
#
# Compressibility (1/GPa) = 0.02401055
#
# Stress axis : x y z
#
# Youngs Moduli (GPa) = 32.39574 41.97279 54.98520
#
# Poissons Ratio (x) = 0.25714 0.84722
# Poissons Ratio (y) = 0.19847 0.15947
# Poissons Ratio (z) = 0.49916 0.12173
#
# Static dielectric constant tensor:
#      x y z
#    x 2.852800 0.000000 -0.185460 
#    y 0.000000 3.084730 0.000000 
#    z -0.185460 0.000000 3.181880 
# 
# 
# High freq. dielectric constant tensor:
#      x y z
#    x 1.600820 0.000000 -0.005110 
#    y 0.000000 1.631250 0.000000 
#    z -0.005110 0.000000 1.627100 
# 
# From -- ./inp_files/43810.got.cif
#   From: 2010.06.25/outbox.cif.g09.slc.cpg/sg11_22_cif.got.tgz:43810.got - 2010.06.27 23:14:04.
