data_PCOD8070633
_publ_section_title
;
Structure prediction by ZEFSAII (Michael W. Deem and Ramdas Pophale) SiO2 
 PCOD8070633
Probable space group: P 21/M
;
_chemical_formula_sum "Si O2"
_cell_formula_units_Z 32
_cell_length_a 21.268435
_cell_length_b 8.943535
_cell_length_c 11.721635
_cell_angle_alpha 90.000000
_cell_angle_beta 127.536920
_cell_angle_gamma 90.000000
_cell_volume 1768.009991
_symmetry_space_group_name_H-M "P 21/M"
_symmetry_group_IT_number 11
_symmetry_cell_setting 'monoclinic'
loop_
_space_group_symop_operation_xyz
x,y,z
-x,1/2+y,-z
-x,-y,-z
x,1/2-y,z
loop_
_atom_site_type_symbol
_atom_site_label
_atom_site_fract_x
_atom_site_fract_y
_atom_site_fract_z
Si Si1 0.530264 0.424916 0.148183
Si Si2 0.714943 0.078246 0.344987
Si Si3 0.324413 0.417428 0.264182
Si Si4 0.764647 0.075785 0.648257
Si Si5 0.838446 0.915201 0.052485
Si Si6 0.079423 0.575547 0.046544
Si Si7 0.404445 0.927845 0.154092
Si Si8 0.735400 0.925834 0.138926
O O1 0.509325 0.250000 0.122418
O O2 0.623012 0.453983 0.264995
O O3 0.488390 0.503494 0.209396
O O4 0.500000 0.500000 0.000000
O O5 0.728640 0.250000 0.325073
O O6 0.762617 0.037580 0.512438
O O7 0.750269 0.973096 0.285495
O O8 0.357863 0.250000 0.318117
O O9 0.306907 0.489887 0.367701
O O10 0.387643 0.515613 0.263813
O O11 0.244105 0.414832 0.104510
O O12 0.750511 0.250000 0.655919
O O13 0.850001 0.025068 0.790922
O O14 0.876885 0.750000 0.092789
O O15 0.816050 0.963596 0.157143
O O16 0.900000 0.027372 0.060675
O O17 0.065675 0.750000 0.032819
O O18 0.000000 0.500000 0.000000
O O19 0.407725 0.750000 0.155927
O O20 0.338757 0.981662 0.990962
O O21 0.715835 0.750000 0.107545
#
# Coordination Sequence:
#
# PCOD8070633 Si02
#       8
#     4   4   4   4   4   4   4   4
#     4  11  21  33  49  72 101 134 174 221 264 308
#     4  10  21  35  52  73 102 138 174 212 258 309
#     4   9  17  31  51  74  99 130 168 215 262 305
#     4   9  19  36  54  76 104 136 171 206 251 310
#     4   8  16  30  48  74 104 130 162 206 250 295
#     4  10  19  32  55  82 107 133 162 202 248 299
#     4  11  20  31  49  72  99 133 173 220 265 306
#     4  10  19  31  50  75 103 134 172 216 258 301
#
# _framework density 18.099447000000001
#
# number of rings (size 3 to 8) (size 9 to 14) (size 15 to 20)
#    0.000    2.250    1.250    3.375    0.000    5.000 
#    0.000    0.625    0.000    0.750    0.000    0.000 
#    0.000    0.000    0.000    0.000    0.000    0.000 
#
# Total GULP energy -396787.559382 kJ/mol
# GULP energy per Si atom -12399.611231 kJ/mol
# Density = 1.805825 g / cm^3
# Si number density = 18.099447 Si / 1000 Ang^3
#
#
#
# Elastic Constant Matrix: (Units=GPa)
#
#
# Indices 1 2 3 4 5 6 
#
# 1 134.2335 66.5787 44.3653 0.0000 -19.4091 0.0000
# 2 66.5787 110.9847 35.6671 0.0000 -9.6494 0.0000
# 3 44.3653 35.6671 63.6218 0.0000 -14.3266 0.0000
# 4 0.0000 0.0000 0.0000 20.4986 0.0000 -7.7329
# 5 -19.4091 -9.6494 -14.3266 0.0000 21.3224 0.0000
# 6 0.0000 0.0000 0.0000 -7.7329 0.0000 36.7189
#
#
#
# Elastic Compliance Matrix: (Units=1/GPa)
#
#
# Indices 1 2 3 4 5 6 
#
# 1 0.012498 -0.005622 -0.004212 0.000000 0.006002 0.000000
# 2 -0.005622 0.013537 -0.004055 0.000000 -0.001716 0.000000
# 3 -0.004212 -0.004055 0.023155 0.000000 0.009889 0.000000
# 4 0.000000 0.000000 0.000000 0.052994 0.000000 0.011160
# 5 0.006002 -0.001716 0.009889 0.000000 0.058231 0.000000
# 6 0.000000 0.000000 0.000000 0.011160 0.000000 0.029584
#
#
# Mechanical properties :
#
#
# Convention : Reuss Voigt Hill
#
# Bulk Modulus (GPa) = 46.70213 66.89582 56.79897
# Shear Modulus (GPa) = 22.23072 26.52324 24.37698
#
# Velocity S-wave (km/s) = 3.50845 3.83223 3.67391
# Velocity P-wave (km/s) = 6.50164 7.52474 7.03182
#
# Compressibility (1/GPa) = 0.02141230
#
# Stress axis : x y z
#
# Youngs Moduli (GPa) = 80.01156 73.87269 43.18727
#
# Poissons Ratio (x) = 0.41532 0.18190
# Poissons Ratio (y) = 0.44983 0.17512
# Poissons Ratio (z) = 0.33700 0.29954
#
# Static dielectric constant tensor:
#      x y z
#    x 3.557470 0.000000 -0.253930 
#    y 0.000000 3.481000 0.000000 
#    z -0.253930 0.000000 3.211680 
# 
# 
# High freq. dielectric constant tensor:
#      x y z
#    x 1.703030 0.000000 -0.026600 
#    y 0.000000 1.710610 0.000000 
#    z -0.026600 0.000000 1.662460 
# 
# From -- ./inp_files/40691.got.cif
#   From: 2010.06.25/outbox.cif.g09.slc.cpg/sg11_21_cif.got.tgz:40691.got - 2010.06.27 23:14:04.
