data_PCOD8070886
_publ_section_title
;
Structure prediction by ZEFSAII (Michael W. Deem and Ramdas Pophale) SiO2 
 PCOD8070886
Probable space group: P 21/M
;
_chemical_formula_sum "Si O2"
_cell_formula_units_Z 28
_cell_length_a 14.175570
_cell_length_b 8.929886
_cell_length_c 19.031181
_cell_angle_alpha 90.000000
_cell_angle_beta 140.440161
_cell_angle_gamma 90.000000
_cell_volume 1534.307303
_symmetry_space_group_name_H-M "P 21/M"
_symmetry_group_IT_number 11
_symmetry_cell_setting 'monoclinic'
loop_
_space_group_symop_operation_xyz
x,y,z
-x,1/2+y,-z
-x,-y,-z
x,1/2-y,z
loop_
_atom_site_type_symbol
_atom_site_label
_atom_site_fract_x
_atom_site_fract_y
_atom_site_fract_z
Si Si1 0.670134 0.074596 0.376731
Si Si2 0.402333 0.426864 0.005260
Si Si3 0.078812 0.921983 0.980810
Si Si4 0.086388 0.426224 0.383761
Si Si5 0.937404 0.925830 0.174317
Si Si6 0.578226 0.421799 0.836151
Si Si7 0.113853 0.580434 0.612743
O O1 0.656202 0.250000 0.386805
O O2 0.725049 0.046162 0.326810
O O3 0.775905 0.998972 0.495448
O O4 0.511133 0.994934 0.280974
O O5 0.431918 0.250000 0.022410
O O6 0.228603 0.464808 0.894229
O O7 0.500000 0.500000 0.000000
O O8 0.452601 0.491728 0.108933
O O9 0.028591 0.750000 0.946864
O O10 0.030013 0.006137 0.882673
O O11 0.253684 0.935938 0.091683
O O12 0.000000 0.000000 0.000000
O O13 0.117228 0.250000 0.392963
O O14 0.064564 0.503187 0.296402
O O15 0.926182 0.460059 0.329848
O O16 0.961926 0.750000 0.184960
O O17 0.530388 0.250000 0.819450
O O18 0.073759 0.750000 0.577211
O O19 0.000000 0.500000 0.500000
#
# Coordination Sequence:
#
# PCOD8070886 Si02
#       7
#     4   4   4   4   4   4   4
#     4  10  19  32  50  75 107 146 187 227 267 314
#     4  10  21  35  51  74 106 145 184 225 270 317
#     4  10  21  39  63  86 108 135 172 222 275 330
#     4  10  19  32  50  74 107 147 186 227 269 315
#     4  10  21  36  54  80 109 141 182 224 269 324
#     4  10  21  36  54  80 109 141 180 221 269 324
#     4   8  16  28  42  64  94 136 183 221 255 295
#
# _framework density 18.249276999999999
#
# number of rings (size 3 to 8) (size 9 to 14) (size 15 to 20)
#    0.000    2.286    0.000    2.571    2.000    4.571 
#    0.000    0.000    0.000    0.857    0.000    0.000 
#    0.000    0.000    0.000    0.000    0.000    0.000 
#
# Total GULP energy -346934.973060 kJ/mol
# GULP energy per Si atom -12390.534752 kJ/mol
# Density = 1.820774 g / cm^3
# Si number density = 18.249277 Si / 1000 Ang^3
#
#
#
# Elastic Constant Matrix: (Units=GPa)
#
#
# Indices 1 2 3 4 5 6 
#
# 1 87.5500 49.8930 41.9154 0.0000 -16.3958 0.0000
# 2 49.8930 120.8316 71.9406 0.0000 -10.7387 0.0000
# 3 41.9154 71.9406 134.4155 0.0000 -10.5828 0.0000
# 4 0.0000 0.0000 0.0000 35.1232 0.0000 -2.8324
# 5 -16.3958 -10.7387 -10.5828 0.0000 15.0191 0.0000
# 6 0.0000 0.0000 0.0000 -2.8324 0.0000 28.7416
#
#
#
# Elastic Compliance Matrix: (Units=1/GPa)
#
#
# Indices 1 2 3 4 5 6 
#
# 1 0.017874 -0.005056 -0.001711 0.000000 0.014692 0.000000
# 2 -0.005056 0.013851 -0.005814 0.000000 0.000287 0.000000
# 3 -0.001711 -0.005814 0.011234 0.000000 0.001891 0.000000
# 4 0.000000 0.000000 0.000000 0.028699 0.000000 0.002828
# 5 0.014692 0.000287 0.001891 0.000000 0.084158 0.000000
# 6 0.000000 0.000000 0.000000 0.002828 0.000000 0.035071
#
#
# Mechanical properties :
#
#
# Convention : Reuss Voigt Hill
#
# Bulk Modulus (GPa) = 56.19040 74.47723 65.33382
# Shear Modulus (GPa) = 22.52455 27.71332 25.11893
#
# Velocity S-wave (km/s) = 3.51703 3.90115 3.71406
# Velocity P-wave (km/s) = 6.88113 7.82251 7.36687
#
# Compressibility (1/GPa) = 0.01779663
#
# Stress axis : x y z
#
# Youngs Moduli (GPa) = 55.94778 72.19925 89.01878
#
# Poissons Ratio (x) = 0.36504 0.15231
# Poissons Ratio (y) = 0.28287 0.51753
# Poissons Ratio (z) = 0.09572 0.41975
#
# Static dielectric constant tensor:
#      x y z
#    x 3.226390 0.000000 0.011760 
#    y 0.000000 3.517070 0.000000 
#    z 0.011760 0.000000 3.253730 
# 
# 
# High freq. dielectric constant tensor:
#      x y z
#    x 1.678090 0.000000 -0.001310 
#    y 0.000000 1.727070 0.000000 
#    z -0.001310 0.000000 1.705510 
# 
# From -- ./inp_files/37205.got.cif
#   From: 2010.06.25/outbox.cif.g09.slc.cpg/sg11_19_cif.got.tgz:37205.got - 2010.06.27 23:14:04.
