data_PCOD8070798
_publ_section_title
;
Structure prediction by ZEFSAII (Michael W. Deem and Ramdas Pophale) SiO2 
 PCOD8070798
Probable space group: P 21/M
;
_chemical_formula_sum "Si O2"
_cell_formula_units_Z 32
_cell_length_a 12.464302
_cell_length_b 8.973148
_cell_length_c 24.770632
_cell_angle_alpha 90.000000
_cell_angle_beta 131.140138
_cell_angle_gamma 90.000000
_cell_volume 2086.431255
_symmetry_space_group_name_H-M "P 21/M"
_symmetry_group_IT_number 11
_symmetry_cell_setting 'monoclinic'
loop_
_space_group_symop_operation_xyz
x,y,z
-x,1/2+y,-z
-x,-y,-z
x,1/2-y,z
loop_
_atom_site_type_symbol
_atom_site_label
_atom_site_fract_x
_atom_site_fract_y
_atom_site_fract_z
Si Si1 0.303905 0.417833 0.287823
Si Si2 0.254749 0.079216 0.156927
Si Si3 0.320139 0.578204 0.070882
Si Si4 0.872449 0.079500 0.694183
Si Si5 0.835985 0.576396 0.164530
Si Si6 0.061792 0.579288 0.908321
Si Si7 0.455480 0.573402 0.929211
Si Si8 0.383356 0.417976 0.426709
O O1 0.239528 0.250000 0.267434
O O2 0.355048 0.449923 0.243519
O O3 0.175749 0.530041 0.261200
O O4 0.423676 0.430225 0.375407
O O5 0.266389 0.250000 0.140625
O O6 0.094358 0.039939 0.121566
O O7 0.309035 0.968425 0.129457
O O8 0.367840 0.750000 0.083071
O O9 0.438370 0.475798 0.082451
O O10 0.167973 0.551361 0.993245
O O11 0.834310 0.250000 0.671489
O O12 0.042178 0.051453 0.749041
O O13 0.777287 0.986279 0.619184
O O14 0.794493 0.750000 0.147115
O O15 0.890439 0.527489 0.123986
O O16 0.701953 0.480031 0.139131
O O17 0.071247 0.750000 0.891387
O O18 0.457796 0.750000 0.936679
O O19 0.500000 0.500000 0.000000
O O20 0.500000 0.500000 0.500000
O O21 0.378861 0.250000 0.445958
#
# Coordination Sequence:
#
# PCOD8070798 Si02
#       8
#     4   4   4   4   4   4   4   4
#     4   8  16  28  44  64  92 129 159 187 227 272
#     4  10  19  33  49  67  94 128 163 197 241 292
#     4  11  23  35  48  69  92 121 161 205 250 293
#     4   9  17  28  44  69  96 125 158 191 232 281
#     4  11  21  32  51  73  95 124 162 205 247 294
#     4  10  19  32  49  67  91 124 157 198 247 294
#     4  12  24  38  54  69  89 121 161 209 258 300
#     4   9  16  27  44  68 100 134 161 191 228 277
#
# _framework density 15.337194999999999
#
# number of rings (size 3 to 8) (size 9 to 14) (size 15 to 20)
#    0.750    1.250    2.500    2.625    0.000    3.000 
#    0.000    0.000    0.000    0.000    0.000    0.000 
#    0.000    1.000    0.000    3.000    0.000    4.000 
#
# Total GULP energy -396443.600801 kJ/mol
# GULP energy per Si atom -12388.862525 kJ/mol
# Density = 1.530229 g / cm^3
# Si number density = 15.337195 Si / 1000 Ang^3
#
#
#
# Elastic Constant Matrix: (Units=GPa)
#
#
# Indices 1 2 3 4 5 6 
#
# 1 64.0071 34.2734 33.0526 0.0000 1.7268 0.0000
# 2 34.2734 105.3431 51.6593 0.0000 7.2310 0.0000
# 3 33.0526 51.6593 104.8867 0.0000 3.4012 0.0000
# 4 0.0000 0.0000 0.0000 24.7528 0.0000 0.1819
# 5 1.7268 7.2310 3.4012 0.0000 14.5380 0.0000
# 6 0.0000 0.0000 0.0000 0.1819 0.0000 24.8537
#
#
#
# Elastic Compliance Matrix: (Units=1/GPa)
#
#
# Indices 1 2 3 4 5 6 
#
# 1 0.020196 -0.004608 -0.004123 0.000000 0.000858 0.000000
# 2 -0.004608 0.013911 -0.005233 0.000000 -0.005148 0.000000
# 3 -0.004123 -0.005233 0.013412 0.000000 -0.000045 0.000000
# 4 0.000000 0.000000 0.000000 0.040402 0.000000 -0.000296
# 5 0.000858 -0.005148 -0.000045 0.000000 0.071255 0.000000
# 6 0.000000 0.000000 0.000000 -0.000296 0.000000 0.040238
#
#
# Mechanical properties :
#
#
# Convention : Reuss Voigt Hill
#
# Bulk Modulus (GPa) = 51.03855 56.91195 53.97525
# Shear Modulus (GPa) = 21.37924 23.17899 22.27912
#
# Velocity S-wave (km/s) = 3.73761 3.89175 3.81546
# Velocity P-wave (km/s) = 7.20945 7.57509 7.39453
#
# Compressibility (1/GPa) = 0.01959303
#
# Stress axis : x y z
#
# Youngs Moduli (GPa) = 49.51359 71.88326 74.56036
#
# Poissons Ratio (x) = 0.33124 0.30739
# Poissons Ratio (y) = 0.22816 0.39015
# Poissons Ratio (z) = 0.20413 0.37614
#
# Static dielectric constant tensor:
#      x y z
#    x 2.742650 0.000000 0.030580 
#    y 0.000000 3.041740 0.000000 
#    z 0.030580 0.000000 2.960820 
# 
# 
# High freq. dielectric constant tensor:
#      x y z
#    x 1.546850 0.000000 0.002990 
#    y 0.000000 1.603440 0.000000 
#    z 0.002990 0.000000 1.579770 
# 
# From -- ./inp_files/71182.got.cif
#   From: 2010.06.25/outbox.cif.g09.slc.cpg/sg11_36_cif.got.tgz:71182.got - 2010.06.27 23:14:04.
