data_PCOD8070389
_publ_section_title
;
Structure prediction by ZEFSAII (Michael W. Deem and Ramdas Pophale) SiO2 
 PCOD8070389
Probable space group: P 21/M
;
_chemical_formula_sum "Si O2"
_cell_formula_units_Z 28
_cell_length_a 12.080248
_cell_length_b 9.133289
_cell_length_c 33.785545
_cell_angle_alpha 90.000000
_cell_angle_beta 26.633801
_cell_angle_gamma 90.000000
_cell_volume 1671.050773
_symmetry_space_group_name_H-M "P 21/M"
_symmetry_group_IT_number 11
_symmetry_cell_setting 'monoclinic'
loop_
_space_group_symop_operation_xyz
x,y,z
-x,1/2+y,-z
-x,-y,-z
x,1/2-y,z
loop_
_atom_site_type_symbol
_atom_site_label
_atom_site_fract_x
_atom_site_fract_y
_atom_site_fract_z
Si Si1 0.267360 0.077316 0.093056
Si Si2 0.259793 0.581363 0.767802
Si Si3 0.102976 0.576453 0.558809
Si Si4 0.876218 0.084640 0.698025
Si Si5 0.633657 0.084640 0.698025
Si Si6 0.447003 0.583932 0.621199
Si Si7 0.098799 0.418638 0.232199
O O1 0.300877 0.250000 0.079651
O O2 0.240251 0.029596 0.147463
O O3 0.022439 0.029604 0.147458
O O4 0.500000 0.000000 0.000000
O O5 0.268916 0.750000 0.777650
O O6 0.380215 0.485501 0.763928
O O7 0.409986 0.556529 0.679463
O O8 0.080934 0.750000 0.567627
O O9 0.357348 0.532214 0.457060
O O10 0.092248 0.509475 0.606983
O O11 0.872835 0.509478 0.606984
O O12 0.972077 0.250000 0.674128
O O13 0.636447 0.084044 0.745421
O O14 0.800145 0.014494 0.763928
O O15 0.657293 0.250000 0.674125
O O16 0.539370 0.750000 0.584252
O O17 0.192704 0.556529 0.679459
O O18 0.157163 0.250000 0.222348
#
# Coordination Sequence:
#
# PCOD8070389 Si02
#       7
#     4   4   4   4   4   4   4
#     4   9  19  35  55  82 106 126 156 195 244 297
#     4   9  18  33  53  73  98 131 164 201 246 294
#     4  10  19  31  47  69  96 133 173 205 243 290
#     4   9  19  33  48  70  98 130 169 208 244 284
#     4   9  19  33  48  70  98 130 169 208 244 284
#     4   9  18  32  47  69  99 129 167 212 249 283
#     4   9  18  33  53  73  98 131 164 201 246 294
#
# _framework density 16.755922999999999
#
# number of rings (size 3 to 8) (size 9 to 14) (size 15 to 20)
#    0.857    2.000    0.000    3.429    0.000    3.429 
#    0.000    2.857    0.000    0.857    0.000    0.000 
#    0.000    0.000    0.000    0.000    0.000    0.000 
#
# Total GULP energy -347018.667861 kJ/mol
# GULP energy per Si atom -12393.523852 kJ/mol
# Density = 1.671779 g / cm^3
# Si number density = 16.755923 Si / 1000 Ang^3
#
#
#
# Elastic Constant Matrix: (Units=GPa)
#
#
# Indices 1 2 3 4 5 6 
#
# 1 92.5407 56.5117 49.5082 0.0000 4.4081 0.0000
# 2 56.5117 118.3378 58.6832 0.0000 -0.2976 0.0000
# 3 49.5082 58.6832 104.5732 0.0000 -6.0522 0.0000
# 4 0.0000 0.0000 0.0000 30.8708 0.0000 -0.5823
# 5 4.4081 -0.2976 -6.0522 0.0000 6.7520 0.0000
# 6 0.0000 0.0000 0.0000 -0.5823 0.0000 26.5980
#
#
#
# Elastic Compliance Matrix: (Units=1/GPa)
#
#
# Indices 1 2 3 4 5 6 
#
# 1 0.018774 -0.005640 -0.006800 0.000000 -0.018600 0.000000
# 2 -0.005640 0.013613 -0.004979 0.000000 -0.000181 0.000000
# 3 -0.006800 -0.004979 0.016686 0.000000 0.019176 0.000000
# 4 0.000000 0.000000 0.000000 0.032406 0.000000 0.000709
# 5 -0.018600 -0.000181 0.019176 0.000000 0.177429 0.000000
# 6 0.000000 0.000000 0.000000 0.000709 0.000000 0.037612
#
#
# Mechanical properties :
#
#
# Convention : Reuss Voigt Hill
#
# Bulk Modulus (GPa) = 70.25235 71.65090 70.95162
# Shear Modulus (GPa) = 14.87639 22.89406 18.88522
#
# Velocity S-wave (km/s) = 2.98288 3.70039 3.36084
# Velocity P-wave (km/s) = 7.34039 7.81739 7.58264
#
# Compressibility (1/GPa) = 0.01423440
#
# Stress axis : x y z
#
# Youngs Moduli (GPa) = 53.26462 73.46136 59.93157
#
# Poissons Ratio (x) = 0.41436 0.40751
# Poissons Ratio (y) = 0.30044 0.29840
# Poissons Ratio (z) = 0.36217 0.36577
#
# Static dielectric constant tensor:
#      x y z
#    x 3.057400 0.000000 0.022000 
#    y 0.000000 3.072780 0.000000 
#    z 0.022000 0.000000 2.895900 
# 
# 
# High freq. dielectric constant tensor:
#      x y z
#    x 1.639110 0.000000 0.003530 
#    y 0.000000 1.652110 0.000000 
#    z 0.003530 0.000000 1.613220 
# 
# From -- ./inp_files/72900.got.cif
#   From: 2010.06.25/outbox.cif.g09.slc.cpg/sg11_37_cif.got.tgz:72900.got - 2010.06.27 23:14:04.
