data_PCOD8070684
_publ_section_title
;
Structure prediction by ZEFSAII (Michael W. Deem and Ramdas Pophale) SiO2 
 PCOD8070684
Probable space group: P 21/M
;
_chemical_formula_sum "Si O2"
_cell_formula_units_Z 32
_cell_length_a 13.741999
_cell_length_b 9.496046
_cell_length_c 20.469516
_cell_angle_alpha 90.000000
_cell_angle_beta 138.770662
_cell_angle_gamma 90.000000
_cell_volume 1760.495421
_symmetry_space_group_name_H-M "P 21/M"
_symmetry_group_IT_number 11
_symmetry_cell_setting 'monoclinic'
loop_
_space_group_symop_operation_xyz
x,y,z
-x,1/2+y,-z
-x,-y,-z
x,1/2-y,z
loop_
_atom_site_type_symbol
_atom_site_label
_atom_site_fract_x
_atom_site_fract_y
_atom_site_fract_z
Si Si1 0.294754 0.905489 0.637716
Si Si2 0.822973 0.411491 0.660740
Si Si3 0.358688 0.912389 0.306016
Si Si4 0.629097 0.917569 0.950493
Si Si5 0.837899 0.911672 0.170631
Si Si6 0.295527 0.414081 0.517621
Si Si7 0.354504 0.093547 0.183465
Si Si8 0.703930 0.415426 0.215221
O O1 0.233305 0.750000 0.588229
O O2 0.470065 0.899102 0.726299
O O3 0.241971 0.948311 0.683684
O O4 0.238212 0.019588 0.556850
O O5 0.781960 0.250000 0.622212
O O6 0.726744 0.465378 0.673138
O O7 0.790771 0.511237 0.583868
O O8 0.993448 0.425161 0.766502
O O9 0.326190 0.750000 0.275912
O O10 0.531069 0.941460 0.404452
O O11 0.294904 0.994924 0.211215
O O12 0.625834 0.750000 0.945410
O O13 0.689050 0.969820 0.909808
O O14 0.463078 0.971849 0.880494
O O15 0.737063 0.973922 0.061370
O O16 0.795564 0.750000 0.163663
O O17 0.813052 0.001295 0.223080
O O18 0.255918 0.250000 0.498007
O O19 0.288130 0.250000 0.160282
O O20 0.714624 0.250000 0.205654
#
# Coordination Sequence:
#
# PCOD8070684 Si02
#       8
#     4   4   4   4   4   4   4   4
#     4   8  15  29  49  72  97 123 150 186 238 291
#     4  10  21  35  48  65  96 134 162 189 234 287
#     4   9  18  32  49  71  97 123 155 196 240 282
#     4   8  15  30  51  74  98 125 158 192 232 282
#     4  10  20  33  49  69  96 131 165 194 228 277
#     4  10  19  31  51  75  94 117 156 204 241 274
#     4   8  14  27  49  73  95 121 154 192 232 278
#     4   9  17  31  52  75  98 124 155 195 238 277
#
# _framework density 18.176701999999999
#
# number of rings (size 3 to 8) (size 9 to 14) (size 15 to 20)
#    0.000    3.000    0.000    2.625    0.000    2.000 
#    0.000    3.750    0.000    0.000    0.000    0.000 
#    0.000    0.000    0.000    0.000    0.000    0.000 
#
# Total GULP energy -396727.353251 kJ/mol
# GULP energy per Si atom -12397.729789 kJ/mol
# Density = 1.813533 g / cm^3
# Si number density = 18.176702 Si / 1000 Ang^3
#
#
#
# Elastic Constant Matrix: (Units=GPa)
#
#
# Indices 1 2 3 4 5 6 
#
# 1 56.2436 33.4636 44.0572 0.0000 -22.9770 0.0000
# 2 33.4636 64.9199 34.4343 0.0000 -16.7378 0.0000
# 3 44.0572 34.4343 51.7027 0.0000 -20.6706 0.0000
# 4 0.0000 0.0000 0.0000 21.7009 0.0000 -8.5210
# 5 -22.9770 -16.7378 -20.6706 0.0000 28.2532 0.0000
# 6 0.0000 0.0000 0.0000 -8.5210 0.0000 29.0644
#
#
#
# Elastic Compliance Matrix: (Units=1/GPa)
#
#
# Indices 1 2 3 4 5 6 
#
# 1 0.058836 -0.004708 -0.040969 0.000000 0.015086 0.000000
# 2 -0.004708 0.024447 -0.011323 0.000000 0.002371 0.000000
# 3 -0.040969 -0.011323 0.064722 0.000000 0.007326 0.000000
# 4 0.000000 0.000000 0.000000 0.052076 0.000000 0.015267
# 5 0.015086 0.002371 0.007326 0.000000 0.054427 0.000000
# 6 0.000000 0.000000 0.000000 0.015267 0.000000 0.038882
#
#
# Mechanical properties :
#
#
# Convention : Reuss Voigt Hill
#
# Bulk Modulus (GPa) = 29.40631 44.08627 36.74629
# Shear Modulus (GPa) = 11.94102 19.86443 15.90272
#
# Velocity S-wave (km/s) = 2.56587 3.30942 2.96107
# Velocity P-wave (km/s) = 4.99914 6.23778 5.65249
#
# Compressibility (1/GPa) = 0.03400631
#
# Stress axis : x y z
#
# Youngs Moduli (GPa) = 16.99644 40.90470 15.45063
#
# Poissons Ratio (x) = 0.19256 0.63300
# Poissons Ratio (y) = 0.08001 0.17494
# Poissons Ratio (z) = 0.69633 0.46315
#
# Static dielectric constant tensor:
#      x y z
#    x 3.363470 0.000000 -0.298920 
#    y 0.000000 3.316300 0.000000 
#    z -0.298920 0.000000 3.356180 
# 
# 
# High freq. dielectric constant tensor:
#      x y z
#    x 1.696640 0.000000 -0.022330 
#    y 0.000000 1.688400 0.000000 
#    z -0.022330 0.000000 1.691660 
# 
# From -- ./inp_files/38262.got.cif
#   From: 2010.06.25/outbox.cif.g09.slc.cpg/sg11_20_cif.got.tgz:38262.got - 2010.06.27 23:14:04.
