data_PCOD8070472
_publ_section_title
;
Structure prediction by ZEFSAII (Michael W. Deem and Ramdas Pophale) SiO2 
 PCOD8070472
Probable space group: P 21/M
;
_chemical_formula_sum "Si O2"
_cell_formula_units_Z 24
_cell_length_a 5.309871
_cell_length_b 9.683307
_cell_length_c 24.064907
_cell_angle_alpha 90.000000
_cell_angle_beta 96.097139
_cell_angle_gamma 90.000000
_cell_volume 1230.348626
_symmetry_space_group_name_H-M "P 21/M"
_symmetry_group_IT_number 11
_symmetry_cell_setting 'monoclinic'
loop_
_space_group_symop_operation_xyz
x,y,z
-x,1/2+y,-z
-x,-y,-z
x,1/2-y,z
loop_
_atom_site_type_symbol
_atom_site_label
_atom_site_fract_x
_atom_site_fract_y
_atom_site_fract_z
Si Si1 0.668946 0.410641 0.805479
Si Si2 0.474954 0.914390 0.443616
Si Si3 0.813367 0.099012 0.026555
Si Si4 0.056520 0.087164 0.621646
Si Si5 0.467869 0.399776 0.915513
Si Si6 0.138256 0.084787 0.747130
O O1 0.674111 0.250000 0.791678
O O2 0.669893 0.438968 0.872165
O O3 0.408641 0.473305 0.774347
O O4 0.918070 0.475625 0.782628
O O5 0.480166 0.750000 0.455613
O O6 0.708141 0.961866 0.410354
O O7 0.211695 0.961607 0.409365
O O8 0.500000 0.000000 0.500000
O O9 0.930492 0.250000 0.043760
O O10 0.732616 0.024419 0.082453
O O11 0.583965 0.121621 0.978847
O O12 0.000000 0.000000 0.000000
O O13 0.059796 0.250000 0.625798
O O14 0.087859 0.026020 0.684244
O O15 0.340390 0.250000 0.896017
O O16 0.138823 0.250000 0.747874
#
# Coordination Sequence:
#
# PCOD8070472 Si02
#       6
#     4   4   4   4   4   4
#     4   9  17  27  45  71 100 126 158 204 253 298
#     4  10  19  31  48  72 101 132 165 204 245 290
#     4  10  20  33  51  72  99 132 167 205 255 310
#     4   9  17  29  46  69 102 133 161 202 250 295
#     4   9  19  33  49  72 100 129 162 208 255 305
#     4   9  16  27  44  70  99 129 160 198 251 301
#
# _framework density 19.506668000000001
#
# number of rings (size 3 to 8) (size 9 to 14) (size 15 to 20)
#    0.000    2.667    0.000    2.000    2.333    4.667 
#    0.000    0.000    0.000    0.000    0.000    7.000 
#    0.000    0.000    0.000    0.000    0.000    0.000 
#
# Total GULP energy -297355.242054 kJ/mol
# GULP energy per Si atom -12389.801752 kJ/mol
# Density = 1.946227 g / cm^3
# Si number density = 19.506668 Si / 1000 Ang^3
#
#
#
# Elastic Constant Matrix: (Units=GPa)
#
#
# Indices 1 2 3 4 5 6 
#
# 1 122.6535 15.0607 30.0623 0.0000 -23.9482 0.0000
# 2 15.0607 67.5315 12.7619 0.0000 -17.5564 0.0000
# 3 30.0623 12.7619 101.2376 0.0000 -26.7173 0.0000
# 4 0.0000 0.0000 0.0000 20.1018 0.0000 -5.6945
# 5 -23.9482 -17.5564 -26.7173 0.0000 39.2760 0.0000
# 6 0.0000 0.0000 0.0000 -5.6945 0.0000 14.4194
#
#
#
# Elastic Compliance Matrix: (Units=1/GPa)
#
#
# Indices 1 2 3 4 5 6 
#
# 1 0.009481 -0.000670 -0.001565 0.000000 0.004417 0.000000
# 2 -0.000670 0.016805 -0.000055 0.000000 0.007066 0.000000
# 3 -0.001565 -0.000055 0.012299 0.000000 0.007387 0.000000
# 4 0.000000 0.000000 0.000000 0.056013 0.000000 0.022120
# 5 0.004417 0.007066 0.007387 0.000000 0.036337 0.000000
# 6 0.000000 0.000000 0.000000 0.022120 0.000000 0.078087
#
#
# Mechanical properties :
#
#
# Convention : Reuss Voigt Hill
#
# Bulk Modulus (GPa) = 29.40812 45.24361 37.32586
# Shear Modulus (GPa) = 22.22835 30.32863 26.27849
#
# Velocity S-wave (km/s) = 3.37935 3.94735 3.67434
# Velocity P-wave (km/s) = 5.50775 6.63474 6.09734
#
# Compressibility (1/GPa) = 0.03400422
#
# Stress axis : x y z
#
# Youngs Moduli (GPa) = 105.46957 59.50734 81.30696
#
# Poissons Ratio (x) = 0.03990 0.12728
# Poissons Ratio (y) = 0.07072 0.00444
# Poissons Ratio (z) = 0.16510 0.00325
#
# Static dielectric constant tensor:
#      x y z
#    x 4.134430 0.000000 0.092870 
#    y 0.000000 3.595100 0.000000 
#    z 0.092870 0.000000 4.043460 
# 
# 
# High freq. dielectric constant tensor:
#      x y z
#    x 1.766990 0.000000 -0.012030 
#    y 0.000000 1.695270 0.000000 
#    z -0.012030 0.000000 1.763820 
# 
# From -- ./inp_files/8556.got.cif
#   From: 2010.06.25/outbox.cif.g09.slc.cpg/sg11_5_cif.got.tgz:8556.got - 2010.06.27 23:14:04.
