data_PCOD8070607
_publ_section_title
;
Structure prediction by ZEFSAII (Michael W. Deem and Ramdas Pophale) SiO2 
 PCOD8070607
Probable space group: P 21/M
;
_chemical_formula_sum "Si O2"
_cell_formula_units_Z 32
_cell_length_a 22.994316
_cell_length_b 9.281571
_cell_length_c 21.206869
_cell_angle_alpha 90.000000
_cell_angle_beta 24.009064
_cell_angle_gamma 90.000000
_cell_volume 1841.561042
_symmetry_space_group_name_H-M "P 21/M"
_symmetry_group_IT_number 11
_symmetry_cell_setting 'monoclinic'
loop_
_space_group_symop_operation_xyz
x,y,z
-x,1/2+y,-z
-x,-y,-z
x,1/2-y,z
loop_
_atom_site_type_symbol
_atom_site_label
_atom_site_fract_x
_atom_site_fract_y
_atom_site_fract_z
Si Si1 0.982864 0.913777 0.656687
Si Si2 0.194057 0.417664 0.928608
Si Si3 0.646828 0.420160 0.340861
Si Si4 0.243499 0.085733 0.355972
Si Si5 0.737361 0.582792 0.804529
Si Si6 0.923745 0.086782 0.128525
Si Si7 0.746059 0.919225 0.988712
Si Si8 0.439600 0.583962 0.920433
O O1 0.031474 0.750000 0.615613
O O2 0.891866 0.937642 0.683281
O O3 0.890064 0.961903 0.808981
O O4 0.125305 0.006387 0.514181
O O5 0.232364 0.250000 0.878297
O O6 0.281526 0.516137 0.793294
O O7 0.238781 0.465327 0.953981
O O8 0.019507 0.440108 0.096578
O O9 0.500000 0.500000 0.500000
O O10 0.618513 0.250000 0.359748
O O11 0.753567 0.450499 0.295653
O O12 0.195050 0.250000 0.397735
O O13 0.255777 0.021596 0.273173
O O14 0.390387 0.069078 0.248023
O O15 0.689527 0.750000 0.853801
O O16 0.620069 0.490798 0.957709
O O17 0.937565 0.250000 0.093186
O O18 0.000000 0.000000 0.000000
O O19 0.715248 0.750000 0.010830
O O20 0.614394 0.006414 0.089480
O O21 0.390913 0.750000 0.968554
#
# Coordination Sequence:
#
# PCOD8070607 Si02
#       8
#     4   4   4   4   4   4   4   4
#     4   9  18  31  48  70  94 122 158 200 243 289
#     4   9  17  33  56  75  94 126 167 206 241 280
#     4  10  19  31  49  77 111 138 160 192 237 284
#     4  10  20  32  47  70  98 125 155 198 249 296
#     4   9  18  33  50  69  94 123 159 200 244 296
#     4   8  15  28  48  73  98 125 158 195 232 273
#     4   9  19  36  54  71  93 125 165 204 242 286
#     4  10  20  32  48  71  98 128 162 199 241 292
#
# _framework density 17.376562
#
# number of rings (size 3 to 8) (size 9 to 14) (size 15 to 20)
#    0.000    2.750    0.000    2.250    0.000    4.500 
#    0.000    1.250    0.000    3.000    0.000    0.000 
#    0.000    0.000    0.000    0.000    0.000    0.000 
#
# Total GULP energy -396582.660889 kJ/mol
# GULP energy per Si atom -12393.208153 kJ/mol
# Density = 1.733701 g / cm^3
# Si number density = 17.376562 Si / 1000 Ang^3
#
#
#
# Elastic Constant Matrix: (Units=GPa)
#
#
# Indices 1 2 3 4 5 6 
#
# 1 107.4358 41.4906 52.8736 0.0000 -3.5936 0.0000
# 2 41.4906 70.6084 52.3105 0.0000 -7.0832 0.0000
# 3 52.8736 52.3105 105.3231 0.0000 -13.2831 0.0000
# 4 0.0000 0.0000 0.0000 32.3454 0.0000 -1.9193
# 5 -3.5936 -7.0832 -13.2831 0.0000 16.5397 0.0000
# 6 0.0000 0.0000 0.0000 -1.9193 0.0000 23.0169
#
#
#
# Elastic Compliance Matrix: (Units=1/GPa)
#
#
# Indices 1 2 3 4 5 6 
#
# 1 0.013335 -0.004583 -0.004785 0.000000 -0.002908 0.000000
# 2 -0.004583 0.023990 -0.009396 0.000000 0.001732 0.000000
# 3 -0.004785 -0.009396 0.017720 0.000000 0.009167 0.000000
# 4 0.000000 0.000000 0.000000 0.031070 0.000000 0.002591
# 5 -0.002908 0.001732 0.009167 0.000000 0.067933 0.000000
# 6 0.000000 0.000000 0.000000 0.002591 0.000000 0.043662
#
#
# Mechanical properties :
#
#
# Convention : Reuss Voigt Hill
#
# Bulk Modulus (GPa) = 57.08633 64.07963 60.58298
# Shear Modulus (GPa) = 20.74011 23.49321 22.11666
#
# Velocity S-wave (km/s) = 3.45855 3.68095 3.57148
# Velocity P-wave (km/s) = 6.99089 7.41775 7.20748
#
# Compressibility (1/GPa) = 0.01751733
#
# Stress axis : x y z
#
# Youngs Moduli (GPa) = 74.98826 41.68318 56.43383
#
# Poissons Ratio (x) = 0.19102 0.27005
# Poissons Ratio (y) = 0.34364 0.53027
# Poissons Ratio (z) = 0.35884 0.39167
#
# Static dielectric constant tensor:
#      x y z
#    x 3.414390 0.000000 -0.340480 
#    y 0.000000 3.270160 0.000000 
#    z -0.340480 0.000000 3.163780 
# 
# 
# High freq. dielectric constant tensor:
#      x y z
#    x 1.660930 0.000000 -0.020560 
#    y 0.000000 1.674660 0.000000 
#    z -0.020560 0.000000 1.660480 
# 
# From -- ./inp_files/67796.got.cif
#   From: 2010.06.25/outbox.cif.g09.slc.cpg/sg11_34_cif.got.tgz:67796.got - 2010.06.27 23:14:04.
