data_PCOD8070030
_publ_section_title
;
Structure prediction by ZEFSAII (Michael W. Deem and Ramdas Pophale) SiO2 
 PCOD8070030
Probable space group: P 21/M
;
_chemical_formula_sum "Si O2"
_cell_formula_units_Z 32
_cell_length_a 23.617063
_cell_length_b 9.026019
_cell_length_c 16.985135
_cell_angle_alpha 90.000000
_cell_angle_beta 33.725416
_cell_angle_gamma 90.000000
_cell_volume 2010.254721
_symmetry_space_group_name_H-M "P 21/M"
_symmetry_group_IT_number 11
_symmetry_cell_setting 'monoclinic'
loop_
_space_group_symop_operation_xyz
x,y,z
-x,1/2+y,-z
-x,-y,-z
x,1/2-y,z
loop_
_atom_site_type_symbol
_atom_site_label
_atom_site_fract_x
_atom_site_fract_y
_atom_site_fract_z
Si Si1 0.396088 0.079782 0.600329
Si Si2 0.622997 0.423550 0.701668
Si Si3 0.106015 0.075669 0.359210
Si Si4 0.759850 0.081167 0.917260
Si Si5 0.283323 0.075862 0.273713
Si Si6 0.421492 0.920293 0.994233
Si Si7 0.417217 0.921410 0.427393
Si Si8 0.349565 0.420216 0.824349
O O1 0.418483 0.250000 0.557318
O O2 0.324052 0.061220 0.760499
O O3 0.500000 0.000000 0.500000
O O4 0.352954 0.007139 0.569661
O O5 0.612056 0.250000 0.731706
O O6 0.718884 0.493183 0.638745
O O7 0.638136 0.453097 0.591384
O O8 0.523728 0.508592 0.844902
O O9 0.091566 0.250000 0.366286
O O10 0.181179 0.036183 0.344432
O O11 0.149160 0.011477 0.227659
O O12 0.000000 0.000000 0.500000
O O13 0.796470 0.250000 0.883714
O O14 0.659333 0.066794 0.981806
O O15 0.733978 0.016336 0.032948
O O16 0.295777 0.250000 0.271176
O O17 0.382637 0.013153 0.113965
O O18 0.438982 0.750000 0.998979
O O19 0.415391 0.750000 0.452070
O O20 0.535341 0.975040 0.288755
O O21 0.338479 0.250000 0.863979
#
# Coordination Sequence:
#
# PCOD8070030 Si02
#       8
#     4   4   4   4   4   4   4   4
#     4   9  17  27  40  58  83 118 156 192 228 265
#     4  11  20  30  44  62  89 122 155 191 224 262
#     4  10  21  37  55  70  90 116 144 185 232 277
#     4  10  19  29  46  70  91 117 154 189 225 270
#     4  10  21  34  47  65  87 115 148 184 227 269
#     4  10  19  30  43  62  88 119 154 189 223 262
#     4   9  18  29  41  59  86 122 158 191 228 263
#     4   9  16  28  42  60  88 119 153 191 228 264
#
# _framework density 15.918381
#
# number of rings (size 3 to 8) (size 9 to 14) (size 15 to 20)
#    0.000    2.250    1.250    3.375    0.000    6.000 
#    0.000    0.000    0.000    0.000    0.000    0.000 
#    0.000    1.000    0.000    3.250    0.000    4.750 
#
# Total GULP energy -396716.255419 kJ/mol
# GULP energy per Si atom -12397.382982 kJ/mol
# Density = 1.588215 g / cm^3
# Si number density = 15.918381 Si / 1000 Ang^3
#
#
#
# Elastic Constant Matrix: (Units=GPa)
#
#
# Indices 1 2 3 4 5 6 
#
# 1 72.8878 47.3354 41.4600 0.0000 24.1122 0.0000
# 2 47.3354 90.1582 46.9707 0.0000 13.0368 0.0000
# 3 41.4600 46.9707 71.5786 0.0000 14.4644 0.0000
# 4 0.0000 0.0000 0.0000 26.5964 0.0000 6.2380
# 5 24.1122 13.0368 14.4644 0.0000 22.3291 0.0000
# 6 0.0000 0.0000 0.0000 6.2380 0.0000 27.5843
#
#
#
# Elastic Compliance Matrix: (Units=1/GPa)
#
#
# Indices 1 2 3 4 5 6 
#
# 1 0.032213 -0.009471 -0.007516 0.000000 -0.024387 0.000000
# 2 -0.009471 0.019824 -0.008343 0.000000 0.004057 0.000000
# 3 -0.007516 -0.008343 0.024363 0.000000 -0.002795 0.000000
# 4 0.000000 0.000000 0.000000 0.039705 0.000000 -0.008979
# 5 -0.024387 0.004057 -0.002795 0.000000 0.070561 0.000000
# 6 0.000000 0.000000 0.000000 -0.008979 0.000000 0.038283
#
#
# Mechanical properties :
#
#
# Convention : Reuss Voigt Hill
#
# Bulk Modulus (GPa) = 38.84722 56.23968 47.54345
# Shear Modulus (GPa) = 17.59396 21.89253 19.74325
#
# Velocity S-wave (km/s) = 3.32815 3.71253 3.52558
# Velocity P-wave (km/s) = 6.26305 7.33375 6.81944
#
# Compressibility (1/GPa) = 0.02574187
#
# Stress axis : x y z
#
# Youngs Moduli (GPa) = 31.04343 50.44447 41.04522
#
# Poissons Ratio (x) = 0.47775 0.30848
# Poissons Ratio (y) = 0.29401 0.34243
# Poissons Ratio (z) = 0.23331 0.42085
#
# Static dielectric constant tensor:
#      x y z
#    x 3.150240 0.000000 0.287500 
#    y 0.000000 3.275800 0.000000 
#    z 0.287500 0.000000 2.767140 
# 
# 
# High freq. dielectric constant tensor:
#      x y z
#    x 1.600540 0.000000 0.032290 
#    y 0.000000 1.629250 0.000000 
#    z 0.032290 0.000000 1.567330 
# 
# From -- ./inp_files/61781.got.cif
#   From: 2010.06.25/outbox.cif.g09.slc.cpg/sg11_31_cif.got.tgz:61781.got - 2010.06.27 23:14:04.
