data_PCOD8070151
_publ_section_title
;
Structure prediction by ZEFSAII (Michael W. Deem and Ramdas Pophale) SiO2 
 PCOD8070151
Probable space group: P 21/M
;
_chemical_formula_sum "Si O2"
_cell_formula_units_Z 32
_cell_length_a 25.201929
_cell_length_b 9.275137
_cell_length_c 20.115551
_cell_angle_alpha 90.000000
_cell_angle_beta 22.734064
_cell_angle_gamma 90.000000
_cell_volume 1817.123154
_symmetry_space_group_name_H-M "P 21/M"
_symmetry_group_IT_number 11
_symmetry_cell_setting 'monoclinic'
loop_
_space_group_symop_operation_xyz
x,y,z
-x,1/2+y,-z
-x,-y,-z
x,1/2-y,z
loop_
_atom_site_type_symbol
_atom_site_label
_atom_site_fract_x
_atom_site_fract_y
_atom_site_fract_z
Si Si1 0.922300 0.081990 0.875084
Si Si2 0.240937 0.412561 0.531963
Si Si3 0.186777 0.919756 0.376533
Si Si4 0.291590 0.083274 0.131343
Si Si5 0.850674 0.586024 0.224536
Si Si6 0.100820 0.083696 0.229306
Si Si7 0.112543 0.415117 0.959852
Si Si8 0.600902 0.419991 0.757383
O O1 0.889631 0.250000 0.911165
O O2 0.083665 0.047727 0.696014
O O3 0.865478 0.011089 0.873812
O O4 0.840035 0.012658 0.032766
O O5 0.272595 0.250000 0.472688
O O6 0.264200 0.432177 0.584869
O O7 0.345279 0.515869 0.373768
O O8 0.192421 0.750000 0.358139
O O9 0.304737 0.972344 0.290764
O O10 0.040878 0.969027 0.573965
O O11 0.206047 0.995391 0.283953
O O12 0.286773 0.250000 0.157744
O O13 0.224727 0.058784 0.136909
O O14 0.447217 0.025298 0.948834
O O15 0.912726 0.750000 0.160305
O O16 0.790857 0.567825 0.218222
O O17 0.963287 0.464081 0.107365
O O18 0.087879 0.250000 0.222767
O O19 0.107104 0.250000 0.990233
O O20 0.605815 0.250000 0.743202
#
# Coordination Sequence:
#
# PCOD8070151 Si02
#       8
#     4   4   4   4   4   4   4   4
#     4  10  19  30  46  70  98 127 163 203 240 286
#     4   9  17  29  46  69  96 127 162 199 237 281
#     4  10  20  34  53  73  95 124 162 201 237 290
#     4  10  22  36  51  72  99 127 158 199 246 290
#     4   8  15  26  39  63  97 128 162 199 239 285
#     4  10  20  35  52  72  97 127 162 199 241 290
#     4   9  15  24  41  64  95 131 160 195 242 288
#     4  10  20  34  50  72  99 127 161 200 239 285
#
# _framework density 17.610253
#
# number of rings (size 3 to 8) (size 9 to 14) (size 15 to 20)
#    0.000    2.500    1.250    2.250    0.000    4.500 
#    0.000    0.000    0.000    0.000    0.000    0.875 
#    0.000    0.000    0.000    0.000    0.000    0.000 
#
# Total GULP energy -396678.285028 kJ/mol
# GULP energy per Si atom -12396.196407 kJ/mol
# Density = 1.757017 g / cm^3
# Si number density = 17.610253 Si / 1000 Ang^3
#
#
#
# Elastic Constant Matrix: (Units=GPa)
#
#
# Indices 1 2 3 4 5 6 
#
# 1 88.6724 40.7293 31.1868 0.0000 22.6504 0.0000
# 2 40.7293 61.8161 17.3681 0.0000 15.8977 0.0000
# 3 31.1868 17.3681 27.3206 0.0000 5.3359 0.0000
# 4 0.0000 0.0000 0.0000 21.7760 0.0000 11.7635
# 5 22.6504 15.8977 5.3359 0.0000 34.6312 0.0000
# 6 0.0000 0.0000 0.0000 11.7635 0.0000 26.6083
#
#
#
# Elastic Compliance Matrix: (Units=1/GPa)
#
#
# Indices 1 2 3 4 5 6 
#
# 1 0.024876 -0.007950 -0.021526 0.000000 -0.009304 0.000000
# 2 -0.007950 0.024224 -0.005329 0.000000 -0.005100 0.000000
# 3 -0.021526 -0.005329 0.063237 0.000000 0.006782 0.000000
# 4 0.000000 0.000000 0.000000 0.060331 0.000000 -0.026672
# 5 -0.009304 -0.005100 0.006782 0.000000 0.036257 0.000000
# 6 0.000000 0.000000 0.000000 -0.026672 0.000000 0.049374
#
#
# Mechanical properties :
#
#
# Convention : Reuss Voigt Hill
#
# Bulk Modulus (GPa) = 23.40326 39.59748 31.50037
# Shear Modulus (GPa) = 14.61347 22.50475 18.55911
#
# Velocity S-wave (km/s) = 2.88380 3.57870 3.24988
# Velocity P-wave (km/s) = 4.94032 6.29368 5.65761
#
# Compressibility (1/GPa) = 0.04272909
#
# Stress axis : x y z
#
# Youngs Moduli (GPa) = 40.19874 41.28217 15.81347
#
# Poissons Ratio (x) = 0.32818 0.34040
# Poissons Ratio (y) = 0.31957 0.08426
# Poissons Ratio (z) = 0.86531 0.21997
#
# Static dielectric constant tensor:
#      x y z
#    x 3.385060 0.000000 0.296640 
#    y 0.000000 3.235490 0.000000 
#    z 0.296640 0.000000 3.106920 
# 
# 
# High freq. dielectric constant tensor:
#      x y z
#    x 1.680670 0.000000 0.034590 
#    y 0.000000 1.683740 0.000000 
#    z 0.034590 0.000000 1.644930 
# 
# From -- ./inp_files/67050.got.cif
#   From: 2010.06.25/outbox.cif.g09.slc.cpg/sg11_34_cif.got.tgz:67050.got - 2010.06.27 23:14:04.
