data_PCOD8070593
_publ_section_title
;
Structure prediction by ZEFSAII (Michael W. Deem and Ramdas Pophale) SiO2 
 PCOD8070593
Probable space group: P 21/M
;
_chemical_formula_sum "Si O2"
_cell_formula_units_Z 32
_cell_length_a 12.542285
_cell_length_b 8.929632
_cell_length_c 19.536831
_cell_angle_alpha 90.000000
_cell_angle_beta 49.147701
_cell_angle_gamma 90.000000
_cell_volume 1655.064384
_symmetry_space_group_name_H-M "P 21/M"
_symmetry_group_IT_number 11
_symmetry_cell_setting 'monoclinic'
loop_
_space_group_symop_operation_xyz
x,y,z
-x,1/2+y,-z
-x,-y,-z
x,1/2-y,z
loop_
_atom_site_type_symbol
_atom_site_label
_atom_site_fract_x
_atom_site_fract_y
_atom_site_fract_z
Si Si1 0.090110 0.573238 0.524372
Si Si2 0.935459 0.077497 0.184568
Si Si3 0.014270 0.928572 0.293256
Si Si4 0.182729 0.074896 0.985330
Si Si5 0.298660 0.925886 0.231297
Si Si6 0.444044 0.422798 0.958048
Si Si7 0.324020 0.577881 0.795777
Si Si8 0.377489 0.576431 0.341486
O O1 0.054565 0.750000 0.539718
O O2 0.063267 0.497708 0.608730
O O3 0.260629 0.549239 0.448625
O O4 0.000000 0.500000 0.500000
O O5 0.974499 0.250000 0.183176
O O6 0.773520 0.058348 0.230314
O O7 0.031900 0.021888 0.079105
O O8 0.956115 0.984927 0.245184
O O9 0.997811 0.750000 0.302040
O O10 0.175772 0.987682 0.233482
O O11 0.184822 0.250000 0.966261
O O12 0.285991 0.035009 0.005011
O O13 0.237447 0.991573 0.895324
O O14 0.280481 0.750000 0.236944
O O15 0.454170 0.978302 0.145101
O O16 0.288518 0.982545 0.313126
O O17 0.462481 0.250000 0.963880
O O18 0.500000 0.500000 0.000000
O O19 0.348679 0.750000 0.803740
O O20 0.474433 0.508143 0.712348
O O21 0.419320 0.750000 0.315992
#
# Coordination Sequence:
#
# PCOD8070593 Si02
#       8
#     4   4   4   4   4   4   4   4
#     4  11  22  38  63  92 122 155 193 241 296 357
#     4  10  23  41  58  84 121 158 200 250 298 345
#     4  11  22  38  61  89 121 156 197 243 296 358
#     4  10  20  37  60  82 113 159 202 240 293 355
#     4   9  17  33  54  79 113 148 184 230 282 340
#     4  10  19  31  49  75 110 149 187 228 276 337
#     4  11  23  38  59  88 120 153 200 256 296 341
#     4  10  20  39  62  84 115 153 192 236 291 351
#
# _framework density 19.334596000000001
#
# number of rings (size 3 to 8) (size 9 to 14) (size 15 to 20)
#    0.000    1.750    2.500    2.250    0.000    3.000 
#    0.000    1.250    0.000    0.000    0.000    0.000 
#    0.000    0.000    0.000    0.000    0.000    0.000 
#
# Total GULP energy -396451.483408 kJ/mol
# GULP energy per Si atom -12389.108856 kJ/mol
# Density = 1.929059 g / cm^3
# Si number density = 19.334596 Si / 1000 Ang^3
#
#
#
# Elastic Constant Matrix: (Units=GPa)
#
#
# Indices 1 2 3 4 5 6 
#
# 1 96.2908 49.6637 49.5406 0.0000 -15.6179 0.0000
# 2 49.6637 85.9013 47.2203 0.0000 -1.7013 0.0000
# 3 49.5406 47.2203 81.0848 0.0000 -10.8857 0.0000
# 4 0.0000 0.0000 0.0000 32.5810 0.0000 3.3160
# 5 -15.6179 -1.7013 -10.8857 0.0000 27.2396 0.0000
# 6 0.0000 0.0000 0.0000 3.3160 0.0000 32.6921
#
#
#
# Elastic Compliance Matrix: (Units=1/GPa)
#
#
# Indices 1 2 3 4 5 6 
#
# 1 0.018461 -0.007192 -0.006055 0.000000 0.007716 0.000000
# 2 -0.007192 0.020173 -0.008177 0.000000 -0.006131 0.000000
# 3 -0.006055 -0.008177 0.021408 0.000000 0.004573 0.000000
# 4 0.000000 0.000000 0.000000 0.031013 0.000000 -0.003146
# 5 0.007716 -0.006131 0.004573 0.000000 0.042580 0.000000
# 6 0.000000 0.000000 0.000000 -0.003146 0.000000 0.030907
#
#
# Mechanical properties :
#
#
# Convention : Reuss Voigt Hill
#
# Bulk Modulus (GPa) = 58.15923 61.79181 59.97552
# Shear Modulus (GPa) = 23.46079 26.29269 24.87674
#
# Velocity S-wave (km/s) = 3.48718 3.69165 3.59087
# Velocity P-wave (km/s) = 6.80879 7.08517 6.94835
#
# Compressibility (1/GPa) = 0.01719418
#
# Stress axis : x y z
#
# Youngs Moduli (GPa) = 54.16681 49.57205 46.71151
#
# Poissons Ratio (x) = 0.35653 0.28285
# Poissons Ratio (y) = 0.38957 0.38194
# Poissons Ratio (z) = 0.32799 0.40533
#
# Static dielectric constant tensor:
#      x y z
#    x 3.620680 0.000000 -0.184480 
#    y 0.000000 3.293560 0.000000 
#    z -0.184480 0.000000 3.501320 
# 
# 
# High freq. dielectric constant tensor:
#      x y z
#    x 1.755250 0.000000 -0.009640 
#    y 0.000000 1.740950 0.000000 
#    z -0.009640 0.000000 1.757540 
# 
# From -- ./inp_files/64398.got.cif
#   From: 2010.06.25/outbox.cif.g09.slc.cpg/sg11_33_cif.got.tgz:64398.got - 2010.06.27 23:14:04.
