data_PCOD8070297
_publ_section_title
;
Structure prediction by ZEFSAII (Michael W. Deem and Ramdas Pophale) SiO2 
 PCOD8070297
Probable space group: P 21/M
;
_chemical_formula_sum "Si O2"
_cell_formula_units_Z 28
_cell_length_a 12.565570
_cell_length_b 9.000407
_cell_length_c 14.878070
_cell_angle_alpha 90.000000
_cell_angle_beta 74.497071
_cell_angle_gamma 90.000000
_cell_volume 1621.419154
_symmetry_space_group_name_H-M "P 21/M"
_symmetry_group_IT_number 11
_symmetry_cell_setting 'monoclinic'
loop_
_space_group_symop_operation_xyz
x,y,z
-x,1/2+y,-z
-x,-y,-z
x,1/2-y,z
loop_
_atom_site_type_symbol
_atom_site_label
_atom_site_fract_x
_atom_site_fract_y
_atom_site_fract_z
Si Si1 0.365765 0.074081 0.892196
Si Si2 0.021063 0.924535 0.090287
Si Si3 0.208845 0.423029 0.770737
Si Si4 0.347184 0.576990 0.602830
Si Si5 0.611143 0.422551 0.794697
Si Si6 0.757594 0.926160 0.902387
Si Si7 0.565246 0.420543 0.605448
O O1 0.362617 0.250000 0.887080
O O2 0.286154 0.009812 0.832482
O O3 0.490385 0.017205 0.850741
O O4 0.320581 0.019678 0.998433
O O5 0.038935 0.750000 0.070650
O O6 0.917829 0.956113 0.178337
O O7 0.124797 0.995929 0.116177
O O8 0.000000 0.000000 0.000000
O O9 0.231579 0.250000 0.754610
O O10 0.239184 0.500571 0.669594
O O11 0.337223 0.750000 0.621861
O O12 0.456293 0.520044 0.628669
O O13 0.353480 0.537831 0.495236
O O14 0.625448 0.250000 0.818045
O O15 0.702822 0.521546 0.822248
O O16 0.629103 0.446594 0.684224
O O17 0.774345 0.750000 0.898957
O O18 0.525605 0.250000 0.606354
#
# Coordination Sequence:
#
# PCOD8070297 Si02
#       7
#     4   4   4   4   4   4   4
#     4   9  17  32  52  74 104 142 173 203 255 315
#     4  11  22  37  57  78 103 139 181 219 261 310
#     4  10  19  35  55  75 105 142 173 210 264 318
#     4  10  19  30  50  82 108 133 174 220 263 309
#     4  10  19  34  54  74 103 145 180 206 253 318
#     4  11  22  36  52  76 109 140 177 221 260 305
#     4   9  18  33  52  74 108 144 172 211 264 318
#
# _framework density 17.268822
#
# number of rings (size 3 to 8) (size 9 to 14) (size 15 to 20)
#    0.000    2.000    2.857    1.714    0.000    2.286 
#    0.000    0.714    0.000    0.857    0.000    0.000 
#    0.000    0.000    0.000    0.000    0.000    0.000 
#
# Total GULP energy -347241.815794 kJ/mol
# GULP energy per Si atom -12401.493421 kJ/mol
# Density = 1.722952 g / cm^3
# Si number density = 17.268822 Si / 1000 Ang^3
#
#
#
# Elastic Constant Matrix: (Units=GPa)
#
#
# Indices 1 2 3 4 5 6 
#
# 1 119.3277 48.9956 60.1161 0.0000 1.2863 0.0000
# 2 48.9956 70.5318 52.9274 0.0000 -8.9173 0.0000
# 3 60.1161 52.9274 128.4651 0.0000 -5.4295 0.0000
# 4 0.0000 0.0000 0.0000 29.2047 0.0000 -0.5242
# 5 1.2863 -8.9173 -5.4295 0.0000 21.3570 0.0000
# 6 0.0000 0.0000 0.0000 -0.5242 0.0000 28.0088
#
#
#
# Elastic Compliance Matrix: (Units=1/GPa)
#
#
# Indices 1 2 3 4 5 6 
#
# 1 0.013051 -0.007122 -0.003368 0.000000 -0.004616 0.000000
# 2 -0.007122 0.025340 -0.006714 0.000000 0.009302 0.000000
# 3 -0.003368 -0.006714 0.012147 0.000000 0.000488 0.000000
# 4 0.000000 0.000000 0.000000 0.034253 0.000000 0.000641
# 5 -0.004616 0.009302 0.000488 0.000000 0.051109 0.000000
# 6 0.000000 0.000000 0.000000 0.000641 0.000000 0.035715
#
#
# Mechanical properties :
#
#
# Convention : Reuss Voigt Hill
#
# Bulk Modulus (GPa) = 61.99829 71.37811 66.68820
# Shear Modulus (GPa) = 23.65182 26.13313 24.89248
#
# Velocity S-wave (km/s) = 3.70486 3.89435 3.80079
# Velocity P-wave (km/s) = 7.36757 7.85140 7.61333
#
# Compressibility (1/GPa) = 0.01612948
#
# Stress axis : x y z
#
# Youngs Moduli (GPa) = 76.62070 39.46356 82.32442
#
# Poissons Ratio (x) = 0.28107 0.27728
# Poissons Ratio (y) = 0.54572 0.55271
# Poissons Ratio (z) = 0.25807 0.26495
#
# Static dielectric constant tensor:
#      x y z
#    x 3.160610 0.000000 -0.078850 
#    y 0.000000 3.143770 0.000000 
#    z -0.078850 0.000000 3.404170 
# 
# 
# High freq. dielectric constant tensor:
#      x y z
#    x 1.646150 0.000000 -0.003750 
#    y 0.000000 1.660580 0.000000 
#    z -0.003750 0.000000 1.672340 
# 
# From -- ./inp_files/37460.got.cif
#   From: 2010.06.25/outbox.cif.g09.slc.cpg/sg11_19_cif.got.tgz:37460.got - 2010.06.27 23:14:04.
