data_PCOD8070470
_publ_section_title
;
Structure prediction by ZEFSAII (Michael W. Deem and Ramdas Pophale) SiO2 
 PCOD8070470
Probable space group: P 21/M
;
_chemical_formula_sum "Si O2"
_cell_formula_units_Z 20
_cell_length_a 12.013466
_cell_length_b 9.140634
_cell_length_c 12.213955
_cell_angle_alpha 90.000000
_cell_angle_beta 117.605336
_cell_angle_gamma 90.000000
_cell_volume 1188.538657
_symmetry_space_group_name_H-M "P 21/M"
_symmetry_group_IT_number 11
_symmetry_cell_setting 'monoclinic'
loop_
_space_group_symop_operation_xyz
x,y,z
-x,1/2+y,-z
-x,-y,-z
x,1/2-y,z
loop_
_atom_site_type_symbol
_atom_site_label
_atom_site_fract_x
_atom_site_fract_y
_atom_site_fract_z
Si Si1 0.497512 0.580662 0.663537
Si Si2 0.170722 0.581128 0.989003
Si Si3 0.064858 0.917445 0.180626
Si Si4 0.429201 0.077711 0.065382
Si Si5 0.688409 0.079972 0.601145
O O1 0.526081 0.750000 0.658903
O O2 0.490184 0.542792 0.788418
O O3 0.366470 0.536158 0.543524
O O4 0.613702 0.498489 0.663257
O O5 0.195893 0.750000 0.971583
O O6 0.054003 0.523779 0.862878
O O7 0.138534 0.557740 0.100910
O O8 0.290367 0.485838 0.012598
O O9 0.018468 0.750000 0.168504
O O10 0.163522 0.958809 0.322409
O O11 0.420023 0.250000 0.038838
O O12 0.500000 0.000000 0.000000
O O13 0.669959 0.250000 0.616493
#
# Coordination Sequence:
#
# PCOD8070470 Si02
#       5
#     4   4   4   4   4
#     4   9  18  30  47  72  99 127 161 200 242 289
#     4  10  19  31  48  72 100 130 165 201 242 289
#     4   9  17  29  48  73 102 131 156 194 246 296
#     4  11  22  35  51  71  99 133 169 205 242 286
#     4   9  16  29  49  73 101 128 155 195 246 295
#
# _framework density 16.827387000000002
#
# number of rings (size 3 to 8) (size 9 to 14) (size 15 to 20)
#    0.000    2.400    2.000    1.200    0.000    2.400 
#    0.000    0.000    0.000    1.200    0.000    0.000 
#    0.000    0.000    0.000    0.000    0.000    0.000 
#
# Total GULP energy -247931.876646 kJ/mol
# GULP energy per Si atom -12396.593832 kJ/mol
# Density = 1.678909 g / cm^3
# Si number density = 16.827387 Si / 1000 Ang^3
#
#
#
# Elastic Constant Matrix: (Units=GPa)
#
#
# Indices 1 2 3 4 5 6 
#
# 1 73.0014 47.3618 56.2899 0.0000 12.8820 0.0000
# 2 47.3618 79.2896 55.4769 0.0000 4.6977 0.0000
# 3 56.2899 55.4769 118.3273 0.0000 19.0006 0.0000
# 4 0.0000 0.0000 0.0000 20.6997 0.0000 2.7605
# 5 12.8820 4.6977 19.0006 0.0000 25.5717 0.0000
# 6 0.0000 0.0000 0.0000 2.7605 0.0000 31.3215
#
#
#
# Elastic Compliance Matrix: (Units=1/GPa)
#
#
# Indices 1 2 3 4 5 6 
#
# 1 0.027318 -0.011287 -0.006616 0.000000 -0.006772 0.000000
# 2 -0.011287 0.023714 -0.006770 0.000000 0.006360 0.000000
# 3 -0.006616 -0.006770 0.015939 0.000000 -0.007267 0.000000
# 4 0.000000 0.000000 0.000000 0.048885 0.000000 -0.004308
# 5 -0.006772 0.006360 -0.007267 0.000000 0.046748 0.000000
# 6 0.000000 0.000000 0.000000 -0.004308 0.000000 0.032307
#
#
# Mechanical properties :
#
#
# Convention : Reuss Voigt Hill
#
# Bulk Modulus (GPa) = 56.73822 65.43061 61.08442
# Shear Modulus (GPa) = 19.98939 22.95123 21.47031
#
# Velocity S-wave (km/s) = 3.45034 3.69714 3.57587
# Velocity P-wave (km/s) = 7.04728 7.56260 7.30948
#
# Compressibility (1/GPa) = 0.01762480
#
# Stress axis : x y z
#
# Youngs Moduli (GPa) = 36.60599 42.16883 62.73767
#
# Poissons Ratio (x) = 0.47598 0.41507
# Poissons Ratio (y) = 0.41319 0.42473
# Poissons Ratio (z) = 0.24219 0.28548
#
# Static dielectric constant tensor:
#      x y z
#    x 2.948440 0.000000 0.320990 
#    y 0.000000 3.228400 0.000000 
#    z 0.320990 0.000000 3.503150 
# 
# 
# High freq. dielectric constant tensor:
#      x y z
#    x 1.617370 0.000000 0.031350 
#    y 0.000000 1.656980 0.000000 
#    z 0.031350 0.000000 1.648680 
# 
# From -- ./inp_files/33405.got.cif
#   From: 2010.06.25/outbox.cif.g09.slc.cpg/sg11_17_cif.got.tgz:33405.got - 2010.06.27 23:14:04.
