data_PCOD8070052
_publ_section_title
;
Structure prediction by ZEFSAII (Michael W. Deem and Ramdas Pophale) SiO2 
 PCOD8070052
Probable space group: P 21/M
;
_chemical_formula_sum "Si O2"
_cell_formula_units_Z 32
_cell_length_a 20.195469
_cell_length_b 8.466790
_cell_length_c 12.163754
_cell_angle_alpha 90.000000
_cell_angle_beta 55.424399
_cell_angle_gamma 90.000000
_cell_volume 1712.535861
_symmetry_space_group_name_H-M "P 21/M"
_symmetry_group_IT_number 11
_symmetry_cell_setting 'monoclinic'
loop_
_space_group_symop_operation_xyz
x,y,z
-x,1/2+y,-z
-x,-y,-z
x,1/2-y,z
loop_
_atom_site_type_symbol
_atom_site_label
_atom_site_fract_x
_atom_site_fract_y
_atom_site_fract_z
Si Si1 0.712899 0.064823 0.057236
Si Si2 0.777821 0.066788 0.586469
Si Si3 0.387766 0.069113 0.199307
Si Si4 0.121141 0.430951 0.697295
Si Si5 0.834428 0.065302 0.115649
Si Si6 0.436959 0.566044 0.924634
Si Si7 0.160174 0.936778 0.237614
Si Si8 0.049514 0.067807 0.170718
O O1 0.724880 0.250000 0.050067
O O2 0.751912 0.002509 0.134365
O O3 0.619002 0.019359 0.127950
O O4 0.763485 0.002420 0.904961
O O5 0.793464 0.250000 0.548595
O O6 0.825149 0.009891 0.651033
O O7 0.682421 0.041690 0.689502
O O8 0.808873 0.965071 0.455685
O O9 0.361135 0.250000 0.238470
O O10 0.469678 0.032855 0.191404
O O11 0.407371 0.038056 0.053944
O O12 0.094279 0.250000 0.714879
O O13 0.156105 0.463851 0.784483
O O14 0.045534 0.541455 0.743036
O O15 0.831597 0.250000 0.148827
O O16 0.908496 0.037582 0.962643
O O17 0.424073 0.750000 0.967898
O O18 0.149132 0.750000 0.240619
O O19 0.080773 0.019415 0.262719
O O20 0.068133 0.250000 0.129653
#
# Coordination Sequence:
#
# PCOD8070052 Si02
#       8
#     4   4   4   4   4   4   4   4
#     4   8  14  29  54  80 105 138 175 217 262 310
#     4  11  22  38  57  75 107 148 183 218 266 325
#     4  10  19  29  48  80 114 144 177 218 262 312
#     4  12  25  40  56  77 105 139 182 225 270 320
#     4  10  20  37  59  82 107 138 180 224 270 314
#     4   9  16  30  51  78 111 146 179 214 262 315
#     4   9  18  34  55  78 106 142 179 217 266 318
#     4  11  22  37  58  83 109 137 174 222 272 316
#
# _framework density 18.685741
#
# number of rings (size 3 to 8) (size 9 to 14) (size 15 to 20)
#    0.000    2.000    1.250    4.500    0.000    2.000 
#    0.000    0.625    0.000    0.750    0.000    0.000 
#    0.000    0.000    0.000    0.000    0.000    0.000 
#
# Total GULP energy -396746.253246 kJ/mol
# GULP energy per Si atom -12398.320414 kJ/mol
# Density = 1.864321 g / cm^3
# Si number density = 18.685741 Si / 1000 Ang^3
#
#
#
# Elastic Constant Matrix: (Units=GPa)
#
#
# Indices 1 2 3 4 5 6 
#
# 1 142.0617 22.8286 46.0920 0.0000 -9.8561 0.0000
# 2 22.8286 53.0139 13.4004 0.0000 3.6069 0.0000
# 3 46.0920 13.4004 70.6653 0.0000 5.6059 0.0000
# 4 0.0000 0.0000 0.0000 21.2336 0.0000 -0.9294
# 5 -9.8561 3.6069 5.6059 0.0000 5.3568 0.0000
# 6 0.0000 0.0000 0.0000 -0.9294 0.0000 26.2988
#
#
#
# Elastic Compliance Matrix: (Units=1/GPa)
#
#
# Indices 1 2 3 4 5 6 
#
# 1 0.015202 -0.006521 -0.012264 0.000000 0.045196 0.000000
# 2 -0.006521 0.023141 0.002239 0.000000 -0.029923 0.000000
# 3 -0.012264 0.002239 0.025776 0.000000 -0.051047 0.000000
# 4 0.000000 0.000000 0.000000 0.047168 0.000000 0.001667
# 5 0.045196 -0.029923 -0.051047 0.000000 0.343403 0.000000
# 6 0.000000 0.000000 0.000000 0.001667 0.000000 0.038083
#
#
# Mechanical properties :
#
#
# Convention : Reuss Voigt Hill
#
# Bulk Modulus (GPa) = 32.23133 47.82031 40.02582
# Shear Modulus (GPa) = 9.32473 22.80585 16.06529
#
# Velocity S-wave (km/s) = 2.23632 3.49735 2.93535
# Velocity P-wave (km/s) = 4.89436 6.47735 5.74068
#
# Compressibility (1/GPa) = 0.03102571
#
# Stress axis : x y z
#
# Youngs Moduli (GPa) = 65.78126 43.21342 38.79607
#
# Poissons Ratio (x) = 0.28180 0.47581
# Poissons Ratio (y) = 0.42896 -0.08686
# Poissons Ratio (z) = 0.80677 -0.09675
#
# Static dielectric constant tensor:
#      x y z
#    x 3.815250 0.000000 -0.003440 
#    y 0.000000 3.288390 0.000000 
#    z -0.003440 0.000000 3.093820 
# 
# 
# High freq. dielectric constant tensor:
#      x y z
#    x 1.741630 0.000000 -0.003210 
#    y 0.000000 1.720360 0.000000 
#    z -0.003210 0.000000 1.684150 
# 
# From -- ./inp_files/42784.got.cif
#   From: 2010.06.25/outbox.cif.g09.slc.cpg/sg11_22_cif.got.tgz:42784.got - 2010.06.27 23:14:04.
