data_PCOD8070516
_publ_section_title
;
Structure prediction by ZEFSAII (Michael W. Deem and Ramdas Pophale) SiO2 
 PCOD8070516
Probable space group: P 21/M
;
_chemical_formula_sum "Si O2"
_cell_formula_units_Z 32
_cell_length_a 14.272398
_cell_length_b 9.243928
_cell_length_c 15.724746
_cell_angle_alpha 90.000000
_cell_angle_beta 116.989015
_cell_angle_gamma 90.000000
_cell_volume 1848.674457
_symmetry_space_group_name_H-M "P 21/M"
_symmetry_group_IT_number 11
_symmetry_cell_setting 'monoclinic'
loop_
_space_group_symop_operation_xyz
x,y,z
-x,1/2+y,-z
-x,-y,-z
x,1/2-y,z
loop_
_atom_site_type_symbol
_atom_site_label
_atom_site_fract_x
_atom_site_fract_y
_atom_site_fract_z
Si Si1 0.285549 0.417239 0.361824
Si Si2 0.843173 0.417943 0.261149
Si Si3 0.382445 0.916725 0.548457
Si Si4 0.833988 0.416725 0.451543
Si Si5 0.558846 0.419229 0.902505
Si Si6 0.343660 0.080771 0.902505
Si Si7 0.076275 0.082761 0.361824
Si Si8 0.417976 0.417943 0.261149
O O1 0.298312 0.250000 0.389377
O O2 0.370524 0.497412 0.455652
O O3 0.166251 0.470725 0.332501
O O4 0.312571 0.444188 0.273797
O O5 0.808875 0.250000 0.238533
O O6 0.843303 0.468595 0.358771
O O7 0.764812 0.518337 0.177012
O O8 0.961226 0.444188 0.273797
O O9 0.391640 0.750000 0.527291
O O10 0.284464 0.948875 0.568928
O O11 0.484532 0.968595 0.641229
O O12 0.864350 0.250000 0.472709
O O13 0.914872 0.502588 0.544348
O O14 0.585435 0.250000 0.916215
O O15 0.436262 0.448206 0.872524
O O16 0.587800 0.481663 0.822988
O O17 0.631752 0.500000 1.000000
O O18 0.330780 0.250000 0.916214
O O19 0.091065 0.250000 0.389377
O O20 0.429658 0.250000 0.238533
#
# Coordination Sequence:
#
# PCOD8070516 Si02
#       8
#     4   4   4   4   4   4   4   4
#     4   9  18  31  46  67  97 132 168 204 239 275
#     4  10  19  31  49  71  97 130 164 199 240 284
#     4   9  17  28  43  66  96 129 164 201 241 284
#     4   9  17  28  43  66  96 129 164 201 241 284
#     4  10  21  36  54  76 100 124 151 188 236 289
#     4  10  21  36  54  76 100 124 151 188 236 289
#     4   9  18  31  46  67  97 132 168 204 239 275
#     4  10  19  31  49  71  97 130 164 199 240 284
#
# _framework density 17.309698999999998
#
# number of rings (size 3 to 8) (size 9 to 14) (size 15 to 20)
#    0.000    2.500    0.000    2.250    0.000    4.500 
#    0.000    2.500    0.000    0.750    0.000    0.000 
#    0.000    0.000    0.000    0.000    0.000    0.000 
#
# Total GULP energy -396804.245627 kJ/mol
# GULP energy per Si atom -12400.132676 kJ/mol
# Density = 1.727030 g / cm^3
# Si number density = 17.309699 Si / 1000 Ang^3
#
#
#
# Elastic Constant Matrix: (Units=GPa)
#
#
# Indices 1 2 3 4 5 6 
#
# 1 85.0648 44.9983 67.0458 0.0000 0.0000 0.0000
# 2 44.9983 77.9656 63.5827 0.0000 0.0000 0.0000
# 3 67.0458 63.5827 107.8171 0.0000 0.0000 0.0000
# 4 0.0000 0.0000 0.0000 35.8989 0.0000 0.0000
# 5 0.0000 0.0000 0.0000 0.0000 27.0055 0.0000
# 6 0.0000 0.0000 0.0000 0.0000 0.0000 22.4564
#
#
#
# Elastic Compliance Matrix: (Units=1/GPa)
#
#
# Indices 1 2 3 4 5 6 
#
# 1 0.023454 -0.003164 -0.012719 0.000000 0.000000 0.000000
# 2 -0.003164 0.025137 -0.012856 0.000000 0.000000 0.000000
# 3 -0.012719 -0.012856 0.024766 0.000000 0.000000 0.000000
# 4 0.000000 0.000000 0.000000 0.027856 0.000000 0.000000
# 5 0.000000 0.000000 0.000000 0.000000 0.037029 0.000000
# 6 0.000000 0.000000 0.000000 0.000000 0.000000 0.044531
#
#
# Mechanical properties :
#
#
# Convention : Reuss Voigt Hill
#
# Bulk Modulus (GPa) = 62.97912 69.12234 66.05073
# Shear Modulus (GPa) = 20.36284 23.42023 21.89154
#
# Velocity S-wave (km/s) = 3.43356 3.68232 3.56012
# Velocity P-wave (km/s) = 7.22370 7.62225 7.42565
#
# Compressibility (1/GPa) = 0.01587828
#
# Stress axis : x y z
#
# Youngs Moduli (GPa) = 42.63603 39.78195 40.37788
#
# Poissons Ratio (x) = 0.12588 0.51357
# Poissons Ratio (y) = 0.13491 0.51911
# Poissons Ratio (z) = 0.54229 0.51145
#
# Static dielectric constant tensor:
#      x y z
#    x 3.465690 0.000000 0.000000 
#    y 0.000000 3.220160 0.000000 
#    z 0.000000 0.000000 3.083050 
# 
# 
# High freq. dielectric constant tensor:
#      x y z
#    x 1.673160 0.000000 0.000000 
#    y 0.000000 1.668710 0.000000 
#    z 0.000000 0.000000 1.645140 
# 
# From -- ./inp_files/51648.got.cif
#   From: 2010.06.25/outbox.cif.g09.slc.cpg/sg11_26_cif.got.tgz:51648.got - 2010.06.27 23:14:04.
