data_PCOD8070924
_publ_section_title
;
Structure prediction by ZEFSAII (Michael W. Deem and Ramdas Pophale) SiO2 
 PCOD8070924
Probable space group: P 21/M
;
_chemical_formula_sum "Si O2"
_cell_formula_units_Z 32
_cell_length_a 10.247469
_cell_length_b 9.265432
_cell_length_c 20.373880
_cell_angle_alpha 90.000000
_cell_angle_beta 99.666198
_cell_angle_gamma 90.000000
_cell_volume 1906.979538
_symmetry_space_group_name_H-M "P 21/M"
_symmetry_group_IT_number 11
_symmetry_cell_setting 'monoclinic'
loop_
_space_group_symop_operation_xyz
x,y,z
-x,1/2+y,-z
-x,-y,-z
x,1/2-y,z
loop_
_atom_site_type_symbol
_atom_site_label
_atom_site_fract_x
_atom_site_fract_y
_atom_site_fract_z
Si Si1 0.873054 0.081944 0.963732
Si Si2 0.882876 0.411592 0.683107
Si Si3 0.803890 0.590553 0.308334
Si Si4 0.369637 0.921514 0.965116
Si Si5 0.230369 0.079934 0.840954
Si Si6 0.144030 0.412405 0.441739
Si Si7 0.170120 0.912047 0.568323
Si Si8 0.933634 0.419390 0.826654
O O1 0.903790 0.250000 0.974367
O O2 0.743584 0.035988 0.992297
O O3 0.850430 0.042560 0.884835
O O4 0.000000 0.000000 0.000000
O O5 0.823824 0.250000 0.670735
O O6 0.813903 0.513000 0.623244
O O7 0.859600 0.478141 0.754683
O O8 0.039087 0.407197 0.685455
O O9 0.755318 0.750000 0.324973
O O10 0.739466 0.547690 0.233092
O O11 0.760130 0.480033 0.361485
O O12 0.390895 0.750000 0.962298
O O13 0.500000 0.000000 0.000000
O O14 0.333200 0.985483 0.891125
O O15 0.247140 0.250000 0.858317
O O16 0.083507 0.021887 0.846844
O O17 0.199129 0.250000 0.446433
O O18 0.211045 0.497837 0.507498
O O19 0.986900 0.413789 0.436340
O O20 0.223157 0.750000 0.564320
O O21 0.948254 0.250000 0.815487
#
# Coordination Sequence:
#
# PCOD8070924 Si02
#       8
#     4   4   4   4   4   4   4   4
#     4  10  19  32  51  73  93 118 154 194 237 282
#     4   8  13  22  35  51  72 102 136 169 212 266
#     4   8  14  23  36  54  74 101 137 174 218 266
#     4  11  23  35  49  70  95 125 158 193 235 284
#     4   9  16  29  48  65  86 116 146 185 234 280
#     4   9  15  21  29  43  68 101 136 176 214 252
#     4   9  15  21  30  45  67 100 139 177 213 253
#     4   8  14  26  45  65  86 111 142 184 231 275
#
# _framework density 16.780463000000001
#
# number of rings (size 3 to 8) (size 9 to 14) (size 15 to 20)
#    0.000    3.000    1.250    2.625    0.000    4.000 
#    0.000    2.500    0.000    0.000    0.000    0.000 
#    0.000    0.000    0.000    1.125    0.000   12.750 
#
# Total GULP energy -396598.099329 kJ/mol
# GULP energy per Si atom -12393.690604 kJ/mol
# Density = 1.674227 g / cm^3
# Si number density = 16.780463 Si / 1000 Ang^3
#
#
#
# Elastic Constant Matrix: (Units=GPa)
#
#
# Indices 1 2 3 4 5 6 
#
# 1 41.5939 30.0332 39.5374 0.0000 -1.8889 0.0000
# 2 30.0332 104.9000 77.0883 0.0000 -6.7443 0.0000
# 3 39.5374 77.0883 157.6456 0.0000 -19.3644 0.0000
# 4 0.0000 0.0000 0.0000 32.8902 0.0000 -0.4953
# 5 -1.8889 -6.7443 -19.3644 0.0000 13.6837 0.0000
# 6 0.0000 0.0000 0.0000 -0.4953 0.0000 11.4639
#
#
#
# Elastic Compliance Matrix: (Units=1/GPa)
#
#
# Indices 1 2 3 4 5 6 
#
# 1 0.034013 -0.005103 -0.006981 0.000000 -0.007699 0.000000
# 2 -0.005103 0.015793 -0.006746 0.000000 -0.002467 0.000000
# 3 -0.006981 -0.006746 0.013152 0.000000 0.014324 0.000000
# 4 0.000000 0.000000 0.000000 0.030424 0.000000 0.001315
# 5 -0.007699 -0.002467 0.014324 0.000000 0.091071 0.000000
# 6 0.000000 0.000000 0.000000 0.001315 0.000000 0.087287
#
#
# Mechanical properties :
#
#
# Convention : Reuss Voigt Hill
#
# Bulk Modulus (GPa) = 39.52784 66.38413 52.95599
# Shear Modulus (GPa) = 15.73162 22.10626 18.91894
#
# Velocity S-wave (km/s) = 3.06518 3.63351 3.36138
# Velocity P-wave (km/s) = 6.01116 7.56634 6.83314
#
# Compressibility (1/GPa) = 0.02529862
#
# Stress axis : x y z
#
# Youngs Moduli (GPa) = 29.40089 63.32112 76.03309
#
# Poissons Ratio (x) = 0.32313 0.53076
# Poissons Ratio (y) = 0.15003 0.51290
# Poissons Ratio (z) = 0.20524 0.42714
#
# Static dielectric constant tensor:
#      x y z
#    x 2.586560 0.000000 -0.331220 
#    y 0.000000 3.168190 0.000000 
#    z -0.331220 0.000000 3.588890 
# 
# 
# High freq. dielectric constant tensor:
#      x y z
#    x 1.566990 0.000000 -0.023840 
#    y 0.000000 1.641080 0.000000 
#    z -0.023840 0.000000 1.665350 
# 
# From -- ./inp_files/64252.got.cif
#   From: 2010.06.25/outbox.cif.g09.slc.cpg/sg11_33_cif.got.tgz:64252.got - 2010.06.27 23:14:04.
