data_PCOD8071937
_publ_section_title
;
Structure prediction by ZEFSAII (Michael W. Deem and Ramdas Pophale) SiO2 
 PCOD8071937
Probable space group: P 21/M
;
_chemical_formula_sum "Si O2"
_cell_formula_units_Z 32
_cell_length_a 5.192530
_cell_length_b 8.706737
_cell_length_c 35.637634
_cell_angle_alpha 90.000000
_cell_angle_beta 89.980275
_cell_angle_gamma 90.000000
_cell_volume 1611.177091
_symmetry_space_group_name_H-M "P 21/M"
_symmetry_group_IT_number 11
_symmetry_cell_setting 'monoclinic'
loop_
_space_group_symop_operation_xyz
x,y,z
-x,1/2+y,-z
-x,-y,-z
x,1/2-y,z
loop_
_atom_site_type_symbol
_atom_site_label
_atom_site_fract_x
_atom_site_fract_y
_atom_site_fract_z
Si Si1 0.251097 0.932751 0.148400
Si Si2 0.753399 0.431085 0.273420
Si Si3 0.746523 0.932852 0.769254
Si Si4 0.276982 0.571560 0.401007
Si Si5 0.248924 0.067854 0.895077
Si Si6 0.750067 0.930375 0.518991
Si Si7 0.777350 0.927523 0.353820
Si Si8 0.250046 0.066931 0.980462
O O1 0.251315 0.750000 0.151211
O O2 0.500607 0.995122 0.126430
O O3 0.003302 0.994767 0.125994
O O4 0.248317 0.002158 0.189358
O O5 0.753161 0.250000 0.270497
O O6 0.504212 0.497645 0.252108
O O7 0.745253 0.474608 0.316667
O O8 0.007305 0.497614 0.253315
O O9 0.747122 0.750000 0.770953
O O10 0.263986 0.750000 0.412879
O O11 0.247260 0.466128 0.437124
O O12 0.547768 0.530102 0.382045
O O13 0.047717 0.529517 0.372713
O O14 0.249577 0.250000 0.894903
O O15 0.250225 0.008448 0.937627
O O16 0.749844 0.750000 0.512284
O O17 0.500000 0.000000 0.500000
O O18 0.000000 0.000000 0.500000
O O19 0.765738 0.750000 0.342566
O O20 0.249998 0.250000 0.983137
O O21 0.500000 0.000000 0.000000
O O22 0.000000 0.000000 0.000000
#
# Coordination Sequence:
#
# PCOD8071937 Si02
#       8
#     4   4   4   4   4   4   4   4
#     4  10  19  34  56  79 101 137 184 224 268 331
#     4  10  21  36  54  75 106 144 180 218 272 337
#     4  10  21  36  52  76 108 141 174 221 280 329
#     4  10  21  38  58  84 117 151 187 236 292 343
#     4   9  19  35  55  78 108 143 180 225 280 333
#     4  12  25  42  65  93 124 162 205 250 299 357
#     4  10  21  36  57  83 112 145 186 235 284 331
#     4  11  22  39  61  86 118 155 194 241 293 351
#
# _framework density 19.861255
#
# number of rings (size 3 to 8) (size 9 to 14) (size 15 to 20)
#    0.000    1.750    0.000    4.500    0.000    5.000 
#    0.000    3.750    0.000    0.000    0.000    0.000 
#    0.000    0.000    0.000    0.000    0.000    0.000 
#
# Total GULP energy -396937.888817 kJ/mol
# GULP energy per Si atom -12404.309026 kJ/mol
# Density = 1.981605 g / cm^3
# Si number density = 19.861255 Si / 1000 Ang^3
#
#
#
# Elastic Constant Matrix: (Units=GPa)
#
#
# Indices 1 2 3 4 5 6 
#
# 1 168.0795 35.3625 55.1410 0.0000 1.2290 0.0000
# 2 35.3625 53.6746 30.5915 0.0000 0.0106 0.0000
# 3 55.1410 30.5915 128.6967 0.0000 1.7465 0.0000
# 4 0.0000 0.0000 0.0000 39.1002 0.0000 -0.0781
# 5 1.2290 0.0106 1.7465 0.0000 39.7470 0.0000
# 6 0.0000 0.0000 0.0000 -0.0781 0.0000 18.0955
#
#
#
# Elastic Compliance Matrix: (Units=1/GPa)
#
#
# Indices 1 2 3 4 5 6 
#
# 1 0.007476 -0.003586 -0.002349 0.000000 -0.000127 0.000000
# 2 -0.003586 0.023273 -0.003999 0.000000 0.000280 0.000000
# 3 -0.002349 -0.003999 0.009732 0.000000 -0.000354 0.000000
# 4 0.000000 0.000000 0.000000 0.025576 0.000000 0.000110
# 5 -0.000127 0.000280 -0.000354 0.000000 0.025179 0.000000
# 6 0.000000 0.000000 0.000000 0.000110 0.000000 0.055263
#
#
# Mechanical properties :
#
#
# Convention : Reuss Voigt Hill
#
# Bulk Modulus (GPa) = 48.51615 65.84898 57.18257
# Shear Modulus (GPa) = 28.86221 34.67891 31.77056
#
# Velocity S-wave (km/s) = 3.81621 4.18312 4.00387
# Velocity P-wave (km/s) = 6.62560 7.52049 7.08718
#
# Compressibility (1/GPa) = 0.02061169
#
# Stress axis : x y z
#
# Youngs Moduli (GPa) = 133.76854 42.96836 102.75430
#
# Poissons Ratio (x) = 0.15411 0.24134
# Poissons Ratio (y) = 0.47976 0.41093
# Poissons Ratio (z) = 0.31419 0.17184
#
# Static dielectric constant tensor:
#      x y z
#    x 4.255040 0.000000 -0.004300 
#    y 0.000000 3.461590 0.000000 
#    z -0.004300 0.000000 3.687120 
# 
# 
# High freq. dielectric constant tensor:
#      x y z
#    x 1.800220 0.000000 0.000150 
#    y 0.000000 1.753130 0.000000 
#    z 0.000150 0.000000 1.790860 
# 
# From -- ./inp_files/72599.got.cif
#   From: 2010.06.25/outbox.cif.g09.slc.cpg/sg11_37_cif.got.tgz:72599.got - 2010.06.27 23:14:04.
