data_PCOD8071555
_publ_section_title
;
Structure prediction by ZEFSAII (Michael W. Deem and Ramdas Pophale) SiO2 
 PCOD8071555
Probable space group: P 21/M
;
_chemical_formula_sum "Si O2"
_cell_formula_units_Z 20
_cell_length_a 12.432295
_cell_length_b 14.232284
_cell_length_c 11.908052
_cell_angle_alpha 90.000000
_cell_angle_beta 149.832607
_cell_angle_gamma 90.000000
_cell_volume 1058.831618
_symmetry_space_group_name_H-M "P 21/M"
_symmetry_group_IT_number 11
_symmetry_cell_setting 'monoclinic'
loop_
_space_group_symop_operation_xyz
x,y,z
-x,1/2+y,-z
-x,-y,-z
x,1/2-y,z
loop_
_atom_site_type_symbol
_atom_site_label
_atom_site_fract_x
_atom_site_fract_y
_atom_site_fract_z
Si Si1 0.326489 0.646757 0.521570
Si Si2 0.010269 0.484272 0.177796
Si Si3 0.679564 0.564019 0.713842
Si Si4 0.492884 0.861016 0.916028
Si Si5 0.169178 0.983566 0.749933
O O1 0.225333 0.750000 0.426462
O O2 0.550950 0.649897 0.654272
O O3 0.377674 0.617156 0.694887
O O4 0.149341 0.579102 0.310317
O O5 0.953185 0.446102 0.249430
O O6 0.150962 0.408422 0.232241
O O7 0.794866 0.505588 0.916247
O O8 0.500000 0.500000 0.500000
O O9 0.533987 0.750000 0.972169
O O10 0.339462 0.902549 0.874186
O O11 0.718294 0.916102 0.123712
O O12 0.000000 0.000000 0.500000
#
# Coordination Sequence:
#
# PCOD8071555 Si02
#       5
#     4   4   4   4   4
#     4  10  19  33  54  83 113 140 179 233 279 319
#     4  10  19  34  55  82 105 143 185 223 268 334
#     4   9  19  34  54  77 107 140 176 223 270 324
#     4  10  22  36  54  84 117 147 186 235 279 331
#     4  11  21  36  59  82 113 152 188 226 285 334
#
# _framework density 18.888743999999999
#
# number of rings (size 3 to 8) (size 9 to 14) (size 15 to 20)
#    0.000    2.000    4.000    0.000    0.000    2.400 
#    0.000    1.000    0.000   12.000    0.000    0.000 
#    0.000    0.000    0.000    0.000    0.000    0.000 
#
# Total GULP energy -247859.153717 kJ/mol
# GULP energy per Si atom -12392.957686 kJ/mol
# Density = 1.884575 g / cm^3
# Si number density = 18.888744 Si / 1000 Ang^3
#
#
#
# Elastic Constant Matrix: (Units=GPa)
#
#
# Indices 1 2 3 4 5 6 
#
# 1 149.0076 17.5094 19.2545 0.0000 -1.4832 0.0000
# 2 17.5094 65.9445 18.7603 0.0000 -0.3644 0.0000
# 3 19.2545 18.7603 96.9183 0.0000 -10.2421 0.0000
# 4 0.0000 0.0000 0.0000 21.8759 0.0000 0.5938
# 5 -1.4832 -0.3644 -10.2421 0.0000 29.4633 0.0000
# 6 0.0000 0.0000 0.0000 0.5938 0.0000 18.5404
#
#
#
# Elastic Compliance Matrix: (Units=1/GPa)
#
#
# Indices 1 2 3 4 5 6 
#
# 1 0.007036 -0.001555 -0.001102 0.000000 -0.000048 0.000000
# 2 -0.001555 0.016415 -0.002964 0.000000 -0.000906 0.000000
# 3 -0.001102 -0.002964 0.011524 0.000000 0.003914 0.000000
# 4 0.000000 0.000000 0.000000 0.045752 0.000000 -0.001465
# 5 -0.000048 -0.000906 0.003914 0.000000 0.035288 0.000000
# 6 0.000000 0.000000 0.000000 -0.001465 0.000000 0.053983
#
#
# Mechanical properties :
#
#
# Convention : Reuss Voigt Hill
#
# Bulk Modulus (GPa) = 42.13498 46.99098 44.56298
# Shear Modulus (GPa) = 26.43384 31.06566 28.74975
#
# Velocity S-wave (km/s) = 3.74498 4.05985 3.90559
# Velocity P-wave (km/s) = 6.40743 6.84896 6.63187
#
# Compressibility (1/GPa) = 0.02373325
#
# Stress axis : x y z
#
# Youngs Moduli (GPa) = 142.13269 60.91833 86.77319
#
# Poissons Ratio (x) = 0.09472 0.09561
# Poissons Ratio (y) = 0.22100 0.25722
# Poissons Ratio (z) = 0.15661 0.18058
#
# Static dielectric constant tensor:
#      x y z
#    x 4.107230 0.000000 0.153820 
#    y 0.000000 3.163270 0.000000 
#    z 0.153820 0.000000 3.565760 
# 
# 
# High freq. dielectric constant tensor:
#      x y z
#    x 1.755180 0.000000 0.003000 
#    y 0.000000 1.687500 0.000000 
#    z 0.003000 0.000000 1.749190 
# 
# From -- ./inp_files/4132.got.cif
#   From: 2010.06.25/outbox.cif.g09.slc.cpg/sg11_3_cif.got.tgz:4132.got - 2010.06.27 23:14:04.
