data_PCOD8071027
_publ_section_title
;
Structure prediction by ZEFSAII (Michael W. Deem and Ramdas Pophale) SiO2 
 PCOD8071027
Probable space group: P 21/M
;
_chemical_formula_sum "Si O2"
_cell_formula_units_Z 28
_cell_length_a 10.662939
_cell_length_b 9.439276
_cell_length_c 15.530373
_cell_angle_alpha 90.000000
_cell_angle_beta 83.772223
_cell_angle_gamma 90.000000
_cell_volume 1553.913751
_symmetry_space_group_name_H-M "P 21/M"
_symmetry_group_IT_number 11
_symmetry_cell_setting 'monoclinic'
loop_
_space_group_symop_operation_xyz
x,y,z
-x,1/2+y,-z
-x,-y,-z
x,1/2-y,z
loop_
_atom_site_type_symbol
_atom_site_label
_atom_site_fract_x
_atom_site_fract_y
_atom_site_fract_z
Si Si1 0.868216 0.404184 0.241956
Si Si2 0.882443 0.409919 0.040498
Si Si3 0.055712 0.413581 0.619817
Si Si4 0.538286 0.413491 0.582110
Si Si5 0.595237 0.418278 0.055985
Si Si6 0.577046 0.411427 0.256086
Si Si7 0.821309 0.408336 0.523687
O O1 0.912363 0.250000 0.272001
O O2 0.895464 0.417246 0.140699
O O3 0.947565 0.524775 0.283989
O O4 0.721486 0.422861 0.272029
O O5 0.898470 0.250000 0.005089
O O6 0.741176 0.464517 0.024956
O O7 0.000000 0.500000 0.000000
O O8 0.086885 0.250000 0.621654
O O9 0.168800 0.487354 0.558286
O O10 0.922244 0.451359 0.588196
O O11 0.500000 0.500000 0.500000
O O12 0.491052 0.250000 0.578640
O O13 0.493676 0.482790 0.674484
O O14 0.687980 0.419464 0.578836
O O15 0.581960 0.250000 0.043206
O O16 0.559131 0.457065 0.157428
O O17 0.500000 0.500000 0.000000
O O18 0.528563 0.250000 0.272729
O O19 0.847986 0.250000 0.487428
#
# Coordination Sequence:
#
# PCOD8071027 Si02
#       7
#     4   4   4   4   4   4   4
#     4   9  18  34  54  74 101 135 167 205 259 309
#     4   9  19  36  56  80 109 140 177 221 270 323
#     4  10  19  32  52  75  97 129 173 211 249 302
#     4  11  22  35  52  75 105 139 174 214 262 309
#     4   9  19  37  59  82 110 146 183 225 277 330
#     4   9  19  36  55  76 105 138 175 216 258 312
#     4   9  20  36  49  67 102 138 165 205 258 303
#
# _framework density 18.019019
#
# number of rings (size 3 to 8) (size 9 to 14) (size 15 to 20)
#    0.000    2.571    0.000    3.429    0.000    7.429 
#    2.571    2.857    0.000    0.000    0.000    0.000 
#    0.000    0.000    0.000    0.000    0.000    0.000 
#
# Total GULP energy -347049.996387 kJ/mol
# GULP energy per Si atom -12394.642728 kJ/mol
# Density = 1.797801 g / cm^3
# Si number density = 18.019019 Si / 1000 Ang^3
#
#
#
# Elastic Constant Matrix: (Units=GPa)
#
#
# Indices 1 2 3 4 5 6 
#
# 1 88.5458 58.9206 60.1634 0.0000 -1.2606 0.0000
# 2 58.9206 109.5382 61.3570 0.0000 3.2642 0.0000
# 3 60.1634 61.3570 84.1542 0.0000 2.6008 0.0000
# 4 0.0000 0.0000 0.0000 36.9144 0.0000 2.8263
# 5 -1.2606 3.2642 2.6008 0.0000 31.1192 0.0000
# 6 0.0000 0.0000 0.0000 2.8263 0.0000 31.9593
#
#
#
# Elastic Compliance Matrix: (Units=1/GPa)
#
#
# Indices 1 2 3 4 5 6 
#
# 1 0.024007 -0.005634 -0.013138 0.000000 0.002661 0.000000
# 2 -0.005634 0.016768 -0.008158 0.000000 -0.001305 0.000000
# 3 -0.013138 -0.008158 0.027283 0.000000 -0.001957 0.000000
# 4 0.000000 0.000000 0.000000 0.027274 0.000000 -0.002412
# 5 0.002661 -0.001305 -0.001957 0.000000 0.032543 0.000000
# 6 0.000000 0.000000 0.000000 -0.002412 0.000000 0.031503
#
#
# Mechanical properties :
#
#
# Convention : Reuss Voigt Hill
#
# Bulk Modulus (GPa) = 70.42039 71.45780 70.93910
# Shear Modulus (GPa) = 22.93903 26.78507 24.86205
#
# Velocity S-wave (km/s) = 3.57185 3.85968 3.71855
# Velocity P-wave (km/s) = 7.49512 7.72048 7.60863
#
# Compressibility (1/GPa) = 0.01420043
#
# Stress axis : x y z
#
# Youngs Moduli (GPa) = 41.65509 59.63799 36.65232
#
# Poissons Ratio (x) = 0.33598 0.48152
# Poissons Ratio (y) = 0.23467 0.29899
# Poissons Ratio (z) = 0.54725 0.48650
#
# Static dielectric constant tensor:
#      x y z
#    x 3.705360 0.000000 -0.344270 
#    y 0.000000 3.440890 0.000000 
#    z -0.344270 0.000000 3.653450 
# 
# 
# High freq. dielectric constant tensor:
#      x y z
#    x 1.694630 0.000000 0.004240 
#    y 0.000000 1.701530 0.000000 
#    z 0.004240 0.000000 1.694650 
# 
# From -- ./inp_files/48905.got.cif
#   From: 2010.06.25/outbox.cif.g09.slc.cpg/sg11_25_cif.got.tgz:48905.got - 2010.06.27 23:14:04.
