data_PCOD8071319
_publ_section_title
;
Structure prediction by ZEFSAII (Michael W. Deem and Ramdas Pophale) SiO2 
 PCOD8071319
Probable space group: P 21/M
;
_chemical_formula_sum "Si O2"
_cell_formula_units_Z 32
_cell_length_a 14.560680
_cell_length_b 9.042562
_cell_length_c 28.714246
_cell_angle_alpha 90.000000
_cell_angle_beta 151.387135
_cell_angle_gamma 90.000000
_cell_volume 1810.528716
_symmetry_space_group_name_H-M "P 21/M"
_symmetry_group_IT_number 11
_symmetry_cell_setting 'monoclinic'
loop_
_space_group_symop_operation_xyz
x,y,z
-x,1/2+y,-z
-x,-y,-z
x,1/2-y,z
loop_
_atom_site_type_symbol
_atom_site_label
_atom_site_fract_x
_atom_site_fract_y
_atom_site_fract_z
Si Si1 0.300639 0.917273 0.294403
Si Si2 0.397416 0.923779 0.997360
Si Si3 0.265540 0.078975 0.094681
Si Si4 0.026574 0.919378 0.700079
Si Si5 0.594466 0.573976 0.496960
Si Si6 0.420712 0.918147 0.837876
Si Si7 0.133187 0.925224 0.124752
Si Si8 0.932762 0.582388 0.187759
O O1 0.343119 0.750000 0.298675
O O2 0.492520 0.984825 0.403702
O O3 0.218720 0.995536 0.211035
O O4 0.152287 0.925558 0.270904
O O5 0.394939 0.750000 0.989411
O O6 0.500103 0.964247 0.090642
O O7 0.500000 0.000000 0.000000
O O8 0.182254 0.988180 0.901938
O O9 0.238841 0.250000 0.096028
O O10 0.472604 0.049277 0.163338
O O11 0.263474 0.984913 0.140848
O O12 0.089975 0.028402 0.982477
O O13 0.015052 0.750000 0.711875
O O14 0.188343 0.937340 0.731364
O O15 0.817250 0.971671 0.589931
O O16 0.097401 0.016596 0.774620
O O17 0.500000 0.500000 0.500000
O O18 0.567360 0.750000 0.489828
O O19 0.470139 0.750000 0.875770
O O20 0.147072 0.750000 0.132697
O O21 0.855204 0.750000 0.153761
#
# Coordination Sequence:
#
# PCOD8071319 Si02
#       8
#     4   4   4   4   4   4   4   4
#     4   9  18  32  52  75 101 135 170 209 263 314
#     4  12  23  33  46  69 101 136 172 208 246 296
#     4   9  18  33  53  75 101 130 164 209 261 313
#     4  10  20  32  49  72 100 133 172 212 249 301
#     4  10  19  33  51  74 102 134 175 217 258 305
#     4  10  20  35  52  71 100 138 172 207 257 310
#     4   9  17  32  53  75  98 128 168 211 255 311
#     4  11  20  32  50  71 100 137 171 207 253 305
#
# _framework density 17.674393999999999
#
# number of rings (size 3 to 8) (size 9 to 14) (size 15 to 20)
#    0.000    2.000    2.500    2.250    0.000    2.500 
#    0.000    4.375    0.000    0.750    0.000    0.000 
#    0.000    0.000    0.000    0.000    0.000    0.000 
#
# Total GULP energy -396588.070251 kJ/mol
# GULP energy per Si atom -12393.377195 kJ/mol
# Density = 1.763417 g / cm^3
# Si number density = 17.674394 Si / 1000 Ang^3
#
#
#
# Elastic Constant Matrix: (Units=GPa)
#
#
# Indices 1 2 3 4 5 6 
#
# 1 102.1398 19.7066 55.3569 0.0000 7.5416 0.0000
# 2 19.7066 58.7216 23.7823 0.0000 4.9417 0.0000
# 3 55.3569 23.7823 114.9711 0.0000 7.2193 0.0000
# 4 0.0000 0.0000 0.0000 18.5561 0.0000 -1.0699
# 5 7.5416 4.9417 7.2193 0.0000 28.4322 0.0000
# 6 0.0000 0.0000 0.0000 -1.0699 0.0000 24.5597
#
#
#
# Elastic Compliance Matrix: (Units=1/GPa)
#
#
# Indices 1 2 3 4 5 6 
#
# 1 0.013556 -0.001969 -0.006011 0.000000 -0.001727 0.000000
# 2 -0.001969 0.019021 -0.002857 0.000000 -0.002058 0.000000
# 3 -0.006011 -0.002857 0.012247 0.000000 -0.001019 0.000000
# 4 0.000000 0.000000 0.000000 0.054026 0.000000 0.002354
# 5 -0.001727 -0.002058 -0.001019 0.000000 0.036246 0.000000
# 6 0.000000 0.000000 0.000000 0.002354 0.000000 0.040820
#
#
# Mechanical properties :
#
#
# Convention : Reuss Voigt Hill
#
# Bulk Modulus (GPa) = 43.19933 52.61379 47.90656
# Shear Modulus (GPa) = 24.35380 26.10871 25.23126
#
# Velocity S-wave (km/s) = 3.71605 3.84761 3.78241
# Velocity P-wave (km/s) = 6.55034 7.04073 6.79995
#
# Compressibility (1/GPa) = 0.02314851
#
# Stress axis : x y z
#
# Youngs Moduli (GPa) = 73.76887 52.57415 81.65219
#
# Poissons Ratio (x) = 0.10354 0.49082
# Poissons Ratio (y) = 0.14528 0.23329
# Poissons Ratio (z) = 0.44343 0.15021
#
# Static dielectric constant tensor:
#      x y z
#    x 3.238490 0.000000 0.147800 
#    y 0.000000 3.216290 0.000000 
#    z 0.147800 0.000000 3.631770 
# 
# 
# High freq. dielectric constant tensor:
#      x y z
#    x 1.669150 0.000000 0.015000 
#    y 0.000000 1.669840 0.000000 
#    z 0.015000 0.000000 1.676550 
# 
# From -- ./inp_files/71621.got.cif
#   From: 2010.06.25/outbox.cif.g09.slc.cpg/sg11_36_cif.got.tgz:71621.got - 2010.06.27 23:14:04.
