data_PCOD8071111
_publ_section_title
;
Structure prediction by ZEFSAII (Michael W. Deem and Ramdas Pophale) SiO2 
 PCOD8071111
Probable space group: P 21/M
;
_chemical_formula_sum "Si O2"
_cell_formula_units_Z 32
_cell_length_a 21.835818
_cell_length_b 9.265398
_cell_length_c 28.316906
_cell_angle_alpha 90.000000
_cell_angle_beta 161.515376
_cell_angle_gamma 90.000000
_cell_volume 1816.382499
_symmetry_space_group_name_H-M "P 21/M"
_symmetry_group_IT_number 11
_symmetry_cell_setting 'monoclinic'
loop_
_space_group_symop_operation_xyz
x,y,z
-x,1/2+y,-z
-x,-y,-z
x,1/2-y,z
loop_
_atom_site_type_symbol
_atom_site_label
_atom_site_fract_x
_atom_site_fract_y
_atom_site_fract_z
Si Si1 0.814959 0.082110 0.346634
Si Si2 0.143513 0.583081 0.962354
Si Si3 0.687488 0.084097 0.152133
Si Si4 0.404017 0.418502 0.084667
Si Si5 0.947477 0.581089 0.914150
Si Si6 0.529112 0.579775 0.570371
Si Si7 0.152229 0.585920 0.828342
Si Si8 0.184809 0.085583 0.353053
O O1 0.865738 0.250000 0.381805
O O2 0.771090 0.022293 0.262022
O O3 0.633067 0.052698 0.248057
O O4 0.000000 0.000000 0.500000
O O5 0.202525 0.750000 0.002270
O O6 0.098278 0.537181 0.983082
O O7 0.950751 0.554328 0.791135
O O8 0.322390 0.491343 0.072711
O O9 0.628130 0.250000 0.115811
O O10 0.845816 0.063925 0.226541
O O11 0.500000 0.000000 0.000000
O O12 0.356969 0.250000 0.052296
O O13 0.304069 0.481515 0.964753
O O14 0.959257 0.750000 0.932762
O O15 0.733297 0.536512 0.741861
O O16 0.000000 0.500000 0.000000
O O17 0.500000 0.500000 0.500000
O O18 0.512030 0.750000 0.549748
O O19 0.363577 0.524059 0.484759
O O20 0.209638 0.750000 0.884375
O O21 0.935110 0.554570 0.686959
O O22 0.261357 0.250000 0.407073
#
# Coordination Sequence:
#
# PCOD8071111 Si02
#       8
#     4   4   4   4   4   4   4   4
#     4  10  22  37  53  78 112 145 182 225 269 321
#     4   9  18  35  55  77 108 143 178 219 266 324
#     4  10  19  34  55  80 107 138 177 224 271 320
#     4  10  19  32  52  81 110 136 177 229 268 314
#     4  10  22  39  56  79 111 144 182 225 269 321
#     4  11  21  35  55  80 109 140 176 222 270 318
#     4   9  18  32  53  78 108 143 176 218 274 325
#     4   9  17  32  52  79 110 138 176 223 266 319
#
# _framework density 17.617433999999999
#
# number of rings (size 3 to 8) (size 9 to 14) (size 15 to 20)
#    0.000    2.250    2.500    1.500    0.000    5.000 
#    0.000    1.250    0.000    4.500    0.000    0.000 
#    0.000    0.000    0.000    0.000    0.000    0.000 
#
# Total GULP energy -396791.519718 kJ/mol
# GULP energy per Si atom -12399.734991 kJ/mol
# Density = 1.757734 g / cm^3
# Si number density = 17.617434 Si / 1000 Ang^3
#
#
#
# Elastic Constant Matrix: (Units=GPa)
#
#
# Indices 1 2 3 4 5 6 
#
# 1 149.3689 57.8593 73.3206 0.0000 3.2666 0.0000
# 2 57.8593 80.5680 63.8419 0.0000 6.1220 0.0000
# 3 73.3206 63.8419 114.2997 0.0000 3.8704 0.0000
# 4 0.0000 0.0000 0.0000 33.0414 0.0000 3.0702
# 5 3.2666 6.1220 3.8704 0.0000 27.0842 0.0000
# 6 0.0000 0.0000 0.0000 3.0702 0.0000 30.4340
#
#
#
# Elastic Compliance Matrix: (Units=1/GPa)
#
#
# Indices 1 2 3 4 5 6 
#
# 1 0.010422 -0.003948 -0.004490 0.000000 0.000277 0.000000
# 2 -0.003948 0.024055 -0.010788 0.000000 -0.003420 0.000000
# 3 -0.004490 -0.010788 0.017639 0.000000 0.000459 0.000000
# 4 0.000000 0.000000 0.000000 0.030551 0.000000 -0.003082
# 5 0.000277 -0.003420 0.000459 0.000000 0.037596 0.000000
# 6 0.000000 0.000000 0.000000 -0.003082 0.000000 0.033169
#
#
# Mechanical properties :
#
#
# Convention : Reuss Voigt Hill
#
# Bulk Modulus (GPa) = 73.17789 81.58667 77.38228
# Shear Modulus (GPa) = 25.45346 28.05957 26.75651
#
# Velocity S-wave (km/s) = 3.80516 3.99521 3.90134
# Velocity P-wave (km/s) = 7.80596 8.22758 8.01954
#
# Compressibility (1/GPa) = 0.01366533
#
# Stress axis : x y z
#
# Youngs Moduli (GPa) = 95.95227 41.57170 56.69310
#
# Poissons Ratio (x) = 0.16412 0.25454
# Poissons Ratio (y) = 0.37880 0.61158
# Poissons Ratio (z) = 0.43080 0.44846
#
# Static dielectric constant tensor:
#      x y z
#    x 3.816620 0.000000 0.215170 
#    y 0.000000 3.277830 0.000000 
#    z 0.215170 0.000000 3.113080 
# 
# 
# High freq. dielectric constant tensor:
#      x y z
#    x 1.694120 0.000000 0.018090 
#    y 0.000000 1.681310 0.000000 
#    z 0.018090 0.000000 1.654480 
# 
# From -- ./inp_files/72187.got.cif
#   From: 2010.06.25/outbox.cif.g09.slc.cpg/sg11_37_cif.got.tgz:72187.got - 2010.06.27 23:14:04.
