data_PCOD8071258
_publ_section_title
;
Structure prediction by ZEFSAII (Michael W. Deem and Ramdas Pophale) SiO2 
 PCOD8071258
Probable space group: P 21/M
;
_chemical_formula_sum "Si O2"
_cell_formula_units_Z 32
_cell_length_a 19.975483
_cell_length_b 8.983880
_cell_length_c 25.823729
_cell_angle_alpha 90.000000
_cell_angle_beta 158.588363
_cell_angle_gamma 90.000000
_cell_volume 1691.809382
_symmetry_space_group_name_H-M "P 21/M"
_symmetry_group_IT_number 11
_symmetry_cell_setting 'monoclinic'
loop_
_space_group_symop_operation_xyz
x,y,z
-x,1/2+y,-z
-x,-y,-z
x,1/2-y,z
loop_
_atom_site_type_symbol
_atom_site_label
_atom_site_fract_x
_atom_site_fract_y
_atom_site_fract_z
Si Si1 0.182763 0.073901 0.651706
Si Si2 0.306947 0.423977 0.853171
Si Si3 0.625254 0.573430 0.399678
Si Si4 0.291068 0.077659 0.202273
Si Si5 0.000487 0.580155 0.925151
Si Si6 0.987216 0.074988 0.699846
Si Si7 0.901667 0.422580 0.117736
Si Si8 0.504066 0.926291 0.199711
O O1 0.161280 0.250000 0.631729
O O2 0.216150 0.021019 0.734357
O O3 0.351707 0.015479 0.738715
O O4 0.000000 0.000000 0.500000
O O5 0.343837 0.250000 0.876901
O O6 0.173724 0.467311 0.804285
O O7 0.500000 0.500000 0.000000
O O8 0.637064 0.750000 0.411400
O O9 0.479514 0.514718 0.336985
O O10 0.823209 0.506704 0.552907
O O11 0.561189 0.514408 0.297326
O O12 0.337375 0.250000 0.227822
O O13 0.194181 0.046956 0.187841
O O14 0.156842 0.027073 0.059629
O O15 0.063775 0.750000 0.982081
O O16 0.979196 0.554804 0.848550
O O17 0.949774 0.250000 0.671945
O O18 0.001352 0.019450 0.768664
O O19 0.898196 0.250000 0.132314
O O20 0.696760 0.484975 0.960454
O O21 0.498811 0.750000 0.197879
#
# Coordination Sequence:
#
# PCOD8071258 Si02
#       8
#     4   4   4   4   4   4   4   4
#     4  10  20  35  54  79 107 140 178 225 276 325
#     4  10  22  39  59  81 111 147 188 231 279 336
#     4  11  21  37  58  82 112 153 193 228 275 338
#     4  10  19  32  55  87 118 147 179 229 284 328
#     4   9  18  34  57  84 114 147 188 228 272 333
#     4  11  24  39  54  82 118 148 184 237 288 334
#     4  10  19  37  60  82 108 145 188 232 273 330
#     4   9  18  33  57  82 105 135 184 232 267 320
#
# _framework density 18.914659
#
# number of rings (size 3 to 8) (size 9 to 14) (size 15 to 20)
#    0.000    2.000    1.250    2.625    0.000    3.500 
#    0.000    1.875    0.000    0.000    0.000    0.000 
#    0.000    0.000    0.000    0.000    0.000    0.000 
#
# Total GULP energy -396897.897143 kJ/mol
# GULP energy per Si atom -12403.059286 kJ/mol
# Density = 1.887161 g / cm^3
# Si number density = 18.914659 Si / 1000 Ang^3
#
#
#
# Elastic Constant Matrix: (Units=GPa)
#
#
# Indices 1 2 3 4 5 6 
#
# 1 112.7457 37.3617 30.1344 0.0000 -2.4210 0.0000
# 2 37.3617 66.5288 38.5008 0.0000 2.1129 0.0000
# 3 30.1344 38.5008 81.7568 0.0000 -8.4456 0.0000
# 4 0.0000 0.0000 0.0000 36.1700 0.0000 2.6587
# 5 -2.4210 2.1129 -8.4456 0.0000 30.6542 0.0000
# 6 0.0000 0.0000 0.0000 2.6587 0.0000 24.8428
#
#
#
# Elastic Compliance Matrix: (Units=1/GPa)
#
#
# Indices 1 2 3 4 5 6 
#
# 1 0.011065 -0.005404 -0.001446 0.000000 0.000848 0.000000
# 2 -0.005404 0.023847 -0.009729 0.000000 -0.004751 0.000000
# 3 -0.001446 -0.009729 0.017913 0.000000 0.005492 0.000000
# 4 0.000000 0.000000 0.000000 0.027866 0.000000 -0.002982
# 5 0.000848 -0.004751 0.005492 0.000000 0.034529 0.000000
# 6 0.000000 0.000000 0.000000 -0.002982 0.000000 0.040572
#
#
# Mechanical properties :
#
#
# Convention : Reuss Voigt Hill
#
# Bulk Modulus (GPa) = 50.84575 52.55836 51.70206
# Shear Modulus (GPa) = 25.57451 28.66901 27.12176
#
# Velocity S-wave (km/s) = 3.68108 3.89743 3.79080
# Velocity P-wave (km/s) = 6.70874 6.93547 6.82304
#
# Compressibility (1/GPa) = 0.01966733
#
# Stress axis : x y z
#
# Youngs Moduli (GPa) = 90.37494 41.93380 55.82485
#
# Poissons Ratio (x) = 0.22662 0.08072
# Poissons Ratio (y) = 0.48840 0.54312
# Poissons Ratio (z) = 0.13067 0.40797
#
# Static dielectric constant tensor:
#      x y z
#    x 3.762340 0.000000 0.087760 
#    y 0.000000 3.310810 0.000000 
#    z 0.087760 0.000000 3.368680 
# 
# 
# High freq. dielectric constant tensor:
#      x y z
#    x 1.748910 0.000000 0.008590 
#    y 0.000000 1.723260 0.000000 
#    z 0.008590 0.000000 1.727950 
# 
# From -- ./inp_files/72204.got.cif
#   From: 2010.06.25/outbox.cif.g09.slc.cpg/sg11_37_cif.got.tgz:72204.got - 2010.06.27 23:14:04.
