data_PCOD8071040
_publ_section_title
;
Structure prediction by ZEFSAII (Michael W. Deem and Ramdas Pophale) SiO2 
 PCOD8071040
Probable space group: P 21/M
;
_chemical_formula_sum "Si O2"
_cell_formula_units_Z 28
_cell_length_a 6.445023
_cell_length_b 21.491368
_cell_length_c 11.954195
_cell_angle_alpha 90.000000
_cell_angle_beta 67.703995
_cell_angle_gamma 90.000000
_cell_volume 1532.009549
_symmetry_space_group_name_H-M "P 21/M"
_symmetry_group_IT_number 11
_symmetry_cell_setting 'monoclinic'
loop_
_space_group_symop_operation_xyz
x,y,z
-x,1/2+y,-z
-x,-y,-z
x,1/2-y,z
loop_
_atom_site_type_symbol
_atom_site_label
_atom_site_fract_x
_atom_site_fract_y
_atom_site_fract_z
Si Si1 0.526236 0.952465 0.654546
Si Si2 0.834565 0.003905 0.773578
Si Si3 0.734528 0.820424 0.979209
Si Si4 0.710319 0.390441 0.945686
Si Si5 0.105487 0.910645 0.856156
Si Si6 0.858731 0.679417 0.205928
Si Si7 0.727881 0.931734 0.383298
O O1 0.318446 0.907936 0.729510
O O2 0.649292 0.919487 0.525911
O O3 0.696755 0.957474 0.723159
O O4 0.447031 0.022381 0.641781
O O5 0.672106 0.055432 0.862010
O O6 0.026968 0.037525 0.661810
O O7 0.944716 0.966930 0.853824
O O8 0.713960 0.750000 0.941977
O O9 0.965068 0.846653 0.879336
O O10 0.523582 0.858530 0.975766
O O11 0.732641 0.825552 0.113549
O O12 0.881603 0.339285 0.861706
O O13 0.811034 0.422758 0.035333
O O14 0.848646 0.750000 0.254035
O O15 0.731922 0.633944 0.317942
#
# Coordination Sequence:
#
# PCOD8071040 Si02
#       7
#     4   4   4   4   4   4   4
#     4  10  19  33  51  73 103 138 169 205 253 301
#     4  10  19  32  52  77 103 131 166 209 256 303
#     4  10  20  34  52  73  99 133 168 204 250 302
#     4  10  19  32  52  76 102 131 162 205 257 304
#     4  10  21  33  48  74 105 133 166 205 249 304
#     4   9  18  33  52  75  99 124 163 211 253 297
#     4   9  19  33  51  75 101 132 170 210 253 299
#
# _framework density 18.27665
#
# number of rings (size 3 to 8) (size 9 to 14) (size 15 to 20)
#    0.000    2.286    0.000    3.000    0.000    5.143 
#    0.000    0.714    0.000    0.857    0.000    0.000 
#    0.000    0.000    0.000    0.000    0.000    0.000 
#
# Total GULP energy -347221.292310 kJ/mol
# GULP energy per Si atom -12400.760440 kJ/mol
# Density = 1.823505 g / cm^3
# Si number density = 18.276650 Si / 1000 Ang^3
#
#
#
# Elastic Constant Matrix: (Units=GPa)
#
#
# Indices 1 2 3 4 5 6 
#
# 1 92.8810 40.3348 44.7866 0.0000 -0.2045 0.0000
# 2 40.3348 97.7083 69.4202 0.0000 -7.1192 0.0000
# 3 44.7866 69.4202 108.0600 0.0000 -9.8384 0.0000
# 4 0.0000 0.0000 0.0000 25.3762 0.0000 -2.3558
# 5 -0.2045 -7.1192 -9.8384 0.0000 24.7794 0.0000
# 6 0.0000 0.0000 0.0000 -2.3558 0.0000 24.0060
#
#
#
# Elastic Compliance Matrix: (Units=1/GPa)
#
#
# Indices 1 2 3 4 5 6 
#
# 1 0.014062 -0.003097 -0.004055 0.000000 -0.002384 0.000000
# 2 -0.003097 0.019520 -0.011151 0.000000 0.001155 0.000000
# 3 -0.004055 -0.011151 0.018472 0.000000 0.004097 0.000000
# 4 0.000000 0.000000 0.000000 0.039769 0.000000 0.003903
# 5 -0.002384 0.001155 0.004097 0.000000 0.042295 0.000000
# 6 0.000000 0.000000 0.000000 0.003903 0.000000 0.042039
#
#
# Mechanical properties :
#
#
# Convention : Reuss Voigt Hill
#
# Bulk Modulus (GPa) = 64.74258 67.52584 66.13421
# Shear Modulus (GPa) = 22.94490 24.43949 23.69220
#
# Velocity S-wave (km/s) = 3.54704 3.66074 3.60434
# Velocity P-wave (km/s) = 7.23020 7.40910 7.32020
#
# Compressibility (1/GPa) = 0.01544579
#
# Stress axis : x y z
#
# Youngs Moduli (GPa) = 71.11520 51.22921 54.13675
#
# Poissons Ratio (x) = 0.15867 0.21954
# Poissons Ratio (y) = 0.22026 0.60370
# Poissons Ratio (z) = 0.28840 0.57127
#
# Static dielectric constant tensor:
#      x y z
#    x 3.364520 0.000000 -0.099000 
#    y 0.000000 3.254100 0.000000 
#    z -0.099000 0.000000 3.304790 
# 
# 
# High freq. dielectric constant tensor:
#      x y z
#    x 1.714770 0.000000 -0.005280 
#    y 0.000000 1.691270 0.000000 
#    z -0.005280 0.000000 1.697260 
# 
# From -- ./inp_files/4897.got.cif
#   From: 2010.06.25/outbox.cif.g09.slc.cpg/sg11_3_cif.got.tgz:4897.got - 2010.06.27 23:14:04.
