data_PCOD8071625
_publ_section_title
;
Structure prediction by ZEFSAII (Michael W. Deem and Ramdas Pophale) SiO2 
 PCOD8071625
Probable space group: P 21/M
;
_chemical_formula_sum "Si O2"
_cell_formula_units_Z 32
_cell_length_a 13.913270
_cell_length_b 12.819105
_cell_length_c 8.472038
_cell_angle_alpha 90.000000
_cell_angle_beta 116.284150
_cell_angle_gamma 90.000000
_cell_volume 1354.808429
_symmetry_space_group_name_H-M "P 21/M"
_symmetry_group_IT_number 11
_symmetry_cell_setting 'monoclinic'
loop_
_space_group_symop_operation_xyz
x,y,z
-x,1/2+y,-z
-x,-y,-z
x,1/2-y,z
loop_
_atom_site_type_symbol
_atom_site_label
_atom_site_fract_x
_atom_site_fract_y
_atom_site_fract_z
Si Si1 0.236917 0.999182 0.811297
Si Si2 0.290351 0.367404 0.417309
Si Si3 0.376044 0.945624 0.631382
Si Si4 0.096984 0.517450 0.238451
Si Si5 0.968798 0.631199 0.414330
Si Si6 0.928517 0.368607 0.164124
Si Si7 0.619789 0.938137 0.828319
Si Si8 0.713769 0.132324 0.748631
O O1 0.300873 0.933682 0.728197
O O2 0.192508 0.912743 0.904962
O O3 0.142103 0.068232 0.670605
O O4 0.319114 0.076507 0.961407
O O5 0.277099 0.250000 0.473239
O O6 0.380444 0.432290 0.579075
O O7 0.181485 0.431653 0.364446
O O8 0.324585 0.362626 0.258927
O O9 0.324190 0.871606 0.461020
O O10 0.495782 0.908755 0.758955
O O11 0.160320 0.590731 0.156041
O O12 0.054000 0.588948 0.348913
O O13 0.999360 0.444101 0.099580
O O14 0.943697 0.750000 0.354082
O O15 0.019296 0.618653 0.623619
O O16 0.929430 0.250000 0.104398
O O17 0.632697 0.059215 0.785879
O O18 0.709499 0.250000 0.809711
#
# Coordination Sequence:
#
# PCOD8071625 Si02
#       8
#     4   4   4   4   4   4   4   4
#     4  11  22  37  57  86 119 148 185 234 287 339
#     4  10  20  37  61  86 113 149 193 234 275 333
#     4  10  21  38  60  84 110 150 197 237 278 328
#     4   9  17  32  55  82 107 137 180 228 275 323
#     4  10  19  33  55  83 115 149 185 228 279 337
#     4  10  19  33  55  83 115 149 185 228 279 337
#     4  10  23  39  56  82 118 153 186 233 289 336
#     4  10  20  37  61  86 113 149 193 234 275 333
#
# _framework density 23.619575999999999
#
# number of rings (size 3 to 8) (size 9 to 14) (size 15 to 20)
#    0.000    2.250    0.000    7.125    0.000    6.000 
#    0.000   10.000    0.000   16.500    0.000    0.000 
#    0.000    0.000    0.000    0.000    0.000    0.000 
#
# Total GULP energy -396724.052961 kJ/mol
# GULP energy per Si atom -12397.626655 kJ/mol
# Density = 2.356582 g / cm^3
# Si number density = 23.619576 Si / 1000 Ang^3
#
#
#
# Elastic Constant Matrix: (Units=GPa)
#
#
# Indices 1 2 3 4 5 6 
#
# 1 135.3877 15.8522 23.9024 0.0000 12.5138 0.0000
# 2 15.8522 132.0874 -16.6314 0.0000 -1.6126 0.0000
# 3 23.9024 -16.6314 45.2827 0.0000 10.0853 0.0000
# 4 0.0000 0.0000 0.0000 19.6413 0.0000 -5.9280
# 5 12.5138 -1.6126 10.0853 0.0000 40.0371 0.0000
# 6 0.0000 0.0000 0.0000 -5.9280 0.0000 15.8611
#
#
#
# Elastic Compliance Matrix: (Units=1/GPa)
#
#
# Indices 1 2 3 4 5 6 
#
# 1 0.008566 -0.001649 -0.004785 0.000000 -0.001539 0.000000
# 2 -0.001649 0.008263 0.003937 0.000000 -0.000143 0.000000
# 3 -0.004785 0.003937 0.027214 0.000000 -0.005201 0.000000
# 4 0.000000 0.000000 0.000000 0.057387 0.000000 0.021448
# 5 -0.001539 -0.000143 -0.005201 0.000000 0.026762 0.000000
# 6 0.000000 0.000000 0.000000 0.021448 0.000000 0.071064
#
#
# Mechanical properties :
#
#
# Convention : Reuss Voigt Hill
#
# Bulk Modulus (GPa) = 25.60894 39.88936 32.74915
# Shear Modulus (GPa) = 23.01341 34.41687 28.71514
#
# Velocity S-wave (km/s) = 3.12482 3.82138 3.49052
# Velocity P-wave (km/s) = 4.88724 6.03287 5.49002
#
# Compressibility (1/GPa) = 0.03904886
#
# Stress axis : x y z
#
# Youngs Moduli (GPa) = 116.73697 121.02609 36.74635
#
# Poissons Ratio (x) = 0.19961 0.17582
# Poissons Ratio (y) = 0.19254 -0.14468
# Poissons Ratio (z) = 0.55856 -0.47651
#
# Static dielectric constant tensor:
#      x y z
#    x 4.290390 0.000000 0.124270 
#    y 0.000000 4.292420 0.000000 
#    z 0.124270 0.000000 4.293380 
# 
# 
# High freq. dielectric constant tensor:
#      x y z
#    x 1.939870 0.000000 0.003630 
#    y 0.000000 1.917900 0.000000 
#    z 0.003630 0.000000 1.950100 
# 
# From -- ./inp_files/22252.got.cif
#   From: 2010.06.25/outbox.cif.g09.slc.cpg/sg11_12_cif.got.tgz:22252.got - 2010.06.27 23:14:04.
