data_PCOD8071239
_publ_section_title
;
Structure prediction by ZEFSAII (Michael W. Deem and Ramdas Pophale) SiO2 
 PCOD8071239
Probable space group: P 21/M
;
_chemical_formula_sum "Si O2"
_cell_formula_units_Z 32
_cell_length_a 12.014754
_cell_length_b 9.028210
_cell_length_c 15.275787
_cell_angle_alpha 90.000000
_cell_angle_beta 107.200349
_cell_angle_gamma 90.000000
_cell_volume 1582.884591
_symmetry_space_group_name_H-M "P 21/M"
_symmetry_group_IT_number 11
_symmetry_cell_setting 'monoclinic'
loop_
_space_group_symop_operation_xyz
x,y,z
-x,1/2+y,-z
-x,-y,-z
x,1/2-y,z
loop_
_atom_site_type_symbol
_atom_site_label
_atom_site_fract_x
_atom_site_fract_y
_atom_site_fract_z
Si Si1 0.467141 0.916000 0.363264
Si Si2 0.269505 0.422820 0.569571
Si Si3 0.123583 0.422438 0.862232
Si Si4 0.752674 0.921974 0.626658
Si Si5 0.288044 0.420334 0.062310
Si Si6 0.496482 0.418846 0.827146
Si Si7 0.253756 0.573997 0.742298
Si Si8 0.887531 0.925365 0.825851
O O1 0.447840 0.750000 0.392171
O O2 0.596978 0.970171 0.415347
O O3 0.446279 0.927866 0.254870
O O4 0.376509 0.016231 0.392845
O O5 0.263392 0.250000 0.595618
O O6 0.202044 0.454541 0.462134
O O7 0.218176 0.520398 0.636386
O O8 0.108972 0.250000 0.836089
O O9 0.153192 0.514491 0.782258
O O10 0.004501 0.485844 0.874552
O O11 0.224203 0.447934 0.956283
O O12 0.738290 0.750000 0.639363
O O13 0.842458 0.982408 0.720088
O O14 0.322143 0.250000 0.083693
O O15 0.407608 0.513249 0.085338
O O16 0.206020 0.472027 0.122968
O O17 0.468260 0.250000 0.847966
O O18 0.376884 0.509575 0.802765
O O19 0.257624 0.750000 0.745394
O O20 0.912522 0.750000 0.833899
#
# Coordination Sequence:
#
# PCOD8071239 Si02
#       8
#     4   4   4   4   4   4   4   4
#     4   9  17  29  48  79 118 151 184 225 274 336
#     4   9  19  35  54  82 116 151 189 231 282 339
#     4  11  24  41  61  83 111 153 197 241 290 341
#     4  10  19  32  55  83 116 152 185 230 285 337
#     4  10  21  38  61  89 119 149 188 236 289 344
#     4  10  20  35  58  88 121 154 187 233 286 341
#     4  11  23  40  61  83 113 153 195 241 287 337
#     4  10  21  38  59  87 120 150 189 237 283 340
#
# _framework density 20.216256999999999
#
# number of rings (size 3 to 8) (size 9 to 14) (size 15 to 20)
#    0.000    2.000    1.250    3.375    0.000    5.000 
#    0.000    0.625    0.000    0.000    0.000    0.000 
#    0.000    0.000    0.000    0.000    0.000    0.000 
#
# Total GULP energy -396824.410240 kJ/mol
# GULP energy per Si atom -12400.762820 kJ/mol
# Density = 2.017024 g / cm^3
# Si number density = 20.216257 Si / 1000 Ang^3
#
#
#
# Elastic Constant Matrix: (Units=GPa)
#
#
# Indices 1 2 3 4 5 6 
#
# 1 30.7760 16.5822 2.6466 0.0000 -11.8149 0.0000
# 2 16.5822 81.8623 25.2886 0.0000 -8.1854 0.0000
# 3 2.6466 25.2886 65.0563 0.0000 -7.5029 0.0000
# 4 0.0000 0.0000 0.0000 25.1339 0.0000 -2.5464
# 5 -11.8149 -8.1854 -7.5029 0.0000 17.2455 0.0000
# 6 0.0000 0.0000 0.0000 -2.5464 0.0000 31.8281
#
#
#
# Elastic Compliance Matrix: (Units=1/GPa)
#
#
# Indices 1 2 3 4 5 6 
#
# 1 0.048581 -0.008185 0.004839 0.000000 0.031503 0.000000
# 2 -0.008185 0.015596 -0.005814 0.000000 -0.000735 0.000000
# 3 0.004839 -0.005814 0.018423 0.000000 0.008570 0.000000
# 4 0.000000 0.000000 0.000000 0.040112 0.000000 0.003209
# 5 0.031503 -0.000735 0.008570 0.000000 0.082949 0.000000
# 6 0.000000 0.000000 0.000000 0.003209 0.000000 0.031675
#
#
# Mechanical properties :
#
#
# Convention : Reuss Voigt Hill
#
# Bulk Modulus (GPa) = 15.55740 29.63661 22.59700
# Shear Modulus (GPa) = 18.04504 23.72000 20.88252
#
# Velocity S-wave (km/s) = 2.99088 3.42908 3.21745
# Velocity P-wave (km/s) = 4.43163 5.51088 5.00046
#
# Compressibility (1/GPa) = 0.06427809
#
# Stress axis : x y z
#
# Youngs Moduli (GPa) = 20.58422 64.11750 54.27991
#
# Poissons Ratio (x) = 0.52483 -0.26264
# Poissons Ratio (y) = 0.16849 0.31560
# Poissons Ratio (z) = -0.09960 0.37280
#
# Static dielectric constant tensor:
#      x y z
#    x 3.382140 0.000000 0.055430 
#    y 0.000000 3.560280 0.000000 
#    z 0.055430 0.000000 3.847070 
# 
# 
# High freq. dielectric constant tensor:
#      x y z
#    x 1.769060 0.000000 0.001530 
#    y 0.000000 1.783750 0.000000 
#    z 0.001530 0.000000 1.798790 
# 
# From -- ./inp_files/45262.got.cif
#   From: 2010.06.25/outbox.cif.g09.slc.cpg/sg11_23_cif.got.tgz:45262.got - 2010.06.27 23:14:04.
