data_PCOD8071677
_publ_section_title
;
Structure prediction by ZEFSAII (Michael W. Deem and Ramdas Pophale) SiO2 
 PCOD8071677
Probable space group: P 21/M
;
_chemical_formula_sum "Si O2"
_cell_formula_units_Z 32
_cell_length_a 20.045890
_cell_length_b 9.182918
_cell_length_c 25.848410
_cell_angle_alpha 90.000000
_cell_angle_beta 158.853157
_cell_angle_gamma 90.000000
_cell_volume 1716.554450
_symmetry_space_group_name_H-M "P 21/M"
_symmetry_group_IT_number 11
_symmetry_cell_setting 'monoclinic'
loop_
_space_group_symop_operation_xyz
x,y,z
-x,1/2+y,-z
-x,-y,-z
x,1/2-y,z
loop_
_atom_site_type_symbol
_atom_site_label
_atom_site_fract_x
_atom_site_fract_y
_atom_site_fract_z
Si Si1 0.310188 0.580687 0.854118
Si Si2 0.183008 0.578673 0.649672
Si Si3 0.614864 0.422825 0.394086
Si Si4 0.020811 0.081234 0.310773
Si Si5 0.119278 0.582220 0.902481
Si Si6 0.039683 0.082596 0.104144
Si Si7 0.709676 0.419617 0.788947
Si Si8 0.494743 0.078555 0.193196
O O1 0.356431 0.750000 0.886541
O O2 0.223139 0.530335 0.737090
O O3 0.168878 0.540657 0.797551
O O4 0.500000 0.500000 0.000000
O O5 0.152352 0.750000 0.622165
O O6 0.349660 0.524674 0.733986
O O7 0.000000 0.500000 0.500000
O O8 0.609431 0.250000 0.396692
O O9 0.820953 0.478942 0.552232
O O10 0.480467 0.495977 0.338801
O O11 0.551124 0.473230 0.291163
O O12 0.072919 0.250000 0.358045
O O13 0.995946 0.047015 0.232269
O O14 0.180554 0.750000 0.948919
O O15 0.986714 0.544307 0.854828
O O16 0.303191 0.488817 0.036844
O O17 0.097320 0.250000 0.136951
O O18 0.201297 0.979883 0.199527
O O19 0.847286 0.049107 0.936028
O O20 0.666379 0.250000 0.750615
O O21 0.470258 0.250000 0.173485
#
# Coordination Sequence:
#
# PCOD8071677 Si02
#       8
#     4   4   4   4   4   4   4   4
#     4  10  21  37  57  81 109 144 185 228 273 326
#     4  10  21  36  53  78 109 141 180 226 274 322
#     4  11  22  36  55  81 112 147 185 225 272 325
#     4  10  22  38  56  80 112 147 184 225 272 326
#     4  10  20  36  57  82 109 141 181 224 269 320
#     4   9  18  33  54  82 112 140 176 223 270 319
#     4  10  19  33  56  83 111 143 178 221 272 323
#     4  10  21  35  54  80 109 140 180 228 273 321
#
# _framework density 18.641995000000001
#
# number of rings (size 3 to 8) (size 9 to 14) (size 15 to 20)
#    0.000    2.000    1.250    2.250    0.000    3.500 
#    0.000    0.625    0.000    0.000    0.000    0.000 
#    0.000    0.000    0.000    0.000    0.000    0.000 
#
# Total GULP energy -396956.397385 kJ/mol
# GULP energy per Si atom -12404.887418 kJ/mol
# Density = 1.859957 g / cm^3
# Si number density = 18.641995 Si / 1000 Ang^3
#
#
#
# Elastic Constant Matrix: (Units=GPa)
#
#
# Indices 1 2 3 4 5 6 
#
# 1 120.4780 36.6857 32.8656 0.0000 2.5320 0.0000
# 2 36.6857 59.1983 39.1265 0.0000 5.4888 0.0000
# 3 32.8656 39.1265 73.7245 0.0000 2.0330 0.0000
# 4 0.0000 0.0000 0.0000 38.3104 0.0000 7.2186
# 5 2.5320 5.4888 2.0330 0.0000 23.3805 0.0000
# 6 0.0000 0.0000 0.0000 7.2186 0.0000 22.4004
#
#
#
# Elastic Compliance Matrix: (Units=1/GPa)
#
#
# Indices 1 2 3 4 5 6 
#
# 1 0.010398 -0.005236 -0.001863 0.000000 0.000265 0.000000
# 2 -0.005236 0.029233 -0.013038 0.000000 -0.005162 0.000000
# 3 -0.001863 -0.013038 0.021275 0.000000 0.001413 0.000000
# 4 0.000000 0.000000 0.000000 0.027790 0.000000 -0.008955
# 5 0.000265 -0.005162 0.001413 0.000000 0.043831 0.000000
# 6 0.000000 0.000000 0.000000 -0.008955 0.000000 0.047528
#
#
# Mechanical properties :
#
#
# Convention : Reuss Voigt Hill
#
# Bulk Modulus (GPa) = 48.47157 52.30626 50.38891
# Shear Modulus (GPa) = 22.00638 26.46644 24.23641
#
# Velocity S-wave (km/s) = 3.43953 3.77201 3.60960
# Velocity P-wave (km/s) = 6.46773 6.86221 6.66789
#
# Compressibility (1/GPa) = 0.02063065
#
# Stress axis : x y z
#
# Youngs Moduli (GPa) = 96.17685 34.20763 47.00344
#
# Poissons Ratio (x) = 0.17913 0.08758
# Poissons Ratio (y) = 0.50363 0.61282
# Poissons Ratio (z) = 0.17921 0.44599
#
# Static dielectric constant tensor:
#      x y z
#    x 3.795490 0.000000 -0.001570 
#    y 0.000000 3.370010 0.000000 
#    z -0.001570 0.000000 3.214050 
# 
# 
# High freq. dielectric constant tensor:
#      x y z
#    x 1.739400 0.000000 0.005280 
#    y 0.000000 1.721150 0.000000 
#    z 0.005280 0.000000 1.714210 
# 
# From -- ./inp_files/72219.got.cif
#   From: 2010.06.25/outbox.cif.g09.slc.cpg/sg11_37_cif.got.tgz:72219.got - 2010.06.27 23:14:04.
