data_PCOD8071261
_publ_section_title
;
Structure prediction by ZEFSAII (Michael W. Deem and Ramdas Pophale) SiO2 
 PCOD8071261
Probable space group: P 21/M
;
_chemical_formula_sum "Si O2"
_cell_formula_units_Z 32
_cell_length_a 12.622957
_cell_length_b 9.279398
_cell_length_c 30.885828
_cell_angle_alpha 90.000000
_cell_angle_beta 28.163779
_cell_angle_gamma 90.000000
_cell_volume 1707.560897
_symmetry_space_group_name_H-M "P 21/M"
_symmetry_group_IT_number 11
_symmetry_cell_setting 'monoclinic'
loop_
_space_group_symop_operation_xyz
x,y,z
-x,1/2+y,-z
-x,-y,-z
x,1/2-y,z
loop_
_atom_site_type_symbol
_atom_site_label
_atom_site_fract_x
_atom_site_fract_y
_atom_site_fract_z
Si Si1 0.319523 0.413301 0.591834
Si Si2 0.117650 0.082229 0.229879
Si Si3 0.776458 0.414368 0.588695
Si Si4 0.029201 0.418046 0.164925
Si Si5 0.608088 0.908998 0.335693
Si Si6 0.054281 0.581382 0.072181
Si Si7 0.544855 0.082645 0.133329
Si Si8 0.433818 0.420465 0.785328
O O1 0.500000 0.500000 0.500000
O O2 0.293143 0.250000 0.583682
O O3 0.420007 0.413322 0.603287
O O4 0.077788 0.489597 0.677385
O O5 0.052908 0.250000 0.257625
O O6 0.147056 0.042365 0.168301
O O7 0.347190 0.043731 0.171152
O O8 0.842975 0.250000 0.573014
O O9 0.635862 0.435622 0.595718
O O10 0.630312 0.471081 0.682015
O O11 0.000000 0.500000 0.500000
O O12 0.040928 0.250000 0.150925
O O13 0.771396 0.467523 0.259846
O O14 0.141227 0.501167 0.084284
O O15 0.697692 0.750000 0.288231
O O16 0.065600 0.750000 0.077988
O O17 0.805626 0.530030 0.147995
O O18 0.220777 0.539735 0.973303
O O19 0.538526 0.250000 0.148060
O O20 0.516214 0.992393 0.186964
O O21 0.432222 0.250000 0.792328
#
# Coordination Sequence:
#
# PCOD8071261 Si02
#       8
#     4   4   4   4   4   4   4   4
#     4  10  20  34  57  83 107 144 188 229 278 336
#     4   9  20  38  54  78 116 148 183 233 283 329
#     4  10  21  37  56  80 109 142 180 227 280 330
#     4  10  19  32  56  84 109 140 182 232 275 323
#     4   9  18  36  56  74 104 144 181 220 276 334
#     4  10  20  37  59  82 112 150 188 229 282 340
#     4  10  22  38  58  82 113 154 191 227 279 340
#     4  10  21  38  58  80 113 148 185 238 285 327
#
# _framework density 18.740181
#
# number of rings (size 3 to 8) (size 9 to 14) (size 15 to 20)
#    0.000    2.250    1.250    1.125    0.000    5.000 
#    0.000    3.750    0.000    0.000    0.000    0.000 
#    0.000    0.000    0.000    0.000    0.000    0.000 
#
# Total GULP energy -396793.082439 kJ/mol
# GULP energy per Si atom -12399.783826 kJ/mol
# Density = 1.869753 g / cm^3
# Si number density = 18.740181 Si / 1000 Ang^3
#
#
#
# Elastic Constant Matrix: (Units=GPa)
#
#
# Indices 1 2 3 4 5 6 
#
# 1 110.2175 47.1820 61.7104 0.0000 -1.9350 0.0000
# 2 47.1820 67.5880 50.3385 0.0000 1.9372 0.0000
# 3 61.7104 50.3385 133.6465 0.0000 0.1244 0.0000
# 4 0.0000 0.0000 0.0000 31.5204 0.0000 4.7953
# 5 -1.9350 1.9372 0.1244 0.0000 22.6913 0.0000
# 6 0.0000 0.0000 0.0000 4.7953 0.0000 31.9256
#
#
#
# Elastic Compliance Matrix: (Units=1/GPa)
#
#
# Indices 1 2 3 4 5 6 
#
# 1 0.014376 -0.007149 -0.003947 0.000000 0.001858 0.000000
# 2 -0.007149 0.024187 -0.005806 0.000000 -0.002643 0.000000
# 3 -0.003947 -0.005806 0.011492 0.000000 0.000096 0.000000
# 4 0.000000 0.000000 0.000000 0.032467 0.000000 -0.004877
# 5 0.001858 -0.002643 0.000096 0.000000 0.044453 0.000000
# 6 0.000000 0.000000 0.000000 -0.004877 0.000000 0.032055
#
#
# Mechanical properties :
#
#
# Convention : Reuss Voigt Hill
#
# Bulk Modulus (GPa) = 61.54162 69.99043 65.76603
# Shear Modulus (GPa) = 25.22047 27.37553 26.29800
#
# Velocity S-wave (km/s) = 3.67249 3.82618 3.75012
# Velocity P-wave (km/s) = 7.13397 7.54642 7.34309
#
# Compressibility (1/GPa) = 0.01624917
#
# Stress axis : x y z
#
# Youngs Moduli (GPa) = 69.56083 41.34534 87.01852
#
# Poissons Ratio (x) = 0.29559 0.34346
# Poissons Ratio (y) = 0.49731 0.50526
# Poissons Ratio (z) = 0.27455 0.24007
#
# Static dielectric constant tensor:
#      x y z
#    x 3.638180 0.000000 0.086790 
#    y 0.000000 3.525160 0.000000 
#    z 0.086790 0.000000 3.374960 
# 
# 
# High freq. dielectric constant tensor:
#      x y z
#    x 1.733790 0.000000 0.007060 
#    y 0.000000 1.724930 0.000000 
#    z 0.007060 0.000000 1.723580 
# 
# From -- ./inp_files/38229.got.cif
#   From: 2010.06.25/outbox.cif.g09.slc.cpg/sg11_20_cif.got.tgz:38229.got - 2010.06.27 23:14:04.
