data_PCOD8071910
_publ_section_title
;
Structure prediction by ZEFSAII (Michael W. Deem and Ramdas Pophale) SiO2 
 PCOD8071910
Probable space group: P 21/M
;
_chemical_formula_sum "Si O2"
_cell_formula_units_Z 24
_cell_length_a 9.152980
_cell_length_b 27.724901
_cell_length_c 7.913656
_cell_angle_alpha 90.000000
_cell_angle_beta 146.295300
_cell_angle_gamma 90.000000
_cell_volume 1114.382612
_symmetry_space_group_name_H-M "P 21/M"
_symmetry_group_IT_number 11
_symmetry_cell_setting 'monoclinic'
loop_
_space_group_symop_operation_xyz
x,y,z
-x,1/2+y,-z
-x,-y,-z
x,1/2-y,z
loop_
_atom_site_type_symbol
_atom_site_label
_atom_site_fract_x
_atom_site_fract_y
_atom_site_fract_z
Si Si1 0.804975 0.195628 0.743349
Si Si2 0.141492 0.139902 0.572740
Si Si3 0.630403 0.163700 0.218285
Si Si4 0.950035 0.958948 0.317151
Si Si5 0.532950 0.068523 0.316160
Si Si6 0.687116 0.858888 0.636158
O O1 0.879120 0.250000 0.866361
O O2 0.066065 0.162614 0.018784
O O3 0.703210 0.195006 0.452063
O O4 0.555648 0.178438 0.614665
O O5 0.095307 0.091925 0.635616
O O6 0.356048 0.176831 0.861936
O O7 0.866226 0.168964 0.309400
O O8 0.216149 0.126058 0.454675
O O9 0.585367 0.108396 0.224558
O O10 0.185369 0.958330 0.403145
O O11 0.000000 0.000000 0.500000
O O12 0.684516 0.969969 0.956517
O O13 0.430561 0.093150 0.389626
#
# Coordination Sequence:
#
# PCOD8071910 Si02
#       6
#     4   4   4   4   4   4
#     4  11  22  38  58  81 108 144 184 226 273 327
#     4  10  20  35  56  81 108 143 183 223 273 326
#     4   9  18  35  56  76 102 141 184 215 257 330
#     4  10  19  34  55  81 110 144 187 233 269 313
#     4   9  18  33  54  76 105 147 182 211 266 337
#     4  11  21  37  58  81 112 147 181 222 278 341
#
# _framework density 21.53659
#
# number of rings (size 3 to 8) (size 9 to 14) (size 15 to 20)
#    0.000    2.000    0.000    7.000    0.000    0.000 
#    0.000    6.667    0.000    0.000    0.000    3.500 
#    0.000    0.000    0.000    0.000    0.000    0.000 
#
# Total GULP energy -297342.282014 kJ/mol
# GULP energy per Si atom -12389.261751 kJ/mol
# Density = 2.148757 g / cm^3
# Si number density = 21.536590 Si / 1000 Ang^3
#
#
#
# Elastic Constant Matrix: (Units=GPa)
#
#
# Indices 1 2 3 4 5 6 
#
# 1 126.8141 -6.8868 46.2917 0.0000 23.2740 0.0000
# 2 -6.8868 20.2114 16.8183 0.0000 9.4515 0.0000
# 3 46.2917 16.8183 120.4751 0.0000 25.9684 0.0000
# 4 0.0000 0.0000 0.0000 20.3805 0.0000 6.0089
# 5 23.2740 9.4515 25.9684 0.0000 36.8387 0.0000
# 6 0.0000 0.0000 0.0000 6.0089 0.0000 13.3103
#
#
#
# Elastic Compliance Matrix: (Units=1/GPa)
#
#
# Indices 1 2 3 4 5 6 
#
# 1 0.011308 0.010669 -0.004368 0.000000 -0.006802 0.000000
# 2 0.010669 0.069671 -0.010046 0.000000 -0.017534 0.000000
# 3 -0.004368 -0.010046 0.012064 0.000000 -0.003167 0.000000
# 4 0.000000 0.000000 0.000000 0.056600 0.000000 -0.025552
# 5 -0.006802 -0.017534 -0.003167 0.000000 0.038174 0.000000
# 6 0.000000 0.000000 0.000000 -0.025552 0.000000 0.086665
#
#
# Mechanical properties :
#
#
# Convention : Reuss Voigt Hill
#
# Bulk Modulus (GPa) = 11.68880 42.21631 26.95256
# Shear Modulus (GPa) = 16.10359 28.19106 22.14732
#
# Velocity S-wave (km/s) = 2.73743 3.62191 3.21028
# Velocity P-wave (km/s) = 3.92818 6.09391 5.12671
#
# Compressibility (1/GPa) = 0.08555199
#
# Stress axis : x y z
#
# Youngs Moduli (GPa) = 88.43425 14.35315 82.89154
#
# Poissons Ratio (x) = -0.15313 0.36208
# Poissons Ratio (y) = -0.94348 0.83273
# Poissons Ratio (z) = 0.38629 0.14419
#
# Static dielectric constant tensor:
#      x y z
#    x 3.811490 0.000000 0.512450 
#    y 0.000000 3.424940 0.000000 
#    z 0.512450 0.000000 4.588210 
# 
# 
# High freq. dielectric constant tensor:
#      x y z
#    x 1.843070 0.000000 0.028840 
#    y 0.000000 1.794680 0.000000 
#    z 0.028840 0.000000 1.867720 
# 
# From -- ./inp_files/15417.got.cif
#   From: 2010.06.25/outbox.cif.g09.slc.cpg/sg11_8_cif.got.tgz:15417.got - 2010.06.27 23:14:04.
