data_PCOD8071287
_publ_section_title
;
Structure prediction by ZEFSAII (Michael W. Deem and Ramdas Pophale) SiO2 
 PCOD8071287
Probable space group: P 21/M
;
_chemical_formula_sum "Si O2"
_cell_formula_units_Z 32
_cell_length_a 15.718856
_cell_length_b 9.054620
_cell_length_c 14.345196
_cell_angle_alpha 90.000000
_cell_angle_beta 90.048704
_cell_angle_gamma 90.000000
_cell_volume 2041.726162
_symmetry_space_group_name_H-M "P 21/M"
_symmetry_group_IT_number 11
_symmetry_cell_setting 'monoclinic'
loop_
_space_group_symop_operation_xyz
x,y,z
-x,1/2+y,-z
-x,-y,-z
x,1/2-y,z
loop_
_atom_site_type_symbol
_atom_site_label
_atom_site_fract_x
_atom_site_fract_y
_atom_site_fract_z
Si Si1 0.596860 0.078455 0.090660
Si Si2 0.816911 0.922542 0.599055
Si Si3 0.183707 0.922658 0.598451
Si Si4 0.348055 0.423576 0.291839
Si Si5 0.000309 0.578727 0.596946
Si Si6 0.596917 0.921632 0.909368
Si Si7 0.499627 0.926378 0.399531
Si Si8 0.348678 0.923590 0.707850
O O1 0.600134 0.250000 0.069780
O O2 0.499988 0.024869 0.106970
O O3 0.650387 0.037554 0.182582
O O4 0.637113 0.999852 0.000135
O O5 0.810365 0.750000 0.578274
O O6 0.744972 0.970114 0.672101
O O7 0.909897 0.963173 0.645820
O O8 0.801709 0.000367 0.500477
O O9 0.190417 0.750000 0.578334
O O10 0.090918 0.963453 0.645455
O O11 0.256030 0.971087 0.670958
O O12 0.368650 0.250000 0.307448
O O13 0.349649 0.463218 0.182401
O O14 0.416093 0.521445 0.345709
O O15 0.000443 0.750000 0.575492
O O16 0.000000 0.500000 0.500000
O O17 0.600434 0.750000 0.929810
O O18 0.499692 0.750000 0.408928
O O19 0.500000 0.000000 0.500000
O O20 0.582606 0.978639 0.344895
O O21 0.369022 0.750000 0.691988
#
# Coordination Sequence:
#
# PCOD8071287 Si02
#       8
#     4   4   4   4   4   4   4   4
#     4   9  17  30  47  64  85 111 143 185 226 263
#     4   9  17  28  45  65  90 118 147 180 217 259
#     4   9  17  28  45  65  90 118 147 180 217 259
#     4  10  19  33  48  65  89 119 150 184 223 263
#     4   8  14  26  42  64  87 112 144 180 217 256
#     4   9  17  30  47  64  85 111 143 185 226 263
#     4  12  24  34  45  62  89 124 155 184 214 256
#     4  10  19  33  48  65  89 119 150 184 223 263
#
# _framework density 15.673012
#
# number of rings (size 3 to 8) (size 9 to 14) (size 15 to 20)
#    0.000    2.500    1.250    1.875    0.000    4.000 
#    0.000    0.000    0.000    0.000    0.000    0.875 
#    0.000    0.000    0.000    0.000    0.000    0.000 
#
# Total GULP energy -396508.066707 kJ/mol
# GULP energy per Si atom -12390.877085 kJ/mol
# Density = 1.563734 g / cm^3
# Si number density = 15.673012 Si / 1000 Ang^3
#
#
#
# Elastic Constant Matrix: (Units=GPa)
#
#
# Indices 1 2 3 4 5 6 
#
# 1 144.7268 40.2041 72.1872 0.0000 -2.7520 0.0000
# 2 40.2041 47.3865 41.3074 0.0000 -1.3455 0.0000
# 3 72.1872 41.3074 121.6924 0.0000 -2.3595 0.0000
# 4 0.0000 0.0000 0.0000 24.6286 0.0000 0.0666
# 5 -2.7520 -1.3455 -2.3595 0.0000 0.2194 0.0000
# 6 0.0000 0.0000 0.0000 0.0666 0.0000 10.6491
#
#
#
# Elastic Compliance Matrix: (Units=1/GPa)
#
#
# Indices 1 2 3 4 5 6 
#
# 1 0.011465 -0.004150 -0.003913 0.000000 0.076288 0.000000
# 2 -0.004150 0.033091 -0.007385 0.000000 0.071478 0.000000
# 3 -0.003913 -0.007385 0.014171 0.000000 0.058033 0.000000
# 4 0.000000 0.000000 0.000000 0.040604 0.000000 -0.000254
# 5 0.076288 0.071478 0.058033 0.000000 6.578468 0.000000
# 6 0.000000 0.000000 0.000000 -0.000254 0.000000 0.093906
#
#
# Mechanical properties :
#
#
# Convention : Reuss Voigt Hill
#
# Bulk Modulus (GPa) = 35.93149 69.02255 52.47702
# Shear Modulus (GPa) = 0.73401 17.77321 9.25361
#
# Velocity S-wave (km/s) = 0.68509 3.37115 2.43249
# Velocity P-wave (km/s) = 4.85811 7.69984 6.43773
#
# Compressibility (1/GPa) = 0.02783074
#
# Stress axis : x y z
#
# Youngs Moduli (GPa) = 87.22401 30.21970 70.56872
#
# Poissons Ratio (x) = 0.12541 0.27614
# Poissons Ratio (y) = 0.36196 0.52114
# Poissons Ratio (z) = 0.34131 0.22317
#
# Static dielectric constant tensor:
#      x y z
#    x 3.612360 0.000000 0.000340 
#    y 0.000000 2.985930 0.000000 
#    z 0.000340 0.000000 2.935400 
# 
# 
# High freq. dielectric constant tensor:
#      x y z
#    x 1.598460 0.000000 -0.000170 
#    y 0.000000 1.601000 0.000000 
#    z -0.000170 0.000000 1.579590 
# 
# From -- ./inp_files/51299.got.cif
#   From: 2010.06.25/outbox.cif.g09.slc.cpg/sg11_26_cif.got.tgz:51299.got - 2010.06.27 23:14:04.
