data_PCOD8071449
_publ_section_title
;
Structure prediction by ZEFSAII (Michael W. Deem and Ramdas Pophale) SiO2 
 PCOD8071449
Probable space group: P 21/M
;
_chemical_formula_sum "Si O2"
_cell_formula_units_Z 28
_cell_length_a 15.624650
_cell_length_b 8.901533
_cell_length_c 11.928186
_cell_angle_alpha 90.000000
_cell_angle_beta 62.504319
_cell_angle_gamma 90.000000
_cell_volume 1471.619287
_symmetry_space_group_name_H-M "P 21/M"
_symmetry_group_IT_number 11
_symmetry_cell_setting 'monoclinic'
loop_
_space_group_symop_operation_xyz
x,y,z
-x,1/2+y,-z
-x,-y,-z
x,1/2-y,z
loop_
_atom_site_type_symbol
_atom_site_label
_atom_site_fract_x
_atom_site_fract_y
_atom_site_fract_z
Si Si1 0.910391 0.573489 0.613105
Si Si2 0.177700 0.571497 0.706382
Si Si3 0.264210 0.427277 0.436431
Si Si4 0.790783 0.572533 0.083898
Si Si5 0.040346 0.072333 0.173607
Si Si6 0.625701 0.576198 0.010736
Si Si7 0.591991 0.075817 0.803154
O O1 0.924556 0.750000 0.596911
O O2 0.813512 0.522676 0.609767
O O3 0.907932 0.518341 0.743253
O O4 0.000000 0.500000 0.500000
O O5 0.180025 0.750000 0.697008
O O6 0.239819 0.504307 0.568328
O O7 0.226667 0.516917 0.791322
O O8 0.068012 0.506813 0.768753
O O9 0.268229 0.250000 0.452241
O O10 0.366357 0.486979 0.329145
O O11 0.789707 0.750000 0.108046
O O12 0.705706 0.526002 0.051235
O O13 0.893158 0.518337 0.969663
O O14 0.034109 0.250000 0.176349
O O15 0.638412 0.750000 0.969502
O O16 0.522017 0.544716 0.128291
O O17 0.639761 0.481800 0.889333
O O18 0.616426 0.250000 0.775127
#
# Coordination Sequence:
#
# PCOD8071449 Si02
#       7
#     4   4   4   4   4   4   4
#     4  10  19  33  53  78 108 141 177 218 268 321
#     4  11  22  36  53  77 112 147 185 231 272 318
#     4  11  22  36  56  81 111 150 187 221 272 333
#     4  10  20  37  58  78 106 145 187 225 269 328
#     4   9  18  33  54  78 108 143 177 220 271 320
#     4   9  19  37  60  85 113 143 178 224 277 330
#     4  10  20  35  59  88 114 141 176 225 279 328
#
# _framework density 19.026661000000001
#
# number of rings (size 3 to 8) (size 9 to 14) (size 15 to 20)
#    0.000    2.000    1.429    2.571    0.000    4.000 
#    0.000    2.143    0.000    0.000    0.000    0.000 
#    0.000    0.000    0.000    0.000    0.000    0.000 
#
# Total GULP energy -347263.730476 kJ/mol
# GULP energy per Si atom -12402.276088 kJ/mol
# Density = 1.898336 g / cm^3
# Si number density = 19.026661 Si / 1000 Ang^3
#
#
#
# Elastic Constant Matrix: (Units=GPa)
#
#
# Indices 1 2 3 4 5 6 
#
# 1 75.9296 28.1969 53.5589 0.0000 2.5111 0.0000
# 2 28.1969 58.0559 50.0159 0.0000 0.5215 0.0000
# 3 53.5589 50.0159 147.0697 0.0000 3.0126 0.0000
# 4 0.0000 0.0000 0.0000 34.0003 0.0000 1.2281
# 5 2.5111 0.5215 3.0126 0.0000 27.7901 0.0000
# 6 0.0000 0.0000 0.0000 1.2281 0.0000 23.6043
#
#
#
# Elastic Compliance Matrix: (Units=1/GPa)
#
#
# Indices 1 2 3 4 5 6 
#
# 1 0.018549 -0.004524 -0.005196 0.000000 -0.001028 0.000000
# 2 -0.004524 0.025471 -0.007029 0.000000 0.000693 0.000000
# 3 -0.005196 -0.007029 0.011094 0.000000 -0.000601 0.000000
# 4 0.000000 0.000000 0.000000 0.029467 0.000000 -0.001533
# 5 -0.001028 0.000693 -0.000601 0.000000 0.036129 0.000000
# 6 0.000000 0.000000 0.000000 -0.001533 0.000000 0.042445
#
#
# Mechanical properties :
#
#
# Convention : Reuss Voigt Hill
#
# Bulk Modulus (GPa) = 46.25805 60.51097 53.38451
# Shear Modulus (GPa) = 24.52688 27.03116 25.77902
#
# Velocity S-wave (km/s) = 3.59427 3.77331 3.68488
# Velocity P-wave (km/s) = 6.44903 7.13134 6.79875
#
# Compressibility (1/GPa) = 0.02161786
#
# Stress axis : x y z
#
# Youngs Moduli (GPa) = 53.91201 39.25985 90.13575
#
# Poissons Ratio (x) = 0.17760 0.46830
# Poissons Ratio (y) = 0.24388 0.63358
# Poissons Ratio (z) = 0.28010 0.27596
#
# Static dielectric constant tensor:
#      x y z
#    x 4.447510 0.000000 0.337800 
#    y 0.000000 3.375770 0.000000 
#    z 0.337800 0.000000 3.695400 
# 
# 
# High freq. dielectric constant tensor:
#      x y z
#    x 1.732660 0.000000 -0.002170 
#    y 0.000000 1.726590 0.000000 
#    z -0.002170 0.000000 1.749640 
# 
# From -- ./inp_files/37675.got.cif
#   From: 2010.06.25/outbox.cif.g09.slc.cpg/sg11_19_cif.got.tgz:37675.got - 2010.06.27 23:14:04.
