data_PCOD8071036
_publ_section_title
;
Structure prediction by ZEFSAII (Michael W. Deem and Ramdas Pophale) SiO2 
 PCOD8071036
Probable space group: P 21/M
;
_chemical_formula_sum "Si O2"
_cell_formula_units_Z 24
_cell_length_a 16.534133
_cell_length_b 9.139724
_cell_length_c 21.689949
_cell_angle_alpha 90.000000
_cell_angle_beta 157.868823
_cell_angle_gamma 90.000000
_cell_volume 1234.813489
_symmetry_space_group_name_H-M "P 21/M"
_symmetry_group_IT_number 11
_symmetry_cell_setting 'monoclinic'
loop_
_space_group_symop_operation_xyz
x,y,z
-x,1/2+y,-z
-x,-y,-z
x,1/2-y,z
loop_
_atom_site_type_symbol
_atom_site_label
_atom_site_fract_x
_atom_site_fract_y
_atom_site_fract_z
Si Si1 0.499986 0.914937 0.646356
Si Si2 0.599561 0.579788 0.233433
Si Si3 0.864874 0.421244 0.852455
Si Si4 0.157151 0.082785 0.470203
Si Si5 0.320260 0.920881 0.833859
Si Si6 0.250288 0.087460 0.048901
O O1 0.467362 0.750000 0.599714
O O2 0.634704 0.922070 0.804020
O O3 0.628235 0.005279 0.683829
O O4 0.266868 0.985140 0.494621
O O5 0.593223 0.750000 0.211902
O O6 0.754148 0.543000 0.399516
O O7 0.694775 0.489693 0.244209
O O8 0.355565 0.528452 0.076423
O O9 0.843846 0.250000 0.853481
O O10 0.000000 0.500000 0.000000
O O11 0.995667 0.444073 0.880330
O O12 0.213868 0.250000 0.495468
O O13 0.904178 0.053140 0.289873
O O14 0.373019 0.750000 0.865284
O O15 0.500000 0.000000 0.000000
O O16 0.281426 0.250000 0.043090
#
# Coordination Sequence:
#
# PCOD8071036 Si02
#       6
#     4   4   4   4   4   4
#     4   9  16  25  41  66  96 129 163 200 243 290
#     4  10  19  32  52  76 100 129 165 205 249 295
#     4   9  15  23  37  60  94 131 164 199 241 287
#     4   9  19  34  52  74 100 131 166 205 248 294
#     4  11  23  38  54  73  99 130 165 206 251 299
#     4   8  15  26  40  63  95 130 163 197 239 285
#
# _framework density 19.436133999999999
#
# number of rings (size 3 to 8) (size 9 to 14) (size 15 to 20)
#    0.000    2.667    0.000    3.500    0.000    6.667 
#    0.000    0.000    0.000    0.000    0.000    1.167 
#    0.000    0.000    0.000    0.000    0.000    0.000 
#
# Total GULP energy -297499.163439 kJ/mol
# GULP energy per Si atom -12395.798477 kJ/mol
# Density = 1.939190 g / cm^3
# Si number density = 19.436134 Si / 1000 Ang^3
#
#
#
# Elastic Constant Matrix: (Units=GPa)
#
#
# Indices 1 2 3 4 5 6 
#
# 1 35.9507 35.1671 33.8755 0.0000 26.9299 0.0000
# 2 35.1671 128.2185 50.9495 0.0000 24.2024 0.0000
# 3 33.8755 50.9495 77.7552 0.0000 25.9683 0.0000
# 4 0.0000 0.0000 0.0000 25.7996 0.0000 10.9319
# 5 26.9299 24.2024 25.9683 0.0000 26.6566 0.0000
# 6 0.0000 0.0000 0.0000 10.9319 0.0000 35.1738
#
#
#
# Elastic Compliance Matrix: (Units=1/GPa)
#
#
# Indices 1 2 3 4 5 6 
#
# 1 0.140071 -0.010250 -0.015054 0.000000 -0.117535 0.000000
# 2 -0.010250 0.011624 -0.004572 0.000000 0.004256 0.000000
# 3 -0.015054 -0.004572 0.023642 0.000000 -0.003671 0.000000
# 4 0.000000 0.000000 0.000000 0.044639 0.000000 -0.013874
# 5 -0.117535 0.004256 -0.003671 0.000000 0.155966 0.000000
# 6 0.000000 0.000000 0.000000 -0.013874 0.000000 0.032742
#
#
# Mechanical properties :
#
#
# Convention : Reuss Voigt Hill
#
# Bulk Modulus (GPa) = 8.65180 53.54541 31.09860
# Shear Modulus (GPa) = 9.86262 25.65482 17.75872
#
# Velocity S-wave (km/s) = 2.25508 3.63706 3.02602
# Velocity P-wave (km/s) = 3.35285 6.72658 5.31453
#
# Compressibility (1/GPa) = 0.11558294
#
# Stress axis : x y z
#
# Youngs Moduli (GPa) = 7.13926 86.02762 42.29810
#
# Poissons Ratio (x) = 0.88179 0.63677
# Poissons Ratio (y) = 0.07318 0.19340
# Poissons Ratio (z) = 0.10748 0.39335
#
# Static dielectric constant tensor:
#      x y z
#    x 3.655230 0.000000 0.633140 
#    y 0.000000 3.695590 0.000000 
#    z 0.633140 0.000000 3.414960 
# 
# 
# High freq. dielectric constant tensor:
#      x y z
#    x 1.739330 0.000000 0.047370 
#    y 0.000000 1.768540 0.000000 
#    z 0.047370 0.000000 1.723860 
# 
# From -- ./inp_files/20527.got.cif
#   From: 2010.06.25/outbox.cif.g09.slc.cpg/sg11_11_cif.got.tgz:20527.got - 2010.06.27 23:14:04.
