data_PCOD8071663
_publ_section_title
;
Structure prediction by ZEFSAII (Michael W. Deem and Ramdas Pophale) SiO2 
 PCOD8071663
Probable space group: P 21/M
;
_chemical_formula_sum "Si O2"
_cell_formula_units_Z 32
_cell_length_a 20.907698
_cell_length_b 9.159377
_cell_length_c 25.540760
_cell_angle_alpha 90.000000
_cell_angle_beta 159.667717
_cell_angle_gamma 90.000000
_cell_volume 1699.479149
_symmetry_space_group_name_H-M "P 21/M"
_symmetry_group_IT_number 11
_symmetry_cell_setting 'monoclinic'
loop_
_space_group_symop_operation_xyz
x,y,z
-x,1/2+y,-z
-x,-y,-z
x,1/2-y,z
loop_
_atom_site_type_symbol
_atom_site_label
_atom_site_fract_x
_atom_site_fract_y
_atom_site_fract_z
Si Si1 0.283066 0.417199 0.956728
Si Si2 0.613879 0.421268 0.289064
Si Si3 0.313383 0.577822 0.873554
Si Si4 0.979690 0.922624 0.539767
Si Si5 0.314639 0.085545 0.363751
Si Si6 0.340498 0.421313 0.163593
Si Si7 0.818586 0.587881 0.855329
Si Si8 0.011752 0.080944 0.841286
O O1 0.287489 0.250000 0.940562
O O2 0.257833 0.523605 0.888450
O O3 0.105448 0.443693 0.856916
O O4 0.472892 0.451064 0.133076
O O5 0.667032 0.250000 0.331550
O O6 0.794563 0.518293 0.423785
O O7 0.519707 0.480172 0.270717
O O8 0.347052 0.750000 0.900966
O O9 0.152565 0.537357 0.709207
O O10 0.500000 0.500000 0.000000
O O11 0.965189 0.750000 0.520083
O O12 0.000000 0.000000 0.500000
O O13 0.349691 0.250000 0.410260
O O14 0.240475 0.082045 0.248729
O O15 0.500000 0.000000 0.500000
O O16 0.176877 0.009900 0.299056
O O17 0.345849 0.250000 0.156263
O O18 0.338737 0.466834 0.223805
O O19 0.151076 0.479775 0.992467
O O20 0.867094 0.750000 0.911247
O O21 0.000000 0.500000 0.000000
O O22 0.961912 0.250000 0.811693
#
# Coordination Sequence:
#
# PCOD8071663 Si02
#       8
#     4   4   4   4   4   4   4   4
#     4   9  19  36  60  88 112 142 186 228 272 332
#     4   9  18  35  59  85 112 144 183 225 273 329
#     4  11  24  40  59  84 116 149 187 229 270 323
#     4  11  24  40  58  84 116 147 181 224 271 323
#     4  11  23  36  52  78 112 149 190 233 282 337
#     4   8  15  31  56  82 108 139 178 227 277 325
#     4  10  19  33  56  82 107 140 187 235 279 331
#     4   9  17  34  59  81 108 145 184 228 280 333
#
# _framework density 18.829298999999999
#
# number of rings (size 3 to 8) (size 9 to 14) (size 15 to 20)
#    0.000    2.250    1.250    3.375    0.000    6.500 
#    2.250    2.500    0.000    0.000    0.000    0.000 
#    0.000    0.000    0.000    0.000    0.000    0.000 
#
# Total GULP energy -396638.281897 kJ/mol
# GULP energy per Si atom -12394.946309 kJ/mol
# Density = 1.878644 g / cm^3
# Si number density = 18.829299 Si / 1000 Ang^3
#
#
#
# Elastic Constant Matrix: (Units=GPa)
#
#
# Indices 1 2 3 4 5 6 
#
# 1 118.0671 54.1113 51.2394 0.0000 16.2610 0.0000
# 2 54.1113 97.4426 66.4675 0.0000 10.2994 0.0000
# 3 51.2394 66.4675 117.9969 0.0000 26.1684 0.0000
# 4 0.0000 0.0000 0.0000 32.6978 0.0000 5.6711
# 5 16.2610 10.2994 26.1684 0.0000 31.9784 0.0000
# 6 0.0000 0.0000 0.0000 5.6711 0.0000 31.1551
#
#
#
# Elastic Compliance Matrix: (Units=1/GPa)
#
#
# Indices 1 2 3 4 5 6 
#
# 1 0.011987 -0.005276 -0.001537 0.000000 -0.003138 0.000000
# 2 -0.005276 0.019201 -0.009466 0.000000 0.004245 0.000000
# 3 -0.001537 -0.009466 0.016646 0.000000 -0.009791 0.000000
# 4 0.000000 0.000000 0.000000 0.031580 0.000000 -0.005748
# 5 -0.003138 0.004245 -0.009791 0.000000 0.039512 0.000000
# 6 0.000000 0.000000 0.000000 -0.005748 0.000000 0.033144
#
#
# Mechanical properties :
#
#
# Convention : Reuss Voigt Hill
#
# Bulk Modulus (GPa) = 65.46769 75.23811 70.35290
# Shear Modulus (GPa) = 26.35451 29.94548 28.14999
#
# Velocity S-wave (km/s) = 3.74525 3.99227 3.87073
# Velocity P-wave (km/s) = 7.31759 7.82915 7.57769
#
# Compressibility (1/GPa) = 0.01527471
#
# Stress axis : x y z
#
# Youngs Moduli (GPa) = 83.42113 52.08127 60.07489
#
# Poissons Ratio (x) = 0.27481 0.09235
# Poissons Ratio (y) = 0.44017 0.56867
# Poissons Ratio (z) = 0.12824 0.49300
#
# Static dielectric constant tensor:
#      x y z
#    x 3.669470 0.000000 0.101030 
#    y 0.000000 3.479390 0.000000 
#    z 0.101030 0.000000 3.491240 
# 
# 
# High freq. dielectric constant tensor:
#      x y z
#    x 1.748150 0.000000 0.014210 
#    y 0.000000 1.719360 0.000000 
#    z 0.014210 0.000000 1.720960 
# 
# From -- ./inp_files/72146.got.cif
#   From: 2010.06.25/outbox.cif.g09.slc.cpg/sg11_37_cif.got.tgz:72146.got - 2010.06.27 23:14:04.
