data_PCOD8071740
_publ_section_title
;
Structure prediction by ZEFSAII (Michael W. Deem and Ramdas Pophale) SiO2 
 PCOD8071740
Probable space group: P 21/M
;
_chemical_formula_sum "Si O2"
_cell_formula_units_Z 32
_cell_length_a 20.065852
_cell_length_b 14.372416
_cell_length_c 14.214100
_cell_angle_alpha 90.000000
_cell_angle_beta 22.628503
_cell_angle_gamma 90.000000
_cell_volume 1577.213587
_symmetry_space_group_name_H-M "P 21/M"
_symmetry_group_IT_number 11
_symmetry_cell_setting 'monoclinic'
loop_
_space_group_symop_operation_xyz
x,y,z
-x,1/2+y,-z
-x,-y,-z
x,1/2-y,z
loop_
_atom_site_type_symbol
_atom_site_label
_atom_site_fract_x
_atom_site_fract_y
_atom_site_fract_z
Si Si1 0.649677 0.021828 0.680920
Si Si2 0.019178 0.651691 0.012116
Si Si3 0.299684 0.646654 0.907363
Si Si4 0.210269 0.503453 0.871310
Si Si5 0.067712 0.640873 0.386380
Si Si6 0.340371 0.415410 0.522048
Si Si7 0.258325 0.024511 0.235063
Si Si8 0.059339 0.645664 0.749422
O O1 0.767935 0.114532 0.531237
O O2 0.701631 0.969819 0.518434
O O3 0.706357 0.963499 0.699521
O O4 0.444194 0.041607 0.943876
O O5 0.078821 0.750000 0.980007
O O6 0.813794 0.657432 0.261579
O O7 0.056453 0.566027 0.030203
O O8 0.110084 0.639507 0.793082
O O9 0.280635 0.750000 0.887962
O O10 0.308898 0.566001 0.818146
O O11 0.482138 0.640259 0.723445
O O12 0.146388 0.628219 0.180178
O O13 0.342904 0.478681 0.614150
O O14 0.112367 0.416748 0.048410
O O15 0.070946 0.750000 0.413442
O O16 0.179195 0.578027 0.314061
O O17 0.870507 0.603929 0.636443
O O18 0.012632 0.750000 0.778165
#
# Coordination Sequence:
#
# PCOD8071740 Si02
#       8
#     4   4   4   4   4   4   4   4
#     4  11  20  39  63  86 117 154 200 248 298 348
#     4  10  19  33  57  87 118 152 195 238 285 348
#     4  11  23  38  60  88 119 155 196 242 297 355
#     4  11  20  37  58  87 121 159 195 239 287 350
#     4  10  22  42  62  86 118 152 195 247 302 356
#     4  11  20  37  57  87 119 159 189 240 293 348
#     4  10  23  40  64  88 114 154 200 251 302 348
#     4  10  20  35  59  87 118 155 195 238 292 351
#
# _framework density 20.288945999999999
#
# number of rings (size 3 to 8) (size 9 to 14) (size 15 to 20)
#    0.000    1.500    3.750    2.625    0.000    1.500 
#    0.000    2.500    0.000    0.750    0.000    0.000 
#    0.000    0.000    0.000    0.000    0.000    0.000 
#
# Total GULP energy -396580.084214 kJ/mol
# GULP energy per Si atom -12393.127632 kJ/mol
# Density = 2.024277 g / cm^3
# Si number density = 20.288946 Si / 1000 Ang^3
#
#
#
# Elastic Constant Matrix: (Units=GPa)
#
#
# Indices 1 2 3 4 5 6 
#
# 1 63.1615 24.7503 23.5147 0.0000 1.4150 0.0000
# 2 24.7503 117.5919 33.4191 0.0000 0.6251 0.0000
# 3 23.5147 33.4191 109.1480 0.0000 -2.8161 0.0000
# 4 0.0000 0.0000 0.0000 19.5500 0.0000 -3.5134
# 5 1.4150 0.6251 -2.8161 0.0000 25.4316 0.0000
# 6 0.0000 0.0000 0.0000 -3.5134 0.0000 8.1371
#
#
#
# Elastic Compliance Matrix: (Units=1/GPa)
#
#
# Indices 1 2 3 4 5 6 
#
# 1 0.018148 -0.002949 -0.003040 0.000000 -0.001274 0.000000
# 2 -0.002949 0.009801 -0.002374 0.000000 -0.000340 0.000000
# 3 -0.003040 -0.002374 0.010580 0.000000 0.001399 0.000000
# 4 0.000000 0.000000 0.000000 0.055454 0.000000 0.023943
# 5 -0.001274 -0.000340 0.001399 0.000000 0.039555 0.000000
# 6 0.000000 0.000000 0.000000 0.023943 0.000000 0.133233
#
#
# Mechanical properties :
#
#
# Convention : Reuss Voigt Hill
#
# Bulk Modulus (GPa) = 45.86544 50.36330 48.11437
# Shear Modulus (GPa) = 17.19599 24.50488 20.85044
#
# Velocity S-wave (km/s) = 2.91444 3.47910 3.20921
# Velocity P-wave (km/s) = 5.82928 6.40436 6.12357
#
# Compressibility (1/GPa) = 0.02180291
#
# Stress axis : x y z
#
# Youngs Moduli (GPa) = 55.10164 102.02722 94.51937
#
# Poissons Ratio (x) = 0.30089 0.28731
# Poissons Ratio (y) = 0.16250 0.22443
# Poissons Ratio (z) = 0.16749 0.24225
#
# Static dielectric constant tensor:
#      x y z
#    x 3.517920 0.000000 0.057370 
#    y 0.000000 3.702890 0.000000 
#    z 0.057370 0.000000 3.664580 
# 
# 
# High freq. dielectric constant tensor:
#      x y z
#    x 1.777710 0.000000 0.000860 
#    y 0.000000 1.786500 0.000000 
#    z 0.000860 0.000000 1.800540 
# 
# From -- ./inp_files/54996.got.cif
#   From: 2010.06.25/outbox.cif.g09.slc.cpg/sg11_28_cif.got.tgz:54996.got - 2010.06.27 23:14:04.
