data_PCOD8071864
_publ_section_title
;
Structure prediction by ZEFSAII (Michael W. Deem and Ramdas Pophale) SiO2 
 PCOD8071864
Probable space group: P 21/M
;
_chemical_formula_sum "Si O2"
_cell_formula_units_Z 28
_cell_length_a 12.247180
_cell_length_b 15.818108
_cell_length_c 8.306724
_cell_angle_alpha 90.000000
_cell_angle_beta 111.063879
_cell_angle_gamma 90.000000
_cell_volume 1501.709683
_symmetry_space_group_name_H-M "P 21/M"
_symmetry_group_IT_number 11
_symmetry_cell_setting 'monoclinic'
loop_
_space_group_symop_operation_xyz
x,y,z
-x,1/2+y,-z
-x,-y,-z
x,1/2-y,z
loop_
_atom_site_type_symbol
_atom_site_label
_atom_site_fract_x
_atom_site_fract_y
_atom_site_fract_z
Si Si1 0.123381 0.021559 0.488736
Si Si2 0.735484 0.091915 0.656290
Si Si3 0.337256 0.061447 0.185188
Si Si4 0.123106 0.152537 0.218717
Si Si5 0.716125 0.468050 0.156443
Si Si6 0.426760 0.653279 0.701228
Si Si7 0.860910 0.343938 0.026278
O O1 0.122040 0.110569 0.395165
O O2 0.155191 0.946393 0.382949
O O3 0.224693 0.027002 0.677264
O O4 0.000000 0.000000 0.500000
O O5 0.654689 0.148367 0.499145
O O6 0.655591 0.017640 0.689452
O O7 0.789628 0.150151 0.823100
O O8 0.215999 0.110566 0.147947
O O9 0.443464 0.124108 0.278072
O O10 0.344082 0.028875 0.005405
O O11 0.154643 0.250000 0.261633
O O12 0.997853 0.139465 0.066949
O O13 0.618746 0.406539 0.179983
O O14 0.817771 0.411473 0.132473
O O15 0.429859 0.750000 0.763129
O O16 0.842459 0.250000 0.087863
#
# Coordination Sequence:
#
# PCOD8071864 Si02
#       7
#     4   4   4   4   4   4   4
#     4  10  19  34  55  79 110 145 178 216 275 328
#     4   9  21  34  56  81 106 143 187 223 266 327
#     4  10  21  37  59  77 110 148 188 219 269 328
#     4  10  21  36  55  82 113 146 180 224 274 323
#     4  10  21  35  57  82 108 145 186 224 269 328
#     4  11  21  37  56  81 111 141 183 232 277 316
#     4  10  19  34  54  83 114 139 178 228 275 319
#
# _framework density 18.645415
#
# number of rings (size 3 to 8) (size 9 to 14) (size 15 to 20)
#    0.000    2.000    1.429    2.143    2.000    1.714 
#    0.000    2.143    0.000    0.000    0.000    0.000 
#    0.000    0.000    0.000    0.000    0.000    0.000 
#
# Total GULP energy -347277.396207 kJ/mol
# GULP energy per Si atom -12402.764150 kJ/mol
# Density = 1.860298 g / cm^3
# Si number density = 18.645415 Si / 1000 Ang^3
#
#
#
# Elastic Constant Matrix: (Units=GPa)
#
#
# Indices 1 2 3 4 5 6 
#
# 1 97.4546 37.0337 33.7934 0.0000 4.4995 0.0000
# 2 37.0337 97.1288 40.9870 0.0000 7.1257 0.0000
# 3 33.7934 40.9870 88.7896 0.0000 -5.4514 0.0000
# 4 0.0000 0.0000 0.0000 17.5110 0.0000 3.8684
# 5 4.4995 7.1257 -5.4514 0.0000 23.7777 0.0000
# 6 0.0000 0.0000 0.0000 3.8684 0.0000 27.0356
#
#
#
# Elastic Compliance Matrix: (Units=1/GPa)
#
#
# Indices 1 2 3 4 5 6 
#
# 1 0.012817 -0.003233 -0.003524 0.000000 -0.002264 0.000000
# 2 -0.003233 0.014285 -0.005669 0.000000 -0.004969 0.000000
# 3 -0.003524 -0.005669 0.015585 0.000000 0.005939 0.000000
# 4 0.000000 0.000000 0.000000 0.058971 0.000000 -0.008438
# 5 -0.002264 -0.004969 0.005939 0.000000 0.045335 0.000000
# 6 0.000000 0.000000 0.000000 -0.008438 0.000000 0.038196
#
#
# Mechanical properties :
#
#
# Convention : Reuss Voigt Hill
#
# Bulk Modulus (GPa) = 56.07260 56.33345 56.20302
# Shear Modulus (GPa) = 23.14961 25.10215 24.12588
#
# Velocity S-wave (km/s) = 3.52742 3.67316 3.60103
# Velocity P-wave (km/s) = 6.83583 6.94753 6.89191
#
# Compressibility (1/GPa) = 0.01783402
#
# Stress axis : x y z
#
# Youngs Moduli (GPa) = 78.02396 70.00317 64.16259
#
# Poissons Ratio (x) = 0.22635 0.22614
# Poissons Ratio (y) = 0.25228 0.36372
# Poissons Ratio (z) = 0.27499 0.39683
#
# Static dielectric constant tensor:
#      x y z
#    x 3.411240 0.000000 -0.048030 
#    y 0.000000 3.373910 0.000000 
#    z -0.048030 0.000000 3.433800 
# 
# 
# High freq. dielectric constant tensor:
#      x y z
#    x 1.729630 0.000000 0.000160 
#    y 0.000000 1.720140 0.000000 
#    z 0.000160 0.000000 1.722250 
# 
# From -- ./inp_files/17677.got.cif
#   From: 2010.06.25/outbox.cif.g09.slc.cpg/sg11_9_cif.got.tgz:17677.got - 2010.06.27 23:14:04.
