data_PCOD8071545
_publ_section_title
;
Structure prediction by ZEFSAII (Michael W. Deem and Ramdas Pophale) SiO2 
 PCOD8071545
Probable space group: P 21/M
;
_chemical_formula_sum "Si O2"
_cell_formula_units_Z 28
_cell_length_a 24.472781
_cell_length_b 8.979881
_cell_length_c 19.492906
_cell_angle_alpha 90.000000
_cell_angle_beta 21.600389
_cell_angle_gamma 90.000000
_cell_volume 1577.003748
_symmetry_space_group_name_H-M "P 21/M"
_symmetry_group_IT_number 11
_symmetry_cell_setting 'monoclinic'
loop_
_space_group_symop_operation_xyz
x,y,z
-x,1/2+y,-z
-x,-y,-z
x,1/2-y,z
loop_
_atom_site_type_symbol
_atom_site_label
_atom_site_fract_x
_atom_site_fract_y
_atom_site_fract_z
Si Si1 0.383336 0.083286 0.057238
Si Si2 0.657125 0.071229 0.337869
Si Si3 0.333180 0.424638 0.268014
Si Si4 0.931403 0.423454 0.925352
Si Si5 0.137396 0.074918 0.802665
Si Si6 0.080126 0.080757 0.343950
Si Si7 0.016645 0.427425 0.678925
O O1 0.440267 0.250000 0.002953
O O2 0.325451 0.018979 0.197910
O O3 0.255205 0.076734 0.151288
O O4 0.520717 0.990310 0.866685
O O5 0.643108 0.250000 0.357637
O O6 0.500000 0.000000 0.500000
O O7 0.710609 0.007732 0.350286
O O8 0.784924 0.014020 0.135466
O O9 0.342271 0.250000 0.261551
O O10 0.187645 0.480486 0.477555
O O11 0.902986 0.250000 0.952551
O O12 0.944177 0.490475 0.833762
O O13 0.090941 0.450665 0.777154
O O14 0.149836 0.250000 0.805449
O O15 0.000000 0.000000 0.000000
O O16 0.020937 0.250000 0.408959
O O17 0.064847 0.997197 0.290433
O O18 0.000000 0.000000 0.500000
O O19 0.004101 0.250000 0.688044
#
# Coordination Sequence:
#
# PCOD8071545 Si02
#       7
#     4   4   4   4   4   4   4
#     4   9  18  32  47  68  95 122 159 207 250 295
#     4  10  19  33  54  82 108 140 178 215 261 311
#     4   9  17  30  49  71  92 122 160 202 251 298
#     4   8  17  33  54  76 103 136 172 212 258 311
#     4   9  16  30  52  78 104 136 173 211 253 305
#     4  11  21  34  51  74 101 134 174 217 262 312
#     4  10  19  35  54  75 102 132 171 218 261 310
#
# _framework density 17.755189999999999
#
# number of rings (size 3 to 8) (size 9 to 14) (size 15 to 20)
#    0.000    2.571    1.429    2.143    0.000    1.714 
#    0.000    5.714    0.000    6.857    0.000    0.000 
#    0.000    0.000    0.000    0.000    0.000    0.000 
#
# Total GULP energy -346930.092056 kJ/mol
# GULP energy per Si atom -12390.360431 kJ/mol
# Density = 1.771478 g / cm^3
# Si number density = 17.755190 Si / 1000 Ang^3
#
#
#
# Elastic Constant Matrix: (Units=GPa)
#
#
# Indices 1 2 3 4 5 6 
#
# 1 114.9205 35.7603 54.4853 0.0000 -2.4296 0.0000
# 2 35.7603 51.0710 31.1361 0.0000 -6.0417 0.0000
# 3 54.4853 31.1361 94.4743 0.0000 -9.0957 0.0000
# 4 0.0000 0.0000 0.0000 25.0035 0.0000 -8.5793
# 5 -2.4296 -6.0417 -9.0957 0.0000 30.8336 0.0000
# 6 0.0000 0.0000 0.0000 -8.5793 0.0000 29.9000
#
#
#
# Elastic Compliance Matrix: (Units=1/GPa)
#
#
# Indices 1 2 3 4 5 6 
#
# 1 0.013306 -0.005943 -0.005894 0.000000 -0.001855 0.000000
# 2 -0.005943 0.027346 -0.005264 0.000000 0.003337 0.000000
# 3 -0.005894 -0.005264 0.016030 0.000000 0.003233 0.000000
# 4 0.000000 0.000000 0.000000 0.044362 0.000000 0.012729
# 5 -0.001855 0.003337 0.003233 0.000000 0.033894 0.000000
# 6 0.000000 0.000000 0.000000 0.012729 0.000000 0.037097
#
#
# Mechanical properties :
#
#
# Convention : Reuss Voigt Hill
#
# Bulk Modulus (GPa) = 44.48233 55.91434 50.19833
# Shear Modulus (GPa) = 23.39406 26.41970 24.90688
#
# Velocity S-wave (km/s) = 3.63380 3.86164 3.74945
# Velocity P-wave (km/s) = 6.53556 7.17239 6.86137
#
# Compressibility (1/GPa) = 0.02248084
#
# Stress axis : x y z
#
# Youngs Moduli (GPa) = 75.15312 36.56854 62.38336
#
# Poissons Ratio (x) = 0.21734 0.36767
# Poissons Ratio (y) = 0.44666 0.32836
# Poissons Ratio (z) = 0.44293 0.19248
#
# Static dielectric constant tensor:
#      x y z
#    x 3.612200 0.000000 -0.071930 
#    y 0.000000 3.310930 0.000000 
#    z -0.071930 0.000000 3.346660 
# 
# 
# High freq. dielectric constant tensor:
#      x y z
#    x 1.682220 0.000000 -0.016700 
#    y 0.000000 1.680540 0.000000 
#    z -0.016700 0.000000 1.669120 
# 
# From -- ./inp_files/66866.got.cif
#   From: 2010.06.25/outbox.cif.g09.slc.cpg/sg11_34_cif.got.tgz:66866.got - 2010.06.27 23:14:04.
