data_PCOD8071185
_publ_section_title
;
Structure prediction by ZEFSAII (Michael W. Deem and Ramdas Pophale) SiO2 
 PCOD8071185
Probable space group: P 21/M
;
_chemical_formula_sum "Si O2"
_cell_formula_units_Z 32
_cell_length_a 20.852457
_cell_length_b 8.985889
_cell_length_c 25.675243
_cell_angle_alpha 90.000000
_cell_angle_beta 158.061357
_cell_angle_gamma 90.000000
_cell_volume 1797.444036
_symmetry_space_group_name_H-M "P 21/M"
_symmetry_group_IT_number 11
_symmetry_cell_setting 'monoclinic'
loop_
_space_group_symop_operation_xyz
x,y,z
-x,1/2+y,-z
-x,-y,-z
x,1/2-y,z
loop_
_atom_site_type_symbol
_atom_site_label
_atom_site_fract_x
_atom_site_fract_y
_atom_site_fract_z
Si Si1 0.988000 0.419545 0.651160
Si Si2 0.493385 0.422710 0.666380
Si Si3 0.585330 0.426739 0.912838
Si Si4 0.374305 0.076754 0.945419
Si Si5 0.121237 0.576848 0.050287
Si Si6 0.350895 0.924324 0.658916
Si Si7 0.155187 0.076148 0.359075
Si Si8 0.091709 0.573680 0.912244
O O1 0.956761 0.250000 0.644588
O O2 0.850760 0.461763 0.502730
O O3 0.959941 0.516116 0.681096
O O4 0.181771 0.445214 0.777593
O O5 0.474660 0.250000 0.669313
O O6 0.681387 0.453731 0.785017
O O7 0.461625 0.522808 0.692817
O O8 0.355745 0.465041 0.517549
O O9 0.576692 0.250000 0.912734
O O10 0.607292 0.499949 0.985219
O O11 0.409772 0.486190 0.754416
O O12 0.741495 0.480591 0.993741
O O13 0.420353 0.250000 0.985513
O O14 0.500000 0.000000 0.000000
O O15 0.077659 0.750000 0.018155
O O16 0.088941 0.507436 0.968456
O O17 0.000000 0.500000 0.000000
O O18 0.382353 0.750000 0.691270
O O19 0.125164 0.250000 0.337859
O O20 0.079924 0.017180 0.247314
O O21 0.100996 0.750000 0.924011
#
# Coordination Sequence:
#
# PCOD8071185 Si02
#       8
#     4   4   4   4   4   4   4   4
#     4   9  19  34  52  78 112 141 171 217 268 315
#     4   9  17  31  51  75 104 135 174 218 263 315
#     4  11  20  35  57  83 110 140 180 225 269 316
#     4  11  23  39  57  81 112 147 181 220 269 322
#     4  10  20  35  50  71 104 141 177 217 264 317
#     4  10  19  32  53  82 111 139 174 219 268 317
#     4   9  16  29  53  79 100 132 173 216 264 315
#     4   9  17  31  52  77 104 132 171 218 262 310
#
# _framework density 17.803058
#
# number of rings (size 3 to 8) (size 9 to 14) (size 15 to 20)
#    0.000    2.250    2.500    1.125    0.000    1.500 
#    0.000    1.875    0.000    0.000    0.000    0.000 
#    0.000    0.000    0.000    0.000    0.000    0.000 
#
# Total GULP energy -396695.778365 kJ/mol
# GULP energy per Si atom -12396.743074 kJ/mol
# Density = 1.776254 g / cm^3
# Si number density = 17.803058 Si / 1000 Ang^3
#
#
#
# Elastic Constant Matrix: (Units=GPa)
#
#
# Indices 1 2 3 4 5 6 
#
# 1 115.4910 43.0197 72.8611 0.0000 -1.8876 0.0000
# 2 43.0197 62.2002 48.1136 0.0000 -0.1042 0.0000
# 3 72.8611 48.1136 144.0041 0.0000 -8.3755 0.0000
# 4 0.0000 0.0000 0.0000 24.0335 0.0000 0.4233
# 5 -1.8876 -0.1042 -8.3755 0.0000 27.9501 0.0000
# 6 0.0000 0.0000 0.0000 0.4233 0.0000 28.4120
#
#
#
# Elastic Compliance Matrix: (Units=1/GPa)
#
#
# Indices 1 2 3 4 5 6 
#
# 1 0.014083 -0.005664 -0.005271 0.000000 -0.000649 0.000000
# 2 -0.005664 0.024083 -0.005290 0.000000 -0.001878 0.000000
# 3 -0.005271 -0.005290 0.011558 0.000000 0.003088 0.000000
# 4 0.000000 0.000000 0.000000 0.041620 0.000000 -0.000620
# 5 -0.000649 -0.001878 0.003088 0.000000 0.036652 0.000000
# 6 0.000000 0.000000 0.000000 -0.000620 0.000000 0.035206
#
#
# Mechanical properties :
#
#
# Convention : Reuss Voigt Hill
#
# Bulk Modulus (GPa) = 57.88815 72.18711 65.03763
# Shear Modulus (GPa) = 24.82485 26.59251 25.70868
#
# Velocity S-wave (km/s) = 3.73824 3.86904 3.80420
# Velocity P-wave (km/s) = 7.15674 7.78427 7.47710
#
# Compressibility (1/GPa) = 0.01727469
#
# Stress axis : x y z
#
# Youngs Moduli (GPa) = 71.00585 41.52221 86.51907
#
# Poissons Ratio (x) = 0.23520 0.45603
# Poissons Ratio (y) = 0.40220 0.45767
# Poissons Ratio (z) = 0.37427 0.21965
#
# Static dielectric constant tensor:
#      x y z
#    x 3.589380 0.000000 -0.492330 
#    y 0.000000 3.251590 0.000000 
#    z -0.492330 0.000000 3.920810 
# 
# 
# High freq. dielectric constant tensor:
#      x y z
#    x 1.658150 0.000000 -0.014480 
#    y 0.000000 1.681160 0.000000 
#    z -0.014480 0.000000 1.708030 
# 
# From -- ./inp_files/72189.got.cif
#   From: 2010.06.25/outbox.cif.g09.slc.cpg/sg11_37_cif.got.tgz:72189.got - 2010.06.27 23:14:04.
