data_PCOD8071789
_publ_section_title
;
Structure prediction by ZEFSAII (Michael W. Deem and Ramdas Pophale) SiO2 
 PCOD8071789
Probable space group: P 21/M
;
_chemical_formula_sum "Si O2"
_cell_formula_units_Z 32
_cell_length_a 20.106195
_cell_length_b 9.663922
_cell_length_c 12.670718
_cell_angle_alpha 90.000000
_cell_angle_beta 43.929586
_cell_angle_gamma 90.000000
_cell_volume 1708.057286
_symmetry_space_group_name_H-M "P 21/M"
_symmetry_group_IT_number 11
_symmetry_cell_setting 'monoclinic'
loop_
_space_group_symop_operation_xyz
x,y,z
-x,1/2+y,-z
-x,-y,-z
x,1/2-y,z
loop_
_atom_site_type_symbol
_atom_site_label
_atom_site_fract_x
_atom_site_fract_y
_atom_site_fract_z
Si Si1 0.909479 0.595901 0.816440
Si Si2 0.772105 0.088546 0.444270
Si Si3 0.628876 0.090208 0.421895
Si Si4 0.413900 0.410955 0.723665
Si Si5 0.023998 0.902416 0.877847
Si Si6 0.744826 0.904850 0.674243
Si Si7 0.711692 0.913104 0.942451
Si Si8 0.031538 0.096942 0.557159
O O1 0.928042 0.750000 0.744623
O O2 0.807918 0.536418 0.893316
O O3 0.924822 0.607752 0.924393
O O4 0.991502 0.482531 0.703369
O O5 0.761870 0.250000 0.484508
O O6 0.710425 0.049346 0.411801
O O7 0.882364 0.046789 0.295555
O O8 0.727753 0.004520 0.594195
O O9 0.636733 0.250000 0.378708
O O10 0.526704 0.059559 0.593117
O O11 0.641001 0.997405 0.303728
O O12 0.389345 0.250000 0.732299
O O13 0.376875 0.458471 0.881992
O O14 0.049652 0.750000 0.892880
O O15 0.000000 0.000000 0.000000
O O16 0.703742 0.750000 0.696929
O O17 0.700243 0.969405 0.834838
O O18 0.855980 0.891246 0.570225
O O19 0.717699 0.750000 0.924729
O O20 0.985855 0.250000 0.600443
O O21 0.000000 0.000000 0.500000
#
# Coordination Sequence:
#
# PCOD8071789 Si02
#       8
#     4   4   4   4   4   4   4   4
#     4  10  19  34  51  71 101 138 176 214 255 305
#     4  10  21  37  54  74 107 144 174 211 263 313
#     4   9  19  36  57  81 106 133 169 215 264 314
#     4   9  18  35  60  82 102 133 171 213 263 317
#     4  10  22  35  50  72 104 142 175 215 259 307
#     4  10  20  34  52  75 104 139 179 219 251 302
#     4   9  18  33  53  78 106 134 172 218 263 304
#     4  11  20  31  49  72 100 136 174 214 252 296
#
# _framework density 18.734734
#
# number of rings (size 3 to 8) (size 9 to 14) (size 15 to 20)
#    0.000    2.250    2.500    0.375    1.750    2.000 
#    0.000    1.875    0.000    0.000    0.000    0.000 
#    0.000    0.000    0.000    0.000    0.000    0.000 
#
# Total GULP energy -396477.444967 kJ/mol
# GULP energy per Si atom -12389.920155 kJ/mol
# Density = 1.869209 g / cm^3
# Si number density = 18.734734 Si / 1000 Ang^3
#
#
#
# Elastic Constant Matrix: (Units=GPa)
#
#
# Indices 1 2 3 4 5 6 
#
# 1 65.4517 22.4931 16.6444 0.0000 12.2915 0.0000
# 2 22.4931 77.9907 38.5379 0.0000 14.5417 0.0000
# 3 16.6444 38.5379 109.4343 0.0000 18.9998 0.0000
# 4 0.0000 0.0000 0.0000 27.1714 0.0000 7.7872
# 5 12.2915 14.5417 18.9998 0.0000 23.1786 0.0000
# 6 0.0000 0.0000 0.0000 7.7872 0.0000 25.9111
#
#
#
# Elastic Compliance Matrix: (Units=1/GPa)
#
#
# Indices 1 2 3 4 5 6 
#
# 1 0.017937 -0.003779 -0.000184 0.000000 -0.006990 0.000000
# 2 -0.003779 0.017104 -0.004586 0.000000 -0.004967 0.000000
# 3 -0.000184 -0.004586 0.011968 0.000000 -0.006835 0.000000
# 4 0.000000 0.000000 0.000000 0.040272 0.000000 -0.012103
# 5 -0.006990 -0.004967 -0.006835 0.000000 0.055570 0.000000
# 6 0.000000 0.000000 0.000000 -0.012103 0.000000 0.042231
#
#
# Mechanical properties :
#
#
# Convention : Reuss Voigt Hill
#
# Bulk Modulus (GPa) = 33.43249 45.35861 39.39555
# Shear Modulus (GPa) = 23.56835 26.93231 25.25033
#
# Velocity S-wave (km/s) = 3.55068 3.79563 3.67520
# Velocity P-wave (km/s) = 5.89014 6.59338 6.25165
#
# Compressibility (1/GPa) = 0.02991103
#
# Stress axis : x y z
#
# Youngs Moduli (GPa) = 55.75210 58.46480 83.55872
#
# Poissons Ratio (x) = 0.22093 0.01534
# Poissons Ratio (y) = 0.21068 0.38322
# Poissons Ratio (z) = 0.01024 0.26813
#
# Static dielectric constant tensor:
#      x y z
#    x 3.404870 0.000000 0.303670 
#    y 0.000000 3.236830 0.000000 
#    z 0.303670 0.000000 4.723310 
# 
# 
# High freq. dielectric constant tensor:
#      x y z
#    x 1.716290 0.000000 0.012360 
#    y 0.000000 1.715770 0.000000 
#    z 0.012360 0.000000 1.720420 
# 
# From -- ./inp_files/42820.got.cif
#   From: 2010.06.25/outbox.cif.g09.slc.cpg/sg11_22_cif.got.tgz:42820.got - 2010.06.27 23:14:04.
