data_PCOD8071316
_publ_section_title
;
Structure prediction by ZEFSAII (Michael W. Deem and Ramdas Pophale) SiO2 
 PCOD8071316
Probable space group: P 21/M
;
_chemical_formula_sum "Si O2"
_cell_formula_units_Z 32
_cell_length_a 21.223494
_cell_length_b 8.509244
_cell_length_c 15.461605
_cell_angle_alpha 90.000000
_cell_angle_beta 137.965546
_cell_angle_gamma 90.000000
_cell_volume 1869.662416
_symmetry_space_group_name_H-M "P 21/M"
_symmetry_group_IT_number 11
_symmetry_cell_setting 'monoclinic'
loop_
_space_group_symop_operation_xyz
x,y,z
-x,1/2+y,-z
-x,-y,-z
x,1/2-y,z
loop_
_atom_site_type_symbol
_atom_site_label
_atom_site_fract_x
_atom_site_fract_y
_atom_site_fract_z
Si Si1 0.215104 0.064411 0.562171
Si Si2 0.908654 0.934544 0.720476
Si Si3 0.104211 0.934028 0.609003
Si Si4 0.602351 0.067709 0.003558
Si Si5 0.593669 0.433185 0.194454
Si Si6 0.896103 0.934436 0.896027
Si Si7 0.122668 0.934815 0.948174
Si Si8 0.786838 0.931700 0.123840
O O1 0.227239 0.250000 0.567155
O O2 0.152378 0.993636 0.419950
O O3 0.167086 0.023137 0.603457
O O4 0.317212 0.985429 0.658320
O O5 0.916780 0.750000 0.715543
O O6 0.856366 0.971775 0.758896
O O7 0.015715 0.999127 0.826726
O O8 0.104265 0.750000 0.588625
O O9 0.148068 0.962931 0.747754
O O10 0.000000 0.000000 0.500000
O O11 0.622727 0.250000 0.008513
O O12 0.497848 0.025156 0.864506
O O13 0.613666 0.021845 0.115483
O O14 0.677053 0.967003 0.026057
O O15 0.574383 0.250000 0.185475
O O16 0.895930 0.750000 0.914555
O O17 0.841189 0.022262 0.917699
O O18 0.000000 0.000000 0.000000
O O19 0.131126 0.750000 0.941681
O O20 0.189440 0.025572 0.950249
O O21 0.807533 0.750000 0.163361
#
# Coordination Sequence:
#
# PCOD8071316 Si02
#       8
#     4   4   4   4   4   4   4   4
#     4  11  20  33  52  74 100 135 173 208 252 302
#     4   8  17  31  49  72 100 134 169 208 249 294
#     4  12  24  37  49  68 100 139 176 211 247 293
#     4  10  20  35  54  73  98 130 166 211 258 301
#     4  10  20  34  52  74 100 129 166 212 258 300
#     4   9  16  30  49  71  99 131 170 213 257 299
#     4  10  19  33  51  73 103 136 172 213 254 299
#     4  12  23  35  52  75 101 134 171 209 254 305
#
# _framework density 17.115390000000001
#
# number of rings (size 3 to 8) (size 9 to 14) (size 15 to 20)
#    0.000    1.750    1.250    5.625    0.000    2.000 
#    0.000    6.875    0.000    0.000    0.000    0.875 
#    0.000    0.000    0.000    0.000    0.000    0.000 
#
# Total GULP energy -396797.171657 kJ/mol
# GULP energy per Si atom -12399.911614 kJ/mol
# Density = 1.707643 g / cm^3
# Si number density = 17.115390 Si / 1000 Ang^3
#
#
#
# Elastic Constant Matrix: (Units=GPa)
#
#
# Indices 1 2 3 4 5 6 
#
# 1 97.8440 22.1147 44.2039 0.0000 -2.8118 0.0000
# 2 22.1147 52.8767 19.7530 0.0000 0.3593 0.0000
# 3 44.2039 19.7530 50.7835 0.0000 6.1960 0.0000
# 4 0.0000 0.0000 0.0000 24.0100 0.0000 1.9620
# 5 -2.8118 0.3593 6.1960 0.0000 27.6826 0.0000
# 6 0.0000 0.0000 0.0000 1.9620 0.0000 27.2525
#
#
#
# Elastic Compliance Matrix: (Units=1/GPa)
#
#
# Indices 1 2 3 4 5 6 
#
# 1 0.017713 -0.001690 -0.015403 0.000000 0.005269 0.000000
# 2 -0.001690 0.022365 -0.007374 0.000000 0.001188 0.000000
# 3 -0.015403 -0.007374 0.037161 0.000000 -0.009786 0.000000
# 4 0.000000 0.000000 0.000000 0.041896 0.000000 -0.003016
# 5 0.005269 0.001188 -0.009786 0.000000 0.038834 0.000000
# 6 0.000000 0.000000 0.000000 -0.003016 0.000000 0.036911
#
#
# Mechanical properties :
#
#
# Convention : Reuss Voigt Hill
#
# Bulk Modulus (GPa) = 35.32839 41.51639 38.42239
# Shear Modulus (GPa) = 19.74352 23.48452 21.61402
#
# Velocity S-wave (km/s) = 3.40008 3.70824 3.55750
# Velocity P-wave (km/s) = 6.00835 6.53025 6.27473
#
# Compressibility (1/GPa) = 0.02830584
#
# Stress axis : x y z
#
# Youngs Moduli (GPa) = 56.45717 44.71269 26.90979
#
# Poissons Ratio (x) = 0.07555 0.41450
# Poissons Ratio (y) = 0.09539 0.19842
# Poissons Ratio (z) = 0.86963 0.32969
#
# Static dielectric constant tensor:
#      x y z
#    x 3.275400 0.000000 -0.179050 
#    y 0.000000 3.210180 0.000000 
#    z -0.179050 0.000000 3.334050 
# 
# 
# High freq. dielectric constant tensor:
#      x y z
#    x 1.649560 0.000000 -0.004960 
#    y 0.000000 1.668380 0.000000 
#    z -0.004960 0.000000 1.638530 
# 
# From -- ./inp_files/54239.got.cif
#   From: 2010.06.25/outbox.cif.g09.slc.cpg/sg11_28_cif.got.tgz:54239.got - 2010.06.27 23:14:04.
