data_PCOD8071527
_publ_section_title
;
Structure prediction by ZEFSAII (Michael W. Deem and Ramdas Pophale) SiO2 
 PCOD8071527
Probable space group: P 21/M
;
_chemical_formula_sum "Si O2"
_cell_formula_units_Z 32
_cell_length_a 12.242382
_cell_length_b 8.769666
_cell_length_c 20.068496
_cell_angle_alpha 90.000000
_cell_angle_beta 54.480023
_cell_angle_gamma 90.000000
_cell_volume 1753.645441
_symmetry_space_group_name_H-M "P 21/M"
_symmetry_group_IT_number 11
_symmetry_cell_setting 'monoclinic'
loop_
_space_group_symop_operation_xyz
x,y,z
-x,1/2+y,-z
-x,-y,-z
x,1/2-y,z
loop_
_atom_site_type_symbol
_atom_site_label
_atom_site_fract_x
_atom_site_fract_y
_atom_site_fract_z
Si Si1 0.113618 0.930898 0.618973
Si Si2 0.647847 0.069186 0.202805
Si Si3 0.344630 0.070891 0.286396
Si Si4 0.815087 0.070406 0.264262
Si Si5 0.887013 0.927089 0.870101
Si Si6 0.833728 0.428935 0.756144
Si Si7 0.861209 0.571153 0.526136
Si Si8 0.859058 0.928119 0.030024
O O1 0.115078 0.750000 0.610282
O O2 0.196803 0.987079 0.654909
O O3 0.181676 0.006782 0.530695
O O4 0.959427 0.981672 0.680366
O O5 0.663920 0.250000 0.193496
O O6 0.495230 0.017382 0.248601
O O7 0.699448 0.005894 0.256515
O O8 0.736065 0.999128 0.113101
O O9 0.336250 0.250000 0.274015
O O10 0.255458 0.025929 0.381582
O O11 0.297190 0.977386 0.238807
O O12 0.805066 0.250000 0.268941
O O13 0.957924 0.020006 0.183539
O O14 0.876093 0.750000 0.854041
O O15 0.808974 0.024674 0.841904
O O16 0.826010 0.960021 0.964139
O O17 0.859113 0.250000 0.741198
O O18 0.881236 0.750000 0.513989
O O19 0.000000 0.500000 0.500000
O O20 0.869449 0.750000 0.040978
O O21 0.000000 0.000000 0.000000
#
# Coordination Sequence:
#
# PCOD8071527 Si02
#       8
#     4   4   4   4   4   4   4   4
#     4  10  19  33  54  80 111 143 179 226 278 329
#     4  10  20  38  59  81 110 149 189 226 275 334
#     4  10  22  38  57  78 111 151 185 225 280 339
#     4   8  15  31  54  78 106 142 179 215 268 327
#     4   9  18  34  55  79 111 144 178 222 275 327
#     4  11  21  33  54  82 111 141 183 232 275 326
#     4  11  21  34  54  82 109 143 188 233 278 324
#     4  11  21  35  57  86 115 146 184 231 275 325
#
# _framework density 18.247702
#
# number of rings (size 3 to 8) (size 9 to 14) (size 15 to 20)
#    0.000    2.000    2.500    3.000    0.000    2.000 
#    0.000    1.875    0.000    0.000    0.000    0.000 
#    0.000    0.000    0.000    0.000    0.000    0.000 
#
# Total GULP energy -396778.263472 kJ/mol
# GULP energy per Si atom -12399.320734 kJ/mol
# Density = 1.820617 g / cm^3
# Si number density = 18.247702 Si / 1000 Ang^3
#
#
#
# Elastic Constant Matrix: (Units=GPa)
#
#
# Indices 1 2 3 4 5 6 
#
# 1 148.0838 46.1300 78.3500 0.0000 12.3406 0.0000
# 2 46.1300 62.9160 41.5616 0.0000 1.6148 0.0000
# 3 78.3500 41.5616 117.1333 0.0000 5.1214 0.0000
# 4 0.0000 0.0000 0.0000 29.9261 0.0000 6.3812
# 5 12.3406 1.6148 5.1214 0.0000 29.2612 0.0000
# 6 0.0000 0.0000 0.0000 6.3812 0.0000 22.0773
#
#
#
# Elastic Compliance Matrix: (Units=1/GPa)
#
#
# Indices 1 2 3 4 5 6 
#
# 1 0.011639 -0.004444 -0.006051 0.000000 -0.003604 0.000000
# 2 -0.004444 0.022458 -0.005062 0.000000 0.001521 0.000000
# 3 -0.006051 -0.005062 0.014367 0.000000 0.000317 0.000000
# 4 0.000000 0.000000 0.000000 0.035610 0.000000 -0.010293
# 5 -0.003604 0.001521 0.000317 0.000000 0.035556 0.000000
# 6 0.000000 0.000000 0.000000 -0.010293 0.000000 0.048270
#
#
# Mechanical properties :
#
#
# Convention : Reuss Voigt Hill
#
# Bulk Modulus (GPa) = 57.63960 73.35739 65.49849
# Shear Modulus (GPa) = 24.41421 27.05899 25.73660
#
# Velocity S-wave (km/s) = 3.66175 3.85498 3.75961
# Velocity P-wave (km/s) = 7.03802 7.75259 7.40393
#
# Compressibility (1/GPa) = 0.01734918
#
# Stress axis : x y z
#
# Youngs Moduli (GPa) = 85.91630 44.52799 69.60335
#
# Poissons Ratio (x) = 0.19789 0.42117
# Poissons Ratio (y) = 0.38183 0.35236
# Poissons Ratio (z) = 0.51987 0.22542
#
# Static dielectric constant tensor:
#      x y z
#    x 3.579140 0.000000 0.305330 
#    y 0.000000 3.274830 0.000000 
#    z 0.305330 0.000000 3.410530 
# 
# 
# High freq. dielectric constant tensor:
#      x y z
#    x 1.705820 0.000000 0.026750 
#    y 0.000000 1.699250 0.000000 
#    z 0.026750 0.000000 1.698010 
# 
# From -- ./inp_files/64388.got.cif
#   From: 2010.06.25/outbox.cif.g09.slc.cpg/sg11_33_cif.got.tgz:64388.got - 2010.06.27 23:14:04.
