data_PCOD8071913
_publ_section_title
;
Structure prediction by ZEFSAII (Michael W. Deem and Ramdas Pophale) SiO2 
 PCOD8071913
Probable space group: P 21/M
;
_chemical_formula_sum "Si O2"
_cell_formula_units_Z 28
_cell_length_a 14.816707
_cell_length_b 8.775437
_cell_length_c 21.749579
_cell_angle_alpha 90.000000
_cell_angle_beta 33.489006
_cell_angle_gamma 90.000000
_cell_volume 1560.396145
_symmetry_space_group_name_H-M "P 21/M"
_symmetry_group_IT_number 11
_symmetry_cell_setting 'monoclinic'
loop_
_space_group_symop_operation_xyz
x,y,z
-x,1/2+y,-z
-x,-y,-z
x,1/2-y,z
loop_
_atom_site_type_symbol
_atom_site_label
_atom_site_fract_x
_atom_site_fract_y
_atom_site_fract_z
Si Si1 0.079173 0.928668 0.698678
Si Si2 0.581228 0.929131 0.513755
Si Si3 0.357016 0.074849 0.739919
Si Si4 0.317179 0.573351 0.890011
Si Si5 0.974455 0.925975 0.140636
Si Si6 0.758254 0.426791 0.839749
Si Si7 0.496450 0.924910 0.911630
O O1 0.105881 0.750000 0.678671
O O2 0.236040 0.010901 0.581001
O O3 0.056177 0.972975 0.782486
O O4 0.924481 0.977551 0.745780
O O5 0.585069 0.750000 0.502147
O O6 0.500000 0.000000 0.500000
O O7 0.478306 0.970367 0.632227
O O8 0.408709 0.250000 0.702139
O O9 0.171495 0.047849 0.824107
O O10 0.372696 0.028807 0.801771
O O11 0.311338 0.750000 0.873873
O O12 0.450183 0.544591 0.867570
O O13 0.139424 0.519362 0.013884
O O14 0.989547 0.750000 0.153159
O O15 0.802881 0.250000 0.811296
O O16 0.652182 0.472171 0.840333
O O17 0.658599 0.468390 0.958077
O O18 0.543925 0.750000 0.896520
#
# Coordination Sequence:
#
# PCOD8071913 Si02
#       7
#     4   4   4   4   4   4   4
#     4  12  23  35  57  85 114 148 187 232 281 336
#     4  12  24  40  60  82 110 147 190 235 282 329
#     4  11  23  37  56  82 114 152 194 234 275 331
#     4  10  20  36  56  80 116 156 190 229 280 332
#     4  10  20  36  55  79 115 154 188 231 278 329
#     4  10  19  34  55  81 114 148 183 233 284 333
#     4   9  18  33  54  81 113 149 187 230 278 334
#
# _framework density 17.944161999999999
#
# number of rings (size 3 to 8) (size 9 to 14) (size 15 to 20)
#    0.000    1.429    2.857    3.857    0.000    2.286 
#    0.000    0.000    0.000    0.857    0.000    0.000 
#    0.000    0.000    0.000    0.000    0.000    0.000 
#
# Total GULP energy -347367.013171 kJ/mol
# GULP energy per Si atom -12405.964756 kJ/mol
# Density = 1.790332 g / cm^3
# Si number density = 17.944162 Si / 1000 Ang^3
#
#
#
# Elastic Constant Matrix: (Units=GPa)
#
#
# Indices 1 2 3 4 5 6 
#
# 1 93.8496 41.1657 42.7634 0.0000 -5.1292 0.0000
# 2 41.1657 106.7866 41.7568 0.0000 -6.0863 0.0000
# 3 42.7634 41.7568 85.5152 0.0000 -1.1416 0.0000
# 4 0.0000 0.0000 0.0000 29.3049 0.0000 -1.0987
# 5 -5.1292 -6.0863 -1.1416 0.0000 24.1465 0.0000
# 6 0.0000 0.0000 0.0000 -1.0987 0.0000 29.9307
#
#
#
# Elastic Compliance Matrix: (Units=1/GPa)
#
#
# Indices 1 2 3 4 5 6 
#
# 1 0.014869 -0.003360 -0.005767 0.000000 0.002039 0.000000
# 2 -0.003360 0.012506 -0.004397 0.000000 0.002231 0.000000
# 3 -0.005767 -0.004397 0.016704 0.000000 -0.001544 0.000000
# 4 0.000000 0.000000 0.000000 0.034171 0.000000 0.001254
# 5 0.002039 0.002231 -0.001544 0.000000 0.042336 0.000000
# 6 0.000000 0.000000 0.000000 0.001254 0.000000 0.033457
#
#
# Mechanical properties :
#
#
# Convention : Reuss Voigt Hill
#
# Bulk Modulus (GPa) = 58.71808 59.72480 59.22144
# Shear Modulus (GPa) = 26.77122 27.37415 27.07268
#
# Velocity S-wave (km/s) = 3.86673 3.91003 3.88844
# Velocity P-wave (km/s) = 7.26148 7.33078 7.29621
#
# Compressibility (1/GPa) = 0.01703053
#
# Stress axis : x y z
#
# Youngs Moduli (GPa) = 67.25556 79.96041 59.86581
#
# Poissons Ratio (x) = 0.26870 0.34526
# Poissons Ratio (y) = 0.22601 0.26320
# Poissons Ratio (z) = 0.38788 0.35155
#
# Static dielectric constant tensor:
#      x y z
#    x 3.304990 0.000000 -0.152750 
#    y 0.000000 3.432580 0.000000 
#    z -0.152750 0.000000 3.323830 
# 
# 
# High freq. dielectric constant tensor:
#      x y z
#    x 1.693740 0.000000 -0.011670 
#    y 0.000000 1.702000 0.000000 
#    z -0.011670 0.000000 1.679570 
# 
# From -- ./inp_files/37645.got.cif
#   From: 2010.06.25/outbox.cif.g09.slc.cpg/sg11_19_cif.got.tgz:37645.got - 2010.06.27 23:14:04.
