data_PCOD8071219
_publ_section_title
;
Structure prediction by ZEFSAII (Michael W. Deem and Ramdas Pophale) SiO2 
 PCOD8071219
Probable space group: P 21/M
;
_chemical_formula_sum "Si O2"
_cell_formula_units_Z 32
_cell_length_a 14.279910
_cell_length_b 8.703237
_cell_length_c 20.728010
_cell_angle_alpha 90.000000
_cell_angle_beta 137.057395
_cell_angle_gamma 90.000000
_cell_volume 1755.012528
_symmetry_space_group_name_H-M "P 21/M"
_symmetry_group_IT_number 11
_symmetry_cell_setting 'monoclinic'
loop_
_space_group_symop_operation_xyz
x,y,z
-x,1/2+y,-z
-x,-y,-z
x,1/2-y,z
loop_
_atom_site_type_symbol
_atom_site_label
_atom_site_fract_x
_atom_site_fract_y
_atom_site_fract_z
Si Si1 0.099921 0.071272 0.730978
Si Si2 0.635334 0.071833 0.942473
Si Si3 0.356470 0.068378 0.660113
Si Si4 0.916450 0.430264 0.516920
Si Si5 0.644228 0.430069 0.200324
Si Si6 0.922480 0.071428 0.148579
Si Si7 0.639486 0.571156 0.807790
Si Si8 0.928665 0.927717 0.902547
O O1 0.136419 0.250000 0.748131
O O2 0.990947 0.028273 0.621054
O O3 0.239069 0.974481 0.791648
O O4 0.035203 0.023528 0.766809
O O5 0.595726 0.250000 0.916808
O O6 0.503910 0.978563 0.902997
O O7 0.678279 0.012559 0.893699
O O8 0.761217 0.044851 0.054036
O O9 0.359790 0.250000 0.656303
O O10 0.234846 0.002977 0.554563
O O11 0.328800 0.020581 0.719847
O O12 0.500839 0.999736 0.707589
O O13 0.904423 0.250000 0.499498
O O14 0.000000 0.500000 0.500000
O O15 0.647483 0.250000 0.215865
O O16 0.955554 0.250000 0.176655
O O17 0.011877 0.003837 0.134161
O O18 0.615372 0.750000 0.810354
O O19 0.764541 0.544822 0.821210
O O20 0.967624 0.750000 0.924666
O O21 0.000000 0.000000 0.000000
#
# Coordination Sequence:
#
# PCOD8071219 Si02
#       8
#     4   4   4   4   4   4   4   4
#     4  11  24  39  56  80 110 145 186 229 276 331
#     4  10  19  33  53  77 111 148 186 227 268 323
#     4  11  21  34  55  83 114 144 180 227 276 329
#     4  11  22  37  59  84 110 143 184 230 280 329
#     4  11  21  34  54  78 110 148 186 226 271 325
#     4  10  22  38  55  79 112 150 187 227 278 329
#     4  10  19  32  54  83 113 144 182 228 277 325
#     4  10  20  35  57  84 112 146 187 231 276 326
#
# _framework density 18.233487
#
# number of rings (size 3 to 8) (size 9 to 14) (size 15 to 20)
#    0.000    1.500    2.500    5.250    0.000    4.000 
#    0.000    0.000    0.000    0.750    0.000    0.000 
#    0.000    0.000    0.000    0.000    0.000    0.000 
#
# Total GULP energy -396898.624197 kJ/mol
# GULP energy per Si atom -12403.082006 kJ/mol
# Density = 1.819199 g / cm^3
# Si number density = 18.233487 Si / 1000 Ang^3
#
#
#
# Elastic Constant Matrix: (Units=GPa)
#
#
# Indices 1 2 3 4 5 6 
#
# 1 115.2286 36.3179 61.0352 0.0000 1.2008 0.0000
# 2 36.3179 77.3435 48.4995 0.0000 3.8272 0.0000
# 3 61.0352 48.4995 104.3924 0.0000 0.8634 0.0000
# 4 0.0000 0.0000 0.0000 28.6448 0.0000 0.6627
# 5 1.2008 3.8272 0.8634 0.0000 24.4226 0.0000
# 6 0.0000 0.0000 0.0000 0.6627 0.0000 27.2615
#
#
#
# Elastic Compliance Matrix: (Units=1/GPa)
#
#
# Indices 1 2 3 4 5 6 
#
# 1 0.012758 -0.001847 -0.006600 0.000000 -0.000105 0.000000
# 2 -0.001847 0.018673 -0.007574 0.000000 -0.002568 0.000000
# 3 -0.006600 -0.007574 0.016950 0.000000 0.000912 0.000000
# 4 0.000000 0.000000 0.000000 0.034930 0.000000 -0.000849
# 5 -0.000105 -0.002568 0.000912 0.000000 0.041321 0.000000
# 6 0.000000 0.000000 0.000000 -0.000849 0.000000 0.036702
#
#
# Mechanical properties :
#
#
# Convention : Reuss Voigt Hill
#
# Bulk Modulus (GPa) = 61.20744 65.40776 63.30760
# Shear Modulus (GPa) = 25.14809 26.13990 25.64400
#
# Velocity S-wave (km/s) = 3.71782 3.79043 3.75430
# Velocity P-wave (km/s) = 7.21604 7.42338 7.32044
#
# Compressibility (1/GPa) = 0.01633788
#
# Stress axis : x y z
#
# Youngs Moduli (GPa) = 78.38496 53.55274 58.99820
#
# Poissons Ratio (x) = 0.09889 0.38940
# Poissons Ratio (y) = 0.14474 0.44688
# Poissons Ratio (z) = 0.51736 0.40563
#
# Static dielectric constant tensor:
#      x y z
#    x 3.446730 0.000000 0.240080 
#    y 0.000000 3.447280 0.000000 
#    z 0.240080 0.000000 3.382230 
# 
# 
# High freq. dielectric constant tensor:
#      x y z
#    x 1.695470 0.000000 0.017720 
#    y 0.000000 1.719340 0.000000 
#    z 0.017720 0.000000 1.695220 
# 
# From -- ./inp_files/65255.got.cif
#   From: 2010.06.25/outbox.cif.g09.slc.cpg/sg11_33_cif.got.tgz:65255.got - 2010.06.27 23:14:04.
