data_PCOD8071440
_publ_section_title
;
Structure prediction by ZEFSAII (Michael W. Deem and Ramdas Pophale) SiO2 
 PCOD8071440
Probable space group: P 21/M
;
_chemical_formula_sum "Si O2"
_cell_formula_units_Z 28
_cell_length_a 20.775318
_cell_length_b 8.827170
_cell_length_c 26.779921
_cell_angle_alpha 90.000000
_cell_angle_beta 18.493433
_cell_angle_gamma 90.000000
_cell_volume 1557.779956
_symmetry_space_group_name_H-M "P 21/M"
_symmetry_group_IT_number 11
_symmetry_cell_setting 'monoclinic'
loop_
_space_group_symop_operation_xyz
x,y,z
-x,1/2+y,-z
-x,-y,-z
x,1/2-y,z
loop_
_atom_site_type_symbol
_atom_site_label
_atom_site_fract_x
_atom_site_fract_y
_atom_site_fract_z
Si Si1 0.038442 0.428438 0.301981
Si Si2 0.599892 0.571298 0.623703
Si Si3 0.035154 0.583069 0.898628
Si Si4 0.353521 0.076222 0.145820
Si Si5 0.689935 0.570598 0.083309
Si Si6 0.344535 0.571449 0.998100
Si Si7 0.690479 0.917440 0.234991
O O1 0.043801 0.250000 0.285519
O O2 0.123854 0.459506 0.296174
O O3 0.171525 0.518360 0.163663
O O4 0.813295 0.488751 0.465919
O O5 0.630137 0.750000 0.603589
O O6 0.481300 0.516997 0.759909
O O7 0.482257 0.527779 0.659407
O O8 0.124307 0.750000 0.823019
O O9 0.224482 0.476873 0.774271
O O10 0.914052 0.523665 0.938886
O O11 0.874920 0.589934 0.061141
O O12 0.401088 0.250000 0.104340
O O13 0.428085 0.032190 0.147017
O O14 0.500000 0.000000 0.000000
O O15 0.656325 0.750000 0.115267
O O16 0.677053 0.524824 0.035737
O O17 0.318816 0.750000 0.005928
O O18 0.598198 0.750000 0.311054
#
# Coordination Sequence:
#
# PCOD8071440 Si02
#       7
#     4   4   4   4   4   4   4
#     4  10  19  34  54  75 100 132 168 205 247 296
#     4  11  21  33  50  74 103 133 166 208 253 294
#     4   8  15  27  44  67  95 126 163 203 240 284
#     4   8  16  30  50  73  97 126 163 205 244 288
#     4  10  20  34  51  74 103 135 168 204 249 297
#     4  10  19  33  53  78 103 129 165 206 248 295
#     4   9  16  27  45  69  96 127 163 201 243 292
#
# _framework density 17.974297
#
# number of rings (size 3 to 8) (size 9 to 14) (size 15 to 20)
#    0.000    2.571    0.000    3.857    0.000    5.143 
#    0.000    0.714    0.000    0.857    0.000    0.000 
#    0.000    0.000    0.000    0.000    0.000    0.000 
#
# Total GULP energy -346885.120471 kJ/mol
# GULP energy per Si atom -12388.754303 kJ/mol
# Density = 1.793339 g / cm^3
# Si number density = 17.974297 Si / 1000 Ang^3
#
#
#
# Elastic Constant Matrix: (Units=GPa)
#
#
# Indices 1 2 3 4 5 6 
#
# 1 154.6691 24.0637 21.3607 0.0000 -20.3345 0.0000
# 2 24.0637 41.4360 -1.1914 0.0000 -6.2998 0.0000
# 3 21.3607 -1.1914 45.4996 0.0000 -18.3514 0.0000
# 4 0.0000 0.0000 0.0000 22.2134 0.0000 -0.3339
# 5 -20.3345 -6.2998 -18.3514 0.0000 21.5093 0.0000
# 6 0.0000 0.0000 0.0000 -0.3339 0.0000 27.5724
#
#
#
# Elastic Compliance Matrix: (Units=1/GPa)
#
#
# Indices 1 2 3 4 5 6 
#
# 1 0.007971 -0.003968 -0.001945 0.000000 0.004714 0.000000
# 2 -0.003968 0.028191 0.006736 0.000000 0.010252 0.000000
# 3 -0.001945 0.006736 0.035253 0.000000 0.030212 0.000000
# 4 0.000000 0.000000 0.000000 0.045026 0.000000 0.000545
# 5 0.004714 0.010252 0.030212 0.000000 0.079728 0.000000
# 6 0.000000 0.000000 0.000000 0.000545 0.000000 0.036275
#
#
# Mechanical properties :
#
#
# Convention : Reuss Voigt Hill
#
# Bulk Modulus (GPa) = 13.68716 36.67451 25.18084
# Shear Modulus (GPa) = 19.59628 27.41712 23.50670
#
# Velocity S-wave (km/s) = 3.30546 3.90981 3.62027
# Velocity P-wave (km/s) = 4.71163 6.38986 5.61381
#
# Compressibility (1/GPa) = 0.07306118
#
# Stress axis : x y z
#
# Youngs Moduli (GPa) = 125.45162 35.47280 28.36643
#
# Poissons Ratio (x) = 0.14077 0.05516
# Poissons Ratio (y) = 0.49784 -0.19108
# Poissons Ratio (z) = 0.24397 -0.23896
#
# Static dielectric constant tensor:
#      x y z
#    x 3.827470 0.000000 -0.519820 
#    y 0.000000 3.518020 0.000000 
#    z -0.519820 0.000000 3.026380 
# 
# 
# High freq. dielectric constant tensor:
#      x y z
#    x 1.705610 0.000000 -0.036060 
#    y 0.000000 1.709980 0.000000 
#    z -0.036060 0.000000 1.649650 
# 
# From -- ./inp_files/65983.got.cif
#   From: 2010.06.25/outbox.cif.g09.slc.cpg/sg11_33_cif.got.tgz:65983.got - 2010.06.27 23:14:04.
