data_PCOD8071254
_publ_section_title
;
Structure prediction by ZEFSAII (Michael W. Deem and Ramdas Pophale) SiO2 
 PCOD8071254
Probable space group: P 21/M
;
_chemical_formula_sum "Si O2"
_cell_formula_units_Z 28
_cell_length_a 19.672923
_cell_length_b 8.996340
_cell_length_c 15.326710
_cell_angle_alpha 90.000000
_cell_angle_beta 31.680457
_cell_angle_gamma 90.000000
_cell_volume 1424.600340
_symmetry_space_group_name_H-M "P 21/M"
_symmetry_group_IT_number 11
_symmetry_cell_setting 'monoclinic'
loop_
_space_group_symop_operation_xyz
x,y,z
-x,1/2+y,-z
-x,-y,-z
x,1/2-y,z
loop_
_atom_site_type_symbol
_atom_site_label
_atom_site_fract_x
_atom_site_fract_y
_atom_site_fract_z
Si Si1 0.408512 0.926954 0.027363
Si Si2 0.125945 0.924317 0.402540
Si Si3 0.536184 0.072556 0.725293
Si Si4 0.173753 0.574848 0.546212
Si Si5 0.986959 0.412127 0.880557
Si Si6 0.551665 0.926284 0.530474
Si Si7 0.821013 0.911167 0.173992
O O1 0.430935 0.750000 0.004446
O O2 0.257972 0.966401 0.208007
O O3 0.500000 0.000000 0.000000
O O4 0.441814 0.996888 0.897917
O O5 0.101865 0.750000 0.425593
O O6 0.142716 0.980334 0.483077
O O7 0.000000 0.000000 0.500000
O O8 0.520848 0.250000 0.745247
O O9 0.682794 0.020595 0.585237
O O10 0.492898 0.008460 0.678880
O O11 0.166026 0.750000 0.563174
O O12 0.065266 0.509038 0.727027
O O13 0.960567 0.250000 0.868187
O O14 0.058351 0.396595 0.894200
O O15 0.850325 0.487116 0.057008
O O16 0.522838 0.750000 0.566544
O O17 0.703456 0.967432 0.362030
O O18 0.500000 0.000000 0.500000
O O19 0.785156 0.750000 0.173903
#
# Coordination Sequence:
#
# PCOD8071254 Si02
#       7
#     4   4   4   4   4   4   4
#     4  11  22  40  66  97 130 164 211 264 314 377
#     4  10  23  43  63  90 125 163 202 251 311 373
#     4  11  22  39  64  93 122 160 207 258 314 371
#     4  10  20  37  60  86 120 155 196 248 303 364
#     4  10  19  32  55  86 112 143 191 240 290 346
#     4  11  23  41  61  86 120 160 205 255 310 370
#     4   9  19  35  54  79 113 148 187 237 293 349
#
# _framework density 19.654634999999999
#
# number of rings (size 3 to 8) (size 9 to 14) (size 15 to 20)
#    0.000    1.714    2.857    1.714    0.000    4.000 
#    2.571    0.000    0.000    0.000    0.000    0.000 
#    0.000    0.000    0.000    0.000    0.000    0.000 
#
# Total GULP energy -347099.779521 kJ/mol
# GULP energy per Si atom -12396.420697 kJ/mol
# Density = 1.960990 g / cm^3
# Si number density = 19.654635 Si / 1000 Ang^3
#
#
#
# Elastic Constant Matrix: (Units=GPa)
#
#
# Indices 1 2 3 4 5 6 
#
# 1 101.7043 45.2505 46.7870 0.0000 14.5857 0.0000
# 2 45.2505 77.8854 53.5678 0.0000 6.8815 0.0000
# 3 46.7870 53.5678 134.7235 0.0000 23.1101 0.0000
# 4 0.0000 0.0000 0.0000 36.3559 0.0000 5.5504
# 5 14.5857 6.8815 23.1101 0.0000 30.9962 0.0000
# 6 0.0000 0.0000 0.0000 5.5504 0.0000 31.9239
#
#
#
# Elastic Compliance Matrix: (Units=1/GPa)
#
#
# Indices 1 2 3 4 5 6 
#
# 1 0.014137 -0.006821 -0.001509 0.000000 -0.004013 0.000000
# 2 -0.006821 0.021025 -0.006583 0.000000 0.003450 0.000000
# 3 -0.001509 -0.006583 0.011686 0.000000 -0.006541 0.000000
# 4 0.000000 0.000000 0.000000 0.028256 0.000000 -0.004913
# 5 -0.004013 0.003450 -0.006541 0.000000 0.038262 0.000000
# 6 0.000000 0.000000 0.000000 -0.004913 0.000000 0.032179
#
#
# Mechanical properties :
#
#
# Convention : Reuss Voigt Hill
#
# Bulk Modulus (GPa) = 58.74581 67.28043 63.01312
# Shear Modulus (GPa) = 27.61764 31.10240 29.36002
#
# Velocity S-wave (km/s) = 3.75259 3.98231 3.86916
# Velocity P-wave (km/s) = 6.98068 7.44652 7.21736
#
# Compressibility (1/GPa) = 0.01702249
#
# Stress axis : x y z
#
# Youngs Moduli (GPa) = 70.73680 47.56258 85.57131
#
# Poissons Ratio (x) = 0.32442 0.12913
# Poissons Ratio (y) = 0.48249 0.56330
# Poissons Ratio (z) = 0.10674 0.31309
#
# Static dielectric constant tensor:
#      x y z
#    x 3.335110 0.000000 0.301950 
#    y 0.000000 3.768390 0.000000 
#    z 0.301950 0.000000 3.065670 
# 
# 
# High freq. dielectric constant tensor:
#      x y z
#    x 1.745490 0.000000 0.009860 
#    y 0.000000 1.773060 0.000000 
#    z 0.009860 0.000000 1.779770 
# 
# From -- ./inp_files/54509.got.cif
#   From: 2010.06.25/outbox.cif.g09.slc.cpg/sg11_28_cif.got.tgz:54509.got - 2010.06.27 23:14:04.
