data_PCOD8071560
_publ_section_title
;
Structure prediction by ZEFSAII (Michael W. Deem and Ramdas Pophale) SiO2 
 PCOD8071560
Probable space group: P 21/M
;
_chemical_formula_sum "Si O2"
_cell_formula_units_Z 32
_cell_length_a 21.720836
_cell_length_b 8.999478
_cell_length_c 28.094814
_cell_angle_alpha 90.000000
_cell_angle_beta 18.774076
_cell_angle_gamma 90.000000
_cell_volume 1767.487904
_symmetry_space_group_name_H-M "P 21/M"
_symmetry_group_IT_number 11
_symmetry_cell_setting 'monoclinic'
loop_
_space_group_symop_operation_xyz
x,y,z
-x,1/2+y,-z
-x,-y,-z
x,1/2-y,z
loop_
_atom_site_type_symbol
_atom_site_label
_atom_site_fract_x
_atom_site_fract_y
_atom_site_fract_z
Si Si1 0.086686 0.575775 0.593877
Si Si2 0.568823 0.426688 0.401404
Si Si3 0.636377 0.922156 0.543107
Si Si4 0.309310 0.075230 0.157533
Si Si5 0.382412 0.924074 0.295867
Si Si6 0.946069 0.922467 0.088299
Si Si7 0.650959 0.418868 0.164711
Si Si8 0.201568 0.425585 0.342568
O O1 0.095557 0.750000 0.594591
O O2 0.171839 0.504089 0.579514
O O3 0.211927 0.529631 0.456370
O O4 0.869998 0.521300 0.743492
O O5 0.500000 0.500000 0.500000
O O6 0.586693 0.250000 0.393642
O O7 0.416355 0.469518 0.471941
O O8 0.773666 0.492684 0.239004
O O9 0.683079 0.750000 0.511646
O O10 0.454589 0.964397 0.708944
O O11 0.334081 0.250000 0.134957
O O12 0.272682 0.028060 0.238489
O O13 0.500000 0.000000 0.000000
O O14 0.383627 0.750000 0.284101
O O15 0.583564 0.973085 0.171704
O O16 0.357589 0.013070 0.265187
O O17 0.895387 0.750000 0.116098
O O18 0.123318 0.937288 0.994573
O O19 0.000000 0.000000 0.000000
O O20 0.596975 0.250000 0.190788
O O21 0.177967 0.250000 0.364762
O O22 0.000000 0.500000 0.500000
#
# Coordination Sequence:
#
# PCOD8071560 Si02
#       8
#     4   4   4   4   4   4   4   4
#     4   9  18  34  54  80 112 141 180 231 276 329
#     4  11  23  40  58  84 118 153 195 240 287 345
#     4   9  18  34  55  81 111 143 185 231 277 337
#     4  10  22  39  56  81 114 146 185 229 275 329
#     4  10  19  33  54  84 115 144 184 234 284 333
#     4  11  21  36  59  86 116 150 189 236 287 341
#     4   9  18  34  54  82 115 147 185 232 284 336
#     4  11  21  36  57  82 113 146 184 231 279 333
#
# _framework density 18.104790999999999
#
# number of rings (size 3 to 8) (size 9 to 14) (size 15 to 20)
#    0.000    2.000    2.500    1.500    0.000    4.000 
#    0.000    1.250    0.000    1.500    0.000    0.000 
#    0.000    0.000    0.000    0.000    0.000    0.000 
#
# Total GULP energy -396849.234962 kJ/mol
# GULP energy per Si atom -12401.538593 kJ/mol
# Density = 1.806358 g / cm^3
# Si number density = 18.104791 Si / 1000 Ang^3
#
#
#
# Elastic Constant Matrix: (Units=GPa)
#
#
# Indices 1 2 3 4 5 6 
#
# 1 151.7524 65.5989 73.9301 0.0000 -8.6580 0.0000
# 2 65.5989 79.2766 52.8250 0.0000 -0.6767 0.0000
# 3 73.9301 52.8250 118.0061 0.0000 -4.2094 0.0000
# 4 0.0000 0.0000 0.0000 32.9615 0.0000 -3.0395
# 5 -8.6580 -0.6767 -4.2094 0.0000 28.1574 0.0000
# 6 0.0000 0.0000 0.0000 -3.0395 0.0000 36.4157
#
#
#
# Elastic Compliance Matrix: (Units=1/GPa)
#
#
# Indices 1 2 3 4 5 6 
#
# 1 0.011789 -0.006950 -0.004173 0.000000 0.002834 0.000000
# 2 -0.006950 0.022090 -0.005622 0.000000 -0.002447 0.000000
# 3 -0.004173 -0.005622 0.013627 0.000000 0.000619 0.000000
# 4 0.000000 0.000000 0.000000 0.030574 0.000000 0.002552
# 5 0.002834 -0.002447 0.000619 0.000000 0.036420 0.000000
# 6 0.000000 0.000000 0.000000 0.002552 0.000000 0.027674
#
#
# Mechanical properties :
#
#
# Convention : Reuss Voigt Hill
#
# Bulk Modulus (GPa) = 71.34632 81.52700 76.43666
# Shear Modulus (GPa) = 27.72615 29.95233 28.83924
#
# Velocity S-wave (km/s) = 3.91759 4.07183 3.99545
# Velocity P-wave (km/s) = 7.74315 8.19968 7.97468
#
# Compressibility (1/GPa) = 0.01401614
#
# Stress axis : x y z
#
# Youngs Moduli (GPa) = 84.82645 45.26972 73.38131
#
# Poissons Ratio (x) = 0.31461 0.30626
# Poissons Ratio (y) = 0.58952 0.41253
# Poissons Ratio (z) = 0.35402 0.25450
#
# Static dielectric constant tensor:
#      x y z
#    x 3.694190 0.000000 -0.124530 
#    y 0.000000 3.395050 0.000000 
#    z -0.124530 0.000000 3.238720 
# 
# 
# High freq. dielectric constant tensor:
#      x y z
#    x 1.708820 0.000000 -0.017550 
#    y 0.000000 1.707270 0.000000 
#    z -0.017550 0.000000 1.681210 
# 
# From -- ./inp_files/72014.got.cif
#   From: 2010.06.25/outbox.cif.g09.slc.cpg/sg11_37_cif.got.tgz:72014.got - 2010.06.27 23:14:04.
