data_PCOD8071156
_publ_section_title
;
Structure prediction by ZEFSAII (Michael W. Deem and Ramdas Pophale) SiO2 
 PCOD8071156
Probable space group: P 21/M
;
_chemical_formula_sum "Si O2"
_cell_formula_units_Z 32
_cell_length_a 24.473273
_cell_length_b 8.577158
_cell_length_c 19.122811
_cell_angle_alpha 90.000000
_cell_angle_beta 156.074993
_cell_angle_gamma 90.000000
_cell_volume 1627.876726
_symmetry_space_group_name_H-M "P 21/M"
_symmetry_group_IT_number 11
_symmetry_cell_setting 'monoclinic'
loop_
_space_group_symop_operation_xyz
x,y,z
-x,1/2+y,-z
-x,-y,-z
x,1/2-y,z
loop_
_atom_site_type_symbol
_atom_site_label
_atom_site_fract_x
_atom_site_fract_y
_atom_site_fract_z
Si Si1 0.077163 0.931347 0.155332
Si Si2 0.137952 0.563882 0.635894
Si Si3 0.131315 0.570305 0.473725
Si Si4 0.662375 0.428041 0.016339
Si Si5 0.928437 0.936234 0.121471
Si Si6 0.636776 0.925062 0.332835
Si Si7 0.653895 0.435878 0.848576
Si Si8 0.622251 0.432516 0.464146
O O1 0.051087 0.750000 0.125438
O O2 0.013249 0.996979 0.153188
O O3 0.236733 0.967335 0.331311
O O4 0.000000 0.000000 0.000000
O O5 0.147081 0.750000 0.645374
O O6 0.152373 0.493017 0.574492
O O7 0.245575 0.491425 0.816599
O O8 0.000000 0.500000 0.500000
O O9 0.100270 0.750000 0.447784
O O10 0.269589 0.550715 0.594073
O O11 0.007913 0.500550 0.283469
O O12 0.706912 0.250000 0.060153
O O13 0.512850 0.443414 0.872634
O O14 0.676482 0.500737 0.954686
O O15 0.918441 0.750000 0.109849
O O16 0.778642 0.009110 0.946501
O O17 0.691950 0.750000 0.385231
O O18 0.628810 0.958463 0.404873
O O19 0.639892 0.250000 0.829463
O O20 0.514082 0.512165 0.654749
O O21 0.612181 0.250000 0.433377
#
# Coordination Sequence:
#
# PCOD8071156 Si02
#       8
#     4   4   4   4   4   4   4   4
#     4  10  22  39  61  86 115 145 180 225 275 331
#     4  10  20  34  51  70 101 143 182 228 279 331
#     4  10  20  34  53  77 107 143 186 229 278 332
#     4   8  17  33  49  72 109 142 177 226 277 318
#     4  10  20  37  56  81 114 145 183 230 276 330
#     4  10  19  32  53  79 106 141 183 230 275 324
#     4  10  20  34  56  86 114 147 190 234 272 323
#     4  10  19  37  60  83 114 150 183 224 276 330
#
# _framework density 19.657506999999999
#
# number of rings (size 3 to 8) (size 9 to 14) (size 15 to 20)
#    0.000    2.250    1.250    2.625    0.000    3.000 
#    0.000    3.750    0.000    0.000    0.000    0.000 
#    0.000    0.000    0.000    0.000    0.000    0.000 
#
# Total GULP energy -396544.531309 kJ/mol
# GULP energy per Si atom -12392.016603 kJ/mol
# Density = 1.961277 g / cm^3
# Si number density = 19.657507 Si / 1000 Ang^3
#
#
#
# Elastic Constant Matrix: (Units=GPa)
#
#
# Indices 1 2 3 4 5 6 
#
# 1 67.0431 17.1869 53.2517 0.0000 6.5768 0.0000
# 2 17.1869 26.5558 37.0345 0.0000 1.0528 0.0000
# 3 53.2517 37.0345 157.3801 0.0000 3.3072 0.0000
# 4 0.0000 0.0000 0.0000 28.1221 0.0000 6.9623
# 5 6.5768 1.0528 3.3072 0.0000 35.0324 0.0000
# 6 0.0000 0.0000 0.0000 6.9623 0.0000 25.0237
#
#
#
# Elastic Compliance Matrix: (Units=1/GPa)
#
#
# Indices 1 2 3 4 5 6 
#
# 1 0.021286 -0.005504 -0.005838 0.000000 -0.003280 0.000000
# 2 -0.005504 0.057481 -0.011673 0.000000 0.000408 0.000000
# 3 -0.005838 -0.011673 0.011068 0.000000 0.000402 0.000000
# 4 0.000000 0.000000 0.000000 0.038190 0.000000 -0.010625
# 5 -0.003280 0.000408 0.000402 0.000000 0.029111 0.000000
# 6 0.000000 0.000000 0.000000 -0.010625 0.000000 0.042918
#
#
# Mechanical properties :
#
#
# Convention : Reuss Voigt Hill
#
# Bulk Modulus (GPa) = 22.82851 51.76946 37.29898
# Shear Modulus (GPa) = 19.18022 27.20268 23.19145
#
# Velocity S-wave (km/s) = 3.12704 3.72402 3.43851
# Velocity P-wave (km/s) = 4.96751 6.69955 5.89747
#
# Compressibility (1/GPa) = 0.04380487
#
# Stress axis : x y z
#
# Youngs Moduli (GPa) = 46.97989 17.39696 90.35226
#
# Poissons Ratio (x) = 0.09576 0.52749
# Poissons Ratio (y) = 0.25859 1.05464
# Poissons Ratio (z) = 0.27427 0.20307
#
# Static dielectric constant tensor:
#      x y z
#    x 3.120700 0.000000 0.223180 
#    y 0.000000 3.320510 0.000000 
#    z 0.223180 0.000000 3.886230 
# 
# 
# High freq. dielectric constant tensor:
#      x y z
#    x 1.749140 0.000000 0.011540 
#    y 0.000000 1.744720 0.000000 
#    z 0.011540 0.000000 1.778090 
# 
# From -- ./inp_files/67128.got.cif
#   From: 2010.06.25/outbox.cif.g09.slc.cpg/sg11_34_cif.got.tgz:67128.got - 2010.06.27 23:14:04.
