data_PCOD8071572
_publ_section_title
;
Structure prediction by ZEFSAII (Michael W. Deem and Ramdas Pophale) SiO2 
 PCOD8071572
Probable space group: P 21/M
;
_chemical_formula_sum "Si O2"
_cell_formula_units_Z 20
_cell_length_a 18.397735
_cell_length_b 8.925235
_cell_length_c 11.199993
_cell_angle_alpha 90.000000
_cell_angle_beta 36.532222
_cell_angle_gamma 90.000000
_cell_volume 1094.760811
_symmetry_space_group_name_H-M "P 21/M"
_symmetry_group_IT_number 11
_symmetry_cell_setting 'monoclinic'
loop_
_space_group_symop_operation_xyz
x,y,z
-x,1/2+y,-z
-x,-y,-z
x,1/2-y,z
loop_
_atom_site_type_symbol
_atom_site_label
_atom_site_fract_x
_atom_site_fract_y
_atom_site_fract_z
Si Si1 0.318943 0.076375 0.306859
Si Si2 0.901019 0.424211 0.285640
Si Si3 0.149033 0.575553 0.921245
Si Si4 0.455444 0.078076 0.887520
Si Si5 0.386314 0.075028 0.713547
O O1 0.292453 0.250000 0.365716
O O2 0.196657 0.982963 0.490380
O O3 0.425536 0.024733 0.255840
O O4 0.357687 0.043501 0.119798
O O5 0.926164 0.250000 0.273655
O O6 0.849909 0.456136 0.221164
O O7 0.026285 0.512272 0.142496
O O8 0.159104 0.750000 0.937024
O O9 0.262204 0.491468 0.828258
O O10 0.499915 0.250000 0.835460
O O11 0.391063 0.041309 0.848049
O O12 0.390259 0.250000 0.680686
O O13 0.500000 0.000000 0.500000
#
# Coordination Sequence:
#
# PCOD8071572 Si02
#       5
#     4   4   4   4   4
#     4  10  19  33  55  79 103 135 175 215 255 302
#     4  10  20  35  55  78 105 136 170 212 260 306
#     4  10  21  36  54  78 106 135 172 214 255 305
#     4   9  20  36  52  75 107 139 172 212 256 304
#     4  11  22  36  54  77 107 139 171 210 258 307
#
# _framework density 18.268830000000001
#
# number of rings (size 3 to 8) (size 9 to 14) (size 15 to 20)
#    0.000    2.000    0.000    3.600    0.000    9.600 
#    0.000    1.000    0.000    0.000    0.000    0.000 
#    0.000    0.000    0.000    0.000    0.000    0.000 
#
# Total GULP energy -248105.242162 kJ/mol
# GULP energy per Si atom -12405.262108 kJ/mol
# Density = 1.822725 g / cm^3
# Si number density = 18.268830 Si / 1000 Ang^3
#
#
#
# Elastic Constant Matrix: (Units=GPa)
#
#
# Indices 1 2 3 4 5 6 
#
# 1 107.1199 61.3916 60.6291 0.0000 -15.8778 0.0000
# 2 61.3916 100.7382 58.9137 0.0000 -5.4995 0.0000
# 3 60.6291 58.9137 131.2695 0.0000 -8.3944 0.0000
# 4 0.0000 0.0000 0.0000 39.9510 0.0000 -5.8990
# 5 -15.8778 -5.4995 -8.3944 0.0000 20.2600 0.0000
# 6 0.0000 0.0000 0.0000 -5.8990 0.0000 30.7994
#
#
#
# Elastic Compliance Matrix: (Units=1/GPa)
#
#
# Indices 1 2 3 4 5 6 
#
# 1 0.017539 -0.007836 -0.003945 0.000000 0.009984 0.000000
# 2 -0.007836 0.016988 -0.004214 0.000000 -0.003276 0.000000
# 3 -0.003945 -0.004214 0.011362 0.000000 0.000471 0.000000
# 4 0.000000 0.000000 0.000000 0.025759 0.000000 0.004934
# 5 0.009984 -0.003276 0.000471 0.000000 0.056489 0.000000
# 6 0.000000 0.000000 0.000000 0.004934 0.000000 0.033413
#
#
# Mechanical properties :
#
#
# Convention : Reuss Voigt Hill
#
# Bulk Modulus (GPa) = 71.95900 77.88850 74.92375
# Shear Modulus (GPa) = 25.23020 28.74829 26.98924
#
# Velocity S-wave (km/s) = 3.72028 3.97120 3.84779
# Velocity P-wave (km/s) = 7.61107 7.98464 7.80009
#
# Compressibility (1/GPa) = 0.01389680
#
# Stress axis : x y z
#
# Youngs Moduli (GPa) = 57.01448 58.86445 88.01441
#
# Poissons Ratio (x) = 0.46128 0.34726
# Poissons Ratio (y) = 0.44679 0.37093
# Poissons Ratio (z) = 0.22495 0.24808
#
# Static dielectric constant tensor:
#      x y z
#    x 3.273600 0.000000 0.120800 
#    y 0.000000 3.516030 0.000000 
#    z 0.120800 0.000000 3.313600 
# 
# 
# High freq. dielectric constant tensor:
#      x y z
#    x 1.694660 0.000000 -0.000930 
#    y 0.000000 1.724340 0.000000 
#    z -0.000930 0.000000 1.716700 
# 
# From -- ./inp_files/16076.got.cif
#   From: 2010.06.25/outbox.cif.g09.slc.cpg/sg11_9_cif.got.tgz:16076.got - 2010.06.27 23:14:04.
