data_PCOD8071959
_publ_section_title
;
Structure prediction by ZEFSAII (Michael W. Deem and Ramdas Pophale) SiO2 
 PCOD8071959
Probable space group: P 21/M
;
_chemical_formula_sum "Si O2"
_cell_formula_units_Z 32
_cell_length_a 13.934717
_cell_length_b 8.880243
_cell_length_c 34.505432
_cell_angle_alpha 90.000000
_cell_angle_beta 156.689273
_cell_angle_gamma 90.000000
_cell_volume 1689.645797
_symmetry_space_group_name_H-M "P 21/M"
_symmetry_group_IT_number 11
_symmetry_cell_setting 'monoclinic'
loop_
_space_group_symop_operation_xyz
x,y,z
-x,1/2+y,-z
-x,-y,-z
x,1/2-y,z
loop_
_atom_site_type_symbol
_atom_site_label
_atom_site_fract_x
_atom_site_fract_y
_atom_site_fract_z
Si Si1 0.064220 0.072908 0.717493
Si Si2 0.844943 0.926087 0.476049
Si Si3 0.230615 0.077497 0.102110
Si Si4 0.712432 0.072734 0.726663
Si Si5 0.846717 0.423808 0.555447
Si Si6 0.287572 0.426076 0.353057
Si Si7 0.957381 0.927895 0.889465
Si Si8 0.559996 0.572935 0.897465
O O1 0.091617 0.250000 0.733892
O O2 0.009269 0.033048 0.652495
O O3 0.310814 0.991153 0.822094
O O4 0.846481 0.013055 0.662629
O O5 0.885333 0.750000 0.488613
O O6 0.564425 0.972147 0.366379
O O7 0.938380 0.980920 0.552668
O O8 0.000000 0.000000 0.500000
O O9 0.163628 0.250000 0.075732
O O10 0.448555 0.041979 0.152824
O O11 0.252374 0.033249 0.155732
O O12 0.000000 0.000000 0.000000
O O13 0.740036 0.250000 0.730734
O O14 0.802437 0.988790 0.721524
O O15 0.886811 0.018103 0.825262
O O16 0.873141 0.250000 0.553885
O O17 0.570132 0.462498 0.463345
O O18 0.229386 0.250000 0.334103
O O19 0.969831 0.750000 0.885377
O O20 0.219208 0.985236 0.000611
O O21 0.583109 0.750000 0.915212
#
# Coordination Sequence:
#
# PCOD8071959 Si02
#       8
#     4   4   4   4   4   4   4   4
#     4  11  22  36  55  81 111 142 176 223 276 323
#     4  10  21  36  56  82 115 149 183 224 269 316
#     4   8  16  30  49  72 100 133 171 212 255 303
#     4  10  21  37  56  80 108 143 183 223 268 322
#     4   9  20  37  57  81 110 143 181 221 267 323
#     4  10  20  37  59  81 105 138 179 224 271 324
#     4  10  19  34  56  81 108 143 183 223 268 320
#     4  10  20  35  53  78 111 145 182 224 267 317
#
# _framework density 18.938880000000001
#
# number of rings (size 3 to 8) (size 9 to 14) (size 15 to 20)
#    0.000    2.250    0.000    2.625    0.000    5.000 
#    0.000    3.125    0.000    0.000    0.000    0.000 
#    0.000    0.000    0.000    0.000    0.000    0.000 
#
# Total GULP energy -396665.497303 kJ/mol
# GULP energy per Si atom -12395.796791 kJ/mol
# Density = 1.889577 g / cm^3
# Si number density = 18.938880 Si / 1000 Ang^3
#
#
#
# Elastic Constant Matrix: (Units=GPa)
#
#
# Indices 1 2 3 4 5 6 
#
# 1 95.3810 40.1045 28.4650 0.0000 0.9535 0.0000
# 2 40.1045 51.5578 22.5132 0.0000 -2.1756 0.0000
# 3 28.4650 22.5132 62.1823 0.0000 -7.3393 0.0000
# 4 0.0000 0.0000 0.0000 29.5267 0.0000 -0.8960
# 5 0.9535 -2.1756 -7.3393 0.0000 23.8344 0.0000
# 6 0.0000 0.0000 0.0000 -0.8960 0.0000 35.9844
#
#
#
# Elastic Compliance Matrix: (Units=1/GPa)
#
#
# Indices 1 2 3 4 5 6 
#
# 1 0.016339 -0.011185 -0.003764 0.000000 -0.002834 0.000000
# 2 -0.011185 0.030700 -0.005823 0.000000 0.001457 0.000000
# 3 -0.003764 -0.005823 0.020617 0.000000 0.005968 0.000000
# 4 0.000000 0.000000 0.000000 0.033893 0.000000 0.000844
# 5 -0.002834 0.001457 0.005968 0.000000 0.044040 0.000000
# 6 0.000000 0.000000 0.000000 0.000844 0.000000 0.027811
#
#
# Mechanical properties :
#
#
# Convention : Reuss Voigt Hill
#
# Bulk Modulus (GPa) = 38.29673 43.47628 40.88651
# Shear Modulus (GPa) = 22.35638 25.73833 24.04736
#
# Velocity S-wave (km/s) = 3.43949 3.69049 3.56720
# Velocity P-wave (km/s) = 6.00322 6.41604 6.21306
#
# Compressibility (1/GPa) = 0.02611189
#
# Stress axis : x y z
#
# Youngs Moduli (GPa) = 61.20321 32.57299 48.50259
#
# Poissons Ratio (x) = 0.36434 0.18258
# Poissons Ratio (y) = 0.68457 0.28242
# Poissons Ratio (z) = 0.23039 0.18967
#
# Static dielectric constant tensor:
#      x y z
#    x 3.912000 0.000000 -0.019500 
#    y 0.000000 3.522590 0.000000 
#    z -0.019500 0.000000 3.261890 
# 
# 
# High freq. dielectric constant tensor:
#      x y z
#    x 1.742280 0.000000 -0.004670 
#    y 0.000000 1.748890 0.000000 
#    z -0.004670 0.000000 1.717360 
# 
# From -- ./inp_files/51417.got.cif
#   From: 2010.06.25/outbox.cif.g09.slc.cpg/sg11_26_cif.got.tgz:51417.got - 2010.06.27 23:14:04.
