data_PCOD8071443
_publ_section_title
;
Structure prediction by ZEFSAII (Michael W. Deem and Ramdas Pophale) SiO2 
 PCOD8071443
Probable space group: P 21/M
;
_chemical_formula_sum "Si O2"
_cell_formula_units_Z 28
_cell_length_a 10.090842
_cell_length_b 13.320969
_cell_length_c 14.511848
_cell_angle_alpha 90.000000
_cell_angle_beta 54.984044
_cell_angle_gamma 90.000000
_cell_volume 1597.591543
_symmetry_space_group_name_H-M "P 21/M"
_symmetry_group_IT_number 11
_symmetry_cell_setting 'monoclinic'
loop_
_space_group_symop_operation_xyz
x,y,z
-x,1/2+y,-z
-x,-y,-z
x,1/2-y,z
loop_
_atom_site_type_symbol
_atom_site_label
_atom_site_fract_x
_atom_site_fract_y
_atom_site_fract_z
Si Si1 0.875707 0.504490 0.851075
Si Si2 0.298950 0.637411 0.221672
Si Si3 0.163770 0.634653 0.671058
Si Si4 0.599564 0.516719 0.369353
Si Si5 0.319952 0.135172 0.932546
Si Si6 0.678171 0.363933 0.586611
Si Si7 0.139701 0.134505 0.815078
O O1 0.784929 0.443060 0.808732
O O2 0.990849 0.585250 0.756614
O O3 0.974351 0.428417 0.876987
O O4 0.743013 0.561971 0.963314
O O5 0.263703 0.750000 0.198610
O O6 0.489841 0.617961 0.152303
O O7 0.226673 0.626065 0.354640
O O8 0.153085 0.750000 0.701928
O O9 0.301696 0.587622 0.684720
O O10 0.205820 0.616032 0.546656
O O11 0.500000 0.500000 0.500000
O O12 0.467490 0.554193 0.348290
O O13 0.740813 0.602037 0.316962
O O14 0.280398 0.250000 0.974870
O O15 0.230735 0.107385 0.873168
O O16 0.605224 0.250000 0.607848
O O17 0.094185 0.250000 0.823526
#
# Coordination Sequence:
#
# PCOD8071443 Si02
#       7
#     4   4   4   4   4   4   4
#     4  11  21  33  50  78 109 135 170 215 260 303
#     4  10  20  34  54  77 100 132 175 217 255 303
#     4   9  19  32  49  73 104 140 170 208 261 310
#     4   9  16  28  51  78  99 126 169 214 252 297
#     4  10  20  35  55  74  98 138 178 211 253 309
#     4   9  16  31  53  76 102 133 172 212 255 310
#     4  10  19  33  53  78 104 133 173 217 258 301
#
# _framework density 17.526382000000002
#
# number of rings (size 3 to 8) (size 9 to 14) (size 15 to 20)
#    0.000    2.286    1.429    2.143    0.000    1.143 
#    0.000    0.000    0.000    2.571    0.000    0.000 
#    0.000    0.000    0.000    0.000    0.000    0.000 
#
# Total GULP energy -346899.889183 kJ/mol
# GULP energy per Si atom -12389.281757 kJ/mol
# Density = 1.748649 g / cm^3
# Si number density = 17.526382 Si / 1000 Ang^3
#
#
#
# Elastic Constant Matrix: (Units=GPa)
#
#
# Indices 1 2 3 4 5 6 
#
# 1 75.5250 51.0347 16.0388 0.0000 6.3848 0.0000
# 2 51.0347 114.5275 42.8088 0.0000 5.3737 0.0000
# 3 16.0388 42.8088 63.9138 0.0000 3.3289 0.0000
# 4 0.0000 0.0000 0.0000 25.6655 0.0000 0.9949
# 5 6.3848 5.3737 3.3289 0.0000 17.8879 0.0000
# 6 0.0000 0.0000 0.0000 0.9949 0.0000 32.6787
#
#
#
# Elastic Compliance Matrix: (Units=1/GPa)
#
#
# Indices 1 2 3 4 5 6 
#
# 1 0.019362 -0.008923 0.001351 0.000000 -0.004482 0.000000
# 2 -0.008923 0.015836 -0.008367 0.000000 -0.000015 0.000000
# 3 0.001351 -0.008367 0.021009 0.000000 -0.001878 0.000000
# 4 0.000000 0.000000 0.000000 0.039009 0.000000 -0.001188
# 5 -0.004482 -0.000015 -0.001878 0.000000 0.057858 0.000000
# 6 0.000000 0.000000 0.000000 -0.001188 0.000000 0.030637
#
#
# Mechanical properties :
#
#
# Convention : Reuss Voigt Hill
#
# Bulk Modulus (GPa) = 41.10196 52.63675 46.86935
# Shear Modulus (GPa) = 22.35172 24.85201 23.60186
#
# Velocity S-wave (km/s) = 3.57503 3.76969 3.67365
# Velocity P-wave (km/s) = 6.36738 7.00325 6.69287
#
# Compressibility (1/GPa) = 0.02432974
#
# Stress axis : x y z
#
# Youngs Moduli (GPa) = 51.64781 63.14900 47.59907
#
# Poissons Ratio (x) = 0.56345 -0.06430
# Poissons Ratio (y) = 0.46083 0.39824
# Poissons Ratio (z) = -0.06977 0.52835
#
# Static dielectric constant tensor:
#      x y z
#    x 3.268490 0.000000 -0.059570 
#    y 0.000000 3.479450 0.000000 
#    z -0.059570 0.000000 3.326430 
# 
# 
# High freq. dielectric constant tensor:
#      x y z
#    x 1.660530 0.000000 -0.008840 
#    y 0.000000 1.681780 0.000000 
#    z -0.008840 0.000000 1.679030 
# 
# From -- ./inp_files/18157.got.cif
#   From: 2010.06.25/outbox.cif.g09.slc.cpg/sg11_10_cif.got.tgz:18157.got - 2010.06.27 23:14:04.
