data_PCOD8071760
_publ_section_title
;
Structure prediction by ZEFSAII (Michael W. Deem and Ramdas Pophale) SiO2 
 PCOD8071760
Probable space group: P 21/M
;
_chemical_formula_sum "Si O2"
_cell_formula_units_Z 32
_cell_length_a 15.202807
_cell_length_b 9.172442
_cell_length_c 22.148222
_cell_angle_alpha 90.000000
_cell_angle_beta 31.787161
_cell_angle_gamma 90.000000
_cell_volume 1626.914810
_symmetry_space_group_name_H-M "P 21/M"
_symmetry_group_IT_number 11
_symmetry_cell_setting 'monoclinic'
loop_
_space_group_symop_operation_xyz
x,y,z
-x,1/2+y,-z
-x,-y,-z
x,1/2-y,z
loop_
_atom_site_type_symbol
_atom_site_label
_atom_site_fract_x
_atom_site_fract_y
_atom_site_fract_z
Si Si1 0.031987 0.922246 0.726895
Si Si2 0.987226 0.581304 0.141266
Si Si3 0.838954 0.584388 0.719852
Si Si4 0.813345 0.085808 0.535646
Si Si5 0.683792 0.917130 0.502096
Si Si6 0.678653 0.417525 0.123356
Si Si7 0.686991 0.417631 0.256039
Si Si8 0.388831 0.583136 0.228579
O O1 0.049972 0.750000 0.724965
O O2 0.903930 0.962704 0.748039
O O3 0.961744 0.994816 0.828250
O O4 0.215533 0.985945 0.604825
O O5 0.960696 0.750000 0.172915
O O6 0.817387 0.519285 0.213359
O O7 0.131867 0.558987 0.008041
O O8 0.776432 0.750000 0.757375
O O9 0.681408 0.486879 0.792189
O O10 0.988155 0.562593 0.584596
O O11 0.769642 0.250000 0.538413
O O12 0.755041 0.062271 0.637738
O O13 0.718554 0.969471 0.549806
O O14 0.741555 0.750000 0.462283
O O15 0.486110 0.932812 0.606421
O O16 0.622845 0.250000 0.151098
O O17 0.664893 0.472782 0.200149
O O18 0.559522 0.509172 0.149533
O O19 0.749598 0.250000 0.219651
O O20 0.429979 0.750000 0.191232
#
# Coordination Sequence:
#
# PCOD8071760 Si02
#       8
#     4   4   4   4   4   4   4   4
#     4  10  22  41  61  82 116 155 193 238 286 337
#     4  11  24  40  62  86 110 149 197 242 286 339
#     4   9  19  35  55  79 112 153 189 229 284 340
#     4   9  18  32  50  80 119 154 187 226 282 339
#     4  10  19  33  58  88 117 152 189 230 283 340
#     4  10  22  41  60  84 118 152 190 236 287 340
#     4  10  21  38  61  88 118 150 185 231 291 347
#     4  11  21  32  54  87 117 149 190 235 283 339
#
# _framework density 19.669131
#
# number of rings (size 3 to 8) (size 9 to 14) (size 15 to 20)
#    0.000    2.000    1.250    3.000    0.000    6.000 
#    0.000    0.625    0.000    0.000    0.000    0.000 
#    0.000    0.000    0.000    0.000    0.000    0.000 
#
# Total GULP energy -396883.722471 kJ/mol
# GULP energy per Si atom -12402.616327 kJ/mol
# Density = 1.962436 g / cm^3
# Si number density = 19.669131 Si / 1000 Ang^3
#
#
#
# Elastic Constant Matrix: (Units=GPa)
#
#
# Indices 1 2 3 4 5 6 
#
# 1 86.6522 45.5654 22.4026 0.0000 -11.4629 0.0000
# 2 45.5654 96.8801 19.5895 0.0000 -8.3879 0.0000
# 3 22.4026 19.5895 25.3287 0.0000 0.9704 0.0000
# 4 0.0000 0.0000 0.0000 29.4120 0.0000 -1.7376
# 5 -11.4629 -8.3879 0.9704 0.0000 27.8965 0.0000
# 6 0.0000 0.0000 0.0000 -1.7376 0.0000 34.9598
#
#
#
# Elastic Compliance Matrix: (Units=1/GPa)
#
#
# Indices 1 2 3 4 5 6 
#
# 1 0.018535 -0.005697 -0.012230 0.000000 0.006329 0.000000
# 2 -0.005697 0.014452 -0.006224 0.000000 0.002221 0.000000
# 3 -0.012230 -0.006224 0.055450 0.000000 -0.008826 0.000000
# 4 0.000000 0.000000 0.000000 0.034100 0.000000 0.001695
# 5 0.006329 0.002221 -0.008826 0.000000 0.039422 0.000000
# 6 0.000000 0.000000 0.000000 0.001695 0.000000 0.028689
#
#
# Mechanical properties :
#
#
# Convention : Reuss Voigt Hill
#
# Bulk Modulus (GPa) = 24.91575 42.66401 33.78988
# Shear Modulus (GPa) = 19.81541 26.54057 23.17799
#
# Velocity S-wave (km/s) = 3.17746 3.67734 3.43650
# Velocity P-wave (km/s) = 5.11435 6.30621 5.74129
#
# Compressibility (1/GPa) = 0.04013526
#
# Stress axis : x y z
#
# Youngs Moduli (GPa) = 53.95165 69.19393 18.03416
#
# Poissons Ratio (x) = 0.39417 0.22057
# Poissons Ratio (y) = 0.30734 0.11225
# Poissons Ratio (z) = 0.65985 0.43067
#
# Static dielectric constant tensor:
#      x y z
#    x 3.434610 0.000000 0.063080 
#    y 0.000000 3.636600 0.000000 
#    z 0.063080 0.000000 3.445970 
# 
# 
# High freq. dielectric constant tensor:
#      x y z
#    x 1.759820 0.000000 -0.002430 
#    y 0.000000 1.772760 0.000000 
#    z -0.002430 0.000000 1.754650 
# 
# From -- ./inp_files/55546.got.cif
#   From: 2010.06.25/outbox.cif.g09.slc.cpg/sg11_28_cif.got.tgz:55546.got - 2010.06.27 23:14:04.
