data_PCOD8071407
_publ_section_title
;
Structure prediction by ZEFSAII (Michael W. Deem and Ramdas Pophale) SiO2 
 PCOD8071407
Probable space group: P 21/M
;
_chemical_formula_sum "Si O2"
_cell_formula_units_Z 24
_cell_length_a 24.947314
_cell_length_b 9.018022
_cell_length_c 18.339535
_cell_angle_alpha 90.000000
_cell_angle_beta 19.322531
_cell_angle_gamma 90.000000
_cell_volume 1365.215309
_symmetry_space_group_name_H-M "P 21/M"
_symmetry_group_IT_number 11
_symmetry_cell_setting 'monoclinic'
loop_
_space_group_symop_operation_xyz
x,y,z
-x,1/2+y,-z
-x,-y,-z
x,1/2-y,z
loop_
_atom_site_type_symbol
_atom_site_label
_atom_site_fract_x
_atom_site_fract_y
_atom_site_fract_z
Si Si1 0.513360 0.924444 0.560304
Si Si2 0.837750 0.917838 0.227600
Si Si3 0.167633 0.075679 0.266295
Si Si4 0.355776 0.419713 0.886586
Si Si5 0.379763 0.083220 0.369464
Si Si6 0.544727 0.420286 0.016409
O O1 0.498876 0.750000 0.569344
O O2 0.683249 0.973692 0.379126
O O3 0.500000 0.000000 0.500000
O O4 0.364057 0.979770 0.803155
O O5 0.872652 0.750000 0.162244
O O6 0.797616 0.937992 0.366003
O O7 0.000000 0.000000 0.000000
O O8 0.164562 0.250000 0.288825
O O9 0.199221 0.050468 0.138860
O O10 0.000000 0.000000 0.500000
O O11 0.303287 0.998546 0.141405
O O12 0.364056 0.250000 0.850770
O O13 0.507491 0.456114 0.743063
O O14 0.441859 0.250000 0.312613
O O15 0.386450 0.069519 0.273118
O O16 0.589870 0.250000 0.942406
O O17 0.500000 0.500000 0.000000
#
# Coordination Sequence:
#
# PCOD8071407 Si02
#       6
#     4   4   4   4   4   4
#     4  10  20  34  52  74 100 131 167 206 247 294
#     4   9  18  32  50  73  98 125 160 199 240 288
#     4  10  20  34  53  77 103 132 168 209 253 303
#     4   9  17  30  50  74  98 127 165 205 245 295
#     4   8  16  31  49  69  96 130 165 199 240 295
#     4  10  19  33  53  75 101 133 168 208 252 299
#
# _framework density 17.579644999999999
#
# number of rings (size 3 to 8) (size 9 to 14) (size 15 to 20)
#    0.000    2.667    0.000    3.000    0.000    6.000 
#    0.000    1.667    0.000    4.000    0.000    0.000 
#    0.000    0.000    0.000    0.000    0.000    0.000 
#
# Total GULP energy -297353.372828 kJ/mol
# GULP energy per Si atom -12389.723868 kJ/mol
# Density = 1.753963 g / cm^3
# Si number density = 17.579645 Si / 1000 Ang^3
#
#
#
# Elastic Constant Matrix: (Units=GPa)
#
#
# Indices 1 2 3 4 5 6 
#
# 1 115.8002 60.7054 60.9022 0.0000 28.3901 0.0000
# 2 60.7054 109.5147 64.7812 0.0000 16.8059 0.0000
# 3 60.9022 64.7812 129.4161 0.0000 24.8775 0.0000
# 4 0.0000 0.0000 0.0000 32.0043 0.0000 2.1836
# 5 28.3901 16.8059 24.8775 0.0000 25.4183 0.0000
# 6 0.0000 0.0000 0.0000 2.1836 0.0000 32.0218
#
#
#
# Elastic Compliance Matrix: (Units=1/GPa)
#
#
# Indices 1 2 3 4 5 6 
#
# 1 0.015554 -0.005452 -0.002394 0.000000 -0.011424 0.000000
# 2 -0.005452 0.015040 -0.005200 0.000000 0.001235 0.000000
# 3 -0.002394 -0.005200 0.012664 0.000000 -0.006283 0.000000
# 4 0.000000 0.000000 0.000000 0.031392 0.000000 -0.002141
# 5 -0.011424 0.001235 -0.006283 0.000000 0.057434 0.000000
# 6 0.000000 0.000000 0.000000 -0.002141 0.000000 0.031375
#
#
# Mechanical properties :
#
#
# Convention : Reuss Voigt Hill
#
# Bulk Modulus (GPa) = 58.25855 80.83427 69.54641
# Shear Modulus (GPa) = 25.60517 29.11168 27.35843
#
# Velocity S-wave (km/s) = 3.82058 4.07380 3.94922
# Velocity P-wave (km/s) = 7.25770 8.25889 7.77443
#
# Compressibility (1/GPa) = 0.01716486
#
# Stress axis : x y z
#
# Youngs Moduli (GPa) = 64.29330 66.48962 78.96143
#
# Poissons Ratio (x) = 0.36252 0.18905
# Poissons Ratio (y) = 0.35054 0.41061
# Poissons Ratio (z) = 0.15393 0.34575
#
# Static dielectric constant tensor:
#      x y z
#    x 3.206730 0.000000 0.453150 
#    y 0.000000 3.440590 0.000000 
#    z 0.453150 0.000000 3.346960 
# 
# 
# High freq. dielectric constant tensor:
#      x y z
#    x 1.659100 0.000000 0.039550 
#    y 0.000000 1.694790 0.000000 
#    z 0.039550 0.000000 1.669080 
# 
# From -- ./inp_files/27327.got.cif
#   From: 2010.06.25/outbox.cif.g09.slc.cpg/sg11_14_cif.got.tgz:27327.got - 2010.06.27 23:14:04.
