data_PCOD8071764
_publ_section_title
;
Structure prediction by ZEFSAII (Michael W. Deem and Ramdas Pophale) SiO2 
 PCOD8071764
Probable space group: P 21/M
;
_chemical_formula_sum "Si O2"
_cell_formula_units_Z 32
_cell_length_a 16.240264
_cell_length_b 8.891628
_cell_length_c 11.295008
_cell_angle_alpha 90.000000
_cell_angle_beta 86.154970
_cell_angle_gamma 90.000000
_cell_volume 1627.354787
_symmetry_space_group_name_H-M "P 21/M"
_symmetry_group_IT_number 11
_symmetry_cell_setting 'monoclinic'
loop_
_space_group_symop_operation_xyz
x,y,z
-x,1/2+y,-z
-x,-y,-z
x,1/2-y,z
loop_
_atom_site_type_symbol
_atom_site_label
_atom_site_fract_x
_atom_site_fract_y
_atom_site_fract_z
Si Si1 0.443962 0.422793 0.675742
Si Si2 0.917828 0.920353 0.043123
Si Si3 0.244960 0.072348 0.064385
Si Si4 0.230914 0.577926 0.311034
Si Si5 0.910478 0.073977 0.499586
Si Si6 0.679103 0.427507 0.157276
Si Si7 0.386766 0.921986 0.451432
Si Si8 0.826767 0.923987 0.285280
O O1 0.424170 0.250000 0.706058
O O2 0.411143 0.525388 0.786484
O O3 0.541857 0.451132 0.652925
O O4 0.397399 0.466103 0.559297
O O5 0.928971 0.750000 0.004042
O O6 0.901165 0.938168 0.184115
O O7 0.842460 0.988849 0.975413
O O8 0.000000 0.000000 0.000000
O O9 0.254544 0.250000 0.045876
O O10 0.251658 0.030454 0.200486
O O11 0.313673 0.991217 0.976913
O O12 0.237407 0.750000 0.267157
O O13 0.140206 0.545597 0.373920
O O14 0.298257 0.543527 0.404560
O O15 0.921858 0.250000 0.474373
O O16 0.856515 0.004641 0.400254
O O17 0.000000 0.000000 0.500000
O O18 0.689615 0.250000 0.154790
O O19 0.745434 0.498428 0.241055
O O20 0.392357 0.750000 0.496922
O O21 0.806473 0.750000 0.313224
#
# Coordination Sequence:
#
# PCOD8071764 Si02
#       8
#     4   4   4   4   4   4   4   4
#     4  10  19  33  58  89 120 150 187 240 289 336
#     4   9  20  35  54  79 106 137 178 231 282 332
#     4  10  22  39  57  82 111 146 191 238 286 340
#     4  10  22  40  59  80 112 152 192 234 283 343
#     4  11  24  39  57  83 115 153 193 235 285 341
#     4  11  21  36  59  85 114 151 190 232 283 342
#     4   9  19  36  58  87 119 152 192 236 288 344
#     4  10  21  38  57  82 112 143 187 237 285 336
#
# _framework density 19.663812
#
# number of rings (size 3 to 8) (size 9 to 14) (size 15 to 20)
#    0.000    2.000    0.000    4.125    1.750    6.000 
#    0.000    0.625    0.000    0.000    0.000    0.000 
#    0.000    0.000    0.000    0.000    0.000    0.000 
#
# Total GULP energy -396855.569432 kJ/mol
# GULP energy per Si atom -12401.736545 kJ/mol
# Density = 1.961906 g / cm^3
# Si number density = 19.663812 Si / 1000 Ang^3
#
#
#
# Elastic Constant Matrix: (Units=GPa)
#
#
# Indices 1 2 3 4 5 6 
#
# 1 80.7235 34.3489 23.5550 0.0000 -21.2161 0.0000
# 2 34.3489 110.3544 37.3901 0.0000 -12.9204 0.0000
# 3 23.5550 37.3901 73.8705 0.0000 -12.6519 0.0000
# 4 0.0000 0.0000 0.0000 37.8797 0.0000 -3.0082
# 5 -21.2161 -12.9204 -12.6519 0.0000 28.5418 0.0000
# 6 0.0000 0.0000 0.0000 -3.0082 0.0000 31.1094
#
#
#
# Elastic Compliance Matrix: (Units=1/GPa)
#
#
# Indices 1 2 3 4 5 6 
#
# 1 0.017141 -0.003470 -0.001944 0.000000 0.010309 0.000000
# 2 -0.003470 0.011836 -0.004771 0.000000 0.000664 0.000000
# 3 -0.001944 -0.004771 0.017265 0.000000 0.004049 0.000000
# 4 0.000000 0.000000 0.000000 0.026604 0.000000 0.002573
# 5 0.010309 0.000664 0.004049 0.000000 0.044795 0.000000
# 6 0.000000 0.000000 0.000000 0.002573 0.000000 0.032393
#
#
# Mechanical properties :
#
#
# Convention : Reuss Voigt Hill
#
# Bulk Modulus (GPa) = 38.64946 50.61517 44.63232
# Shear Modulus (GPa) = 27.92874 30.81647 29.37260
#
# Velocity S-wave (km/s) = 3.77279 3.96304 3.86908
# Velocity P-wave (km/s) = 6.21903 6.83645 6.53504
#
# Compressibility (1/GPa) = 0.02587358
#
# Stress axis : x y z
#
# Youngs Moduli (GPa) = 58.33929 84.48921 57.92002
#
# Poissons Ratio (x) = 0.29315 0.11259
# Poissons Ratio (y) = 0.20242 0.27632
# Poissons Ratio (z) = 0.11340 0.40307
#
# Static dielectric constant tensor:
#      x y z
#    x 3.229680 0.000000 -0.377140 
#    y 0.000000 3.639920 0.000000 
#    z -0.377140 0.000000 3.482470 
# 
# 
# High freq. dielectric constant tensor:
#      x y z
#    x 1.764750 0.000000 -0.019480 
#    y 0.000000 1.772930 0.000000 
#    z -0.019480 0.000000 1.760450 
# 
# From -- ./inp_files/38128.got.cif
#   From: 2010.06.25/outbox.cif.g09.slc.cpg/sg11_20_cif.got.tgz:38128.got - 2010.06.27 23:14:04.
