data_PCOD8071622
_publ_section_title
;
Structure prediction by ZEFSAII (Michael W. Deem and Ramdas Pophale) SiO2 
 PCOD8071622
Probable space group: P 21/M
;
_chemical_formula_sum "Si O2"
_cell_formula_units_Z 28
_cell_length_a 12.460780
_cell_length_b 8.526108
_cell_length_c 14.891432
_cell_angle_alpha 90.000000
_cell_angle_beta 74.524078
_cell_angle_gamma 90.000000
_cell_volume 1524.732332
_symmetry_space_group_name_H-M "P 21/M"
_symmetry_group_IT_number 11
_symmetry_cell_setting 'monoclinic'
loop_
_space_group_symop_operation_xyz
x,y,z
-x,1/2+y,-z
-x,-y,-z
x,1/2-y,z
loop_
_atom_site_type_symbol
_atom_site_label
_atom_site_fract_x
_atom_site_fract_y
_atom_site_fract_z
Si Si1 0.795227 0.431580 0.718045
Si Si2 0.261551 0.569450 0.579922
Si Si3 0.569431 0.931467 0.103830
Si Si4 0.392150 0.429890 0.706074
Si Si5 0.341303 0.069468 0.103534
Si Si6 0.372509 0.430995 0.385758
Si Si7 0.989027 0.433972 0.403159
O O1 0.781646 0.250000 0.697468
O O2 0.754246 0.465756 0.828470
O O3 0.723555 0.530800 0.663638
O O4 0.923404 0.481677 0.681752
O O5 0.278392 0.750000 0.548942
O O6 0.309499 0.539209 0.668262
O O7 0.328417 0.462477 0.495412
O O8 0.131935 0.525122 0.608733
O O9 0.531715 0.750000 0.104560
O O10 0.631766 0.964271 0.183475
O O11 0.459604 0.037568 0.124334
O O12 0.652257 0.974961 0.003462
O O13 0.367194 0.250000 0.688012
O O14 0.520566 0.462963 0.655963
O O15 0.310224 0.250000 0.124513
O O16 0.406494 0.250000 0.369879
O O17 0.012711 0.250000 0.399423
O O18 0.000000 0.500000 0.500000
#
# Coordination Sequence:
#
# PCOD8071622 Si02
#       7
#     4   4   4   4   4   4   4
#     4  12  23  36  56  83 116 148 184 232 282 333
#     4  11  24  40  57  80 112 149 189 231 276 331
#     4   9  19  34  54  81 114 147 183 227 276 330
#     4  11  22  37  57  82 116 152 186 227 277 333
#     4  10  19  33  55  83 112 146 185 227 278 333
#     4  12  23  36  56  82 113 150 189 228 277 333
#     4  11  23  39  60  82 109 146 189 234 277 326
#
# _framework density 18.363879000000001
#
# number of rings (size 3 to 8) (size 9 to 14) (size 15 to 20)
#    0.000    1.143    2.857    4.714    0.000    2.857 
#    0.000    0.000    0.000    0.857    0.000    0.000 
#    0.000    0.000    0.000    0.000    0.000    0.000 
#
# Total GULP energy -347354.881165 kJ/mol
# GULP energy per Si atom -12405.531470 kJ/mol
# Density = 1.832208 g / cm^3
# Si number density = 18.363879 Si / 1000 Ang^3
#
#
#
# Elastic Constant Matrix: (Units=GPa)
#
#
# Indices 1 2 3 4 5 6 
#
# 1 83.9979 13.1041 47.4507 0.0000 3.6484 0.0000
# 2 13.1041 58.0819 26.9260 0.0000 -0.9254 0.0000
# 3 47.4507 26.9260 127.4581 0.0000 -4.5014 0.0000
# 4 0.0000 0.0000 0.0000 28.9073 0.0000 -1.6389
# 5 3.6484 -0.9254 -4.5014 0.0000 23.6845 0.0000
# 6 0.0000 0.0000 0.0000 -1.6389 0.0000 26.5841
#
#
#
# Elastic Compliance Matrix: (Units=1/GPa)
#
#
# Indices 1 2 3 4 5 6 
#
# 1 0.015397 -0.000903 -0.005664 0.000000 -0.003484 0.000000
# 2 -0.000903 0.019139 -0.003700 0.000000 0.000184 0.000000
# 3 -0.005664 -0.003700 0.010835 0.000000 0.002787 0.000000
# 4 0.000000 0.000000 0.000000 0.034715 0.000000 0.002140
# 5 -0.003484 0.000184 0.002787 0.000000 0.043295 0.000000
# 6 0.000000 0.000000 0.000000 0.002140 0.000000 0.037748
#
#
# Mechanical properties :
#
#
# Convention : Reuss Voigt Hill
#
# Bulk Modulus (GPa) = 40.26622 49.38885 44.82754
# Shear Modulus (GPa) = 26.32357 27.97230 27.14794
#
# Velocity S-wave (km/s) = 3.79019 3.90708 3.84908
# Velocity P-wave (km/s) = 6.41315 6.87799 6.64963
#
# Compressibility (1/GPa) = 0.02483471
#
# Stress axis : x y z
#
# Youngs Moduli (GPa) = 64.94739 52.24855 92.29689
#
# Poissons Ratio (x) = 0.04720 0.52280
# Poissons Ratio (y) = 0.05867 0.34154
# Poissons Ratio (z) = 0.36788 0.19334
#
# Static dielectric constant tensor:
#      x y z
#    x 3.277000 0.000000 -0.067900 
#    y 0.000000 3.443210 0.000000 
#    z -0.067900 0.000000 3.601050 
# 
# 
# High freq. dielectric constant tensor:
#      x y z
#    x 1.684750 0.000000 -0.002670 
#    y 0.000000 1.725710 0.000000 
#    z -0.002670 0.000000 1.717240 
# 
# From -- ./inp_files/37489.got.cif
#   From: 2010.06.25/outbox.cif.g09.slc.cpg/sg11_19_cif.got.tgz:37489.got - 2010.06.27 23:14:04.
