data_PCOD8071032
_publ_section_title
;
Structure prediction by ZEFSAII (Michael W. Deem and Ramdas Pophale) SiO2 
 PCOD8071032
Probable space group: P 21/M
;
_chemical_formula_sum "Si O2"
_cell_formula_units_Z 32
_cell_length_a 16.672061
_cell_length_b 9.087738
_cell_length_c 12.078947
_cell_angle_alpha 90.000000
_cell_angle_beta 111.238554
_cell_angle_gamma 90.000000
_cell_volume 1705.797495
_symmetry_space_group_name_H-M "P 21/M"
_symmetry_group_IT_number 11
_symmetry_cell_setting 'monoclinic'
loop_
_space_group_symop_operation_xyz
x,y,z
-x,1/2+y,-z
-x,-y,-z
x,1/2-y,z
loop_
_atom_site_type_symbol
_atom_site_label
_atom_site_fract_x
_atom_site_fract_y
_atom_site_fract_z
Si Si1 0.751022 0.575136 0.500481
Si Si2 0.641779 0.924442 0.070889
Si Si3 0.414559 0.424589 0.718571
Si Si4 0.248979 0.075136 0.249458
Si Si5 0.910185 0.924530 0.433813
Si Si6 0.414560 0.424589 0.195988
Si Si7 0.089815 0.424530 0.023627
Si Si8 0.167440 0.424457 0.833720
O O1 0.749775 0.750000 0.499536
O O2 0.667645 0.518042 0.391856
O O3 0.748499 0.512760 0.624250
O O4 0.838521 0.520131 0.485614
O O5 0.648880 0.750000 0.074440
O O6 0.594024 0.977565 0.158091
O O7 0.737270 0.992926 0.118634
O O8 0.594023 0.977564 0.935933
O O9 0.423378 0.250000 0.713391
O O10 0.500000 0.500000 0.711610
O O11 0.250226 0.250000 0.249760
O O12 0.332355 0.018042 0.224210
O O13 0.161480 0.020131 0.147091
O O14 0.921028 0.750000 0.445451
O O15 0.882240 0.979373 0.298996
O O16 0.000000 0.000000 0.500000
O O17 0.423380 0.250000 0.209989
O O18 0.078972 0.250000 0.024422
O O19 0.117757 0.479372 0.916752
O O20 0.000000 0.500000 0.000000
O O21 0.174995 0.250000 0.837497
#
# Coordination Sequence:
#
# PCOD8071032 Si02
#       8
#     4   4   4   4   4   4   4   4
#     4   9  18  33  52  73  98 132 171 204 239 294
#     4   9  15  29  52  74  96 128 168 201 237 291
#     4  10  19  32  52  75  99 128 164 205 246 292
#     4   9  18  33  52  73  98 132 171 204 239 294
#     4  10  20  34  54  77 102 132 168 209 250 296
#     4  10  19  32  52  75  99 128 164 205 246 292
#     4  10  20  34  54  77 102 132 168 209 250 296
#     4   9  16  31  54  76  98 132 173 205 240 295
#
# _framework density 18.759554999999999
#
# number of rings (size 3 to 8) (size 9 to 14) (size 15 to 20)
#    0.000    2.500    2.500    0.375    1.750    0.500 
#    0.000    1.250    0.000    3.000    0.000    0.000 
#    0.000    0.000    0.000    0.000    0.000    0.000 
#
# Total GULP energy -396716.832681 kJ/mol
# GULP energy per Si atom -12397.401021 kJ/mol
# Density = 1.871686 g / cm^3
# Si number density = 18.759555 Si / 1000 Ang^3
#
#
#
# Elastic Constant Matrix: (Units=GPa)
#
#
# Indices 1 2 3 4 5 6 
#
# 1 175.7257 29.4162 87.7572 0.0000 15.9206 0.0000
# 2 29.4162 17.1933 20.9536 0.0000 3.9974 0.0000
# 3 87.7572 20.9536 150.4876 0.0000 -4.0022 0.0000
# 4 0.0000 0.0000 0.0000 10.8299 0.0000 8.7423
# 5 15.9206 3.9974 -4.0022 0.0000 36.5424 0.0000
# 6 0.0000 0.0000 0.0000 8.7423 0.0000 29.3373
#
#
#
# Elastic Compliance Matrix: (Units=1/GPa)
#
#
# Indices 1 2 3 4 5 6 
#
# 1 0.010083 -0.010972 -0.004450 0.000000 -0.003680 0.000000
# 2 -0.010972 0.084899 -0.005559 0.000000 -0.005116 0.000000
# 3 -0.004450 -0.005559 0.010111 0.000000 0.003654 0.000000
# 4 0.000000 0.000000 0.000000 0.121584 0.000000 -0.036231
# 5 -0.003680 -0.005116 0.003654 0.000000 0.029929 0.000000
# 6 0.000000 0.000000 0.000000 -0.036231 0.000000 0.044883
#
#
# Mechanical properties :
#
#
# Convention : Reuss Voigt Hill
#
# Bulk Modulus (GPa) = 15.84013 68.85117 42.34565
# Shear Modulus (GPa) = 13.71763 29.02725 21.37244
#
# Velocity S-wave (km/s) = 2.70707 3.93788 3.37899
# Velocity P-wave (km/s) = 4.27002 7.58007 6.15185
#
# Compressibility (1/GPa) = 0.06313080
#
# Stress axis : x y z
#
# Youngs Moduli (GPa) = 99.17392 11.77877 98.89881
#
# Poissons Ratio (x) = 0.12924 0.44012
# Poissons Ratio (y) = 1.08818 0.54973
# Poissons Ratio (z) = 0.44134 0.06547
#
# Static dielectric constant tensor:
#      x y z
#    x 3.574490 0.000000 -0.102410 
#    y 0.000000 2.725300 0.000000 
#    z -0.102410 0.000000 3.791280 
# 
# 
# High freq. dielectric constant tensor:
#      x y z
#    x 1.744560 0.000000 0.001950 
#    y 0.000000 1.664120 0.000000 
#    z 0.001950 0.000000 1.740440 
# 
# From -- ./inp_files/38970.got.cif
#   From: 2010.06.25/outbox.cif.g09.slc.cpg/sg11_20_cif.got.tgz:38970.got - 2010.06.27 23:14:04.
