data_PCOD8071825
_publ_section_title
;
Structure prediction by ZEFSAII (Michael W. Deem and Ramdas Pophale) SiO2 
 PCOD8071825
Probable space group: P 21/M
;
_chemical_formula_sum "Si O2"
_cell_formula_units_Z 32
_cell_length_a 12.747792
_cell_length_b 9.453438
_cell_length_c 32.778754
_cell_angle_alpha 90.000000
_cell_angle_beta 26.325659
_cell_angle_gamma 90.000000
_cell_volume 1751.797914
_symmetry_space_group_name_H-M "P 21/M"
_symmetry_group_IT_number 11
_symmetry_cell_setting 'monoclinic'
loop_
_space_group_symop_operation_xyz
x,y,z
-x,1/2+y,-z
-x,-y,-z
x,1/2-y,z
loop_
_atom_site_type_symbol
_atom_site_label
_atom_site_fract_x
_atom_site_fract_y
_atom_site_fract_z
Si Si1 0.374441 0.415944 0.629676
Si Si2 0.269906 0.409130 0.342237
Si Si3 0.987571 0.918487 0.716925
Si Si4 0.568462 0.915413 0.296667
Si Si5 0.975831 0.914256 0.095215
Si Si6 0.126345 0.916913 0.578659
Si Si7 0.464146 0.915037 0.898092
Si Si8 0.699978 0.090903 0.130648
O O1 0.318766 0.250000 0.644660
O O2 0.418795 0.458269 0.660878
O O3 0.603634 0.460597 0.523680
O O4 0.154705 0.505896 0.690942
O O5 0.219504 0.250000 0.375853
O O6 0.345839 0.504812 0.354153
O O7 0.474141 0.407885 0.238027
O O8 0.039551 0.476212 0.400065
O O9 0.020098 0.750000 0.709537
O O10 0.722121 0.972642 0.820900
O O11 0.050031 0.973614 0.649655
O O12 0.522379 0.750000 0.306957
O O13 0.818511 0.962198 0.188717
O O14 0.935479 0.750000 0.100494
O O15 0.903103 0.994729 0.079409
O O16 0.257948 0.945311 0.003787
O O17 0.091455 0.750000 0.590228
O O18 0.501595 0.750000 0.877394
O O19 0.378337 0.978605 0.884855
O O20 0.799644 0.250000 0.090479
#
# Coordination Sequence:
#
# PCOD8071825 Si02
#       8
#     4   4   4   4   4   4   4   4
#     4  10  21  36  51  68  95 132 165 195 238 285
#     4   9  16  29  51  75  97 124 158 196 236 283
#     4  10  19  34  54  74  95 120 160 206 243 281
#     4   9  19  34  48  67 101 135 160 190 232 282
#     4   9  17  29  46  68  95 128 159 187 228 282
#     4   9  17  32  54  75  96 123 155 196 248 293
#     4   9  16  28  48  71  94 122 156 193 237 285
#     4   9  15  26  45  70  98 124 151 189 237 283
#
# _framework density 18.266946000000001
#
# number of rings (size 3 to 8) (size 9 to 14) (size 15 to 20)
#    0.000    2.750    1.250    0.750    0.000    1.000 
#    0.000    3.125    0.000    0.000    0.000    0.000 
#    0.000    0.000    0.000    0.000    0.000    0.000 
#
# Total GULP energy -396628.060914 kJ/mol
# GULP energy per Si atom -12394.626904 kJ/mol
# Density = 1.822537 g / cm^3
# Si number density = 18.266946 Si / 1000 Ang^3
#
#
#
# Elastic Constant Matrix: (Units=GPa)
#
#
# Indices 1 2 3 4 5 6 
#
# 1 84.9843 29.9818 17.9022 0.0000 -12.1736 0.0000
# 2 29.9818 34.2015 12.7523 0.0000 -6.9925 0.0000
# 3 17.9022 12.7523 42.8742 0.0000 -18.2593 0.0000
# 4 0.0000 0.0000 0.0000 16.2193 0.0000 -4.0850
# 5 -12.1736 -6.9925 -18.2593 0.0000 28.7403 0.0000
# 6 0.0000 0.0000 0.0000 -4.0850 0.0000 25.9185
#
#
#
# Elastic Compliance Matrix: (Units=1/GPa)
#
#
# Indices 1 2 3 4 5 6 
#
# 1 0.017544 -0.014084 -0.001962 0.000000 0.002758 0.000000
# 2 -0.014084 0.044318 -0.007197 0.000000 0.000245 0.000000
# 3 -0.001962 -0.007197 0.034526 0.000000 0.019353 0.000000
# 4 0.000000 0.000000 0.000000 0.064204 0.000000 0.010119
# 5 0.002758 0.000245 0.019353 0.000000 0.048318 0.000000
# 6 0.000000 0.000000 0.000000 0.010119 0.000000 0.040177
#
#
# Mechanical properties :
#
#
# Convention : Reuss Voigt Hill
#
# Bulk Modulus (GPa) = 20.03892 31.48138 25.76015
# Shear Modulus (GPa) = 16.01506 20.93719 18.47613
#
# Velocity S-wave (km/s) = 2.96416 3.38920 3.18378
# Velocity P-wave (km/s) = 4.76538 5.70851 5.25813
#
# Compressibility (1/GPa) = 0.04990290
#
# Stress axis : x y z
#
# Youngs Moduli (GPa) = 56.99970 22.56409 28.96380
#
# Poissons Ratio (x) = 0.31779 0.05682
# Poissons Ratio (y) = 0.80279 0.20845
# Poissons Ratio (z) = 0.11182 0.16239
#
# Static dielectric constant tensor:
#      x y z
#    x 3.280940 0.000000 -0.099160 
#    y 0.000000 3.211220 0.000000 
#    z -0.099160 0.000000 3.601070 
# 
# 
# High freq. dielectric constant tensor:
#      x y z
#    x 1.693520 0.000000 -0.007560 
#    y 0.000000 1.673050 0.000000 
#    z -0.007560 0.000000 1.719890 
# 
# From -- ./inp_files/43142.got.cif
#   From: 2010.06.25/outbox.cif.g09.slc.cpg/sg11_22_cif.got.tgz:43142.got - 2010.06.27 23:14:04.
