data_PCOD8071866
_publ_section_title
;
Structure prediction by ZEFSAII (Michael W. Deem and Ramdas Pophale) SiO2 
 PCOD8071866
Probable space group: P 21/M
;
_chemical_formula_sum "Si O2"
_cell_formula_units_Z 28
_cell_length_a 21.352987
_cell_length_b 8.892351
_cell_length_c 22.753462
_cell_angle_alpha 90.000000
_cell_angle_beta 160.056280
_cell_angle_gamma 90.000000
_cell_volume 1473.671036
_symmetry_space_group_name_H-M "P 21/M"
_symmetry_group_IT_number 11
_symmetry_cell_setting 'monoclinic'
loop_
_space_group_symop_operation_xyz
x,y,z
-x,1/2+y,-z
-x,-y,-z
x,1/2-y,z
loop_
_atom_site_type_symbol
_atom_site_label
_atom_site_fract_x
_atom_site_fract_y
_atom_site_fract_z
Si Si1 0.311990 0.071647 0.813924
Si Si2 0.713839 0.071099 0.000543
Si Si3 0.161184 0.571576 0.015714
Si Si4 0.065678 0.573171 0.692055
Si Si5 0.406414 0.426213 0.330325
Si Si6 0.678482 0.573897 0.309674
Si Si7 0.247926 0.426246 0.316069
O O1 0.324882 0.250000 0.830206
O O2 0.276885 0.015748 0.716426
O O3 0.147632 0.012671 0.708827
O O4 0.500000 0.000000 0.000000
O O5 0.711486 0.250000 0.997321
O O6 0.845211 0.014202 0.168963
O O7 0.792526 0.010831 0.008485
O O8 0.509655 0.002910 0.830702
O O9 0.175362 0.750000 0.032716
O O10 0.308767 0.502732 0.189586
O O11 0.957008 0.516259 0.851649
O O12 0.101413 0.750000 0.714647
O O13 0.848461 0.535564 0.502482
O O14 0.415191 0.250000 0.327317
O O15 0.292195 0.467659 0.287901
O O16 0.613097 0.488503 0.517911
O O17 0.644891 0.750000 0.276193
O O18 0.269330 0.250000 0.347138
#
# Coordination Sequence:
#
# PCOD8071866 Si02
#       7
#     4   4   4   4   4   4   4
#     4  11  20  33  54  79 106 134 168 213 263 312
#     4   9  18  33  52  77 104 134 174 217 260 305
#     4  10  20  34  56  81 106 140 183 226 266 316
#     4  10  19  34  55  76 102 134 169 213 262 309
#     4  10  20  34  54  80 112 145 175 219 275 323
#     4   9  18  32  53  79 103 130 169 215 262 311
#     4   9  19  35  55  82 110 139 181 226 267 316
#
# _framework density 19.000170000000001
#
# number of rings (size 3 to 8) (size 9 to 14) (size 15 to 20)
#    0.000    2.286    1.429    1.714    0.000    2.286 
#    0.000    5.714    0.000    1.714    0.000    0.000 
#    0.000    0.000    0.000    0.000    0.000    0.000 
#
# Total GULP energy -347205.847121 kJ/mol
# GULP energy per Si atom -12400.208826 kJ/mol
# Density = 1.895692 g / cm^3
# Si number density = 19.000170 Si / 1000 Ang^3
#
#
#
# Elastic Constant Matrix: (Units=GPa)
#
#
# Indices 1 2 3 4 5 6 
#
# 1 121.5455 22.3109 70.1091 0.0000 -10.3936 0.0000
# 2 22.3109 33.8116 25.6174 0.0000 -3.5944 0.0000
# 3 70.1091 25.6174 147.4381 0.0000 -17.6470 0.0000
# 4 0.0000 0.0000 0.0000 20.5594 0.0000 0.1596
# 5 -10.3936 -3.5944 -17.6470 0.0000 19.6900 0.0000
# 6 0.0000 0.0000 0.0000 0.1596 0.0000 21.9467
#
#
#
# Elastic Compliance Matrix: (Units=1/GPa)
#
#
# Indices 1 2 3 4 5 6 
#
# 1 0.011831 -0.004060 -0.004774 0.000000 0.001226 0.000000
# 2 -0.004060 0.035471 -0.004160 0.000000 0.000604 0.000000
# 3 -0.004774 -0.004160 0.010510 0.000000 0.006140 0.000000
# 4 0.000000 0.000000 0.000000 0.048642 0.000000 -0.000354
# 5 0.001226 0.000604 0.006140 0.000000 0.057048 0.000000
# 6 0.000000 0.000000 0.000000 -0.000354 0.000000 0.045568
#
#
# Mechanical properties :
#
#
# Convention : Reuss Voigt Hill
#
# Bulk Modulus (GPa) = 31.42240 59.87444 45.64842
# Shear Modulus (GPa) = 20.35291 24.75639 22.55465
#
# Velocity S-wave (km/s) = 3.27646 3.61356 3.44914
# Velocity P-wave (km/s) = 5.55765 6.99939 6.31977
#
# Compressibility (1/GPa) = 0.03182443
#
# Stress axis : x y z
#
# Youngs Moduli (GPa) = 84.52433 28.19228 95.14464
#
# Poissons Ratio (x) = 0.11445 0.45419
# Poissons Ratio (y) = 0.34314 0.39584
# Poissons Ratio (z) = 0.40350 0.11729
#
# Static dielectric constant tensor:
#      x y z
#    x 3.564990 0.000000 0.000500 
#    y 0.000000 3.191970 0.000000 
#    z 0.000500 0.000000 3.619780 
# 
# 
# High freq. dielectric constant tensor:
#      x y z
#    x 1.736780 0.000000 -0.001970 
#    y 0.000000 1.704420 0.000000 
#    z -0.001970 0.000000 1.755650 
# 
# From -- ./inp_files/69826.got.cif
#   From: 2010.06.25/outbox.cif.g09.slc.cpg/sg11_35_cif.got.tgz:69826.got - 2010.06.27 23:14:04.
