data_PCOD8071022
_publ_section_title
;
Structure prediction by ZEFSAII (Michael W. Deem and Ramdas Pophale) SiO2 
 PCOD8071022
Probable space group: P 21/M
;
_chemical_formula_sum "Si O2"
_cell_formula_units_Z 32
_cell_length_a 11.439338
_cell_length_b 8.991653
_cell_length_c 22.718712
_cell_angle_alpha 90.000000
_cell_angle_beta 48.155862
_cell_angle_gamma 90.000000
_cell_volume 1740.838327
_symmetry_space_group_name_H-M "P 21/M"
_symmetry_group_IT_number 11
_symmetry_cell_setting 'monoclinic'
loop_
_space_group_symop_operation_xyz
x,y,z
-x,1/2+y,-z
-x,-y,-z
x,1/2-y,z
loop_
_atom_site_type_symbol
_atom_site_label
_atom_site_fract_x
_atom_site_fract_y
_atom_site_fract_z
Si Si1 0.137335 0.426108 0.280839
Si Si2 0.766048 0.076040 0.095092
Si Si3 0.406865 0.074176 0.395141
Si Si4 0.302426 0.081011 0.647164
Si Si5 0.434581 0.426214 0.255002
Si Si6 0.927021 0.576469 0.936099
Si Si7 0.159089 0.422821 0.571458
Si Si8 0.959981 0.075876 0.803845
O O1 0.127425 0.250000 0.276858
O O2 0.298889 0.478651 0.256567
O O3 0.132707 0.501147 0.218695
O O4 0.996506 0.479189 0.370235
O O5 0.760990 0.250000 0.080846
O O6 0.601792 0.015803 0.175507
O O7 0.897843 0.042954 0.099726
O O8 0.800241 0.984783 0.024642
O O9 0.410587 0.250000 0.392470
O O10 0.402253 0.006781 0.330882
O O11 0.251403 0.022198 0.482411
O O12 0.562872 0.026137 0.376107
O O13 0.354770 0.250000 0.640648
O O14 0.274035 0.050828 0.587938
O O15 0.144609 0.043549 0.736006
O O16 0.438804 0.250000 0.258216
O O17 0.898300 0.750000 0.936242
O O18 0.897666 0.493172 0.884962
O O19 0.109452 0.250000 0.585181
O O20 0.923726 0.250000 0.814530
#
# Coordination Sequence:
#
# PCOD8071022 Si02
#       8
#     4   4   4   4   4   4   4   4
#     4  10  20  35  54  73  97 132 176 219 251 292
#     4   9  18  34  54  77 110 142 164 200 255 304
#     4  10  19  32  52  75 101 135 171 208 255 310
#     4   9  18  31  47  73 106 133 163 207 254 302
#     4   9  19  35  53  74 100 133 173 213 254 298
#     4  10  19  32  55  85 109 132 168 205 244 303
#     4   9  19  34  50  72 104 137 168 208 259 306
#     4  10  20  35  54  76 104 136 169 207 257 307
#
# _framework density 18.381947
#
# number of rings (size 3 to 8) (size 9 to 14) (size 15 to 20)
#    0.000    2.500    0.000    3.000    0.000    5.000 
#    0.000    3.750    0.000    0.000    0.000    0.000 
#    0.000    0.000    0.000    0.000    0.000    0.000 
#
# Total GULP energy -396855.811182 kJ/mol
# GULP energy per Si atom -12401.744099 kJ/mol
# Density = 1.834011 g / cm^3
# Si number density = 18.381947 Si / 1000 Ang^3
#
#
#
# Elastic Constant Matrix: (Units=GPa)
#
#
# Indices 1 2 3 4 5 6 
#
# 1 97.8586 33.8998 73.7561 0.0000 -0.1569 0.0000
# 2 33.8998 55.1849 46.5323 0.0000 7.1233 0.0000
# 3 73.7561 46.5323 152.9588 0.0000 15.2950 0.0000
# 4 0.0000 0.0000 0.0000 26.7865 0.0000 -0.9138
# 5 -0.1569 7.1233 15.2950 0.0000 16.9280 0.0000
# 6 0.0000 0.0000 0.0000 -0.9138 0.0000 20.4595
#
#
#
# Elastic Compliance Matrix: (Units=1/GPa)
#
#
# Indices 1 2 3 4 5 6 
#
# 1 0.018295 -0.005705 -0.008073 0.000000 0.009864 0.000000
# 2 -0.005705 0.026390 -0.004575 0.000000 -0.007024 0.000000
# 3 -0.008073 -0.004575 0.012793 0.000000 -0.009709 0.000000
# 4 0.000000 0.000000 0.000000 0.037389 0.000000 0.001670
# 5 0.009864 -0.007024 -0.009709 0.000000 0.070893 0.000000
# 6 0.000000 0.000000 0.000000 0.001670 0.000000 0.048952
#
#
# Mechanical properties :
#
#
# Convention : Reuss Voigt Hill
#
# Bulk Modulus (GPa) = 48.14001 68.26431 58.20216
# Shear Modulus (GPa) = 19.35426 22.95574 21.15500
#
# Velocity S-wave (km/s) = 3.24835 3.53770 3.39611
# Velocity P-wave (km/s) = 6.34938 7.34196 6.86364
#
# Compressibility (1/GPa) = 0.02077274
#
# Stress axis : x y z
#
# Youngs Moduli (GPa) = 54.65850 37.89360 78.16836
#
# Poissons Ratio (x) = 0.21618 0.63104
# Poissons Ratio (y) = 0.31183 0.35761
# Poissons Ratio (z) = 0.44125 0.17336
#
# Static dielectric constant tensor:
#      x y z
#    x 3.277490 0.000000 0.065290 
#    y 0.000000 3.232490 0.000000 
#    z 0.065290 0.000000 3.604880 
# 
# 
# High freq. dielectric constant tensor:
#      x y z
#    x 1.701020 0.000000 0.006840 
#    y 0.000000 1.702750 0.000000 
#    z 0.006840 0.000000 1.721630 
# 
# From -- ./inp_files/64347.got.cif
#   From: 2010.06.25/outbox.cif.g09.slc.cpg/sg11_33_cif.got.tgz:64347.got - 2010.06.27 23:14:04.
