data_PCOD8071365
_publ_section_title
;
Structure prediction by ZEFSAII (Michael W. Deem and Ramdas Pophale) SiO2 
 PCOD8071365
Probable space group: P 21/M
;
_chemical_formula_sum "Si O2"
_cell_formula_units_Z 28
_cell_length_a 11.430127
_cell_length_b 8.846821
_cell_length_c 16.304134
_cell_angle_alpha 90.000000
_cell_angle_beta 61.101494
_cell_angle_gamma 90.000000
_cell_volume 1443.380510
_symmetry_space_group_name_H-M "P 21/M"
_symmetry_group_IT_number 11
_symmetry_cell_setting 'monoclinic'
loop_
_space_group_symop_operation_xyz
x,y,z
-x,1/2+y,-z
-x,-y,-z
x,1/2-y,z
loop_
_atom_site_type_symbol
_atom_site_label
_atom_site_fract_x
_atom_site_fract_y
_atom_site_fract_z
Si Si1 0.888097 0.925091 0.849067
Si Si2 0.404591 0.429446 0.790156
Si Si3 0.179893 0.429057 0.572762
Si Si4 0.679114 0.429631 0.617293
Si Si5 0.161177 0.428403 0.765710
Si Si6 0.612133 0.570434 0.018816
Si Si7 0.096917 0.427092 0.346298
O O1 0.910218 0.750000 0.858895
O O2 0.757095 0.985883 0.939629
O O3 0.869659 0.959050 0.759543
O O4 0.017478 0.008803 0.841454
O O5 0.398261 0.250000 0.792754
O O6 0.535471 0.485343 0.697942
O O7 0.274191 0.494506 0.787915
O O8 0.408177 0.489936 0.881929
O O9 0.178496 0.250000 0.562824
O O10 0.301259 0.500915 0.479997
O O11 0.197736 0.479318 0.660909
O O12 0.043246 0.496748 0.582274
O O13 0.689100 0.250000 0.610365
O O14 0.788732 0.494128 0.641135
O O15 0.153970 0.250000 0.773824
O O16 0.600848 0.750000 0.016719
O O17 0.500000 0.500000 0.000000
O O18 0.090381 0.250000 0.369039
#
# Coordination Sequence:
#
# PCOD8071365 Si02
#       7
#     4   4   4   4   4   4   4
#     4   9  19  34  54  80 108 137 168 213 264 301
#     4   9  20  37  55  76 105 140 174 212 256 305
#     4  10  20  34  53  76 102 134 174 217 259 307
#     4  11  21  33  51  75 104 138 175 214 260 308
#     4   9  19  37  57  76 101 137 179 213 250 309
#     4  10  20  36  57  81 110 139 170 209 256 308
#     4  10  19  33  52  76 107 137 170 212 259 310
#
# _framework density 19.398904000000002
#
# number of rings (size 3 to 8) (size 9 to 14) (size 15 to 20)
#    0.000    2.286    0.000    2.571    0.000    2.857 
#    0.000    2.857    0.000    0.000    0.000    0.000 
#    0.000    0.000    0.000    0.000    0.000    0.000 
#
# Total GULP energy -347265.583382 kJ/mol
# GULP energy per Si atom -12402.342264 kJ/mol
# Density = 1.935475 g / cm^3
# Si number density = 19.398904 Si / 1000 Ang^3
#
#
#
# Elastic Constant Matrix: (Units=GPa)
#
#
# Indices 1 2 3 4 5 6 
#
# 1 165.3638 36.3285 88.4848 0.0000 -0.7970 0.0000
# 2 36.3285 51.9555 36.4093 0.0000 -2.8115 0.0000
# 3 88.4848 36.4093 145.2964 0.0000 -23.2293 0.0000
# 4 0.0000 0.0000 0.0000 22.9100 0.0000 -3.1714
# 5 -0.7970 -2.8115 -23.2293 0.0000 30.8671 0.0000
# 6 0.0000 0.0000 0.0000 -3.1714 0.0000 26.8803
#
#
#
# Elastic Compliance Matrix: (Units=1/GPa)
#
#
# Indices 1 2 3 4 5 6 
#
# 1 0.009888 -0.002949 -0.006008 0.000000 -0.004534 0.000000
# 2 -0.002949 0.024410 -0.004521 0.000000 -0.001255 0.000000
# 3 -0.006008 -0.004521 0.013168 0.000000 0.009343 0.000000
# 4 0.000000 0.000000 0.000000 0.044374 0.000000 0.005235
# 5 -0.004534 -0.001255 0.009343 0.000000 0.039196 0.000000
# 6 0.000000 0.000000 0.000000 0.005235 0.000000 0.037820
#
#
# Mechanical properties :
#
#
# Convention : Reuss Voigt Hill
#
# Bulk Modulus (GPa) = 48.75887 76.11790 62.43838
# Shear Modulus (GPa) = 24.67324 29.55766 27.11545
#
# Velocity S-wave (km/s) = 3.57022 3.90767 3.74275
# Velocity P-wave (km/s) = 6.49498 7.72549 7.13681
#
# Compressibility (1/GPa) = 0.02050909
#
# Stress axis : x y z
#
# Youngs Moduli (GPa) = 101.13303 40.96677 75.94310
#
# Poissons Ratio (x) = 0.12082 0.45624
# Poissons Ratio (y) = 0.29827 0.34337
# Poissons Ratio (z) = 0.60757 0.18523
#
# Static dielectric constant tensor:
#      x y z
#    x 3.642910 0.000000 -0.088000 
#    y 0.000000 3.386530 0.000000 
#    z -0.088000 0.000000 3.903450 
# 
# 
# High freq. dielectric constant tensor:
#      x y z
#    x 1.756450 0.000000 -0.002950 
#    y 0.000000 1.739740 0.000000 
#    z -0.002950 0.000000 1.766830 
# 
# From -- ./inp_files/49183.got.cif
#   From: 2010.06.25/outbox.cif.g09.slc.cpg/sg11_25_cif.got.tgz:49183.got - 2010.06.27 23:14:04.
