data_PCOD8071905
_publ_section_title
;
Structure prediction by ZEFSAII (Michael W. Deem and Ramdas Pophale) SiO2 
 PCOD8071905
Probable space group: P 21/M
;
_chemical_formula_sum "Si O2"
_cell_formula_units_Z 32
_cell_length_a 12.667446
_cell_length_b 9.316071
_cell_length_c 31.474069
_cell_angle_alpha 90.000000
_cell_angle_beta 27.421998
_cell_angle_gamma 90.000000
_cell_volume 1710.577211
_symmetry_space_group_name_H-M "P 21/M"
_symmetry_group_IT_number 11
_symmetry_cell_setting 'monoclinic'
loop_
_space_group_symop_operation_xyz
x,y,z
-x,1/2+y,-z
-x,-y,-z
x,1/2-y,z
loop_
_atom_site_type_symbol
_atom_site_label
_atom_site_fract_x
_atom_site_fract_y
_atom_site_fract_z
Si Si1 0.074329 0.920041 0.213822
Si Si2 0.465476 0.914834 0.928370
Si Si3 0.118867 0.083719 0.420138
Si Si4 0.650178 0.412832 0.215584
Si Si5 0.501065 0.086491 0.178328
Si Si6 0.281346 0.409226 0.589856
Si Si7 0.082026 0.589398 0.352403
Si Si8 0.979761 0.418863 0.863950
O O1 0.109211 0.750000 0.206536
O O2 0.868272 0.975002 0.317827
O O3 0.008489 0.963949 0.189450
O O4 0.310176 0.993020 0.143112
O O5 0.523925 0.750000 0.918356
O O6 0.377333 0.928279 0.910882
O O7 0.261233 0.973837 0.030834
O O8 0.050203 0.250000 0.446631
O O9 0.391741 0.062013 0.323862
O O10 0.016709 0.014290 0.414246
O O11 0.000000 0.000000 0.500000
O O12 0.728335 0.250000 0.195663
O O13 0.666952 0.450732 0.159002
O O14 0.811205 0.513989 0.185225
O O15 0.409729 0.250000 0.218117
O O16 0.291526 0.976680 0.251288
O O17 0.500000 0.500000 0.500000
O O18 0.362711 0.250000 0.573900
O O19 0.134685 0.402728 0.599987
O O20 0.147027 0.750000 0.345069
O O21 0.000372 0.250000 0.862573
#
# Coordination Sequence:
#
# PCOD8071905 Si02
#       8
#     4   4   4   4   4   4   4   4
#     4  10  21  39  57  79 113 148 187 234 283 337
#     4  10  20  35  58  86 111 144 191 235 282 340
#     4  10  21  37  58  84 112 145 187 233 282 338
#     4   9  20  37  54  77 112 148 184 229 279 332
#     4   9  18  34  56  80 109 144 184 232 281 333
#     4  10  22  37  55  81 110 143 186 234 285 341
#     4  10  19  34  55  80 109 142 185 232 278 333
#     4  10  22  37  55  82 117 151 186 233 283 339
#
# _framework density 18.707136999999999
#
# number of rings (size 3 to 8) (size 9 to 14) (size 15 to 20)
#    0.000    2.250    1.250    1.875    0.000    6.500 
#    0.000    2.500    0.000    0.000    0.000    0.000 
#    0.000    0.000    0.000    0.000    0.000    0.000 
#
# Total GULP energy -396745.228868 kJ/mol
# GULP energy per Si atom -12398.288402 kJ/mol
# Density = 1.866456 g / cm^3
# Si number density = 18.707137 Si / 1000 Ang^3
#
#
#
# Elastic Constant Matrix: (Units=GPa)
#
#
# Indices 1 2 3 4 5 6 
#
# 1 119.6722 49.0887 64.8624 0.0000 9.3799 0.0000
# 2 49.0887 83.1108 51.1206 0.0000 3.6971 0.0000
# 3 64.8624 51.1206 123.9559 0.0000 17.9086 0.0000
# 4 0.0000 0.0000 0.0000 31.4577 0.0000 -4.8061
# 5 9.3799 3.6971 17.9086 0.0000 26.3624 0.0000
# 6 0.0000 0.0000 0.0000 -4.8061 0.0000 32.7879
#
#
#
# Elastic Compliance Matrix: (Units=1/GPa)
#
#
# Indices 1 2 3 4 5 6 
#
# 1 0.012885 -0.004684 -0.004705 0.000000 -0.000731 0.000000
# 2 -0.004684 0.017974 -0.005365 0.000000 0.002790 0.000000
# 3 -0.004705 -0.005365 0.013740 0.000000 -0.006907 0.000000
# 4 0.000000 0.000000 0.000000 0.032517 0.000000 0.004766
# 5 -0.000731 0.002790 -0.006907 0.000000 0.042494 0.000000
# 6 0.000000 0.000000 0.000000 0.004766 0.000000 0.031198
#
#
# Mechanical properties :
#
#
# Convention : Reuss Voigt Hill
#
# Bulk Modulus (GPa) = 66.26230 72.98695 69.62463
# Shear Modulus (GPa) = 26.97655 28.89940 27.93798
#
# Velocity S-wave (km/s) = 3.80155 3.93470 3.86870
# Velocity P-wave (km/s) = 7.40046 7.72934 7.56669
#
# Compressibility (1/GPa) = 0.01509154
#
# Stress axis : x y z
#
# Youngs Moduli (GPa) = 77.61063 55.63446 72.78083
#
# Poissons Ratio (x) = 0.26058 0.34243
# Poissons Ratio (y) = 0.36352 0.39047
# Poissons Ratio (z) = 0.36515 0.29848
#
# Static dielectric constant tensor:
#      x y z
#    x 3.510260 0.000000 0.320850 
#    y 0.000000 3.565940 0.000000 
#    z 0.320850 0.000000 3.487370 
# 
# 
# High freq. dielectric constant tensor:
#      x y z
#    x 1.731010 0.000000 0.017200 
#    y 0.000000 1.728270 0.000000 
#    z 0.017200 0.000000 1.719760 
# 
# From -- ./inp_files/73116.got.cif
#   From: 2010.06.25/outbox.cif.g09.slc.cpg/sg11_37_cif.got.tgz:73116.got - 2010.06.27 23:14:04.
