data_PCOD8071075
_publ_section_title
;
Structure prediction by ZEFSAII (Michael W. Deem and Ramdas Pophale) SiO2 
 PCOD8071075
Probable space group: P 21/M
;
_chemical_formula_sum "Si O2"
_cell_formula_units_Z 28
_cell_length_a 16.653558
_cell_length_b 8.691453
_cell_length_c 20.186015
_cell_angle_alpha 90.000000
_cell_angle_beta 144.187010
_cell_angle_gamma 90.000000
_cell_volume 1709.664697
_symmetry_space_group_name_H-M "P 21/M"
_symmetry_group_IT_number 11
_symmetry_cell_setting 'monoclinic'
loop_
_space_group_symop_operation_xyz
x,y,z
-x,1/2+y,-z
-x,-y,-z
x,1/2-y,z
loop_
_atom_site_type_symbol
_atom_site_label
_atom_site_fract_x
_atom_site_fract_y
_atom_site_fract_z
Si Si1 0.146748 0.568547 0.871431
Si Si2 0.640191 0.574753 0.901162
Si Si3 0.118047 0.928104 0.262512
Si Si4 0.577678 0.428432 0.490131
Si Si5 0.875804 0.568773 0.875851
Si Si6 0.391907 0.424159 0.975817
Si Si7 0.591966 0.068449 0.736120
O O1 0.128464 0.750000 0.858526
O O2 0.245703 0.514738 0.876773
O O3 0.999835 0.485973 0.766132
O O4 0.214912 0.511635 0.986722
O O5 0.671011 0.750000 0.900070
O O6 0.560025 0.486105 0.789650
O O7 0.551060 0.570845 0.909897
O O8 0.098093 0.750000 0.230553
O O9 0.260847 0.955441 0.395135
O O10 0.109232 0.029377 0.190946
O O11 0.500000 0.500000 0.500000
O O12 0.538766 0.250000 0.460509
O O13 0.531746 0.510720 0.392212
O O14 0.874567 0.750000 0.884253
O O15 0.734757 0.501062 0.808316
O O16 0.000000 0.500000 0.000000
O O17 0.365945 0.250000 0.935288
O O18 0.500000 0.500000 0.000000
O O19 0.600525 0.250000 0.737862
#
# Coordination Sequence:
#
# PCOD8071075 Si02
#       7
#     4   4   4   4   4   4   4
#     4  10  19  32  52  78 109 139 171 210 259 312
#     4   9  19  34  52  76 108 139 171 211 258 309
#     4  11  22  37  53  73 101 135 178 222 265 310
#     4  11  23  38  56  73  98 136 183 230 269 311
#     4  12  24  36  52  71  99 135 175 216 266 316
#     4   9  18  32  54  81 112 142 170 206 254 316
#     4  12  23  36  53  74 102 136 179 223 265 312
#
# _framework density 16.377479000000001
#
# number of rings (size 3 to 8) (size 9 to 14) (size 15 to 20)
#    0.857    0.571    1.429    6.000    0.000    1.714 
#    0.000    0.000    0.000    0.000    0.000    1.000 
#    0.000    0.000    0.000    0.000    0.000    0.000 
#
# Total GULP energy -347124.348466 kJ/mol
# GULP energy per Si atom -12397.298160 kJ/mol
# Density = 1.634020 g / cm^3
# Si number density = 16.377479 Si / 1000 Ang^3
#
#
#
# Elastic Constant Matrix: (Units=GPa)
#
#
# Indices 1 2 3 4 5 6 
#
# 1 93.9948 43.9858 43.6877 0.0000 10.8011 0.0000
# 2 43.9858 144.1056 57.7796 0.0000 6.4098 0.0000
# 3 43.6877 57.7796 92.8312 0.0000 4.2966 0.0000
# 4 0.0000 0.0000 0.0000 27.8115 0.0000 0.2522
# 5 10.8011 6.4098 4.2966 0.0000 12.0482 0.0000
# 6 0.0000 0.0000 0.0000 0.2522 0.0000 30.5557
#
#
#
# Elastic Compliance Matrix: (Units=1/GPa)
#
#
# Indices 1 2 3 4 5 6 
#
# 1 0.015363 -0.002015 -0.005479 0.000000 -0.010747 0.000000
# 2 -0.002015 0.009613 -0.004964 0.000000 -0.001538 0.000000
# 3 -0.005479 -0.004964 0.016361 0.000000 0.001718 0.000000
# 4 0.000000 0.000000 0.000000 0.035959 0.000000 -0.000297
# 5 -0.010747 -0.001538 0.001718 0.000000 0.092841 0.000000
# 6 0.000000 0.000000 0.000000 -0.000297 0.000000 0.032730
#
#
# Mechanical properties :
#
#
# Convention : Reuss Voigt Hill
#
# Bulk Modulus (GPa) = 60.89326 69.09311 64.99318
# Shear Modulus (GPa) = 21.43579 26.44832 23.94205
#
# Velocity S-wave (km/s) = 3.62174 4.02297 3.82761
# Velocity P-wave (km/s) = 7.39940 7.99115 7.70096
#
# Compressibility (1/GPa) = 0.01642218
#
# Stress axis : x y z
#
# Youngs Moduli (GPa) = 65.09120 104.02560 61.12173
#
# Poissons Ratio (x) = 0.20956 0.33487
# Poissons Ratio (y) = 0.13113 0.30341
# Poissons Ratio (z) = 0.35662 0.51639
#
# Static dielectric constant tensor:
#      x y z
#    x 2.947820 0.000000 0.271180 
#    y 0.000000 3.488110 0.000000 
#    z 0.271180 0.000000 1.148490 
# 
# 
# High freq. dielectric constant tensor:
#      x y z
#    x 1.610020 0.000000 0.003730 
#    y 0.000000 1.656290 0.000000 
#    z 0.003730 0.000000 1.612100 
# 
# From -- ./inp_files/66023.got.cif
#   From: 2010.06.25/outbox.cif.g09.slc.cpg/sg11_34_cif.got.tgz:66023.got - 2010.06.27 23:14:04.
