data_PCOD8071949
_publ_section_title
;
Structure prediction by ZEFSAII (Michael W. Deem and Ramdas Pophale) SiO2 
 PCOD8071949
Probable space group: P 21/M
;
_chemical_formula_sum "Si O2"
_cell_formula_units_Z 20
_cell_length_a 8.102592
_cell_length_b 17.225026
_cell_length_c 6.980072
_cell_angle_alpha 90.000000
_cell_angle_beta 113.838728
_cell_angle_gamma 90.000000
_cell_volume 891.078816
_symmetry_space_group_name_H-M "P 21/M"
_symmetry_group_IT_number 11
_symmetry_cell_setting 'monoclinic'
loop_
_space_group_symop_operation_xyz
x,y,z
-x,1/2+y,-z
-x,-y,-z
x,1/2-y,z
loop_
_atom_site_type_symbol
_atom_site_label
_atom_site_fract_x
_atom_site_fract_y
_atom_site_fract_z
Si Si1 0.134812 0.161170 0.077720
Si Si2 0.172674 0.662404 0.382061
Si Si3 0.141345 0.595029 0.773662
Si Si4 0.671457 0.555030 0.088992
Si Si5 0.440646 0.840231 0.188741
O O1 0.195610 0.250000 0.147209
O O2 0.047005 0.125014 0.227210
O O3 0.303665 0.107612 0.091586
O O4 0.998104 0.157214 0.836522
O O5 0.199110 0.750000 0.467209
O O6 0.143274 0.607804 0.548229
O O7 0.349572 0.635061 0.346668
O O8 0.155945 0.501328 0.804831
O O9 0.305000 0.641246 0.949928
O O10 0.629351 0.613464 0.247183
O O11 0.500000 0.500000 0.000000
O O12 0.486507 0.750000 0.208293
#
# Coordination Sequence:
#
# PCOD8071949 Si02
#       5
#     4   4   4   4   4
#     4  10  20  36  57  78 103 137 177 218 259 308
#     4   9  18  33  55  79 101 135 182 220 256 306
#     4  10  19  34  56  80 106 135 175 223 265 303
#     4  10  21  35  53  78 110 142 172 212 265 317
#     4   9  18  34  54  76 107 144 178 214 258 310
#
# _framework density 22.444704000000002
#
# number of rings (size 3 to 8) (size 9 to 14) (size 15 to 20)
#    0.000    2.400    0.000    4.200    0.000    1.600 
#    0.000    4.000    0.000    7.200    0.000    0.000 
#    0.000    0.000    0.000    0.000    0.000    0.000 
#
# Total GULP energy -247891.632986 kJ/mol
# GULP energy per Si atom -12394.581649 kJ/mol
# Density = 2.239362 g / cm^3
# Si number density = 22.444704 Si / 1000 Ang^3
#
#
#
# Elastic Constant Matrix: (Units=GPa)
#
#
# Indices 1 2 3 4 5 6 
#
# 1 86.2555 70.4652 27.3574 0.0000 -46.4070 0.0000
# 2 70.4652 139.7579 35.5463 0.0000 -38.8864 0.0000
# 3 27.3574 35.5463 90.5155 0.0000 -36.2396 0.0000
# 4 0.0000 0.0000 0.0000 20.6447 0.0000 -19.3513
# 5 -46.4070 -38.8864 -36.2396 0.0000 38.7711 0.0000
# 6 0.0000 0.0000 0.0000 -19.3513 0.0000 48.8048
#
#
#
# Elastic Compliance Matrix: (Units=1/GPa)
#
#
# Indices 1 2 3 4 5 6 
#
# 1 0.048530 -0.011414 0.013564 0.000000 0.059318 0.000000
# 2 -0.011414 0.012610 -0.003050 0.000000 -0.003864 0.000000
# 3 0.013564 -0.003050 0.021448 0.000000 0.033224 0.000000
# 4 0.000000 0.000000 0.000000 0.077090 0.000000 0.030566
# 5 0.059318 -0.003864 0.033224 0.000000 0.123972 0.000000
# 6 0.000000 0.000000 0.000000 0.030566 0.000000 0.032609
#
#
# Mechanical properties :
#
#
# Convention : Reuss Voigt Hill
#
# Bulk Modulus (GPa) = 12.37788 64.80740 38.59264
# Shear Modulus (GPa) = 14.49324 33.85480 24.17402
#
# Velocity S-wave (km/s) = 2.54388 3.88798 3.28540
# Velocity P-wave (km/s) = 3.76235 7.00658 5.62349
#
# Compressibility (1/GPa) = 0.08078929
#
# Stress axis : x y z
#
# Youngs Moduli (GPa) = 20.60582 79.29965 46.62512
#
# Poissons Ratio (x) = 0.90509 -0.63241
# Poissons Ratio (y) = 0.23519 0.14219
# Poissons Ratio (z) = -0.27949 0.24183
#
# Static dielectric constant tensor:
#      x y z
#    x 4.303450 0.000000 -0.479430 
#    y 0.000000 4.672390 0.000000 
#    z -0.479430 0.000000 3.673320 
# 
# 
# High freq. dielectric constant tensor:
#      x y z
#    x 1.876560 0.000000 -0.038300 
#    y 0.000000 1.902380 0.000000 
#    z -0.038300 0.000000 1.852700 
# 
# From -- ./inp_files/1938.got.cif
#   From: 2010.06.25/outbox.cif.g09.slc.cpg/sg11_1_cif.got.tgz:1938.got - 2010.06.27 23:14:04.
