data_PCOD8071388
_publ_section_title
;
Structure prediction by ZEFSAII (Michael W. Deem and Ramdas Pophale) SiO2 
 PCOD8071388
Probable space group: P 21/M
;
_chemical_formula_sum "Si O2"
_cell_formula_units_Z 24
_cell_length_a 11.372079
_cell_length_b 8.739491
_cell_length_c 26.315684
_cell_angle_alpha 90.000000
_cell_angle_beta 29.028897
_cell_angle_gamma 90.000000
_cell_volume 1269.132059
_symmetry_space_group_name_H-M "P 21/M"
_symmetry_group_IT_number 11
_symmetry_cell_setting 'monoclinic'
loop_
_space_group_symop_operation_xyz
x,y,z
-x,1/2+y,-z
-x,-y,-z
x,1/2-y,z
loop_
_atom_site_type_symbol
_atom_site_label
_atom_site_fract_x
_atom_site_fract_y
_atom_site_fract_z
Si Si1 0.855246 0.430679 0.887219
Si Si2 0.735101 0.581822 0.393364
Si Si3 0.860284 0.571424 0.701959
Si Si4 0.896598 0.929924 0.488174
Si Si5 0.617760 0.917595 0.323056
Si Si6 0.427343 0.929320 0.106804
O O1 0.818425 0.250000 0.908799
O O2 0.770537 0.475856 0.861818
O O3 0.133828 0.479390 0.796816
O O4 0.693332 0.521541 0.988689
O O5 0.500000 0.500000 0.500000
O O6 0.770318 0.750000 0.406321
O O7 0.721121 0.608302 0.339645
O O8 0.944889 0.465788 0.328605
O O9 0.840690 0.750000 0.697826
O O10 0.617021 0.509643 0.821198
O O11 0.938703 0.490318 0.620142
O O12 0.920202 0.750000 0.481515
O O13 0.611183 0.970352 0.591640
O O14 0.000000 0.000000 0.500000
O O15 0.538423 0.750000 0.331451
O O16 0.415462 0.750000 0.121198
#
# Coordination Sequence:
#
# PCOD8071388 Si02
#       6
#     4   4   4   4   4   4
#     4   9  18  33  52  80 118 156 189 227 275 331
#     4  11  20  32  51  81 116 150 185 227 280 341
#     4  12  23  36  56  82 116 153 191 233 283 339
#     4  12  26  43  62  83 110 145 192 240 291 343
#     4  10  20  36  57  82 117 152 188 231 281 338
#     4  10  19  33  52  81 118 155 193 230 275 332
#
# _framework density 18.910563
#
# number of rings (size 3 to 8) (size 9 to 14) (size 15 to 20)
#    0.000    1.333    3.333    4.000    0.000    2.000 
#    0.000    0.000    0.000    1.000    0.000    0.000 
#    0.000    0.000    0.000    0.000    0.000    0.000 
#
# Total GULP energy -297352.706483 kJ/mol
# GULP energy per Si atom -12389.696103 kJ/mol
# Density = 1.886752 g / cm^3
# Si number density = 18.910563 Si / 1000 Ang^3
#
#
#
# Elastic Constant Matrix: (Units=GPa)
#
#
# Indices 1 2 3 4 5 6 
#
# 1 69.0147 34.1590 44.2394 0.0000 12.9432 0.0000
# 2 34.1590 125.3810 62.2963 0.0000 13.6744 0.0000
# 3 44.2394 62.2963 138.9296 0.0000 16.2166 0.0000
# 4 0.0000 0.0000 0.0000 30.0611 0.0000 0.7278
# 5 12.9432 13.6744 16.2166 0.0000 10.7788 0.0000
# 6 0.0000 0.0000 0.0000 0.7278 0.0000 24.9722
#
#
#
# Elastic Compliance Matrix: (Units=1/GPa)
#
#
# Indices 1 2 3 4 5 6 
#
# 1 0.021142 -0.001985 -0.003849 0.000000 -0.017079 0.000000
# 2 -0.001985 0.010958 -0.003563 0.000000 -0.006158 0.000000
# 3 -0.003849 -0.003563 0.010861 0.000000 -0.007199 0.000000
# 4 0.000000 0.000000 0.000000 0.033289 0.000000 -0.000970
# 5 -0.017079 -0.006158 -0.007199 0.000000 0.131927 0.000000
# 6 0.000000 0.000000 0.000000 -0.000970 0.000000 0.040073
#
#
# Mechanical properties :
#
#
# Convention : Reuss Voigt Hill
#
# Bulk Modulus (GPa) = 41.37566 68.30165 54.83865
# Shear Modulus (GPa) = 18.17520 26.00447 22.08983
#
# Velocity S-wave (km/s) = 3.10355 3.71230 3.42149
# Velocity P-wave (km/s) = 5.89659 7.38725 6.68361
#
# Compressibility (1/GPa) = 0.02416880
#
# Stress axis : x y z
#
# Youngs Moduli (GPa) = 47.29852 91.25462 92.06973
#
# Poissons Ratio (x) = 0.18115 0.35435
# Poissons Ratio (y) = 0.09389 0.32803
# Poissons Ratio (z) = 0.18204 0.32512
#
# Static dielectric constant tensor:
#      x y z
#    x 3.198660 0.000000 -0.027160 
#    y 0.000000 3.554020 0.000000 
#    z -0.027160 0.000000 3.739560 
# 
# 
# High freq. dielectric constant tensor:
#      x y z
#    x 1.685750 0.000000 0.003460 
#    y 0.000000 1.742290 0.000000 
#    z 0.003460 0.000000 1.755180 
# 
# From -- ./inp_files/44440.got.cif
#   From: 2010.06.25/outbox.cif.g09.slc.cpg/sg11_23_cif.got.tgz:44440.got - 2010.06.27 23:14:04.
