data_PCOD8071123
_publ_section_title
;
Structure prediction by ZEFSAII (Michael W. Deem and Ramdas Pophale) SiO2 
 PCOD8071123
Probable space group: P 21/M
;
_chemical_formula_sum "Si O2"
_cell_formula_units_Z 32
_cell_length_a 13.783691
_cell_length_b 8.963061
_cell_length_c 13.043364
_cell_angle_alpha 90.000000
_cell_angle_beta 85.869170
_cell_angle_gamma 90.000000
_cell_volume 1607.243960
_symmetry_space_group_name_H-M "P 21/M"
_symmetry_group_IT_number 11
_symmetry_cell_setting 'monoclinic'
loop_
_space_group_symop_operation_xyz
x,y,z
-x,1/2+y,-z
-x,-y,-z
x,1/2-y,z
loop_
_atom_site_type_symbol
_atom_site_label
_atom_site_fract_x
_atom_site_fract_y
_atom_site_fract_z
Si Si1 0.815001 0.925697 0.528901
Si Si2 0.541609 0.913693 0.402621
Si Si3 0.755167 0.424700 0.855344
Si Si4 0.137038 0.924855 0.687966
Si Si5 0.312308 0.428877 0.773386
Si Si6 0.662151 0.083639 0.654399
Si Si7 0.399835 0.571128 0.966626
Si Si8 0.085175 0.422188 0.268033
O O1 0.819750 0.750000 0.508425
O O2 0.878748 0.978661 0.622428
O O3 0.854036 0.007825 0.425868
O O4 0.703508 0.976462 0.560610
O O5 0.567700 0.750000 0.440328
O O6 0.635359 0.978020 0.337246
O O7 0.453759 0.913342 0.328005
O O8 0.500000 0.000000 0.500000
O O9 0.771657 0.250000 0.860905
O O10 0.694960 0.477193 0.761232
O O11 0.861263 0.499332 0.832868
O O12 0.692315 0.479231 0.956914
O O13 0.162021 0.750000 0.682514
O O14 0.028393 0.954474 0.735375
O O15 0.204081 0.006573 0.767937
O O16 0.312135 0.250000 0.788696
O O17 0.373061 0.507019 0.858038
O O18 0.703131 0.250000 0.630128
O O19 0.411602 0.750000 0.963316
O O20 0.500000 0.500000 0.000000
O O21 0.110779 0.250000 0.258152
#
# Coordination Sequence:
#
# PCOD8071123 Si02
#       8
#     4   4   4   4   4   4   4   4
#     4  10  19  32  52  82 115 149 189 233 279 334
#     4  10  21  35  52  75 108 146 184 223 270 328
#     4   9  19  36  59  84 110 140 183 233 281 332
#     4  11  22  37  55  79 113 153 193 236 285 340
#     4  11  24  41  59  84 115 149 191 238 284 338
#     4   9  17  32  52  75 105 142 178 222 277 331
#     4  11  23  41  65  92 118 148 185 230 282 339
#     4   9  20  36  56  83 115 149 191 239 285 334
#
# _framework density 19.909859000000001
#
# number of rings (size 3 to 8) (size 9 to 14) (size 15 to 20)
#    0.000    2.000    0.000    3.375    0.000    8.000 
#    0.000    3.125    0.000    0.000    0.000    0.000 
#    0.000    0.000    0.000    0.000    0.000    0.000 
#
# Total GULP energy -396661.574677 kJ/mol
# GULP energy per Si atom -12395.674209 kJ/mol
# Density = 1.986454 g / cm^3
# Si number density = 19.909859 Si / 1000 Ang^3
#
#
#
# Elastic Constant Matrix: (Units=GPa)
#
#
# Indices 1 2 3 4 5 6 
#
# 1 104.0935 47.9885 37.7221 0.0000 -8.4618 0.0000
# 2 47.9885 85.9498 47.9122 0.0000 -8.9871 0.0000
# 3 37.7221 47.9122 91.1416 0.0000 -11.9111 0.0000
# 4 0.0000 0.0000 0.0000 32.0884 0.0000 -1.7321
# 5 -8.4618 -8.9871 -11.9111 0.0000 31.1901 0.0000
# 6 0.0000 0.0000 0.0000 -1.7321 0.0000 34.6632
#
#
#
# Elastic Compliance Matrix: (Units=1/GPa)
#
#
# Indices 1 2 3 4 5 6 
#
# 1 0.013288 -0.006112 -0.002153 0.000000 0.001022 0.000000
# 2 -0.006112 0.019337 -0.007498 0.000000 0.001050 0.000000
# 3 -0.002153 -0.007498 0.016258 0.000000 0.003464 0.000000
# 4 0.000000 0.000000 0.000000 0.031248 0.000000 0.001561
# 5 0.001022 0.001050 0.003464 0.000000 0.033964 0.000000
# 6 0.000000 0.000000 0.000000 0.001561 0.000000 0.028927
#
#
# Mechanical properties :
#
#
# Convention : Reuss Voigt Hill
#
# Bulk Modulus (GPa) = 57.61878 60.93672 59.27775
# Shear Modulus (GPa) = 27.72643 29.42580 28.57612
#
# Velocity S-wave (km/s) = 3.73580 3.84858 3.79261
# Velocity P-wave (km/s) = 6.90007 7.10081 7.00116
#
# Compressibility (1/GPa) = 0.01735545
#
# Stress axis : x y z
#
# Youngs Moduli (GPa) = 75.25755 51.71472 61.50976
#
# Poissons Ratio (x) = 0.31607 0.13244
# Poissons Ratio (y) = 0.45997 0.46122
# Poissons Ratio (z) = 0.16204 0.38778
#
# Static dielectric constant tensor:
#      x y z
#    x 4.002460 0.000000 0.000290 
#    y 0.000000 3.630740 0.000000 
#    z 0.000290 0.000000 3.604480 
# 
# 
# High freq. dielectric constant tensor:
#      x y z
#    x 1.786080 0.000000 -0.004230 
#    y 0.000000 1.777190 0.000000 
#    z -0.004230 0.000000 1.763710 
# 
# From -- ./inp_files/38217.got.cif
#   From: 2010.06.25/outbox.cif.g09.slc.cpg/sg11_20_cif.got.tgz:38217.got - 2010.06.27 23:14:04.
