data_PCOD8071922
_publ_section_title
;
Structure prediction by ZEFSAII (Michael W. Deem and Ramdas Pophale) SiO2 
 PCOD8071922
Probable space group: P 21/M
;
_chemical_formula_sum "Si O2"
_cell_formula_units_Z 24
_cell_length_a 8.965709
_cell_length_b 17.376592
_cell_length_c 11.632457
_cell_angle_alpha 90.000000
_cell_angle_beta 138.706720
_cell_angle_gamma 90.000000
_cell_volume 1195.935465
_symmetry_space_group_name_H-M "P 21/M"
_symmetry_group_IT_number 11
_symmetry_cell_setting 'monoclinic'
loop_
_space_group_symop_operation_xyz
x,y,z
-x,1/2+y,-z
-x,-y,-z
x,1/2-y,z
loop_
_atom_site_type_symbol
_atom_site_label
_atom_site_fract_x
_atom_site_fract_y
_atom_site_fract_z
Si Si1 0.212463 0.417039 0.624957
Si Si2 0.899234 0.418521 0.967313
Si Si3 0.510062 0.580778 0.437828
Si Si4 0.730134 0.094853 0.317584
Si Si5 0.415588 0.919007 0.001333
Si Si6 0.362183 0.338147 0.266813
O O1 0.287430 0.418153 0.535979
O O2 0.214595 0.505137 0.668257
O O3 0.973065 0.372242 0.499946
O O4 0.385739 0.374900 0.812961
O O5 0.790541 0.427098 0.029790
O O6 0.101003 0.356473 0.087679
O O7 0.722498 0.398615 0.763233
O O8 0.000000 0.500000 0.000000
O O9 0.500000 0.500000 0.500000
O O10 0.572123 0.647807 0.563011
O O11 0.662169 0.131003 0.154140
O O12 0.528285 0.108015 0.288970
O O13 0.500000 0.000000 0.000000
O O14 0.408073 0.250000 0.261804
#
# Coordination Sequence:
#
# PCOD8071922 Si02
#       6
#     4   4   4   4   4   4
#     4   9  18  33  58  89 114 149 206 258 299 352
#     4  11  21  37  67  93 122 162 209 261 310 376
#     4  11  20  38  65  93 121 159 210 263 308 370
#     4  10  19  34  55  83 122 159 198 253 305 368
#     4   9  18  32  55  90 117 147 200 258 307 356
#     4  12  26  41  58  92 132 168 207 260 327 380
#
# _framework density 20.067974
#
# number of rings (size 3 to 8) (size 9 to 14) (size 15 to 20)
#    0.000    1.667    3.333    3.000    0.000    3.333 
#    0.000    3.333    0.000    2.000    0.000    0.000 
#    0.000    0.000    0.000    0.000    0.000    0.000 
#
# Total GULP energy -297377.912036 kJ/mol
# GULP energy per Si atom -12390.746335 kJ/mol
# Density = 2.002230 g / cm^3
# Si number density = 20.067974 Si / 1000 Ang^3
#
#
#
# Elastic Constant Matrix: (Units=GPa)
#
#
# Indices 1 2 3 4 5 6 
#
# 1 130.2420 -0.0682 76.8858 0.0000 6.5324 0.0000
# 2 -0.0682 36.9948 18.6621 0.0000 3.9893 0.0000
# 3 76.8858 18.6621 168.2749 0.0000 0.9685 0.0000
# 4 0.0000 0.0000 0.0000 17.0615 0.0000 -0.1938
# 5 6.5324 3.9893 0.9685 0.0000 41.5723 0.0000
# 6 0.0000 0.0000 0.0000 -0.1938 0.0000 9.1219
#
#
#
# Elastic Compliance Matrix: (Units=1/GPa)
#
#
# Indices 1 2 3 4 5 6 
#
# 1 0.010894 0.002888 -0.005287 0.000000 -0.001866 0.000000
# 2 0.002888 0.029699 -0.004595 0.000000 -0.003197 0.000000
# 3 -0.005287 -0.004595 0.008862 0.000000 0.001065 0.000000
# 4 0.000000 0.000000 0.000000 0.058626 0.000000 0.001245
# 5 -0.001866 -0.003197 0.001065 0.000000 0.024630 0.000000
# 6 0.000000 0.000000 0.000000 0.001245 0.000000 0.109653
#
#
# Mechanical properties :
#
#
# Convention : Reuss Voigt Hill
#
# Bulk Modulus (GPa) = 28.19490 58.49677 43.34583
# Shear Modulus (GPa) = 18.64465 29.55326 24.09896
#
# Velocity S-wave (km/s) = 3.05138 3.84169 3.46911
# Velocity P-wave (km/s) = 5.14731 6.99219 6.13944
#
# Compressibility (1/GPa) = 0.03546741
#
# Stress axis : x y z
#
# Youngs Moduli (GPa) = 91.79053 33.67137 112.84227
#
# Poissons Ratio (x) = -0.09726 0.59663
# Poissons Ratio (y) = -0.26514 0.51851
# Poissons Ratio (z) = 0.48532 0.15472
#
# Static dielectric constant tensor:
#      x y z
#    x 3.734000 0.000000 -0.636420 
#    y 0.000000 2.163990 0.000000 
#    z -0.636420 0.000000 3.787380 
# 
# 
# High freq. dielectric constant tensor:
#      x y z
#    x 1.796360 0.000000 -0.001320 
#    y 0.000000 1.712870 0.000000 
#    z -0.001320 0.000000 1.817500 
# 
# From -- ./inp_files/32737.got.cif
#   From: 2010.06.25/outbox.cif.g09.slc.cpg/sg11_17_cif.got.tgz:32737.got - 2010.06.27 23:14:04.
