data_PCOD8071839
_publ_section_title
;
Structure prediction by ZEFSAII (Michael W. Deem and Ramdas Pophale) SiO2 
 PCOD8071839
Probable space group: P 21/M
;
_chemical_formula_sum "Si O2"
_cell_formula_units_Z 20
_cell_length_a 5.154753
_cell_length_b 8.581335
_cell_length_c 23.667053
_cell_angle_alpha 90.000000
_cell_angle_beta 109.147093
_cell_angle_gamma 90.000000
_cell_volume 988.988990
_symmetry_space_group_name_H-M "P 21/M"
_symmetry_group_IT_number 11
_symmetry_cell_setting 'monoclinic'
loop_
_space_group_symop_operation_xyz
x,y,z
-x,1/2+y,-z
-x,-y,-z
x,1/2-y,z
loop_
_atom_site_type_symbol
_atom_site_label
_atom_site_fract_x
_atom_site_fract_y
_atom_site_fract_z
Si Si1 0.797562 0.066735 0.531611
Si Si2 0.800563 0.564938 0.864303
Si Si3 0.564913 0.933853 0.728652
Si Si4 0.593817 0.064770 0.066126
Si Si5 0.024617 0.932973 0.330961
O O1 0.784865 0.250000 0.524790
O O2 0.904033 0.016125 0.600537
O O3 0.500000 0.000000 0.500000
O O4 0.000000 0.000000 0.500000
O O5 0.794166 0.750000 0.864500
O O6 0.695677 0.504876 0.796395
O O7 0.606653 0.499041 0.899860
O O8 0.104731 0.500845 0.897425
O O9 0.605235 0.750000 0.723865
O O10 0.243406 0.973164 0.707370
O O11 0.715473 0.022591 0.688773
O O12 0.590342 0.250000 0.063618
O O13 0.500000 0.000000 0.000000
O O14 0.966375 0.750000 0.322237
#
# Coordination Sequence:
#
# PCOD8071839 Si02
#       5
#     4   4   4   4   4
#     4  11  24  41  62  87 119 156 195 238 290 346
#     4   9  19  35  55  78 108 143 182 231 281 325
#     4  11  22  39  64  89 112 153 206 241 275 346
#     4  10  19  34  54  77 107 142 179 226 280 333
#     4  11  24  41  59  87 125 156 183 238 308 346
#
# _framework density 20.222673
#
# number of rings (size 3 to 8) (size 9 to 14) (size 15 to 20)
#    0.000    1.600    0.000    4.800    0.000   11.200 
#    0.000    6.000    0.000    0.000    0.000    0.000 
#    0.000    0.000    0.000    0.000    0.000    0.000 
#
# Total GULP energy -248100.484263 kJ/mol
# GULP energy per Si atom -12405.024213 kJ/mol
# Density = 2.017665 g / cm^3
# Si number density = 20.222673 Si / 1000 Ang^3
#
#
#
# Elastic Constant Matrix: (Units=GPa)
#
#
# Indices 1 2 3 4 5 6 
#
# 1 149.6757 23.6693 55.5290 0.0000 -0.1290 0.0000
# 2 23.6693 36.2412 45.8679 0.0000 2.0818 0.0000
# 3 55.5290 45.8679 151.1847 0.0000 -0.4245 0.0000
# 4 0.0000 0.0000 0.0000 31.4286 0.0000 -0.1099
# 5 -0.1290 2.0818 -0.4245 0.0000 49.7742 0.0000
# 6 0.0000 0.0000 0.0000 -0.1099 0.0000 29.1436
#
#
#
# Elastic Compliance Matrix: (Units=1/GPa)
#
#
# Indices 1 2 3 4 5 6 
#
# 1 0.007862 -0.002413 -0.002155 0.000000 0.000103 0.000000
# 2 -0.002413 0.045730 -0.012994 0.000000 -0.002030 0.000000
# 3 -0.002155 -0.012994 0.011350 0.000000 0.000635 0.000000
# 4 0.000000 0.000000 0.000000 0.031819 0.000000 0.000120
# 5 0.000103 -0.002030 0.000635 0.000000 0.020181 0.000000
# 6 0.000000 0.000000 0.000000 0.000120 0.000000 0.034313
#
#
# Mechanical properties :
#
#
# Convention : Reuss Voigt Hill
#
# Bulk Modulus (GPa) = 33.53571 65.24825 49.39198
# Shear Modulus (GPa) = 25.46867 36.20499 30.83683
#
# Velocity S-wave (km/s) = 3.55267 4.23580 3.90919
# Velocity P-wave (km/s) = 5.78341 7.50051 6.69722
#
# Compressibility (1/GPa) = 0.02981896
#
# Stress axis : x y z
#
# Youngs Moduli (GPa) = 127.18699 21.86727 88.10540
#
# Poissons Ratio (x) = 0.05276 0.18991
# Poissons Ratio (y) = 0.30689 1.14481
# Poissons Ratio (z) = 0.27415 0.28414
#
# Static dielectric constant tensor:
#      x y z
#    x 4.012460 0.000000 -0.016380 
#    y 0.000000 3.434680 0.000000 
#    z -0.016380 0.000000 3.919730 
# 
# 
# High freq. dielectric constant tensor:
#      x y z
#    x 1.810750 0.000000 -0.000520 
#    y 0.000000 1.772520 0.000000 
#    z -0.000520 0.000000 1.809630 
# 
# From -- ./inp_files/62456.got.cif
#   From: 2010.06.25/outbox.cif.g09.slc.cpg/sg11_32_cif.got.tgz:62456.got - 2010.06.27 23:14:04.
