data_PCOD8071767
_publ_section_title
;
Structure prediction by ZEFSAII (Michael W. Deem and Ramdas Pophale) SiO2 
 PCOD8071767
Probable space group: P 21/M
;
_chemical_formula_sum "Si O2"
_cell_formula_units_Z 28
_cell_length_a 29.761236
_cell_length_b 8.539630
_cell_length_c 10.091404
_cell_angle_alpha 90.000000
_cell_angle_beta 33.688786
_cell_angle_gamma 90.000000
_cell_volume 1422.608370
_symmetry_space_group_name_H-M "P 21/M"
_symmetry_group_IT_number 11
_symmetry_cell_setting 'monoclinic'
loop_
_space_group_symop_operation_xyz
x,y,z
-x,1/2+y,-z
-x,-y,-z
x,1/2-y,z
loop_
_atom_site_type_symbol
_atom_site_label
_atom_site_fract_x
_atom_site_fract_y
_atom_site_fract_z
Si Si1 0.239109 0.570709 0.909558
Si Si2 0.162417 0.431862 0.355435
Si Si3 0.998579 0.433372 0.150257
Si Si4 0.822762 0.570474 0.200000
Si Si5 0.413033 0.430120 0.873225
Si Si6 0.740348 0.070283 0.645730
Si Si7 0.592204 0.430515 0.394635
O O1 0.220111 0.750000 0.920301
O O2 0.200618 0.459650 0.894161
O O3 0.335956 0.541023 0.677105
O O4 0.201657 0.533967 0.143885
O O5 0.169421 0.250000 0.302615
O O6 0.208309 0.463407 0.380484
O O7 0.068830 0.478609 0.598458
O O8 0.978817 0.250000 0.193080
O O9 0.083118 0.470071 0.013762
O O10 0.000000 0.500000 0.000000
O O11 0.805897 0.750000 0.277925
O O12 0.768147 0.462705 0.428147
O O13 0.395457 0.250000 0.947594
O O14 0.506661 0.474814 0.673252
O O15 0.392393 0.461534 0.770345
O O16 0.355208 0.533081 0.108632
O O17 0.756518 0.250000 0.641445
O O18 0.590230 0.250000 0.351202
#
# Coordination Sequence:
#
# PCOD8071767 Si02
#       7
#     4   4   4   4   4   4   4
#     4  11  23  41  63  90 125 163 202 247 304 363
#     4  12  24  39  63  92 122 159 203 251 301 358
#     4  11  23  40  64  91 121 157 202 252 303 357
#     4  11  25  43  63  89 122 160 202 249 305 364
#     4  10  19  33  58  90 121 155 201 251 299 352
#     4  12  23  38  61  90 122 159 204 250 302 361
#     4   9  19  35  57  87 122 159 199 247 299 355
#
# _framework density 19.682157
#
# number of rings (size 3 to 8) (size 9 to 14) (size 15 to 20)
#    0.000    1.143    2.857    4.286    0.000    3.429 
#    0.000    0.714    0.000    0.000    0.000    0.000 
#    0.000    0.000    0.000    0.000    0.000    0.000 
#
# Total GULP energy -347371.900687 kJ/mol
# GULP energy per Si atom -12406.139310 kJ/mol
# Density = 1.963736 g / cm^3
# Si number density = 19.682157 Si / 1000 Ang^3
#
#
#
# Elastic Constant Matrix: (Units=GPa)
#
#
# Indices 1 2 3 4 5 6 
#
# 1 100.3960 22.2582 37.1521 0.0000 -11.9456 0.0000
# 2 22.2582 74.2366 28.7231 0.0000 -13.8277 0.0000
# 3 37.1521 28.7231 110.9150 0.0000 -19.1761 0.0000
# 4 0.0000 0.0000 0.0000 34.3739 0.0000 1.9612
# 5 -11.9456 -13.8277 -19.1761 0.0000 29.1565 0.0000
# 6 0.0000 0.0000 0.0000 1.9612 0.0000 28.7859
#
#
#
# Elastic Compliance Matrix: (Units=1/GPa)
#
#
# Indices 1 2 3 4 5 6 
#
# 1 0.011770 -0.001983 -0.003112 0.000000 0.001835 0.000000
# 2 -0.001983 0.016018 -0.002607 0.000000 0.005069 0.000000
# 3 -0.003112 -0.002607 0.011621 0.000000 0.005131 0.000000
# 4 0.000000 0.000000 0.000000 0.029205 0.000000 -0.001990
# 5 0.001835 0.005069 0.005131 0.000000 0.040829 0.000000
# 6 0.000000 0.000000 0.000000 -0.001990 0.000000 0.034875
#
#
# Mechanical properties :
#
#
# Convention : Reuss Voigt Hill
#
# Bulk Modulus (GPa) = 41.65926 51.31270 46.48598
# Shear Modulus (GPa) = 29.81097 31.62421 30.71759
#
# Velocity S-wave (km/s) = 3.89603 4.01277 3.95483
# Velocity P-wave (km/s) = 6.43822 6.89906 6.67262
#
# Compressibility (1/GPa) = 0.02400427
#
# Stress axis : x y z
#
# Youngs Moduli (GPa) = 84.96114 62.42915 86.05436
#
# Poissons Ratio (x) = 0.12381 0.26777
# Poissons Ratio (y) = 0.16850 0.22438
# Poissons Ratio (z) = 0.26437 0.16278
#
# Static dielectric constant tensor:
#      x y z
#    x 3.449970 0.000000 -0.367920 
#    y 0.000000 3.613260 0.000000 
#    z -0.367920 0.000000 3.780930 
# 
# 
# High freq. dielectric constant tensor:
#      x y z
#    x 1.748450 0.000000 -0.019660 
#    y 0.000000 1.778090 0.000000 
#    z -0.019660 0.000000 1.775740 
# 
# From -- ./inp_files/28274.got.cif
#   From: 2010.06.25/outbox.cif.g09.slc.cpg/sg11_15_cif.got.tgz:28274.got - 2010.06.27 23:14:04.
