data_PCOD8071200
_publ_section_title
;
Structure prediction by ZEFSAII (Michael W. Deem and Ramdas Pophale) SiO2 
 PCOD8071200
Probable space group: P 21/M
;
_chemical_formula_sum "Si O2"
_cell_formula_units_Z 32
_cell_length_a 21.183458
_cell_length_b 9.009762
_cell_length_c 10.430724
_cell_angle_alpha 90.000000
_cell_angle_beta 63.218366
_cell_angle_gamma 90.000000
_cell_volume 1777.235192
_symmetry_space_group_name_H-M "P 21/M"
_symmetry_group_IT_number 11
_symmetry_cell_setting 'monoclinic'
loop_
_space_group_symop_operation_xyz
x,y,z
-x,1/2+y,-z
-x,-y,-z
x,1/2-y,z
loop_
_atom_site_type_symbol
_atom_site_label
_atom_site_fract_x
_atom_site_fract_y
_atom_site_fract_z
Si Si1 0.427391 0.575551 0.108039
Si Si2 0.044135 0.572440 0.351159
Si Si3 0.407412 0.577245 0.694823
Si Si4 0.110352 0.588554 0.928981
Si Si5 0.037602 0.410761 0.812067
Si Si6 0.668427 0.921269 0.011298
Si Si7 0.167543 0.079074 0.117118
Si Si8 0.448616 0.578578 0.378885
O O1 0.432296 0.750000 0.075490
O O2 0.365844 0.506793 0.077175
O O3 0.411445 0.546998 0.274962
O O4 0.500000 0.500000 0.000000
O O5 0.050093 0.750000 0.352559
O O6 0.122603 0.504431 0.268364
O O7 0.000000 0.500000 0.500000
O O8 0.998208 0.511236 0.275427
O O9 0.397755 0.750000 0.733956
O O10 0.398064 0.546424 0.549343
O O11 0.484542 0.528515 0.671534
O O12 0.350841 0.487744 0.831397
O O13 0.146868 0.750000 0.881008
O O14 0.106892 0.499912 0.798068
O O15 0.154064 0.497303 0.992930
O O16 0.027122 0.609880 0.030365
O O17 0.067999 0.250000 0.746398
O O18 0.644055 0.750000 0.030306
O O19 0.751727 0.937320 0.916624
O O20 0.144384 0.250000 0.128626
O O21 0.474067 0.750000 0.361476
#
# Coordination Sequence:
#
# PCOD8071200 Si02
#       8
#     4   4   4   4   4   4   4   4
#     4  11  21  34  55  82 111 144 185 234 282 331
#     4  10  20  34  55  81 108 139 178 221 266 320
#     4  10  19  32  54  80 105 140 179 223 278 330
#     4   9  16  27  47  74 100 125 161 206 253 303
#     4   8  15  27  45  72 101 128 157 198 249 301
#     4  11  23  37  54  79 111 146 188 233 279 334
#     4  10  21  36  54  75 105 143 181 222 271 323
#     4   9  19  34  52  78 110 138 175 227 278 330
#
# _framework density 18.005496000000001
#
# number of rings (size 3 to 8) (size 9 to 14) (size 15 to 20)
#    0.000    2.250    1.250    3.000    0.000    6.500 
#    0.000    0.000    2.750    0.000    0.000    0.000 
#    0.000    0.000    0.000    0.000    0.000    0.000 
#
# Total GULP energy -396454.740777 kJ/mol
# GULP energy per Si atom -12389.210649 kJ/mol
# Density = 1.796451 g / cm^3
# Si number density = 18.005496 Si / 1000 Ang^3
#
#
#
# Elastic Constant Matrix: (Units=GPa)
#
#
# Indices 1 2 3 4 5 6 
#
# 1 85.3750 55.2105 42.7279 0.0000 7.7852 0.0000
# 2 55.2105 124.4819 46.2324 0.0000 3.3341 0.0000
# 3 42.7279 46.2324 101.9187 0.0000 10.0175 0.0000
# 4 0.0000 0.0000 0.0000 26.3804 0.0000 2.2754
# 5 7.7852 3.3341 10.0175 0.0000 19.8299 0.0000
# 6 0.0000 0.0000 0.0000 2.2754 0.0000 28.2990
#
#
#
# Elastic Compliance Matrix: (Units=1/GPa)
#
#
# Indices 1 2 3 4 5 6 
#
# 1 0.018447 -0.006431 -0.004431 0.000000 -0.003923 0.000000
# 2 -0.006431 0.011910 -0.002902 0.000000 0.001988 0.000000
# 3 -0.004431 -0.002902 0.013434 0.000000 -0.004559 0.000000
# 4 0.000000 0.000000 0.000000 0.038172 0.000000 -0.003069
# 5 -0.003923 0.001988 -0.004559 0.000000 0.053938 0.000000
# 6 0.000000 0.000000 0.000000 -0.003069 0.000000 0.035584
#
#
# Mechanical properties :
#
#
# Convention : Reuss Voigt Hill
#
# Bulk Modulus (GPa) = 61.48827 66.67968 64.08398
# Shear Modulus (GPa) = 24.45790 26.07552 25.26671
#
# Velocity S-wave (km/s) = 3.68959 3.80965 3.75010
# Velocity P-wave (km/s) = 7.23703 7.51429 7.37696
#
# Compressibility (1/GPa) = 0.01626326
#
# Stress axis : x y z
#
# Youngs Moduli (GPa) = 54.20915 83.96218 74.43900
#
# Poissons Ratio (x) = 0.53996 0.32983
# Poissons Ratio (y) = 0.34862 0.21602
# Poissons Ratio (z) = 0.24019 0.24366
#
# Static dielectric constant tensor:
#      x y z
#    x 3.153450 0.000000 0.247610 
#    y 0.000000 3.738350 0.000000 
#    z 0.247610 0.000000 3.301590 
# 
# 
# High freq. dielectric constant tensor:
#      x y z
#    x 1.677430 0.000000 0.024060 
#    y 0.000000 1.716850 0.000000 
#    z 0.024060 0.000000 1.676630 
# 
# From -- ./inp_files/42477.got.cif
#   From: 2010.06.25/outbox.cif.g09.slc.cpg/sg11_22_cif.got.tgz:42477.got - 2010.06.27 23:14:04.
