data_PCOD8071784
_publ_section_title
;
Structure prediction by ZEFSAII (Michael W. Deem and Ramdas Pophale) SiO2 
 PCOD8071784
Probable space group: P 21/M
;
_chemical_formula_sum "Si O2"
_cell_formula_units_Z 32
_cell_length_a 17.263056
_cell_length_b 21.253195
_cell_length_c 17.265387
_cell_angle_alpha 90.000000
_cell_angle_beta 163.041519
_cell_angle_gamma 90.000000
_cell_volume 1847.663427
_symmetry_space_group_name_H-M "P 21/M"
_symmetry_group_IT_number 11
_symmetry_cell_setting 'monoclinic'
loop_
_space_group_symop_operation_xyz
x,y,z
-x,1/2+y,-z
-x,-y,-z
x,1/2-y,z
loop_
_atom_site_type_symbol
_atom_site_label
_atom_site_fract_x
_atom_site_fract_y
_atom_site_fract_z
Si Si1 0.479274 0.397370 0.455598
Si Si2 0.311850 0.821675 0.647333
Si Si3 0.140282 0.358643 0.898261
Si Si4 0.066481 0.506371 0.841765
Si Si5 0.278533 0.568666 0.722714
Si Si6 0.519340 0.979538 0.393484
Si Si7 0.798657 0.008914 0.196110
Si Si8 0.996299 0.821730 0.062940
O O1 0.484243 0.425692 0.545795
O O2 0.525770 0.451388 0.436771
O O3 0.704337 0.345221 0.661312
O O4 0.194720 0.365361 0.171037
O O5 0.369593 0.750000 0.724602
O O6 0.284963 0.858912 0.702764
O O7 0.039987 0.826803 0.339560
O O8 0.550157 0.850077 0.824495
O O9 0.073313 0.431649 0.840053
O O10 0.086712 0.323878 0.927238
O O11 0.148620 0.537969 0.838361
O O12 0.772525 0.529178 0.580914
O O13 0.257844 0.529911 0.092496
O O14 0.244154 0.565212 0.782964
O O15 0.042447 0.534141 0.453421
O O16 0.545020 0.535498 0.949668
O O17 0.979346 0.750000 0.017622
#
# Coordination Sequence:
#
# PCOD8071784 Si02
#       8
#     4   4   4   4   4   4   4   4
#     4  11  22  38  52  78 103 140 178 220 262 312
#     4  12  22  34  50  72 108 147 179 208 248 303
#     4  12  22  35  49  80 109 144 178 205 244 321
#     4  12  19  35  54  79 103 145 167 216 273 315
#     4  10  19  34  47  76 100 140 172 213 249 299
#     4  11  22  35  57  75 107 135 178 221 269 315
#     4  10  20  31  54  71 106 132 174 212 258 307
#     4  12  23  36  53  75 108 143 178 212 258 314
#
# _framework density 17.319171000000001
#
# number of rings (size 3 to 8) (size 9 to 14) (size 15 to 20)
#    0.000    0.750    5.000    4.500    0.000    2.000 
#    0.000    0.000    0.000    0.000    0.000    5.250 
#    0.000    0.000    0.000    0.000    0.000    0.000 
#
# Total GULP energy -396955.782563 kJ/mol
# GULP energy per Si atom -12404.868205 kJ/mol
# Density = 1.727975 g / cm^3
# Si number density = 17.319171 Si / 1000 Ang^3
#
#
#
# Elastic Constant Matrix: (Units=GPa)
#
#
# Indices 1 2 3 4 5 6 
#
# 1 90.5795 32.0887 4.7311 0.0000 -4.8597 0.0000
# 2 32.0887 66.4288 9.5683 0.0000 -8.9338 0.0000
# 3 4.7311 9.5683 71.9603 0.0000 2.1098 0.0000
# 4 0.0000 0.0000 0.0000 16.6788 0.0000 -1.8748
# 5 -4.8597 -8.9338 2.1098 0.0000 29.8578 0.0000
# 6 0.0000 0.0000 0.0000 -1.8748 0.0000 15.3838
#
#
#
# Elastic Compliance Matrix: (Units=1/GPa)
#
#
# Indices 1 2 3 4 5 6 
#
# 1 0.013321 -0.006396 -0.000033 0.000000 0.000257 0.000000
# 2 -0.006396 0.019120 -0.002264 0.000000 0.004840 0.000000
# 3 -0.000033 -0.002264 0.014249 0.000000 -0.001690 0.000000
# 4 0.000000 0.000000 0.000000 0.060789 0.000000 0.007408
# 5 0.000257 0.004840 -0.001690 0.000000 0.035101 0.000000
# 6 0.000000 0.000000 0.000000 0.007408 0.000000 0.065906
#
#
# Mechanical properties :
#
#
# Convention : Reuss Voigt Hill
#
# Bulk Modulus (GPa) = 34.12268 35.74943 34.93606
# Shear Modulus (GPa) = 21.21875 24.55612 22.88744
#
# Velocity S-wave (km/s) = 3.50403 3.76953 3.63920
# Velocity P-wave (km/s) = 6.00966 6.29541 6.15419
#
# Compressibility (1/GPa) = 0.02930602
#
# Stress axis : x y z
#
# Youngs Moduli (GPa) = 75.06821 52.30104 70.17907
#
# Poissons Ratio (x) = 0.33449 0.00231
# Poissons Ratio (y) = 0.48010 0.15887
# Poissons Ratio (z) = 0.00247 0.11840
#
# Static dielectric constant tensor:
#      x y z
#    x 3.418220 0.000000 0.002990 
#    y 0.000000 3.046080 0.000000 
#    z 0.002990 0.000000 3.437170 
# 
# 
# High freq. dielectric constant tensor:
#      x y z
#    x 1.666530 0.000000 0.005250 
#    y 0.000000 1.636680 0.000000 
#    z 0.005250 0.000000 1.695040 
# 
# From -- ./inp_files/52717.got.cif
#   From: 2010.06.25/outbox.cif.g09.slc.cpg/sg11_27_cif.got.tgz:52717.got - 2010.06.27 23:14:04.
