data_PCOD8071209
_publ_section_title
;
Structure prediction by ZEFSAII (Michael W. Deem and Ramdas Pophale) SiO2 
 PCOD8071209
Probable space group: P 21/M
;
_chemical_formula_sum "Si O2"
_cell_formula_units_Z 24
_cell_length_a 17.347226
_cell_length_b 16.327210
_cell_length_c 12.273066
_cell_angle_alpha 90.000000
_cell_angle_beta 21.306866
_cell_angle_gamma 90.000000
_cell_volume 1263.093906
_symmetry_space_group_name_H-M "P 21/M"
_symmetry_group_IT_number 11
_symmetry_cell_setting 'monoclinic'
loop_
_space_group_symop_operation_xyz
x,y,z
-x,1/2+y,-z
-x,-y,-z
x,1/2-y,z
loop_
_atom_site_type_symbol
_atom_site_label
_atom_site_fract_x
_atom_site_fract_y
_atom_site_fract_z
Si Si1 0.475306 0.342764 0.229782
Si Si2 0.974346 0.656218 0.273897
Si Si3 0.122096 0.657174 0.838587
Si Si4 0.700847 0.907219 0.320229
Si Si5 0.520193 0.927841 0.337483
Si Si6 0.171185 0.961010 0.196224
O O1 0.549517 0.250000 0.111847
O O2 0.272888 0.364479 0.422011
O O3 0.415945 0.351895 0.435586
O O4 0.667954 0.403692 0.946596
O O5 0.998037 0.750000 0.284458
O O6 0.062127 0.593159 0.246544
O O7 0.105986 0.643934 0.989942
O O8 0.068669 0.750000 0.877322
O O9 0.361802 0.635304 0.484831
O O10 0.954348 0.600758 0.995641
O O11 0.627740 0.879620 0.296406
O O12 0.640338 0.001664 0.411827
O O13 0.701704 0.962314 0.020409
O O14 0.000000 0.000000 0.500000
#
# Coordination Sequence:
#
# PCOD8071209 Si02
#       6
#     4   4   4   4   4   4
#     4   9  18  34  58  82 101 128 169 217 264 309
#     4   9  18  34  57  81 101 127 169 218 264 309
#     4  10  19  32  54  82 108 132 161 207 268 324
#     4   9  17  31  54  82 105 126 157 207 268 319
#     4  10  20  32  50  75 105 136 166 205 256 308
#     4  11  23  36  51  73 104 144 183 216 247 289
#
# _framework density 19.000962000000001
#
# number of rings (size 3 to 8) (size 9 to 14) (size 15 to 20)
#    0.000    2.333    0.000    5.500    0.000    6.000 
#    0.000    1.667    0.000    2.000    0.000    0.000 
#    0.000    0.000    0.000    0.000    0.000    0.000 
#
# Total GULP energy -297552.075217 kJ/mol
# GULP energy per Si atom -12398.003134 kJ/mol
# Density = 1.895771 g / cm^3
# Si number density = 19.000962 Si / 1000 Ang^3
#
#
#
# Elastic Constant Matrix: (Units=GPa)
#
#
# Indices 1 2 3 4 5 6 
#
# 1 76.0277 38.6043 53.8752 0.0000 -22.5693 0.0000
# 2 38.6043 66.5076 54.2568 0.0000 -7.0976 0.0000
# 3 53.8752 54.2568 127.9416 0.0000 -20.7751 0.0000
# 4 0.0000 0.0000 0.0000 30.6762 0.0000 -6.6147
# 5 -22.5693 -7.0976 -20.7751 0.0000 18.5700 0.0000
# 6 0.0000 0.0000 0.0000 -6.6147 0.0000 27.5616
#
#
#
# Elastic Compliance Matrix: (Units=1/GPa)
#
#
# Indices 1 2 3 4 5 6 
#
# 1 0.029544 -0.011812 -0.002852 0.000000 0.028201 0.000000
# 2 -0.011812 0.027815 -0.009075 0.000000 -0.013878 0.000000
# 3 -0.002852 -0.009075 0.014345 0.000000 0.009114 0.000000
# 4 0.000000 0.000000 0.000000 0.034378 0.000000 0.008250
# 5 0.028201 -0.013878 0.009114 0.000000 0.093017 0.000000
# 6 0.000000 0.000000 0.000000 0.008250 0.000000 0.038262
#
#
# Mechanical properties :
#
#
# Convention : Reuss Voigt Hill
#
# Bulk Modulus (GPa) = 41.27943 62.66106 51.97024
# Shear Modulus (GPa) = 17.06988 23.61093 20.34041
#
# Velocity S-wave (km/s) = 3.00053 3.52890 3.27539
# Velocity P-wave (km/s) = 5.81174 7.04653 6.45871
#
# Compressibility (1/GPa) = 0.02422514
#
# Stress axis : x y z
#
# Youngs Moduli (GPa) = 33.84833 35.95238 69.70875
#
# Poissons Ratio (x) = 0.42468 0.19881
# Poissons Ratio (y) = 0.39983 0.63260
# Poissons Ratio (z) = 0.09654 0.32626
#
# Static dielectric constant tensor:
#      x y z
#    x 3.428590 0.000000 -0.424700 
#    y 0.000000 3.499230 0.000000 
#    z -0.424700 0.000000 3.384870 
# 
# 
# High freq. dielectric constant tensor:
#      x y z
#    x 1.724670 0.000000 -0.043670 
#    y 0.000000 1.737900 0.000000 
#    z -0.043670 0.000000 1.716010 
# 
# From -- ./inp_files/41903.got.cif
#   From: 2010.06.25/outbox.cif.g09.slc.cpg/sg11_21_cif.got.tgz:41903.got - 2010.06.27 23:14:04.
