data_PCOD8071649
_publ_section_title
;
Structure prediction by ZEFSAII (Michael W. Deem and Ramdas Pophale) SiO2 
 PCOD8071649
Probable space group: P 21/M
;
_chemical_formula_sum "Si O2"
_cell_formula_units_Z 20
_cell_length_a 9.384888
_cell_length_b 19.640364
_cell_length_c 5.097329
_cell_angle_alpha 90.000000
_cell_angle_beta 82.361764
_cell_angle_gamma 90.000000
_cell_volume 931.216420
_symmetry_space_group_name_H-M "P 21/M"
_symmetry_group_IT_number 11
_symmetry_cell_setting 'monoclinic'
loop_
_space_group_symop_operation_xyz
x,y,z
-x,1/2+y,-z
-x,-y,-z
x,1/2-y,z
loop_
_atom_site_type_symbol
_atom_site_label
_atom_site_fract_x
_atom_site_fract_y
_atom_site_fract_z
Si Si1 0.224020 0.674500 0.661149
Si Si2 0.224807 0.993499 0.158317
Si Si3 0.056052 0.866523 0.209568
Si Si4 0.761066 0.582761 0.340762
Si Si5 0.452269 0.926272 0.408311
O O1 0.290859 0.750000 0.680970
O O2 0.131236 0.676081 0.418643
O O3 0.351442 0.618539 0.625591
O O4 0.113237 0.659120 0.918922
O O5 0.224809 0.054999 0.366040
O O6 0.083692 0.947510 0.236800
O O7 0.362475 0.942424 0.165017
O O8 0.223953 0.019825 0.863266
O O9 0.882056 0.859610 0.262799
O O10 0.601701 0.615016 0.327823
O O11 0.500000 0.000000 0.500000
#
# Coordination Sequence:
#
# PCOD8071649 Si02
#       5
#     4   4   4   4   4
#     4  11  24  42  59  79 114 162 203 240 298 368
#     4  10  19  33  55  89 123 153 181 229 297 362
#     4  11  21  37  59  83 113 153 196 240 286 349
#     4  11  20  33  57  90 119 146 187 244 294 341
#     4   9  20  37  60  89 120 152 191 243 298 356
#
# _framework density 21.477287
#
# number of rings (size 3 to 8) (size 9 to 14) (size 15 to 20)
#    0.000    1.600    0.000    7.200    0.000    4.800 
#    0.000    2.000    0.000    0.000    0.000    0.000 
#    0.000    0.000    0.000    0.000    0.000    0.000 
#
# Total GULP energy -247855.921201 kJ/mol
# GULP energy per Si atom -12392.796060 kJ/mol
# Density = 2.142840 g / cm^3
# Si number density = 21.477287 Si / 1000 Ang^3
#
#
#
# Elastic Constant Matrix: (Units=GPa)
#
#
# Indices 1 2 3 4 5 6 
#
# 1 140.5745 39.1939 28.4207 0.0000 -28.2872 0.0000
# 2 39.1939 84.6813 19.5098 0.0000 -13.7626 0.0000
# 3 28.4207 19.5098 82.5858 0.0000 -10.2972 0.0000
# 4 0.0000 0.0000 0.0000 5.7905 0.0000 5.6116
# 5 -28.2872 -13.7626 -10.2972 0.0000 29.0551 0.0000
# 6 0.0000 0.0000 0.0000 5.6116 0.0000 14.6772
#
#
#
# Elastic Compliance Matrix: (Units=1/GPa)
#
#
# Indices 1 2 3 4 5 6 
#
# 1 0.009794 -0.002906 -0.001744 0.000000 0.007541 0.000000
# 2 -0.002906 0.014116 -0.001939 0.000000 0.003170 0.000000
# 3 -0.001744 -0.001939 0.013434 0.000000 0.002145 0.000000
# 4 0.000000 0.000000 0.000000 0.274353 0.000000 -0.104895
# 5 0.007541 0.003170 0.002145 0.000000 0.044020 0.000000
# 6 0.000000 0.000000 0.000000 -0.104895 0.000000 0.108238
#
#
# Mechanical properties :
#
#
# Convention : Reuss Voigt Hill
#
# Bulk Modulus (GPa) = 41.38031 53.56560 47.47295
# Shear Modulus (GPa) = 10.30528 24.61905 17.46216
#
# Velocity S-wave (km/s) = 2.19286 3.38935 2.85450
# Velocity P-wave (km/s) = 5.07152 6.34915 5.74596
#
# Compressibility (1/GPa) = 0.02416608
#
# Stress axis : x y z
#
# Youngs Moduli (GPa) = 102.10664 70.84219 74.43625
#
# Poissons Ratio (x) = 0.20584 0.12980
# Poissons Ratio (y) = 0.29669 0.14437
# Poissons Ratio (z) = 0.17805 0.13740
#
# Static dielectric constant tensor:
#      x y z
#    x 4.757580 0.000000 -0.077600 
#    y 0.000000 4.348970 0.000000 
#    z -0.077600 0.000000 3.769320 
# 
# 
# High freq. dielectric constant tensor:
#      x y z
#    x 1.857160 0.000000 0.001220 
#    y 0.000000 1.792030 0.000000 
#    z 0.001220 0.000000 1.847860 
# 
# From -- ./inp_files/2360.got.cif
#   From: 2010.06.25/outbox.cif.g09.slc.cpg/sg11_2_cif.got.tgz:2360.got - 2010.06.27 23:14:04.
