data_PCOD8071101
_publ_section_title
;
Structure prediction by ZEFSAII (Michael W. Deem and Ramdas Pophale) SiO2 
 PCOD8071101
Probable space group: P 21/M
;
_chemical_formula_sum "Si O2"
_cell_formula_units_Z 20
_cell_length_a 26.455370
_cell_length_b 8.942167
_cell_length_c 9.172223
_cell_angle_alpha 90.000000
_cell_angle_beta 150.281636
_cell_angle_gamma 90.000000
_cell_volume 1075.678775
_symmetry_space_group_name_H-M "P 21/M"
_symmetry_group_IT_number 11
_symmetry_cell_setting 'monoclinic'
loop_
_space_group_symop_operation_xyz
x,y,z
-x,1/2+y,-z
-x,-y,-z
x,1/2-y,z
loop_
_atom_site_type_symbol
_atom_site_label
_atom_site_fract_x
_atom_site_fract_y
_atom_site_fract_z
Si Si1 0.717817 0.574914 0.395988
Si Si2 0.905880 0.927181 0.345992
Si Si3 0.091634 0.425780 0.314374
Si Si4 0.276825 0.573852 0.277041
Si Si5 0.497118 0.921398 0.841320
O O1 0.729385 0.750000 0.465106
O O2 0.801946 0.523135 0.490866
O O3 0.731825 0.479032 0.577395
O O4 0.606588 0.544338 0.039110
O O5 0.912540 0.750000 0.346993
O O6 0.909532 0.979950 0.522234
O O7 0.000000 0.000000 0.500000
O O8 0.800695 0.983212 0.015687
O O9 0.077286 0.250000 0.267915
O O10 0.000000 0.500000 0.000000
O O11 0.251691 0.750000 0.207341
O O12 0.390409 0.535184 0.494525
O O13 0.488560 0.750000 0.859160
O O14 0.500000 0.000000 0.000000
#
# Coordination Sequence:
#
# PCOD8071101 Si02
#       5
#     4   4   4   4   4
#     4   9  17  33  55  77 102 136 172 210 253 297
#     4  11  23  38  54  75 102 134 170 210 254 304
#     4  10  22  37  54  75 100 130 168 211 256 303
#     4  10  19  32  52  80 108 135 168 208 249 297
#     4   8  15  28  49  75 103 133 168 205 245 293
#
# _framework density 18.592911999999998
#
# number of rings (size 3 to 8) (size 9 to 14) (size 15 to 20)
#    0.000    2.400    0.000    2.400    0.000    6.400 
#    0.000    1.000    0.000    0.000    0.000    0.000 
#    0.000    0.000    0.000    0.000    0.000    0.000 
#
# Total GULP energy -247791.644356 kJ/mol
# GULP energy per Si atom -12389.582218 kJ/mol
# Density = 1.855059 g / cm^3
# Si number density = 18.592912 Si / 1000 Ang^3
#
#
#
# Elastic Constant Matrix: (Units=GPa)
#
#
# Indices 1 2 3 4 5 6 
#
# 1 135.1996 36.9666 90.9662 0.0000 18.8673 0.0000
# 2 36.9666 47.3815 48.7836 0.0000 4.0955 0.0000
# 3 90.9662 48.7836 174.9136 0.0000 22.2634 0.0000
# 4 0.0000 0.0000 0.0000 32.8659 0.0000 1.3020
# 5 18.8673 4.0955 22.2634 0.0000 36.3874 0.0000
# 6 0.0000 0.0000 0.0000 1.3020 0.0000 22.7635
#
#
#
# Elastic Compliance Matrix: (Units=1/GPa)
#
#
# Indices 1 2 3 4 5 6 
#
# 1 0.012197 -0.004371 -0.004752 0.000000 -0.002925 0.000000
# 2 -0.004371 0.031290 -0.006826 0.000000 0.002921 0.000000
# 3 -0.004752 -0.006826 0.010498 0.000000 -0.003191 0.000000
# 4 0.000000 0.000000 0.000000 0.030496 0.000000 -0.001744
# 5 -0.002925 0.002921 -0.003191 0.000000 0.030622 0.000000
# 6 0.000000 0.000000 0.000000 -0.001744 0.000000 0.044030
#
#
# Mechanical properties :
#
#
# Convention : Reuss Voigt Hill
#
# Bulk Modulus (GPa) = 45.27095 78.99194 62.13144
# Shear Modulus (GPa) = 25.20252 30.45526 27.82889
#
# Velocity S-wave (km/s) = 3.68569 4.05162 3.87298
# Velocity P-wave (km/s) = 6.52026 8.02899 7.31363
#
# Compressibility (1/GPa) = 0.02208922
#
# Stress axis : x y z
#
# Youngs Moduli (GPa) = 81.98823 31.95864 95.25365
#
# Poissons Ratio (x) = 0.13968 0.45264
# Poissons Ratio (y) = 0.35833 0.65018
# Poissons Ratio (z) = 0.38960 0.21814
#
# Static dielectric constant tensor:
#      x y z
#    x 3.654550 0.000000 0.554460 
#    y 0.000000 3.396980 0.000000 
#    z 0.554460 0.000000 3.951800 
# 
# 
# High freq. dielectric constant tensor:
#      x y z
#    x 1.705810 0.000000 0.031230 
#    y 0.000000 1.724990 0.000000 
#    z 0.031230 0.000000 1.735470 
# 
# From -- ./inp_files/20171.got.cif
#   From: 2010.06.25/outbox.cif.g09.slc.cpg/sg11_11_cif.got.tgz:20171.got - 2010.06.27 23:14:04.
