data_PCOD8071229
_publ_section_title
;
Structure prediction by ZEFSAII (Michael W. Deem and Ramdas Pophale) SiO2 
 PCOD8071229
Probable space group: P 21/M
;
_chemical_formula_sum "Si O2"
_cell_formula_units_Z 24
_cell_length_a 17.400829
_cell_length_b 8.817978
_cell_length_c 24.880286
_cell_angle_alpha 90.000000
_cell_angle_beta 160.639475
_cell_angle_gamma 90.000000
_cell_volume 1265.588520
_symmetry_space_group_name_H-M "P 21/M"
_symmetry_group_IT_number 11
_symmetry_cell_setting 'monoclinic'
loop_
_space_group_symop_operation_xyz
x,y,z
-x,1/2+y,-z
-x,-y,-z
x,1/2-y,z
loop_
_atom_site_type_symbol
_atom_site_label
_atom_site_fract_x
_atom_site_fract_y
_atom_site_fract_z
Si Si1 0.349435 0.929155 0.560630
Si Si2 0.334004 0.923789 0.729830
Si Si3 0.069058 0.074584 0.460877
Si Si4 0.193629 0.571465 0.090763
Si Si5 0.310813 0.572072 0.413615
Si Si6 0.848534 0.575149 0.049540
O O1 0.378021 0.750000 0.581408
O O2 0.341847 0.989573 0.494597
O O3 0.115079 0.978222 0.437166
O O4 0.558868 0.005417 0.730379
O O5 0.285077 0.750000 0.680065
O O6 0.190891 0.961712 0.689649
O O7 0.253610 0.031357 0.628637
O O8 0.605675 0.950946 0.920349
O O9 0.102485 0.250000 0.469003
O O10 0.194001 0.750000 0.099041
O O11 0.133949 0.531703 0.990340
O O12 0.000000 0.500000 0.000000
O O13 0.500000 0.500000 0.500000
O O14 0.349621 0.750000 0.437637
O O15 0.053160 0.527632 0.224748
O O16 0.873226 0.750000 0.047340
#
# Coordination Sequence:
#
# PCOD8071229 Si02
#       6
#     4   4   4   4   4   4
#     4  11  22  38  57  82 115 152 189 232 282 335
#     4   9  18  33  56  83 115 149 184 232 288 337
#     4  10  19  32  54  86 116 147 188 233 282 337
#     4  12  24  37  56  84 112 143 186 237 285 339
#     4  10  23  40  59  81 110 150 193 232 283 342
#     4  10  20  38  60  83 111 147 188 235 286 336
#
# _framework density 18.963509999999999
#
# number of rings (size 3 to 8) (size 9 to 14) (size 15 to 20)
#    0.000    1.667    1.667    3.500    0.000    5.333 
#    0.000    0.833    0.000    0.000    0.000    0.000 
#    0.000    0.000    0.000    0.000    0.000    0.000 
#
# Total GULP energy -297660.020685 kJ/mol
# GULP energy per Si atom -12402.500862 kJ/mol
# Density = 1.892035 g / cm^3
# Si number density = 18.963510 Si / 1000 Ang^3
#
#
#
# Elastic Constant Matrix: (Units=GPa)
#
#
# Indices 1 2 3 4 5 6 
#
# 1 137.3382 42.7023 38.8729 0.0000 9.3719 0.0000
# 2 42.7023 78.7367 26.2484 0.0000 1.5078 0.0000
# 3 38.8729 26.2484 81.3765 0.0000 11.4723 0.0000
# 4 0.0000 0.0000 0.0000 16.6251 0.0000 5.1721
# 5 9.3719 1.5078 11.4723 0.0000 35.1446 0.0000
# 6 0.0000 0.0000 0.0000 5.1721 0.0000 34.0965
#
#
#
# Elastic Compliance Matrix: (Units=1/GPa)
#
#
# Indices 1 2 3 4 5 6 
#
# 1 0.009513 -0.004126 -0.003019 0.000000 -0.001374 0.000000
# 2 -0.004126 0.016050 -0.003421 0.000000 0.001529 0.000000
# 3 -0.003019 -0.003421 0.015409 0.000000 -0.004078 0.000000
# 4 0.000000 0.000000 0.000000 0.063129 0.000000 -0.009576
# 5 -0.001374 0.001529 -0.004078 0.000000 0.030086 0.000000
# 6 0.000000 0.000000 0.000000 -0.009576 0.000000 0.030781
#
#
# Mechanical properties :
#
#
# Convention : Reuss Voigt Hill
#
# Bulk Modulus (GPa) = 50.40907 57.01097 53.71002
# Shear Modulus (GPa) = 25.94510 29.81510 27.88010
#
# Velocity S-wave (km/s) = 3.70288 3.96944 3.83847
# Velocity P-wave (km/s) = 6.70236 7.15104 6.93033
#
# Compressibility (1/GPa) = 0.01983770
#
# Stress axis : x y z
#
# Youngs Moduli (GPa) = 105.12299 62.30653 64.89532
#
# Poissons Ratio (x) = 0.25709 0.19595
# Poissons Ratio (y) = 0.43376 0.22203
# Poissons Ratio (z) = 0.31742 0.21317
#
# Static dielectric constant tensor:
#      x y z
#    x 3.684580 0.000000 0.170090 
#    y 0.000000 3.543270 0.000000 
#    z 0.170090 0.000000 3.515320 
# 
# 
# High freq. dielectric constant tensor:
#      x y z
#    x 1.747530 0.000000 0.019310 
#    y 0.000000 1.738850 0.000000 
#    z 0.019310 0.000000 1.724110 
# 
# From -- ./inp_files/56501.got.cif
#   From: 2010.06.25/outbox.cif.g09.slc.cpg/sg11_29_cif.got.tgz:56501.got - 2010.06.27 23:14:04.
