data_PCOD8071087
_publ_section_title
;
Structure prediction by ZEFSAII (Michael W. Deem and Ramdas Pophale) SiO2 
 PCOD8071087
Probable space group: P 21/M
;
_chemical_formula_sum "Si O2"
_cell_formula_units_Z 28
_cell_length_a 25.370988
_cell_length_b 8.327028
_cell_length_c 9.075366
_cell_angle_alpha 90.000000
_cell_angle_beta 46.621614
_cell_angle_gamma 90.000000
_cell_volume 1393.563223
_symmetry_space_group_name_H-M "P 21/M"
_symmetry_group_IT_number 11
_symmetry_cell_setting 'monoclinic'
loop_
_space_group_symop_operation_xyz
x,y,z
-x,1/2+y,-z
-x,-y,-z
x,1/2-y,z
loop_
_atom_site_type_symbol
_atom_site_label
_atom_site_fract_x
_atom_site_fract_y
_atom_site_fract_z
Si Si1 0.146353 0.063927 0.548576
Si Si2 0.131744 0.935481 0.895520
Si Si3 0.995855 0.939791 0.343048
Si Si4 0.276072 0.561044 0.123238
Si Si5 0.430612 0.930988 0.824204
Si Si6 0.580217 0.560902 0.471961
Si Si7 0.741076 0.565824 0.166643
O O1 0.157747 0.250000 0.491765
O O2 0.077164 0.994586 0.593139
O O3 0.134688 0.040450 0.743452
O O4 0.217630 0.968929 0.361719
O O5 0.120560 0.750000 0.874846
O O6 0.205282 0.952335 0.846807
O O7 0.064986 0.003815 0.119683
O O8 0.996602 0.750000 0.341202
O O9 0.000000 0.000000 0.500000
O O10 0.282186 0.750000 0.077517
O O11 0.355115 0.490779 0.029222
O O12 0.253302 0.471525 0.017497
O O13 0.427724 0.750000 0.883275
O O14 0.512341 0.994057 0.710370
O O15 0.425139 0.946758 0.658594
O O16 0.570661 0.750000 0.447367
O O17 0.659936 0.534966 0.388122
O O18 0.764165 0.750000 0.145877
#
# Coordination Sequence:
#
# PCOD8071087 Si02
#       7
#     4   4   4   4   4   4   4
#     4  11  23  39  57  79 107 140 177 216 262 313
#     4  11  23  39  57  79 107 140 177 216 262 313
#     4  10  23  40  60  84 108 136 171 212 257 308
#     4  10  19  32  52  79 109 141 178 220 264 311
#     4   8  14  25  43  69 101 135 171 213 260 307
#     4   8  14  25  43  69 101 135 171 213 260 307
#     4  10  19  32  52  79 109 141 178 220 264 311
#
# _framework density 20.092379999999999
#
# number of rings (size 3 to 8) (size 9 to 14) (size 15 to 20)
#    0.000    2.286    0.000    3.000    0.000    5.714 
#    0.000    0.000    0.000    0.857    0.000    0.000 
#    0.000    0.000    0.000    0.000    0.000    0.000 
#
# Total GULP energy -346888.556008 kJ/mol
# GULP energy per Si atom -12388.877000 kJ/mol
# Density = 2.004665 g / cm^3
# Si number density = 20.092380 Si / 1000 Ang^3
#
#
#
# Elastic Constant Matrix: (Units=GPa)
#
#
# Indices 1 2 3 4 5 6 
#
# 1 66.7707 6.7112 82.8712 0.0000 -22.2764 0.0000
# 2 6.7112 29.8112 10.9695 0.0000 -7.4506 0.0000
# 3 82.8712 10.9695 152.3976 0.0000 -32.8942 0.0000
# 4 0.0000 0.0000 0.0000 24.8270 0.0000 0.9585
# 5 -22.2764 -7.4506 -32.8942 0.0000 39.1208 0.0000
# 6 0.0000 0.0000 0.0000 0.9585 0.0000 25.3295
#
#
#
# Elastic Compliance Matrix: (Units=1/GPa)
#
#
# Indices 1 2 3 4 5 6 
#
# 1 0.047382 -0.000083 -0.024361 0.000000 0.006482 0.000000
# 2 -0.000083 0.035443 -0.001294 0.000000 0.005615 0.000000
# 3 -0.024361 -0.001294 0.020592 0.000000 0.003196 0.000000
# 4 0.000000 0.000000 0.000000 0.040338 0.000000 -0.001526
# 5 0.006482 0.005615 0.003196 0.000000 0.033009 0.000000
# 6 0.000000 0.000000 0.000000 -0.001526 0.000000 0.039537
#
#
# Mechanical properties :
#
#
# Convention : Reuss Voigt Hill
#
# Bulk Modulus (GPa) = 19.25269 50.00927 34.63098
# Shear Modulus (GPa) = 17.53835 27.75064 22.64450
#
# Velocity S-wave (km/s) = 2.95767 3.72042 3.36075
# Velocity P-wave (km/s) = 4.61158 6.58780 5.68620
#
# Compressibility (1/GPa) = 0.05194080
#
# Stress axis : x y z
#
# Youngs Moduli (GPa) = 21.10506 28.21470 48.56340
#
# Poissons Ratio (x) = 0.00234 1.18303
# Poissons Ratio (y) = 0.00175 0.06284
# Poissons Ratio (z) = 0.51413 0.03651
#
# Static dielectric constant tensor:
#      x y z
#    x 3.651040 0.000000 -0.693360 
#    y 0.000000 3.519280 0.000000 
#    z -0.693360 0.000000 3.836850 
# 
# 
# High freq. dielectric constant tensor:
#      x y z
#    x 1.767240 0.000000 -0.045160 
#    y 0.000000 1.774810 0.000000 
#    z -0.045160 0.000000 1.786190 
# 
# From -- ./inp_files/28380.got.cif
#   From: 2010.06.25/outbox.cif.g09.slc.cpg/sg11_15_cif.got.tgz:28380.got - 2010.06.27 23:14:04.
