data_PCOD8071412
_publ_section_title
;
Structure prediction by ZEFSAII (Michael W. Deem and Ramdas Pophale) SiO2 
 PCOD8071412
Probable space group: P 21/M
;
_chemical_formula_sum "Si O2"
_cell_formula_units_Z 28
_cell_length_a 20.106823
_cell_length_b 9.250626
_cell_length_c 25.392338
_cell_angle_alpha 90.000000
_cell_angle_beta 18.984437
_cell_angle_gamma 90.000000
_cell_volume 1536.442946
_symmetry_space_group_name_H-M "P 21/M"
_symmetry_group_IT_number 11
_symmetry_cell_setting 'monoclinic'
loop_
_space_group_symop_operation_xyz
x,y,z
-x,1/2+y,-z
-x,-y,-z
x,1/2-y,z
loop_
_atom_site_type_symbol
_atom_site_label
_atom_site_fract_x
_atom_site_fract_y
_atom_site_fract_z
Si Si1 0.980047 0.409912 0.593857
Si Si2 0.062915 0.079273 0.800894
Si Si3 0.382149 0.920135 0.898133
Si Si4 0.676885 0.922879 0.588407
Si Si5 0.590688 0.579306 0.537658
Si Si6 0.869583 0.422676 0.142146
Si Si7 0.697752 0.589945 0.741483
O O1 0.902849 0.250000 0.665705
O O2 0.777012 0.500860 0.732549
O O3 0.106323 0.474992 0.549110
O O4 0.129887 0.405307 0.432110
O O5 0.076386 0.250000 0.804702
O O6 0.251371 0.023856 0.624595
O O7 0.055999 0.984383 0.858260
O O8 0.857190 0.043637 0.922405
O O9 0.423401 0.750000 0.867969
O O10 0.489459 0.981495 0.764736
O O11 0.493579 0.981027 0.867640
O O12 0.672534 0.750000 0.590146
O O13 0.648824 0.988199 0.550942
O O14 0.606805 0.750000 0.529499
O O15 0.365130 0.530839 0.690040
O O16 0.899067 0.250000 0.117516
O O17 0.000000 0.500000 0.000000
O O18 0.650731 0.750000 0.797937
#
# Coordination Sequence:
#
# PCOD8071412 Si02
#       7
#     4   4   4   4   4   4   4
#     4   8  13  21  37  60  84 112 148 192 237 274
#     4  10  19  33  53  75  98 126 160 196 238 285
#     4   8  14  25  44  67  91 122 158 194 233 280
#     4   8  13  24  42  65  91 119 155 196 234 275
#     4   9  18  31  50  74  98 126 160 197 236 284
#     4  11  22  36  54  76 100 126 158 196 238 282
#     4   8  13  22  37  59  86 115 149 190 234 277
#
# _framework density 18.22391
#
# number of rings (size 3 to 8) (size 9 to 14) (size 15 to 20)
#    0.000    3.143    0.000    3.429    0.000    2.286 
#    0.000    1.429    0.000    9.429    0.000    0.000 
#    0.000    0.000    0.000    0.000    0.000    0.000 
#
# Total GULP energy -346979.879192 kJ/mol
# GULP energy per Si atom -12392.138543 kJ/mol
# Density = 1.818243 g / cm^3
# Si number density = 18.223910 Si / 1000 Ang^3
#
#
#
# Elastic Constant Matrix: (Units=GPa)
#
#
# Indices 1 2 3 4 5 6 
#
# 1 71.3084 27.9165 56.3619 0.0000 -26.7831 0.0000
# 2 27.9165 44.1279 33.2508 0.0000 -9.8492 0.0000
# 3 56.3619 33.2508 118.1775 0.0000 -14.5379 0.0000
# 4 0.0000 0.0000 0.0000 17.4964 0.0000 -4.6682
# 5 -26.7831 -9.8492 -14.5379 0.0000 30.3981 0.0000
# 6 0.0000 0.0000 0.0000 -4.6682 0.0000 24.2082
#
#
#
# Elastic Compliance Matrix: (Units=1/GPa)
#
#
# Indices 1 2 3 4 5 6 
#
# 1 0.034816 -0.008351 -0.011490 0.000000 0.022475 0.000000
# 2 -0.008351 0.031754 -0.004878 0.000000 0.000597 0.000000
# 3 -0.011490 -0.004878 0.014742 0.000000 -0.004654 0.000000
# 4 0.000000 0.000000 0.000000 0.060255 0.000000 0.011619
# 5 0.022475 0.000597 -0.004654 0.000000 0.050667 0.000000
# 6 0.000000 0.000000 0.000000 0.011619 0.000000 0.043549
#
#
# Mechanical properties :
#
#
# Convention : Reuss Voigt Hill
#
# Bulk Modulus (GPa) = 31.37484 52.07467 41.72476
# Shear Modulus (GPa) = 16.90073 22.15951 19.53012
#
# Velocity S-wave (km/s) = 3.04862 3.49084 3.27720
# Velocity P-wave (km/s) = 5.44479 6.69962 6.10454
#
# Compressibility (1/GPa) = 0.03187267
#
# Stress axis : x y z
#
# Youngs Moduli (GPa) = 28.72209 31.49256 67.83452
#
# Poissons Ratio (x) = 0.26301 0.77944
# Poissons Ratio (y) = 0.23987 0.33088
# Poissons Ratio (z) = 0.33002 0.15361
#
# Static dielectric constant tensor:
#      x y z
#    x 3.633480 0.000000 -0.241710 
#    y 0.000000 3.045480 0.000000 
#    z -0.241710 0.000000 3.376620 
# 
# 
# High freq. dielectric constant tensor:
#      x y z
#    x 1.712760 0.000000 -0.025140 
#    y 0.000000 1.654430 0.000000 
#    z -0.025140 0.000000 1.692880 
# 
# From -- ./inp_files/69575.got.cif
#   From: 2010.06.25/outbox.cif.g09.slc.cpg/sg11_35_cif.got.tgz:69575.got - 2010.06.27 23:14:04.
