data_PCOD8071833
_publ_section_title
;
Structure prediction by ZEFSAII (Michael W. Deem and Ramdas Pophale) SiO2 
 PCOD8071833
Probable space group: P 21/M
;
_chemical_formula_sum "Si O2"
_cell_formula_units_Z 28
_cell_length_a 6.507082
_cell_length_b 16.344949
_cell_length_c 17.185756
_cell_angle_alpha 90.000000
_cell_angle_beta 124.085256
_cell_angle_gamma 90.000000
_cell_volume 1513.826548
_symmetry_space_group_name_H-M "P 21/M"
_symmetry_group_IT_number 11
_symmetry_cell_setting 'monoclinic'
loop_
_space_group_symop_operation_xyz
x,y,z
-x,1/2+y,-z
-x,-y,-z
x,1/2-y,z
loop_
_atom_site_type_symbol
_atom_site_label
_atom_site_fract_x
_atom_site_fract_y
_atom_site_fract_z
Si Si1 0.388167 0.000833 0.871569
Si Si2 0.313666 0.571838 0.442078
Si Si3 0.175263 0.524875 0.666899
Si Si4 0.576580 0.618637 0.351571
Si Si5 0.661007 0.157349 0.859224
Si Si6 0.872734 0.946206 0.038721
Si Si7 0.910285 0.339767 0.471252
O O1 0.294501 0.954047 0.775107
O O2 0.509391 0.090500 0.878243
O O3 0.155834 0.012203 0.881651
O O4 0.586576 0.936278 0.950129
O O5 0.500000 0.500000 0.500000
O O6 0.394326 0.626295 0.386079
O O7 0.302238 0.628881 0.515665
O O8 0.046114 0.537258 0.364186
O O9 0.374569 0.477801 0.655081
O O10 0.074874 0.604850 0.602578
O O11 0.451651 0.661054 0.251156
O O12 0.830406 0.663450 0.428097
O O13 0.639119 0.250000 0.889405
O O14 0.955605 0.134432 0.917216
O O15 0.000000 0.000000 0.000000
O O16 0.837196 0.250000 0.426913
#
# Coordination Sequence:
#
# PCOD8071833 Si02
#       7
#     4   4   4   4   4   4   4
#     4   9  19  35  57  77 103 141 177 216 261 323
#     4  11  18  34  55  74 101 146 190 214 259 316
#     4  10  19  34  54  77 100 142 183 217 256 322
#     4  10  19  35  53  75 107 144 178 216 258 320
#     4  10  20  32  52  83 111 135 169 218 275 320
#     4   9  18  36  56  80 103 131 174 215 261 319
#     4  11  22  33  48  76 110 140 179 227 268 305
#
# _framework density 18.496172999999999
#
# number of rings (size 3 to 8) (size 9 to 14) (size 15 to 20)
#    0.000    2.000    2.857    2.143    0.000    1.714 
#    0.000    0.714    0.000    3.429    0.000    0.000 
#    0.000    0.000    0.000    0.000    0.000    0.000 
#
# Total GULP energy -346989.374425 kJ/mol
# GULP energy per Si atom -12392.477658 kJ/mol
# Density = 1.845408 g / cm^3
# Si number density = 18.496173 Si / 1000 Ang^3
#
#
#
# Elastic Constant Matrix: (Units=GPa)
#
#
# Indices 1 2 3 4 5 6 
#
# 1 100.9945 24.4543 22.7615 0.0000 -15.6897 0.0000
# 2 24.4543 86.8842 35.1560 0.0000 1.5137 0.0000
# 3 22.7615 35.1560 94.4443 0.0000 -5.2614 0.0000
# 4 0.0000 0.0000 0.0000 13.0819 0.0000 2.7375
# 5 -15.6897 1.5137 -5.2614 0.0000 28.1813 0.0000
# 6 0.0000 0.0000 0.0000 2.7375 0.0000 16.6313
#
#
#
# Elastic Compliance Matrix: (Units=1/GPa)
#
#
# Indices 1 2 3 4 5 6 
#
# 1 0.011941 -0.002893 -0.001437 0.000000 0.006535 0.000000
# 2 -0.002893 0.014332 -0.004820 0.000000 -0.003281 0.000000
# 3 -0.001437 -0.004820 0.012832 0.000000 0.001855 0.000000
# 4 0.000000 0.000000 0.000000 0.079168 0.000000 -0.013031
# 5 0.006535 -0.003281 0.001855 0.000000 0.039645 0.000000
# 6 0.000000 0.000000 0.000000 -0.013031 0.000000 0.062272
#
#
# Mechanical properties :
#
#
# Convention : Reuss Voigt Hill
#
# Bulk Modulus (GPa) = 48.06760 49.67408 48.87084
# Shear Modulus (GPa) = 20.37270 24.90899 22.64085
#
# Velocity S-wave (km/s) = 3.32242 3.67374 3.50248
# Velocity P-wave (km/s) = 6.38453 6.70148 6.54492
#
# Compressibility (1/GPa) = 0.02080404
#
# Stress axis : x y z
#
# Youngs Moduli (GPa) = 83.74353 69.77635 77.92954
#
# Poissons Ratio (x) = 0.20190 0.11196
# Poissons Ratio (y) = 0.24231 0.37563
# Poissons Ratio (z) = 0.12032 0.33633
#
# Static dielectric constant tensor:
#      x y z
#    x 3.817780 0.000000 0.032950 
#    y 0.000000 3.188710 0.000000 
#    z 0.032950 0.000000 3.503270 
# 
# 
# High freq. dielectric constant tensor:
#      x y z
#    x 1.727250 0.000000 -0.004060 
#    y 0.000000 1.681770 0.000000 
#    z -0.004060 0.000000 1.719580 
# 
# From -- ./inp_files/57109.got.cif
#   From: 2010.06.25/outbox.cif.g09.slc.cpg/sg11_29_cif.got.tgz:57109.got - 2010.06.27 23:14:04.
