data_PCOD8071053
_publ_section_title
;
Structure prediction by ZEFSAII (Michael W. Deem and Ramdas Pophale) SiO2 
 PCOD8071053
Probable space group: P 21/M
;
_chemical_formula_sum "Si O2"
_cell_formula_units_Z 32
_cell_length_a 22.921729
_cell_length_b 8.865977
_cell_length_c 11.657586
_cell_angle_alpha 90.000000
_cell_angle_beta 133.683605
_cell_angle_gamma 90.000000
_cell_volume 1713.246632
_symmetry_space_group_name_H-M "P 21/M"
_symmetry_group_IT_number 11
_symmetry_cell_setting 'monoclinic'
loop_
_space_group_symop_operation_xyz
x,y,z
-x,1/2+y,-z
-x,-y,-z
x,1/2-y,z
loop_
_atom_site_type_symbol
_atom_site_label
_atom_site_fract_x
_atom_site_fract_y
_atom_site_fract_z
Si Si1 0.935326 0.923633 0.052497
Si Si2 0.111369 0.572001 0.236650
Si Si3 0.733567 0.428326 0.416854
Si Si4 0.197432 0.075113 0.956340
Si Si5 0.391247 0.429190 0.591739
Si Si6 0.663978 0.073745 0.713631
Si Si7 0.727474 0.071517 0.145571
Si Si8 0.569641 0.426006 0.805553
O O1 0.933995 0.750000 0.013026
O O2 0.027832 0.981589 0.183660
O O3 0.893681 0.946686 0.119858
O O4 0.884614 0.012061 0.887360
O O5 0.117669 0.750000 0.242010
O O6 0.186848 0.508416 0.411323
O O7 0.724023 0.250000 0.417658
O O8 0.654227 0.506390 0.359676
O O9 0.740502 0.475429 0.293966
O O10 0.223011 0.250000 0.992694
O O11 0.254286 0.979501 0.116496
O O12 0.202966 0.009590 0.835070
O O13 0.390734 0.250000 0.594720
O O14 0.346824 0.481892 0.416894
O O15 0.482504 0.496453 0.717316
O O16 0.670712 0.250000 0.693380
O O17 0.590140 0.040083 0.700375
O O18 0.734745 0.250000 0.136061
O O19 0.640162 0.009815 0.983888
O O20 0.564682 0.250000 0.821082
#
# Coordination Sequence:
#
# PCOD8071053 Si02
#       8
#     4   4   4   4   4   4   4   4
#     4   9  18  32  51  76 104 130 157 196 245 295
#     4   9  18  33  52  74 101 132 163 196 239 292
#     4  10  21  36  53  72  97 132 171 208 246 292
#     4  10  19  32  52  77 102 129 164 205 250 294
#     4  11  21  32  49  74 102 130 164 207 253 297
#     4  10  19  33  52  74 103 134 164 200 245 298
#     4   9  19  37  55  70  95 132 172 208 243 290
#     4   8  17  33  51  71  97 130 165 204 247 292
#
# _framework density 18.677987999999999
#
# number of rings (size 3 to 8) (size 9 to 14) (size 15 to 20)
#    0.000    2.500    0.000    3.000    0.000    4.500 
#    0.000    6.250    0.000    0.000    0.000    0.000 
#    0.000    0.000    0.000    0.000    0.000    0.000 
#
# Total GULP energy -396758.484308 kJ/mol
# GULP energy per Si atom -12398.702635 kJ/mol
# Density = 1.863548 g / cm^3
# Si number density = 18.677988 Si / 1000 Ang^3
#
#
#
# Elastic Constant Matrix: (Units=GPa)
#
#
# Indices 1 2 3 4 5 6 
#
# 1 141.7258 39.6754 43.8719 0.0000 -5.2444 0.0000
# 2 39.6754 34.4527 18.4147 0.0000 -2.7835 0.0000
# 3 43.8719 18.4147 58.2407 0.0000 -11.4293 0.0000
# 4 0.0000 0.0000 0.0000 20.0895 0.0000 -2.6940
# 5 -5.2444 -2.7835 -11.4293 0.0000 25.1129 0.0000
# 6 0.0000 0.0000 0.0000 -2.6940 0.0000 31.0103
#
#
#
# Elastic Compliance Matrix: (Units=1/GPa)
#
#
# Indices 1 2 3 4 5 6 
#
# 1 0.011748 -0.010549 -0.005778 0.000000 -0.001346 0.000000
# 2 -0.010549 0.044438 -0.006116 0.000000 -0.000061 0.000000
# 3 -0.005778 -0.006116 0.025351 0.000000 0.009653 0.000000
# 4 0.000000 0.000000 0.000000 0.050364 0.000000 0.004375
# 5 -0.001346 -0.000061 0.009653 0.000000 0.043926 0.000000
# 6 0.000000 0.000000 0.000000 0.004375 0.000000 0.032627
#
#
# Mechanical properties :
#
#
# Convention : Reuss Voigt Hill
#
# Bulk Modulus (GPa) = 27.28513 48.70481 37.99497
# Shear Modulus (GPa) = 18.82840 24.07302 21.45071
#
# Velocity S-wave (km/s) = 3.17843 3.59394 3.39255
# Velocity P-wave (km/s) = 5.30186 6.58442 5.97764
#
# Compressibility (1/GPa) = 0.03665000
#
# Stress axis : x y z
#
# Youngs Moduli (GPa) = 85.12141 22.50348 39.44655
#
# Poissons Ratio (x) = 0.23739 0.22793
# Poissons Ratio (y) = 0.89796 0.24125
# Poissons Ratio (z) = 0.49185 0.13763
#
# Static dielectric constant tensor:
#      x y z
#    x 3.700970 0.000000 0.147840 
#    y 0.000000 3.294230 0.000000 
#    z 0.147840 0.000000 3.441410 
# 
# 
# High freq. dielectric constant tensor:
#      x y z
#    x 1.736720 0.000000 0.005010 
#    y 0.000000 1.712070 0.000000 
#    z 0.005010 0.000000 1.706740 
# 
# From -- ./inp_files/42879.got.cif
#   From: 2010.06.25/outbox.cif.g09.slc.cpg/sg11_22_cif.got.tgz:42879.got - 2010.06.27 23:14:04.
