data_PCOD8071565
_publ_section_title
;
Structure prediction by ZEFSAII (Michael W. Deem and Ramdas Pophale) SiO2 
 PCOD8071565
Probable space group: P 21/M
;
_chemical_formula_sum "Si O2"
_cell_formula_units_Z 32
_cell_length_a 22.762507
_cell_length_b 17.148572
_cell_length_c 9.037160
_cell_angle_alpha 90.000000
_cell_angle_beta 150.680735
_cell_angle_gamma 90.000000
_cell_volume 1727.382560
_symmetry_space_group_name_H-M "P 21/M"
_symmetry_group_IT_number 11
_symmetry_cell_setting 'monoclinic'
loop_
_space_group_symop_operation_xyz
x,y,z
-x,1/2+y,-z
-x,-y,-z
x,1/2-y,z
loop_
_atom_site_type_symbol
_atom_site_label
_atom_site_fract_x
_atom_site_fract_y
_atom_site_fract_z
Si Si1 0.812152 0.563724 0.108162
Si Si2 0.028089 0.162609 0.730473
Si Si3 0.237689 0.664500 0.804818
Si Si4 0.029063 0.501016 0.289978
Si Si5 0.583264 0.553505 0.785790
Si Si6 0.779602 0.049542 0.771772
Si Si7 0.375012 0.658198 0.387360
Si Si8 0.745647 0.027417 0.371272
O O1 0.887997 0.640139 0.225609
O O2 0.895978 0.506691 0.391150
O O3 0.694169 0.590255 0.937954
O O4 0.763773 0.517479 0.859089
O O5 0.068164 0.250000 0.878076
O O6 0.888013 0.168514 0.381691
O O7 0.032809 0.088055 0.853990
O O8 0.277662 0.750000 0.840083
O O9 0.232537 0.613921 0.645410
O O10 0.331018 0.630296 0.128378
O O11 0.124403 0.484440 0.367931
O O12 0.921927 0.437523 0.050298
O O13 0.500000 0.500000 0.500000
O O14 0.507605 0.623140 0.693302
O O15 0.634203 0.508190 0.039401
O O16 0.716046 0.127909 0.687296
O O17 0.714325 0.025945 0.475172
O O18 0.380251 0.750000 0.415154
#
# Coordination Sequence:
#
# PCOD8071565 Si02
#       8
#     4   4   4   4   4   4   4   4
#     4  10  19  33  55  75 104 138 179 219 259 311
#     4   9  16  27  49  78 103 127 166 216 262 306
#     4   9  17  32  52  76 106 138 170 211 265 320
#     4   9  18  34  52  78 110 141 171 210 261 322
#     4  11  20  38  55  72 102 140 185 220 257 308
#     4  11  19  32  54  83 108 132 172 222 268 314
#     4  11  22  36  55  77 104 139 179 223 268 311
#     4  10  20  32  55  81 106 140 176 215 263 316
#
# _framework density 18.525137999999998
#
# number of rings (size 3 to 8) (size 9 to 14) (size 15 to 20)
#    0.000    2.000    2.500    4.125    0.000    1.500 
#    0.000    0.000    0.000    3.750    0.000    0.000 
#    0.000    0.000    0.000    0.000    0.000    0.000 
#
# Total GULP energy -396423.038135 kJ/mol
# GULP energy per Si atom -12388.219942 kJ/mol
# Density = 1.848297 g / cm^3
# Si number density = 18.525138 Si / 1000 Ang^3
#
#
#
# Elastic Constant Matrix: (Units=GPa)
#
#
# Indices 1 2 3 4 5 6 
#
# 1 84.6314 47.2770 43.3753 0.0000 -7.0575 0.0000
# 2 47.2770 74.4950 37.1789 0.0000 3.3906 0.0000
# 3 43.3753 37.1789 80.6984 0.0000 -0.1231 0.0000
# 4 0.0000 0.0000 0.0000 19.4564 0.0000 6.8380
# 5 -7.0575 3.3906 -0.1231 0.0000 31.4120 0.0000
# 6 0.0000 0.0000 0.0000 6.8380 0.0000 23.2728
#
#
#
# Elastic Compliance Matrix: (Units=1/GPa)
#
#
# Indices 1 2 3 4 5 6 
#
# 1 0.021766 -0.010717 -0.006752 0.000000 0.006021 0.000000
# 2 -0.010717 0.022825 -0.004763 0.000000 -0.004890 0.000000
# 3 -0.006752 -0.004763 0.018214 0.000000 -0.000932 0.000000
# 4 0.000000 0.000000 0.000000 0.057316 0.000000 -0.016840
# 5 0.006021 -0.004890 -0.000932 0.000000 0.033712 0.000000
# 6 0.000000 0.000000 0.000000 -0.016840 0.000000 0.047917
#
#
# Mechanical properties :
#
#
# Convention : Reuss Voigt Hill
#
# Bulk Modulus (GPa) = 54.52550 55.05413 54.78981
# Shear Modulus (GPa) = 19.81564 22.29448 21.05506
#
# Velocity S-wave (km/s) = 3.27412 3.47287 3.37496
# Velocity P-wave (km/s) = 6.61742 6.77231 6.69532
#
# Compressibility (1/GPa) = 0.01834004
#
# Stress axis : x y z
#
# Youngs Moduli (GPa) = 45.94411 43.81198 54.90312
#
# Poissons Ratio (x) = 0.46955 0.37071
# Poissons Ratio (y) = 0.49240 0.26148
# Poissons Ratio (z) = 0.31022 0.20866
#
# Static dielectric constant tensor:
#      x y z
#    x 3.484330 0.000000 0.252230 
#    y 0.000000 3.366000 0.000000 
#    z 0.252230 0.000000 3.415490 
# 
# 
# High freq. dielectric constant tensor:
#      x y z
#    x 1.712950 0.000000 0.016210 
#    y 0.000000 1.697370 0.000000 
#    z 0.016210 0.000000 1.708310 
# 
# From -- ./inp_files/27854.got.cif
#   From: 2010.06.25/outbox.cif.g09.slc.cpg/sg11_14_cif.got.tgz:27854.got - 2010.06.27 23:14:04.
