data_PCOD8071907
_publ_section_title
;
Structure prediction by ZEFSAII (Michael W. Deem and Ramdas Pophale) SiO2 
 PCOD8071907
Probable space group: P 21/M
;
_chemical_formula_sum "Si O2"
_cell_formula_units_Z 32
_cell_length_a 12.501953
_cell_length_b 9.492447
_cell_length_c 31.531759
_cell_angle_alpha 90.000000
_cell_angle_beta 28.095758
_cell_angle_gamma 90.000000
_cell_volume 1762.283925
_symmetry_space_group_name_H-M "P 21/M"
_symmetry_group_IT_number 11
_symmetry_cell_setting 'monoclinic'
loop_
_space_group_symop_operation_xyz
x,y,z
-x,1/2+y,-z
-x,-y,-z
x,1/2-y,z
loop_
_atom_site_type_symbol
_atom_site_label
_atom_site_fract_x
_atom_site_fract_y
_atom_site_fract_z
Si Si1 0.184646 0.097019 0.510889
Si Si2 0.093443 0.587249 0.006171
Si Si3 0.714196 0.081978 0.701726
Si Si4 0.970695 0.409345 0.276447
Si Si5 0.606418 0.589785 0.822647
Si Si6 0.284131 0.086985 0.795683
Si Si7 0.713401 0.903579 0.427571
Si Si8 0.653207 0.417436 0.310668
O O1 0.170023 0.250000 0.493789
O O2 0.219412 0.117403 0.548088
O O3 0.406645 0.020403 0.412910
O O4 0.932895 0.025332 0.596995
O O5 0.067442 0.750000 0.002826
O O6 0.353071 0.543743 0.924354
O O7 0.000000 0.500000 0.000000
O O8 0.950417 0.554303 0.098340
O O9 0.736416 0.250000 0.701436
O O10 0.490757 0.042702 0.753723
O O11 0.702552 0.008017 0.751449
O O12 0.884389 0.250000 0.316513
O O13 0.908858 0.517840 0.334463
O O14 0.858253 0.456692 0.271382
O O15 0.245108 0.417746 0.185335
O O16 0.609021 0.750000 0.804354
O O17 0.303776 0.250000 0.775367
O O18 0.283902 0.990247 0.754784
O O19 0.666455 0.750000 0.423482
O O20 0.500000 0.000000 0.500000
O O21 0.639988 0.250000 0.309522
#
# Coordination Sequence:
#
# PCOD8071907 Si02
#       8
#     4   4   4   4   4   4   4   4
#     4   9  18  32  51  77 108 143 180 218 267 318
#     4  10  20  36  59  85 111 138 172 223 280 330
#     4  10  19  34  55  80 112 143 174 222 278 324
#     4  10  20  35  53  79 112 144 182 227 275 320
#     4  10  20  33  55  87 114 135 172 227 280 327
#     4  10  22  38  55  78 109 143 181 227 272 323
#     4  11  19  30  51  78 109 144 184 229 273 320
#     4  10  21  38  55  72 106 153 190 220 260 320
#
# _framework density 18.158253999999999
#
# number of rings (size 3 to 8) (size 9 to 14) (size 15 to 20)
#    0.000    2.000    3.750    0.375    0.000    2.000 
#    0.000    1.250    0.000    0.000    0.000    0.000 
#    0.000    0.000    0.000    0.000    0.000    0.000 
#
# Total GULP energy -396425.378793 kJ/mol
# GULP energy per Si atom -12388.293087 kJ/mol
# Density = 1.811692 g / cm^3
# Si number density = 18.158254 Si / 1000 Ang^3
#
#
#
# Elastic Constant Matrix: (Units=GPa)
#
#
# Indices 1 2 3 4 5 6 
#
# 1 90.7089 28.5797 65.4991 0.0000 -9.4476 0.0000
# 2 28.5797 51.3490 38.2269 0.0000 0.7341 0.0000
# 3 65.4991 38.2269 135.3537 0.0000 -14.0654 0.0000
# 4 0.0000 0.0000 0.0000 19.8855 0.0000 6.6978
# 5 -9.4476 0.7341 -14.0654 0.0000 32.1623 0.0000
# 6 0.0000 0.0000 0.0000 6.6978 0.0000 25.1779
#
#
#
# Elastic Compliance Matrix: (Units=1/GPa)
#
#
# Indices 1 2 3 4 5 6 
#
# 1 0.017849 -0.004699 -0.007076 0.000000 0.002256 0.000000
# 2 -0.004699 0.026343 -0.005628 0.000000 -0.004443 0.000000
# 3 -0.007076 -0.005628 0.012780 0.000000 0.003639 0.000000
# 4 0.000000 0.000000 0.000000 0.055237 0.000000 -0.014694
# 5 0.002256 -0.004443 0.003639 0.000000 0.033448 0.000000
# 6 0.000000 0.000000 0.000000 -0.014694 0.000000 0.043626
#
#
# Mechanical properties :
#
#
# Convention : Reuss Voigt Hill
#
# Bulk Modulus (GPa) = 45.11264 60.22478 52.66871
# Shear Modulus (GPa) = 21.60045 25.11886 23.35965
#
# Velocity S-wave (km/s) = 3.45275 3.72335 3.59060
# Velocity P-wave (km/s) = 6.38697 7.19187 6.80134
#
# Compressibility (1/GPa) = 0.02216674
#
# Stress axis : x y z
#
# Youngs Moduli (GPa) = 56.02532 37.96078 78.24971
#
# Poissons Ratio (x) = 0.17838 0.55368
# Poissons Ratio (y) = 0.26327 0.44036
# Poissons Ratio (z) = 0.39642 0.21363
#
# Static dielectric constant tensor:
#      x y z
#    x 3.266640 0.000000 -0.309790 
#    y 0.000000 3.307240 0.000000 
#    z -0.309790 0.000000 3.448750 
# 
# 
# High freq. dielectric constant tensor:
#      x y z
#    x 1.693860 0.000000 -0.025170 
#    y 0.000000 1.692490 0.000000 
#    z -0.025170 0.000000 1.705040 
# 
# From -- ./inp_files/45259.got.cif
#   From: 2010.06.25/outbox.cif.g09.slc.cpg/sg11_23_cif.got.tgz:45259.got - 2010.06.27 23:14:04.
