data_PCOD8071081
_publ_section_title
;
Structure prediction by ZEFSAII (Michael W. Deem and Ramdas Pophale) SiO2 
 PCOD8071081
Probable space group: P 21/M
;
_chemical_formula_sum "Si O2"
_cell_formula_units_Z 32
_cell_length_a 12.257448
_cell_length_b 9.105564
_cell_length_c 20.043726
_cell_angle_alpha 90.000000
_cell_angle_beta 53.719069
_cell_angle_gamma 90.000000
_cell_volume 1803.382717
_symmetry_space_group_name_H-M "P 21/M"
_symmetry_group_IT_number 11
_symmetry_cell_setting 'monoclinic'
loop_
_space_group_symop_operation_xyz
x,y,z
-x,1/2+y,-z
-x,-y,-z
x,1/2-y,z
loop_
_atom_site_type_symbol
_atom_site_label
_atom_site_fract_x
_atom_site_fract_y
_atom_site_fract_z
Si Si1 0.367378 0.420501 0.021204
Si Si2 0.388988 0.920271 0.882852
Si Si3 0.314013 0.920524 0.762733
Si Si4 0.361204 0.422922 0.532601
Si Si5 0.855897 0.923738 0.280776
Si Si6 0.313907 0.424277 0.263295
Si Si7 0.611746 0.576729 0.623797
Si Si8 0.867851 0.579256 0.788264
O O1 0.401123 0.250000 0.002087
O O2 0.243734 0.447987 0.115346
O O3 0.500000 0.500000 0.000000
O O4 0.322524 0.485236 0.965870
O O5 0.387746 0.750000 0.903979
O O6 0.304023 0.945024 0.845852
O O7 0.542383 0.977421 0.817637
O O8 0.295364 0.750000 0.751261
O O9 0.457668 0.982358 0.683573
O O10 0.195230 0.011828 0.770812
O O11 0.500000 0.500000 0.500000
O O12 0.384839 0.250000 0.530043
O O13 0.242473 0.477350 0.623927
O O14 0.320831 0.467384 0.471024
O O15 0.860118 0.750000 0.274081
O O16 0.003888 0.981844 0.241999
O O17 0.314229 0.250000 0.261208
O O18 0.299816 0.483036 0.345152
O O19 0.191580 0.479854 0.261075
O O20 0.600888 0.750000 0.636492
O O21 0.909353 0.750000 0.769481
#
# Coordination Sequence:
#
# PCOD8071081 Si02
#       8
#     4   4   4   4   4   4   4   4
#     4  11  21  34  55  82 109 138 176 223 267 313
#     4   9  17  32  55  83 108 131 172 223 266 314
#     4   9  17  32  56  79 103 140 178 212 260 323
#     4  10  19  32  52  79 107 136 174 219 262 311
#     4  11  23  35  50  77 113 143 173 220 269 311
#     4   8  14  29  52  77 102 132 173 214 252 305
#     4   8  14  27  52  79 101 131 171 214 258 305
#     4  10  21  37  55  74 103 143 183 213 251 321
#
# _framework density 17.744430999999999
#
# number of rings (size 3 to 8) (size 9 to 14) (size 15 to 20)
#    0.000    2.500    2.500    2.250    0.000    2.000 
#    0.000    1.250    0.000    0.750    0.000    0.000 
#    0.000    0.000    0.000    0.000    0.000    0.000 
#
# Total GULP energy -396672.389623 kJ/mol
# GULP energy per Si atom -12396.012176 kJ/mol
# Density = 1.770404 g / cm^3
# Si number density = 17.744431 Si / 1000 Ang^3
#
#
#
# Elastic Constant Matrix: (Units=GPa)
#
#
# Indices 1 2 3 4 5 6 
#
# 1 144.5449 49.9699 59.3864 0.0000 13.6751 0.0000
# 2 49.9699 59.7946 46.3160 0.0000 3.5079 0.0000
# 3 59.3864 46.3160 84.1879 0.0000 15.6225 0.0000
# 4 0.0000 0.0000 0.0000 22.6949 0.0000 1.3313
# 5 13.6751 3.5079 15.6225 0.0000 29.0292 0.0000
# 6 0.0000 0.0000 0.0000 1.3313 0.0000 24.2524
#
#
#
# Elastic Compliance Matrix: (Units=1/GPa)
#
#
# Indices 1 2 3 4 5 6 
#
# 1 0.010769 -0.005757 -0.004018 0.000000 -0.002215 0.000000
# 2 -0.005757 0.033087 -0.015445 0.000000 0.007026 0.000000
# 3 -0.004018 -0.015445 0.025010 0.000000 -0.009700 0.000000
# 4 0.000000 0.000000 0.000000 0.044205 0.000000 -0.002427
# 5 -0.002215 0.007026 -0.009700 0.000000 0.039863 0.000000
# 6 0.000000 0.000000 0.000000 -0.002427 0.000000 0.041366
#
#
# Mechanical properties :
#
#
# Convention : Reuss Voigt Hill
#
# Bulk Modulus (GPa) = 54.27626 66.65243 60.46435
# Shear Modulus (GPa) = 19.92968 24.05231 21.99100
#
# Velocity S-wave (km/s) = 3.35498 3.68569 3.52421
# Velocity P-wave (km/s) = 6.75737 7.46702 7.12104
#
# Compressibility (1/GPa) = 0.01842426
#
# Stress axis : x y z
#
# Youngs Moduli (GPa) = 92.85948 30.22364 39.98434
#
# Poissons Ratio (x) = 0.17400 0.16066
# Poissons Ratio (y) = 0.53461 0.61757
# Poissons Ratio (z) = 0.37312 0.46681
#
# Static dielectric constant tensor:
#      x y z
#    x 3.547590 0.000000 0.449750 
#    y 0.000000 3.053600 0.000000 
#    z 0.449750 0.000000 3.541770 
# 
# 
# High freq. dielectric constant tensor:
#      x y z
#    x 1.687510 0.000000 0.026180 
#    y 0.000000 1.661270 0.000000 
#    z 0.026180 0.000000 1.677670 
# 
# From -- ./inp_files/64366.got.cif
#   From: 2010.06.25/outbox.cif.g09.slc.cpg/sg11_33_cif.got.tgz:64366.got - 2010.06.27 23:14:04.
