data_PCOD8071015
_publ_section_title
;
Structure prediction by ZEFSAII (Michael W. Deem and Ramdas Pophale) SiO2 
 PCOD8071015
Probable space group: P 21/M
;
_chemical_formula_sum "Si O2"
_cell_formula_units_Z 28
_cell_length_a 21.369724
_cell_length_b 8.941522
_cell_length_c 27.572337
_cell_angle_alpha 90.000000
_cell_angle_beta 17.255239
_cell_angle_gamma 90.000000
_cell_volume 1562.778399
_symmetry_space_group_name_H-M "P 21/M"
_symmetry_group_IT_number 11
_symmetry_cell_setting 'monoclinic'
loop_
_space_group_symop_operation_xyz
x,y,z
-x,1/2+y,-z
-x,-y,-z
x,1/2-y,z
loop_
_atom_site_type_symbol
_atom_site_label
_atom_site_fract_x
_atom_site_fract_y
_atom_site_fract_z
Si Si1 0.270986 0.080726 0.771731
Si Si2 0.175407 0.573359 0.336290
Si Si3 0.091794 0.573328 0.102323
Si Si4 0.646297 0.079266 0.430665
Si Si5 0.373006 0.925205 0.983942
Si Si6 0.103608 0.424717 0.997097
Si Si7 0.281504 0.922224 0.155275
O O1 0.182914 0.250000 0.830903
O O2 0.517234 0.073025 0.576711
O O3 0.245925 0.028279 0.845852
O O4 0.137941 0.974524 0.834136
O O5 0.166684 0.750000 0.351492
O O6 0.408494 0.515548 0.177302
O O7 0.127663 0.530674 0.314223
O O8 0.000000 0.500000 0.500000
O O9 0.070918 0.750000 0.115486
O O10 0.861708 0.505733 0.280417
O O11 0.192673 0.511885 0.977820
O O12 0.241323 0.520289 0.035162
O O13 0.691728 0.250000 0.381217
O O14 0.500000 0.000000 0.500000
O O15 0.429127 0.750000 0.939154
O O16 0.219911 0.956431 0.144644
O O17 0.110074 0.250000 0.003241
O O18 0.327197 0.750000 0.128661
O O19 0.500000 0.000000 0.000000
#
# Coordination Sequence:
#
# PCOD8071015 Si02
#       7
#     4   4   4   4   4   4   4
#     4   9  19  34  51  72  98 127 169 219 265 313
#     4  10  19  32  55  84 111 138 172 212 255 306
#     4  11  22  35  52  76 106 139 174 217 266 315
#     4  11  21  34  53  76 101 131 171 220 265 312
#     4   9  19  36  55  75 104 140 177 216 260 307
#     4  10  19  32  52  74  98 133 171 213 263 314
#     4   8  15  30  52  76 101 133 172 210 248 298
#
# _framework density 17.916806999999999
#
# number of rings (size 3 to 8) (size 9 to 14) (size 15 to 20)
#    0.000    2.286    1.429    1.714    0.000    2.857 
#    0.000    1.429    0.000    5.143    0.000    0.000 
#    0.000    0.000    0.000    0.000    0.000    0.000 
#
# Total GULP energy -346933.749364 kJ/mol
# GULP energy per Si atom -12390.491049 kJ/mol
# Density = 1.787603 g / cm^3
# Si number density = 17.916807 Si / 1000 Ang^3
#
#
#
# Elastic Constant Matrix: (Units=GPa)
#
#
# Indices 1 2 3 4 5 6 
#
# 1 152.2689 52.8695 61.4526 0.0000 15.3928 0.0000
# 2 52.8695 76.0281 34.8117 0.0000 2.7614 0.0000
# 3 61.4526 34.8117 90.7827 0.0000 15.1696 0.0000
# 4 0.0000 0.0000 0.0000 28.6886 0.0000 2.0591
# 5 15.3928 2.7614 15.1696 0.0000 27.0480 0.0000
# 6 0.0000 0.0000 0.0000 2.0591 0.0000 26.0646
#
#
#
# Elastic Compliance Matrix: (Units=1/GPa)
#
#
# Indices 1 2 3 4 5 6 
#
# 1 0.010503 -0.005048 -0.004702 0.000000 -0.002825 0.000000
# 2 -0.005048 0.018478 -0.004230 0.000000 0.003359 0.000000
# 3 -0.004702 -0.004230 0.016883 0.000000 -0.006361 0.000000
# 4 0.000000 0.000000 0.000000 0.035056 0.000000 -0.002769
# 5 -0.002825 0.003359 -0.006361 0.000000 0.041804 0.000000
# 6 0.000000 0.000000 0.000000 -0.002769 0.000000 0.038585
#
#
# Mechanical properties :
#
#
# Convention : Reuss Voigt Hill
#
# Bulk Modulus (GPa) = 55.85143 68.59413 62.22278
# Shear Modulus (GPa) = 25.60984 27.68996 26.64990
#
# Velocity S-wave (km/s) = 3.78481 3.93552 3.86090
# Velocity P-wave (km/s) = 7.09507 7.68238 7.39456
#
# Compressibility (1/GPa) = 0.01790465
#
# Stress axis : x y z
#
# Youngs Moduli (GPa) = 95.20700 54.11748 59.23113
#
# Poissons Ratio (x) = 0.27321 0.27851
# Poissons Ratio (y) = 0.48065 0.25052
# Poissons Ratio (z) = 0.44767 0.22889
#
# Static dielectric constant tensor:
#      x y z
#    x 3.761670 0.000000 0.531210 
#    y 0.000000 3.426810 0.000000 
#    z 0.531210 0.000000 3.114210 
# 
# 
# High freq. dielectric constant tensor:
#      x y z
#    x 1.691800 0.000000 0.035940 
#    y 0.000000 1.704110 0.000000 
#    z 0.035940 0.000000 1.675820 
# 
# From -- ./inp_files/71926.got.cif
#   From: 2010.06.25/outbox.cif.g09.slc.cpg/sg11_36_cif.got.tgz:71926.got - 2010.06.27 23:14:04.
