data_PCOD8071417
_publ_section_title
;
Structure prediction by ZEFSAII (Michael W. Deem and Ramdas Pophale) SiO2 
 PCOD8071417
Probable space group: P 21/M
;
_chemical_formula_sum "Si O2"
_cell_formula_units_Z 32
_cell_length_a 34.835893
_cell_length_b 8.834881
_cell_length_c 14.093864
_cell_angle_alpha 90.000000
_cell_angle_beta 23.827414
_cell_angle_gamma 90.000000
_cell_volume 1752.349974
_symmetry_space_group_name_H-M "P 21/M"
_symmetry_group_IT_number 11
_symmetry_cell_setting 'monoclinic'
loop_
_space_group_symop_operation_xyz
x,y,z
-x,1/2+y,-z
-x,-y,-z
x,1/2-y,z
loop_
_atom_site_type_symbol
_atom_site_label
_atom_site_fract_x
_atom_site_fract_y
_atom_site_fract_z
Si Si1 0.101967 0.572608 0.565883
Si Si2 0.101970 0.927666 0.974968
Si Si3 0.534298 0.930555 0.824241
Si Si4 0.649910 0.571801 0.288200
Si Si5 0.290683 0.570328 0.041910
Si Si6 0.550014 0.427429 0.178645
Si Si7 0.716869 0.070640 0.321947
Si Si8 0.899301 0.073231 0.226656
O O1 0.083529 0.750000 0.604707
O O2 0.181491 0.526182 0.309689
O O3 0.147500 0.525703 0.566703
O O4 0.001109 0.497770 0.770157
O O5 0.085926 0.750000 0.015408
O O6 0.178810 0.979307 0.878302
O O7 0.146911 0.976350 0.769634
O O8 0.535569 0.750000 0.829007
O O9 0.464071 0.987348 0.897671
O O10 0.639633 0.987727 0.562137
O O11 0.500000 0.000000 0.000000
O O12 0.666746 0.750000 0.262038
O O13 0.540339 0.527348 0.552932
O O14 0.713256 0.483813 0.221808
O O15 0.679188 0.518739 0.118801
O O16 0.303845 0.750000 0.997273
O O17 0.355941 0.510284 0.981898
O O18 0.558880 0.250000 0.150609
O O19 0.701074 0.250000 0.365348
O O20 0.912741 0.250000 0.194817
O O21 0.000000 0.000000 0.000000
#
# Coordination Sequence:
#
# PCOD8071417 Si02
#       8
#     4   4   4   4   4   4   4   4
#     4   9  18  30  48  74 103 131 163 204 252 301
#     4   9  18  32  52  74  99 133 172 208 248 298
#     4  10  20  35  54  80 112 143 172 208 251 297
#     4  10  20  35  53  75 101 131 167 213 262 309
#     4  10  19  33  53  76 100 131 168 210 258 309
#     4   8  17  33  53  75 101 133 170 206 249 305
#     4  10  20  35  55  77 100 135 177 214 252 302
#     4   8  14  27  45  67  94 125 159 197 240 291
#
# _framework density 18.261192999999999
#
# number of rings (size 3 to 8) (size 9 to 14) (size 15 to 20)
#    0.000    2.750    0.000    2.250    0.000    2.500 
#    0.000    7.500    0.000    4.500    0.000    0.000 
#    0.000    0.000    0.000    0.000    0.000    0.000 
#
# Total GULP energy -396417.965342 kJ/mol
# GULP energy per Si atom -12388.061417 kJ/mol
# Density = 1.821963 g / cm^3
# Si number density = 18.261193 Si / 1000 Ang^3
#
#
#
# Elastic Constant Matrix: (Units=GPa)
#
#
# Indices 1 2 3 4 5 6 
#
# 1 131.8208 35.1049 72.2531 0.0000 -2.5197 0.0000
# 2 35.1049 44.1794 29.5724 0.0000 -0.2053 0.0000
# 3 72.2531 29.5724 96.0542 0.0000 3.4721 0.0000
# 4 0.0000 0.0000 0.0000 27.8275 0.0000 3.8147
# 5 -2.5197 -0.2053 3.4721 0.0000 31.6773 0.0000
# 6 0.0000 0.0000 0.0000 3.8147 0.0000 24.7943
#
#
#
# Elastic Compliance Matrix: (Units=1/GPa)
#
#
# Indices 1 2 3 4 5 6 
#
# 1 0.013876 -0.005013 -0.008969 0.000000 0.002054 0.000000
# 2 -0.005013 0.030363 -0.005592 0.000000 0.000411 0.000000
# 3 -0.008969 -0.005592 0.018981 0.000000 -0.002830 0.000000
# 4 0.000000 0.000000 0.000000 0.036710 0.000000 -0.005648
# 5 0.002054 0.000411 -0.002830 0.000000 0.032045 0.000000
# 6 0.000000 0.000000 0.000000 -0.005648 0.000000 0.041201
#
#
# Mechanical properties :
#
#
# Convention : Reuss Voigt Hill
#
# Bulk Modulus (GPa) = 41.54010 60.65723 51.09867
# Shear Modulus (GPa) = 22.69136 25.86809 24.27972
#
# Velocity S-wave (km/s) = 3.52888 3.76781 3.65030
# Velocity P-wave (km/s) = 6.27703 7.22614 6.76824
#
# Compressibility (1/GPa) = 0.02407312
#
# Stress axis : x y z
#
# Youngs Moduli (GPa) = 72.06537 32.93436 52.68391
#
# Poissons Ratio (x) = 0.16510 0.47251
# Poissons Ratio (y) = 0.36127 0.29461
# Poissons Ratio (z) = 0.64634 0.18417
#
# Static dielectric constant tensor:
#      x y z
#    x 3.574360 0.000000 -0.094490 
#    y 0.000000 3.257700 0.000000 
#    z -0.094490 0.000000 3.210240 
# 
# 
# High freq. dielectric constant tensor:
#      x y z
#    x 1.716500 0.000000 0.007580 
#    y 0.000000 1.696770 0.000000 
#    z 0.007580 0.000000 1.695040 
# 
# From -- ./inp_files/45183.got.cif
#   From: 2010.06.25/outbox.cif.g09.slc.cpg/sg11_23_cif.got.tgz:45183.got - 2010.06.27 23:14:04.
