data_PCOD8071850
_publ_section_title
;
Structure prediction by ZEFSAII (Michael W. Deem and Ramdas Pophale) SiO2 
 PCOD8071850
Probable space group: P 21/M
;
_chemical_formula_sum "Si O2"
_cell_formula_units_Z 32
_cell_length_a 11.335753
_cell_length_b 9.014758
_cell_length_c 21.267015
_cell_angle_alpha 90.000000
_cell_angle_beta 52.276884
_cell_angle_gamma 90.000000
_cell_volume 1718.995347
_symmetry_space_group_name_H-M "P 21/M"
_symmetry_group_IT_number 11
_symmetry_cell_setting 'monoclinic'
loop_
_space_group_symop_operation_xyz
x,y,z
-x,1/2+y,-z
-x,-y,-z
x,1/2-y,z
loop_
_atom_site_type_symbol
_atom_site_label
_atom_site_fract_x
_atom_site_fract_y
_atom_site_fract_z
Si Si1 0.985532 0.423489 0.571094
Si Si2 0.158988 0.074566 0.945112
Si Si3 0.287355 0.076091 0.536442
Si Si4 0.335275 0.082957 0.122326
Si Si5 0.311466 0.574595 0.260285
Si Si6 0.560249 0.924977 0.386934
Si Si7 0.687008 0.083133 0.992436
Si Si8 0.608444 0.574339 0.232150
O O1 0.991617 0.250000 0.557043
O O2 0.119650 0.472352 0.573905
O O3 0.000000 0.500000 0.500000
O O4 0.829785 0.471332 0.652082
O O5 0.140384 0.250000 0.952655
O O6 0.245595 0.021550 0.853785
O O7 0.254046 0.024530 0.973312
O O8 0.000000 0.000000 0.000000
O O9 0.312574 0.250000 0.519434
O O10 0.321315 0.029167 0.597651
O O11 0.399478 0.994896 0.452663
O O12 0.270732 0.250000 0.141679
O O13 0.291049 0.006531 0.201292
O O14 0.261990 0.986140 0.090581
O O15 0.510978 0.087309 0.055764
O O16 0.319671 0.750000 0.245361
O O17 0.458875 0.513857 0.247330
O O18 0.536891 0.750000 0.392064
O O19 0.619044 0.984908 0.300363
O O20 0.753253 0.250000 0.976648
O O21 0.599526 0.750000 0.234776
#
# Coordination Sequence:
#
# PCOD8071850 Si02
#       8
#     4   4   4   4   4   4   4   4
#     4  10  21  35  53  80 113 148 183 226 277 328
#     4  11  22  38  57  80 112 145 184 233 281 333
#     4   9  18  33  52  79 112 140 177 224 270 317
#     4  10  20  34  56  84 111 141 179 227 278 327
#     4  10  19  34  54  78 108 145 187 228 274 332
#     4   9  17  33  57  79 103 142 184 221 263 318
#     4  10  20  36  58  82 108 143 183 222 277 338
#     4   9  18  33  55  78 102 138 184 226 267 323
#
# _framework density 18.615524000000001
#
# number of rings (size 3 to 8) (size 9 to 14) (size 15 to 20)
#    0.000    2.250    1.250    1.875    0.000    3.000 
#    2.250    1.875    0.000    0.000    0.000    0.000 
#    0.000    0.000    0.000    0.000    0.000    0.000 
#
# Total GULP energy -396797.825029 kJ/mol
# GULP energy per Si atom -12399.932032 kJ/mol
# Density = 1.857315 g / cm^3
# Si number density = 18.615524 Si / 1000 Ang^3
#
#
#
# Elastic Constant Matrix: (Units=GPa)
#
#
# Indices 1 2 3 4 5 6 
#
# 1 82.8394 31.7182 68.2346 0.0000 7.1277 0.0000
# 2 31.7182 59.6131 51.4935 0.0000 3.3361 0.0000
# 3 68.2346 51.4935 163.4974 0.0000 17.9982 0.0000
# 4 0.0000 0.0000 0.0000 29.6974 0.0000 2.5721
# 5 7.1277 3.3361 17.9982 0.0000 33.7328 0.0000
# 6 0.0000 0.0000 0.0000 2.5721 0.0000 28.7167
#
#
#
# Elastic Compliance Matrix: (Units=1/GPa)
#
#
# Indices 1 2 3 4 5 6 
#
# 1 0.019249 -0.004542 -0.006592 0.000000 -0.000101 0.000000
# 2 -0.004542 0.024207 -0.005918 0.000000 0.001723 0.000000
# 3 -0.006592 -0.005918 0.011170 0.000000 -0.003981 0.000000
# 4 0.000000 0.000000 0.000000 0.033936 0.000000 -0.003040
# 5 -0.000101 0.001723 -0.003981 0.000000 0.031620 0.000000
# 6 0.000000 0.000000 0.000000 -0.003040 0.000000 0.035095
#
#
# Mechanical properties :
#
#
# Convention : Reuss Voigt Hill
#
# Bulk Modulus (GPa) = 48.72914 67.64916 58.18915
# Shear Modulus (GPa) = 25.48137 28.72961 27.10549
#
# Velocity S-wave (km/s) = 3.70378 3.93277 3.81999
# Velocity P-wave (km/s) = 6.67263 7.55257 7.12620
#
# Compressibility (1/GPa) = 0.02052160
#
# Stress axis : x y z
#
# Youngs Moduli (GPa) = 51.95066 41.31005 89.52928
#
# Poissons Ratio (x) = 0.18764 0.59016
# Poissons Ratio (y) = 0.23597 0.52984
# Poissons Ratio (z) = 0.34245 0.24448
#
# Static dielectric constant tensor:
#      x y z
#    x 3.277070 0.000000 0.200720 
#    y 0.000000 4.172040 0.000000 
#    z 0.200720 0.000000 3.618340 
# 
# 
# High freq. dielectric constant tensor:
#      x y z
#    x 1.721480 0.000000 0.013420 
#    y 0.000000 1.711830 0.000000 
#    z 0.013420 0.000000 1.724750 
# 
# From -- ./inp_files/64381.got.cif
#   From: 2010.06.25/outbox.cif.g09.slc.cpg/sg11_33_cif.got.tgz:64381.got - 2010.06.27 23:14:04.
