data_PCOD8071389
_publ_section_title
;
Structure prediction by ZEFSAII (Michael W. Deem and Ramdas Pophale) SiO2 
 PCOD8071389
Probable space group: P 21/M
;
_chemical_formula_sum "Si O2"
_cell_formula_units_Z 32
_cell_length_a 6.720008
_cell_length_b 20.992161
_cell_length_c 12.166428
_cell_angle_alpha 90.000000
_cell_angle_beta 68.360111
_cell_angle_gamma 90.000000
_cell_volume 1595.323474
_symmetry_space_group_name_H-M "P 21/M"
_symmetry_group_IT_number 11
_symmetry_cell_setting 'monoclinic'
loop_
_space_group_symop_operation_xyz
x,y,z
-x,1/2+y,-z
-x,-y,-z
x,1/2-y,z
loop_
_atom_site_type_symbol
_atom_site_label
_atom_site_fract_x
_atom_site_fract_y
_atom_site_fract_z
Si Si1 0.791126 0.821721 0.532095
Si Si2 0.842748 0.439964 0.153268
Si Si3 0.033385 0.415120 0.883824
Si Si4 0.512029 0.078173 0.493593
Si Si5 0.611081 0.977854 0.691156
Si Si6 0.484555 0.109902 0.741083
Si Si7 0.879863 0.322638 0.729777
Si Si8 0.014477 0.603087 0.654994
O O1 0.705832 0.750000 0.546539
O O2 0.586559 0.868238 0.570015
O O3 0.922709 0.832293 0.619446
O O4 0.948485 0.836733 0.399057
O O5 0.931814 0.511287 0.158522
O O6 0.585324 0.437462 0.217323
O O7 0.949241 0.392703 0.221520
O O8 0.901941 0.412661 0.023087
O O9 0.266333 0.382307 0.854867
O O10 0.902995 0.373198 0.823171
O O11 0.436328 0.014808 0.434433
O O12 0.407051 0.096959 0.631300
O O13 0.766569 0.084055 0.449855
O O14 0.844091 0.951657 0.664174
O O15 0.614239 0.046444 0.749211
O O16 0.640207 0.169728 0.727688
O O17 0.901891 0.250000 0.768284
#
# Coordination Sequence:
#
# PCOD8071389 Si02
#       8
#     4   4   4   4   4   4   4   4
#     4  10  21  36  54  79 112 148 188 233 277 328
#     4   9  20  38  61  84 110 147 189 227 280 339
#     4  10  21  39  59  83 114 149 187 232 277 328
#     4  10  19  33  52  82 113 146 182 222 279 335
#     4   9  20  33  55  85 117 143 178 229 279 332
#     4  11  20  34  55  85 114 149 182 222 281 335
#     4  11  23  37  55  82 115 150 188 228 275 330
#     4  10  19  36  56  82 112 144 180 229 279 331
#
# _framework density 20.058627000000001
#
# number of rings (size 3 to 8) (size 9 to 14) (size 15 to 20)
#    0.000    2.000    2.500    1.125    0.000    3.000 
#    0.000    4.375    0.000    7.500    0.000    0.000 
#    0.000    0.000    0.000    0.000    0.000    0.000 
#
# Total GULP energy -396613.887195 kJ/mol
# GULP energy per Si atom -12394.183975 kJ/mol
# Density = 2.001297 g / cm^3
# Si number density = 20.058627 Si / 1000 Ang^3
#
#
#
# Elastic Constant Matrix: (Units=GPa)
#
#
# Indices 1 2 3 4 5 6 
#
# 1 102.7327 33.7468 34.8702 0.0000 -10.4122 0.0000
# 2 33.7468 58.1437 31.5424 0.0000 6.3231 0.0000
# 3 34.8702 31.5424 108.4972 0.0000 -2.4976 0.0000
# 4 0.0000 0.0000 0.0000 24.1079 0.0000 4.3436
# 5 -10.4122 6.3231 -2.4976 0.0000 29.9979 0.0000
# 6 0.0000 0.0000 0.0000 4.3436 0.0000 19.3476
#
#
#
# Elastic Compliance Matrix: (Units=1/GPa)
#
#
# Indices 1 2 3 4 5 6 
#
# 1 0.013460 -0.007360 -0.002047 0.000000 0.006053 0.000000
# 2 -0.007360 0.025160 -0.005140 0.000000 -0.008286 0.000000
# 3 -0.002047 -0.005140 0.011399 0.000000 0.001322 0.000000
# 4 0.000000 0.000000 0.000000 0.043229 0.000000 -0.009705
# 5 0.006053 -0.008286 0.001322 0.000000 0.037293 0.000000
# 6 0.000000 0.000000 0.000000 -0.009705 0.000000 0.053865
#
#
# Mechanical properties :
#
#
# Convention : Reuss Voigt Hill
#
# Bulk Modulus (GPa) = 47.78783 52.18804 49.98794
# Shear Modulus (GPa) = 22.67832 25.97162 24.32497
#
# Velocity S-wave (km/s) = 3.36609 3.60222 3.48615
# Velocity P-wave (km/s) = 6.24365 6.58601 6.41712
#
# Compressibility (1/GPa) = 0.02092583
#
# Stress axis : x y z
#
# Youngs Moduli (GPa) = 74.29447 39.74573 87.72424
#
# Poissons Ratio (x) = 0.29253 0.17956
# Poissons Ratio (y) = 0.54681 0.45088
# Poissons Ratio (z) = 0.15207 0.20428
#
# Static dielectric constant tensor:
#      x y z
#    x 3.626290 0.000000 0.041720 
#    y 0.000000 3.567960 0.000000 
#    z 0.041720 0.000000 3.596470 
# 
# 
# High freq. dielectric constant tensor:
#      x y z
#    x 1.793650 0.000000 -0.002550 
#    y 0.000000 1.762950 0.000000 
#    z -0.002550 0.000000 1.771120 
# 
# From -- ./inp_files/5386.got.cif
#   From: 2010.06.25/outbox.cif.g09.slc.cpg/sg11_3_cif.got.tgz:5386.got - 2010.06.27 23:14:04.
