data_PCOD8071266
_publ_section_title
;
Structure prediction by ZEFSAII (Michael W. Deem and Ramdas Pophale) SiO2 
 PCOD8071266
Probable space group: P 21/M
;
_chemical_formula_sum "Si O2"
_cell_formula_units_Z 32
_cell_length_a 20.017786
_cell_length_b 9.109195
_cell_length_c 11.175286
_cell_angle_alpha 90.000000
_cell_angle_beta 53.629204
_cell_angle_gamma 90.000000
_cell_volume 1640.802782
_symmetry_space_group_name_H-M "P 21/M"
_symmetry_group_IT_number 11
_symmetry_cell_setting 'monoclinic'
loop_
_space_group_symop_operation_xyz
x,y,z
-x,1/2+y,-z
-x,-y,-z
x,1/2-y,z
loop_
_atom_site_type_symbol
_atom_site_label
_atom_site_fract_x
_atom_site_fract_y
_atom_site_fract_z
Si Si1 0.255823 0.916459 0.662068
Si Si2 0.719996 0.579158 0.601590
Si Si3 0.411102 0.924929 0.108262
Si Si4 0.672640 0.076240 0.047064
Si Si5 0.889203 0.580985 0.542763
Si Si6 0.578229 0.083537 0.370632
Si Si7 0.037333 0.078370 0.282074
Si Si8 0.834986 0.422651 0.001518
O O1 0.238344 0.750000 0.638032
O O2 0.348669 0.929725 0.611611
O O3 0.245680 0.026785 0.562692
O O4 0.190997 0.960984 0.835024
O O5 0.696202 0.750000 0.620166
O O6 0.637659 0.487830 0.725032
O O7 0.792614 0.549816 0.620735
O O8 0.421860 0.750000 0.107942
O O9 0.355030 0.972388 0.054800
O O10 0.500000 0.000000 0.000000
O O11 0.673779 0.250000 0.061587
O O12 0.606771 0.013848 0.213544
O O13 0.764226 0.019093 0.984172
O O14 0.912029 0.750000 0.495187
O O15 0.908573 0.536492 0.658514
O O16 0.944783 0.484663 0.393802
O O17 0.550664 0.250000 0.381131
O O18 0.500000 0.000000 0.500000
O O19 0.030694 0.250000 0.267424
O O20 0.080477 0.006395 0.120506
O O21 0.849034 0.250000 0.971687
#
# Coordination Sequence:
#
# PCOD8071266 Si02
#       8
#     4   4   4   4   4   4   4   4
#     4   9  20  37  55  78 108 144 185 226 272 328
#     4  11  23  39  58  79 110 148 185 226 273 326
#     4  11  23  38  56  80 110 144 182 224 272 328
#     4   8  17  34  54  75 102 137 177 217 263 324
#     4   9  20  37  55  81 114 148 182 221 272 327
#     4   9  18  33  53  77 102 132 175 224 272 317
#     4  10  19  32  56  87 115 139 177 228 273 324
#     4   9  17  34  58  80 107 143 180 223 275 324
#
# _framework density 19.502648000000001
#
# number of rings (size 3 to 8) (size 9 to 14) (size 15 to 20)
#    0.000    2.500    0.000    3.375    1.750    2.500 
#    0.000    3.750    0.000    0.000    0.000    0.000 
#    0.000    0.000    0.000    0.000    0.000    0.000 
#
# Total GULP energy -396788.464488 kJ/mol
# GULP energy per Si atom -12399.639515 kJ/mol
# Density = 1.945826 g / cm^3
# Si number density = 19.502648 Si / 1000 Ang^3
#
#
#
# Elastic Constant Matrix: (Units=GPa)
#
#
# Indices 1 2 3 4 5 6 
#
# 1 39.7813 30.1435 25.9552 0.0000 -0.0836 0.0000
# 2 30.1435 80.9505 53.5194 0.0000 -7.3773 0.0000
# 3 25.9552 53.5194 121.9898 0.0000 -14.8713 0.0000
# 4 0.0000 0.0000 0.0000 37.7728 0.0000 -2.7892
# 5 -0.0836 -7.3773 -14.8713 0.0000 30.0133 0.0000
# 6 0.0000 0.0000 0.0000 -2.7892 0.0000 25.9904
#
#
#
# Elastic Compliance Matrix: (Units=1/GPa)
#
#
# Indices 1 2 3 4 5 6 
#
# 1 0.036053 -0.011830 -0.003004 0.000000 -0.004296 0.000000
# 2 -0.011830 0.021290 -0.006587 0.000000 0.001936 0.000000
# 3 -0.003004 -0.006587 0.012269 0.000000 0.004452 0.000000
# 4 0.000000 0.000000 0.000000 0.026686 0.000000 0.002864
# 5 -0.004296 0.001936 0.004452 0.000000 0.035988 0.000000
# 6 0.000000 0.000000 0.000000 0.002864 0.000000 0.038783
#
#
# Mechanical properties :
#
#
# Convention : Reuss Voigt Hill
#
# Bulk Modulus (GPa) = 37.35747 51.32862 44.34304
# Shear Modulus (GPa) = 22.43813 27.62886 25.03350
#
# Velocity S-wave (km/s) = 3.39561 3.76795 3.58662
# Velocity P-wave (km/s) = 5.87964 6.73097 6.31966
#
# Compressibility (1/GPa) = 0.02676841
#
# Stress axis : x y z
#
# Youngs Moduli (GPa) = 27.73726 46.97062 81.50435
#
# Poissons Ratio (x) = 0.55567 0.24487
# Poissons Ratio (y) = 0.32813 0.53689
# Poissons Ratio (z) = 0.08333 0.30941
#
# Static dielectric constant tensor:
#      x y z
#    x 2.919620 0.000000 -0.183220 
#    y 0.000000 3.498310 0.000000 
#    z -0.183220 0.000000 3.488770 
# 
# 
# High freq. dielectric constant tensor:
#      x y z
#    x 1.743330 0.000000 -0.004230 
#    y 0.000000 1.746400 0.000000 
#    z -0.004230 0.000000 1.770430 
# 
# From -- ./inp_files/42805.got.cif
#   From: 2010.06.25/outbox.cif.g09.slc.cpg/sg11_22_cif.got.tgz:42805.got - 2010.06.27 23:14:04.
