data_PCOD8071841
_publ_section_title
;
Structure prediction by ZEFSAII (Michael W. Deem and Ramdas Pophale) SiO2 
 PCOD8071841
Probable space group: P 21/M
;
_chemical_formula_sum "Si O2"
_cell_formula_units_Z 28
_cell_length_a 31.230502
_cell_length_b 8.578790
_cell_length_c 31.230642
_cell_angle_alpha 90.000000
_cell_angle_beta 9.528569
_cell_angle_gamma 90.000000
_cell_volume 1385.119401
_symmetry_space_group_name_H-M "P 21/M"
_symmetry_group_IT_number 11
_symmetry_cell_setting 'monoclinic'
loop_
_space_group_symop_operation_xyz
x,y,z
-x,1/2+y,-z
-x,-y,-z
x,1/2-y,z
loop_
_atom_site_type_symbol
_atom_site_label
_atom_site_fract_x
_atom_site_fract_y
_atom_site_fract_z
Si Si1 0.402954 0.434154 0.403035
Si Si2 0.169572 0.430507 0.169294
Si Si3 0.976227 0.435010 0.976271
Si Si4 0.548632 0.564672 0.548571
Si Si5 0.738631 0.066354 0.738640
Si Si6 0.308485 0.065821 0.308701
Si Si7 0.118730 0.428786 0.118633
O O1 0.403505 0.250000 0.403599
O O2 0.427170 0.501766 0.427228
O O3 0.640183 0.490171 0.141012
O O4 0.140922 0.490176 0.640274
O O5 0.176924 0.250000 0.176244
O O6 0.928389 0.516407 0.428158
O O7 0.428325 0.516589 0.928201
O O8 0.144092 0.448255 0.144019
O O9 0.977175 0.250000 0.977225
O O10 0.714397 0.499369 0.213034
O O11 0.000000 0.500000 0.000000
O O12 0.212971 0.499369 0.714457
O O13 0.548999 0.750000 0.548939
O O14 0.741109 0.250000 0.741114
O O15 0.713884 0.020959 0.713963
O O16 0.000000 0.000000 0.500000
O O17 0.500000 0.000000 0.000000
O O18 0.304520 0.250000 0.305098
O O19 0.111729 0.250000 0.111614
#
# Coordination Sequence:
#
# PCOD8071841 Si02
#       7
#     4   4   4   4   4   4   4
#     4  11  22  39  64  89 115 156 207 246 289 357
#     4  11  24  43  64  88 123 167 204 241 302 370
#     4  10  19  34  54  77 107 142 183 230 285 343
#     4   9  19  35  55  78 108 146 185 232 286 344
#     4  12  25  44  67  94 128 166 207 252 305 363
#     4  12  25  42  65  95 126 159 205 258 304 351
#     4  11  24  41  61  89 126 160 194 247 311 358
#
# _framework density 20.214863999999999
#
# number of rings (size 3 to 8) (size 9 to 14) (size 15 to 20)
#    0.000    1.143    0.000    6.857    0.000    8.000 
#    0.000    4.286    0.000    0.000    0.000    0.000 
#    0.000    0.000    0.000    0.000    0.000    0.000 
#
# Total GULP energy -347355.970736 kJ/mol
# GULP energy per Si atom -12405.570383 kJ/mol
# Density = 2.016885 g / cm^3
# Si number density = 20.214864 Si / 1000 Ang^3
#
#
#
# Elastic Constant Matrix: (Units=GPa)
#
#
# Indices 1 2 3 4 5 6 
#
# 1 130.3793 43.6674 53.0226 0.0000 -73.9103 0.0000
# 2 43.6674 112.7807 52.7716 0.0000 -2.8489 0.0000
# 3 53.0226 52.7716 214.7453 0.0000 68.8761 0.0000
# 4 0.0000 0.0000 0.0000 32.5530 0.0000 0.3965
# 5 -73.9103 -2.8489 68.8761 0.0000 468.5890 0.0000
# 6 0.0000 0.0000 0.0000 0.3965 0.0000 36.9859
#
#
#
# Elastic Compliance Matrix: (Units=1/GPa)
#
#
# Indices 1 2 3 4 5 6 
#
# 1 0.010915 -0.002936 -0.002645 0.000000 0.002092 0.000000
# 2 -0.002936 0.010897 -0.001916 0.000000 -0.000115 0.000000
# 3 -0.002645 -0.001916 0.006211 0.000000 -0.001342 0.000000
# 4 0.000000 0.000000 0.000000 0.030723 0.000000 -0.000329
# 5 0.002092 -0.000115 -0.001342 0.000000 0.002661 0.000000
# 6 0.000000 0.000000 0.000000 -0.000329 0.000000 0.027041
#
#
# Mechanical properties :
#
#
# Convention : Reuss Voigt Hill
#
# Bulk Modulus (GPa) = 76.74684 84.09205 80.41945
# Shear Modulus (GPa) = 46.38911 128.18849 87.28880
#
# Velocity S-wave (km/s) = 4.79561 7.97187 6.57832
# Velocity P-wave (km/s) = 8.28926 11.24383 9.87764
#
# Compressibility (1/GPa) = 0.01302985
#
# Stress axis : x y z
#
# Youngs Moduli (GPa) = 91.61745 91.76749 161.00840
#
# Poissons Ratio (x) = 0.26941 0.42582
# Poissons Ratio (y) = 0.26897 0.30850
# Poissons Ratio (z) = 0.24230 0.17583
#
# Static dielectric constant tensor:
#      x y z
#    x 3.951490 0.000000 0.011800 
#    y 0.000000 3.733460 0.000000 
#    z 0.011800 0.000000 3.795110 
# 
# 
# High freq. dielectric constant tensor:
#      x y z
#    x 1.811300 0.000000 -0.000280 
#    y 0.000000 1.788440 0.000000 
#    z -0.000280 0.000000 1.814500 
# 
# From -- ./inp_files/73855.got.cif
#   From: 2010.06.25/outbox.cif.g09.slc.cpg/sg11_37_cif.got.tgz:73855.got - 2010.06.27 23:14:04.
