data_PCOD8071612
_publ_section_title
;
Structure prediction by ZEFSAII (Michael W. Deem and Ramdas Pophale) SiO2 
 PCOD8071612
Probable space group: P 21/M
;
_chemical_formula_sum "Si O2"
_cell_formula_units_Z 28
_cell_length_a 14.929789
_cell_length_b 8.559008
_cell_length_c 12.339483
_cell_angle_alpha 90.000000
_cell_angle_beta 74.397516
_cell_angle_gamma 90.000000
_cell_volume 1518.687451
_symmetry_space_group_name_H-M "P 21/M"
_symmetry_group_IT_number 11
_symmetry_cell_setting 'monoclinic'
loop_
_space_group_symop_operation_xyz
x,y,z
-x,1/2+y,-z
-x,-y,-z
x,1/2-y,z
loop_
_atom_site_type_symbol
_atom_site_label
_atom_site_fract_x
_atom_site_fract_y
_atom_site_fract_z
Si Si1 0.884788 0.568620 0.372420
Si Si2 0.398629 0.570248 0.637398
Si Si3 0.791181 0.430928 0.196731
Si Si4 0.078722 0.068333 0.272605
Si Si5 0.605138 0.929640 0.591087
Si Si6 0.093543 0.065891 0.020287
Si Si7 0.784301 0.430083 0.607365
O O1 0.868778 0.750000 0.402562
O O2 0.851789 0.527428 0.262748
O O3 0.825968 0.468084 0.476203
O O4 0.993452 0.529939 0.349058
O O5 0.398584 0.750000 0.597350
O O6 0.318879 0.540132 0.752165
O O7 0.378543 0.461757 0.541294
O O8 0.498622 0.528739 0.657553
O O9 0.817496 0.250000 0.202122
O O10 0.817903 0.490039 0.068691
O O11 0.052706 0.250000 0.287055
O O12 0.100313 0.016608 0.143138
O O13 0.168836 0.034051 0.315199
O O14 0.628478 0.750000 0.605814
O O15 0.674206 0.032778 0.641574
O O16 0.095919 0.250000 0.004188
O O17 0.000000 0.000000 0.000000
O O18 0.800075 0.250000 0.629760
#
# Coordination Sequence:
#
# PCOD8071612 Si02
#       7
#     4   4   4   4   4   4   4
#     4  12  23  36  56  83 114 150 188 226 275 334
#     4   9  19  34  54  82 114 147 183 226 278 330
#     4  11  21  35  57  84 117 149 183 229 278 330
#     4  11  24  41  58  79 110 150 191 232 276 330
#     4  10  19  33  55  82 112 147 185 227 275 333
#     4  11  23  38  59  82 110 146 189 235 279 327
#     4  12  24  38  56  81 115 151 186 230 282 336
#
# _framework density 18.436973999999999
#
# number of rings (size 3 to 8) (size 9 to 14) (size 15 to 20)
#    0.000    1.143    2.857    4.714    0.000    2.857 
#    0.000    0.000    0.000    0.857    0.000    0.000 
#    0.000    0.000    0.000    0.000    0.000    0.000 
#
# Total GULP energy -347354.880210 kJ/mol
# GULP energy per Si atom -12405.531436 kJ/mol
# Density = 1.839501 g / cm^3
# Si number density = 18.436974 Si / 1000 Ang^3
#
#
#
# Elastic Constant Matrix: (Units=GPa)
#
#
# Indices 1 2 3 4 5 6 
#
# 1 117.6758 22.6462 38.2802 0.0000 -9.3939 0.0000
# 2 22.6462 63.4887 18.2009 0.0000 -6.1323 0.0000
# 3 38.2802 18.2009 71.1515 0.0000 -7.9673 0.0000
# 4 0.0000 0.0000 0.0000 28.4732 0.0000 -0.9015
# 5 -9.3939 -6.1323 -7.9673 0.0000 28.9836 0.0000
# 6 0.0000 0.0000 0.0000 -0.9015 0.0000 28.0138
#
#
#
# Elastic Compliance Matrix: (Units=1/GPa)
#
#
# Indices 1 2 3 4 5 6 
#
# 1 0.010680 -0.002221 -0.004997 0.000000 0.001618 0.000000
# 2 -0.002221 0.017633 -0.003073 0.000000 0.002166 0.000000
# 3 -0.004997 -0.003073 0.017823 0.000000 0.002630 0.000000
# 4 0.000000 0.000000 0.000000 0.035157 0.000000 0.001131
# 5 0.001618 0.002166 0.002630 0.000000 0.036208 0.000000
# 6 0.000000 0.000000 0.000000 0.001131 0.000000 0.035733
#
#
# Mechanical properties :
#
#
# Convention : Reuss Voigt Hill
#
# Bulk Modulus (GPa) = 39.13106 45.61896 42.37501
# Shear Modulus (GPa) = 27.42222 28.64003 28.03112
#
# Velocity S-wave (km/s) = 3.86080 3.94560 3.90343
# Velocity P-wave (km/s) = 6.41441 6.74936 6.58402
#
# Compressibility (1/GPa) = 0.02555515
#
# Stress axis : x y z
#
# Youngs Moduli (GPa) = 93.63403 56.71096 56.10611
#
# Poissons Ratio (x) = 0.12594 0.28034
# Poissons Ratio (y) = 0.20794 0.17243
# Poissons Ratio (z) = 0.46785 0.17429
#
# Static dielectric constant tensor:
#      x y z
#    x 3.512650 0.000000 -0.154840 
#    y 0.000000 3.461270 0.000000 
#    z -0.154840 0.000000 3.344420 
# 
# 
# High freq. dielectric constant tensor:
#      x y z
#    x 1.716930 0.000000 -0.011870 
#    y 0.000000 1.728300 0.000000 
#    z -0.011870 0.000000 1.691020 
# 
# From -- ./inp_files/37456.got.cif
#   From: 2010.06.25/outbox.cif.g09.slc.cpg/sg11_19_cif.got.tgz:37456.got - 2010.06.27 23:14:04.
