data_PCOD8071492
_publ_section_title
;
Structure prediction by ZEFSAII (Michael W. Deem and Ramdas Pophale) SiO2 
 PCOD8071492
Probable space group: P 21/M
;
_chemical_formula_sum "Si O2"
_cell_formula_units_Z 32
_cell_length_a 11.276130
_cell_length_b 17.523236
_cell_length_c 17.319997
_cell_angle_alpha 90.000000
_cell_angle_beta 150.759980
_cell_angle_gamma 90.000000
_cell_volume 1671.704202
_symmetry_space_group_name_H-M "P 21/M"
_symmetry_group_IT_number 11
_symmetry_cell_setting 'monoclinic'
loop_
_space_group_symop_operation_xyz
x,y,z
-x,1/2+y,-z
-x,-y,-z
x,1/2-y,z
loop_
_atom_site_type_symbol
_atom_site_label
_atom_site_fract_x
_atom_site_fract_y
_atom_site_fract_z
Si Si1 0.040336 0.659448 0.135651
Si Si2 0.624834 0.914841 0.988454
Si Si3 0.310621 0.660819 0.682594
Si Si4 0.737498 0.660351 0.819233
Si Si5 0.570240 0.092039 0.955793
Si Si6 0.246439 0.339908 0.639389
Si Si7 0.412883 0.340713 0.566578
Si Si8 0.091680 0.339930 0.245458
O O1 0.018940 0.750000 0.132240
O O2 0.315958 0.630557 0.298110
O O3 0.883692 0.621995 0.114756
O O4 0.935215 0.631463 0.993627
O O5 0.406433 0.884270 0.811317
O O6 0.571410 0.891734 0.045745
O O7 0.648017 0.004917 0.991524
O O8 0.339725 0.750000 0.718692
O O9 0.468163 0.638734 0.696286
O O10 0.034809 0.638987 0.508645
O O11 0.765668 0.750000 0.826590
O O12 0.793500 0.623340 0.767580
O O13 0.808668 0.143460 0.089692
O O14 0.397019 0.114284 0.787490
O O15 0.294022 0.250000 0.676130
O O16 0.328386 0.370134 0.602108
O O17 0.404334 0.250000 0.562046
O O18 0.233334 0.374941 0.399557
O O19 0.130795 0.250000 0.267530
#
# Coordination Sequence:
#
# PCOD8071492 Si02
#       8
#     4   4   4   4   4   4   4   4
#     4   9  17  33  56  77 100 131 170 214 257 306
#     4  10  22  38  53  74 105 140 176 214 261 309
#     4   9  18  35  58  81 105 134 172 215 259 311
#     4   8  15  29  51  78 104 129 161 208 258 301
#     4  11  23  36  51  74 107 141 175 217 258 304
#     4  10  20  34  55  82 107 134 173 215 255 305
#     4   9  18  32  53  81 107 132 168 217 263 302
#     4  10  19  33  54  77 105 139 172 210 259 310
#
# _framework density 19.142142
#
# number of rings (size 3 to 8) (size 9 to 14) (size 15 to 20)
#    0.000    2.500    0.000    3.000    0.000    6.500 
#    0.000    8.750    0.000    0.000    0.000    0.000 
#    0.000    0.000    0.000    0.000    0.000    0.000 
#
# Total GULP energy -396799.593898 kJ/mol
# GULP energy per Si atom -12399.987309 kJ/mol
# Density = 1.909857 g / cm^3
# Si number density = 19.142142 Si / 1000 Ang^3
#
#
#
# Elastic Constant Matrix: (Units=GPa)
#
#
# Indices 1 2 3 4 5 6 
#
# 1 144.6135 24.3661 75.0158 0.0000 -12.5065 0.0000
# 2 24.3661 11.6100 2.8127 0.0000 -3.9935 0.0000
# 3 75.0158 2.8127 124.8536 0.0000 2.5411 0.0000
# 4 0.0000 0.0000 0.0000 13.5341 0.0000 -4.4334
# 5 -12.5065 -3.9935 2.5411 0.0000 34.0587 0.0000
# 6 0.0000 0.0000 0.0000 -4.4334 0.0000 20.3495
#
#
#
# Elastic Compliance Matrix: (Units=1/GPa)
#
#
# Indices 1 2 3 4 5 6 
#
# 1 0.018562 -0.035238 -0.010429 0.000000 0.003462 0.000000
# 2 -0.035238 0.157281 0.017544 0.000000 0.004193 0.000000
# 3 -0.010429 0.017544 0.013937 0.000000 -0.002812 0.000000
# 4 0.000000 0.000000 0.000000 0.079566 0.000000 0.017335
# 5 0.003462 0.004193 -0.002812 0.000000 0.031334 0.000000
# 6 0.000000 0.000000 0.000000 0.017335 0.000000 0.052918
#
#
# Mechanical properties :
#
#
# Convention : Reuss Voigt Hill
#
# Bulk Modulus (GPa) = 7.48882 53.94072 30.71477
# Shear Modulus (GPa) = 11.00461 25.51396 18.25928
#
# Velocity S-wave (km/s) = 2.40029 3.65481 3.09184
# Velocity P-wave (km/s) = 3.40625 6.78604 5.36903
#
# Compressibility (1/GPa) = 0.13353238
#
# Stress axis : x y z
#
# Youngs Moduli (GPa) = 53.87460 6.35806 71.74916
#
# Poissons Ratio (x) = 0.22405 0.74827
# Poissons Ratio (y) = 1.89845 -1.25874
# Poissons Ratio (z) = 0.56186 -0.11154
#
# Static dielectric constant tensor:
#      x y z
#    x 3.836490 0.000000 -0.019730 
#    y 0.000000 3.121380 0.000000 
#    z -0.019730 0.000000 3.595050 
# 
# 
# High freq. dielectric constant tensor:
#      x y z
#    x 1.761000 0.000000 0.003740 
#    y 0.000000 1.705750 0.000000 
#    z 0.003740 0.000000 1.748720 
# 
# From -- ./inp_files/59628.got.cif
#   From: 2010.06.25/outbox.cif.g09.slc.cpg/sg11_30_cif.got.tgz:59628.got - 2010.06.27 23:14:04.
