data_PCOD8071294
_publ_section_title
;
Structure prediction by ZEFSAII (Michael W. Deem and Ramdas Pophale) SiO2 
 PCOD8071294
Probable space group: P 21/M
;
_chemical_formula_sum "Si O2"
_cell_formula_units_Z 32
_cell_length_a 25.071341
_cell_length_b 14.982914
_cell_length_c 9.430228
_cell_angle_alpha 90.000000
_cell_angle_beta 30.541508
_cell_angle_gamma 90.000000
_cell_volume 1800.108173
_symmetry_space_group_name_H-M "P 21/M"
_symmetry_group_IT_number 11
_symmetry_cell_setting 'monoclinic'
loop_
_space_group_symop_operation_xyz
x,y,z
-x,1/2+y,-z
-x,-y,-z
x,1/2-y,z
loop_
_atom_site_type_symbol
_atom_site_label
_atom_site_fract_x
_atom_site_fract_y
_atom_site_fract_z
Si Si1 0.340697 0.093132 0.097658
Si Si2 0.374822 0.351710 0.621236
Si Si3 0.709977 0.015101 0.032620
Si Si4 0.055754 0.987317 0.521731
Si Si5 0.537130 0.348665 0.477841
Si Si6 0.923672 0.647751 0.010194
Si Si7 0.684396 0.852381 0.547809
Si Si8 0.890568 0.849628 0.408231
O O1 0.352506 0.082270 0.240477
O O2 0.236013 0.150396 0.306063
O O3 0.444681 0.141806 0.803683
O O4 0.325810 0.998444 0.050198
O O5 0.333348 0.250000 0.736929
O O6 0.293218 0.418541 0.883052
O O7 0.489000 0.364300 0.430965
O O8 0.385428 0.374064 0.430366
O O9 0.631031 0.082596 0.291104
O O10 0.827676 0.051668 0.772093
O O11 0.997959 0.915863 0.750796
O O12 0.061139 0.082074 0.589361
O O13 0.000000 0.000000 0.500000
O O14 0.585255 0.250000 0.380553
O O15 0.956059 0.750000 0.906502
O O16 0.805020 0.630280 0.230317
O O17 0.934615 0.625373 0.151750
O O18 0.669554 0.750000 0.632519
O O19 0.926798 0.750000 0.368089
#
# Coordination Sequence:
#
# PCOD8071294 Si02
#       8
#     4   4   4   4   4   4   4   4
#     4   9  16  30  53  77  97 120 157 200 243 289
#     4   9  17  30  50  73  99 125 151 195 248 286
#     4  10  21  34  47  70  99 130 167 197 231 289
#     4  11  22  33  50  74  99 130 165 206 251 290
#     4  10  19  33  50  67  96 135 164 190 228 283
#     4   9  18  33  51  71  98 130 163 201 246 295
#     4   9  16  28  50  79 100 118 153 202 249 287
#     4   9  18  33  53  75  96 122 162 209 251 293
#
# _framework density 17.776710000000001
#
# number of rings (size 3 to 8) (size 9 to 14) (size 15 to 20)
#    0.000    2.500    0.000    4.500    0.000    4.500 
#    0.000    2.500    0.000    0.000    0.000    1.750 
#    0.000    0.000    0.000    0.000    0.000    0.000 
#
# Total GULP energy -396649.463138 kJ/mol
# GULP energy per Si atom -12395.295723 kJ/mol
# Density = 1.773625 g / cm^3
# Si number density = 17.776710 Si / 1000 Ang^3
#
#
#
# Elastic Constant Matrix: (Units=GPa)
#
#
# Indices 1 2 3 4 5 6 
#
# 1 90.6056 43.9106 59.3421 0.0000 13.1223 0.0000
# 2 43.9106 88.3555 66.2046 0.0000 2.6989 0.0000
# 3 59.3421 66.2046 118.3671 0.0000 6.7376 0.0000
# 4 0.0000 0.0000 0.0000 22.7032 0.0000 1.9562
# 5 13.1223 2.6989 6.7376 0.0000 21.0045 0.0000
# 6 0.0000 0.0000 0.0000 1.9562 0.0000 19.2024
#
#
#
# Elastic Compliance Matrix: (Units=1/GPa)
#
#
# Indices 1 2 3 4 5 6 
#
# 1 0.018590 -0.004070 -0.006531 0.000000 -0.008996 0.000000
# 2 -0.004070 0.020395 -0.009537 0.000000 0.002981 0.000000
# 3 -0.006531 -0.009537 0.017066 0.000000 -0.000169 0.000000
# 4 0.000000 0.000000 0.000000 0.044437 0.000000 -0.004527
# 5 -0.008996 0.002981 -0.000169 0.000000 0.052900 0.000000
# 6 0.000000 0.000000 0.000000 -0.004527 0.000000 0.052538
#
#
# Mechanical properties :
#
#
# Convention : Reuss Voigt Hill
#
# Bulk Modulus (GPa) = 63.38958 70.69366 67.04162
# Shear Modulus (GPa) = 19.88382 21.10675 20.49529
#
# Velocity S-wave (km/s) = 3.34807 3.44950 3.39916
# Velocity P-wave (km/s) = 7.11915 7.46454 7.29389
#
# Compressibility (1/GPa) = 0.01577546
#
# Stress axis : x y z
#
# Youngs Moduli (GPa) = 53.79275 49.03073 58.59485
#
# Poissons Ratio (x) = 0.19955 0.38271
# Poissons Ratio (y) = 0.21894 0.55880
# Poissons Ratio (z) = 0.35134 0.46759
#
# Static dielectric constant tensor:
#      x y z
#    x 3.327910 0.000000 0.197140 
#    y 0.000000 3.214370 0.000000 
#    z 0.197140 0.000000 3.209070 
# 
# 
# High freq. dielectric constant tensor:
#      x y z
#    x 1.677290 0.000000 0.014910 
#    y 0.000000 1.673310 0.000000 
#    z 0.014910 0.000000 1.679280 
# 
# From -- ./inp_files/26857.got.cif
#   From: 2010.06.25/outbox.cif.g09.slc.cpg/sg11_14_cif.got.tgz:26857.got - 2010.06.27 23:14:04.
