data_PCOD8071004
_publ_section_title
;
Structure prediction by ZEFSAII (Michael W. Deem and Ramdas Pophale) SiO2 
 PCOD8071004
Probable space group: P 21/M
;
_chemical_formula_sum "Si O2"
_cell_formula_units_Z 24
_cell_length_a 22.113731
_cell_length_b 8.437138
_cell_length_c 9.628381
_cell_angle_alpha 90.000000
_cell_angle_beta 135.972425
_cell_angle_gamma 90.000000
_cell_volume 1248.527327
_symmetry_space_group_name_H-M "P 21/M"
_symmetry_group_IT_number 11
_symmetry_cell_setting 'monoclinic'
loop_
_space_group_symop_operation_xyz
x,y,z
-x,1/2+y,-z
-x,-y,-z
x,1/2-y,z
loop_
_atom_site_type_symbol
_atom_site_label
_atom_site_fract_x
_atom_site_fract_y
_atom_site_fract_z
Si Si1 0.469047 0.938026 0.302066
Si Si2 0.212233 0.435828 0.114153
Si Si3 0.903605 0.435791 0.850437
Si Si4 0.762493 0.563955 0.412762
Si Si5 0.725057 0.435107 0.059508
Si Si6 0.637105 0.562626 0.437529
O O1 0.468828 0.750000 0.305450
O O2 0.538893 0.999986 0.301711
O O3 0.500000 0.000000 0.500000
O O4 0.373709 0.003620 0.106387
O O5 0.196549 0.250000 0.108041
O O6 0.132537 0.527286 0.055193
O O7 0.301888 0.494024 0.334262
O O8 0.216384 0.478457 0.958943
O O9 0.900380 0.250000 0.814712
O O10 0.847785 0.527967 0.642921
O O11 0.000000 0.500000 0.000000
O O12 0.757463 0.750000 0.373132
O O13 0.767398 0.469148 0.277825
O O14 0.677284 0.502397 0.357941
O O15 0.725854 0.250000 0.029118
O O16 0.638585 0.750000 0.437592
#
# Coordination Sequence:
#
# PCOD8071004 Si02
#       6
#     4   4   4   4   4   4
#     4  10  19  32  51  78 111 149 197 243 281 328
#     4  10  19  35  59  83 112 151 192 230 280 338
#     4  11  22  40  65  91 116 142 181 227 277 339
#     4  10  21  38  58  81 113 153 192 232 286 340
#     4  11  22  34  52  83 119 153 192 241 289 331
#     4   8  16  32  53  76 106 146 194 237 276 327
#
# _framework density 19.222646999999998
#
# number of rings (size 3 to 8) (size 9 to 14) (size 15 to 20)
#    0.000    2.000    1.667    4.000    0.000    1.333 
#    0.000    1.667    0.000    0.000    0.000    0.000 
#    0.000    0.000    0.000    0.000    0.000    0.000 
#
# Total GULP energy -297581.491257 kJ/mol
# GULP energy per Si atom -12399.228802 kJ/mol
# Density = 1.917890 g / cm^3
# Si number density = 19.222647 Si / 1000 Ang^3
#
#
#
# Elastic Constant Matrix: (Units=GPa)
#
#
# Indices 1 2 3 4 5 6 
#
# 1 134.3636 13.9203 56.2196 0.0000 1.5618 0.0000
# 2 13.9203 49.1883 3.5450 0.0000 3.0615 0.0000
# 3 56.2196 3.5450 72.9612 0.0000 -6.4060 0.0000
# 4 0.0000 0.0000 0.0000 26.9570 0.0000 -3.9269
# 5 1.5618 3.0615 -6.4060 0.0000 36.4417 0.0000
# 6 0.0000 0.0000 0.0000 -3.9269 0.0000 27.6046
#
#
#
# Elastic Compliance Matrix: (Units=1/GPa)
#
#
# Indices 1 2 3 4 5 6 
#
# 1 0.011419 -0.002480 -0.008840 0.000000 -0.001835 0.000000
# 2 -0.002480 0.021073 0.000753 0.000000 -0.001532 0.000000
# 3 -0.008840 0.000753 0.020830 0.000000 0.003977 0.000000
# 4 0.000000 0.000000 0.000000 0.037881 0.000000 0.005389
# 5 -0.001835 -0.001532 0.003977 0.000000 0.028348 0.000000
# 6 0.000000 0.000000 0.000000 0.005389 0.000000 0.036992
#
#
# Mechanical properties :
#
#
# Convention : Reuss Voigt Hill
#
# Bulk Modulus (GPa) = 31.06756 44.87587 37.97172
# Shear Modulus (GPa) = 26.53823 30.38920 28.46372
#
# Velocity S-wave (km/s) = 3.71963 3.98037 3.85221
# Velocity P-wave (km/s) = 5.88597 6.67237 6.29147
#
# Compressibility (1/GPa) = 0.03218791
#
# Stress axis : x y z
#
# Youngs Moduli (GPa) = 87.56967 47.45391 48.00781
#
# Poissons Ratio (x) = 0.11771 0.42438
# Poissons Ratio (y) = 0.21721 -0.03615
# Poissons Ratio (z) = 0.77410 -0.03573
#
# Static dielectric constant tensor:
#      x y z
#    x 3.838260 0.000000 0.082110 
#    y 0.000000 3.452540 0.000000 
#    z 0.082110 0.000000 3.321600 
# 
# 
# High freq. dielectric constant tensor:
#      x y z
#    x 1.758930 0.000000 -0.005050 
#    y 0.000000 1.740590 0.000000 
#    z -0.005050 0.000000 1.724850 
# 
# From -- ./inp_files/25936.got.cif
#   From: 2010.06.25/outbox.cif.g09.slc.cpg/sg11_13_cif.got.tgz:25936.got - 2010.06.27 23:14:04.
