data_PCOD8071676
_publ_section_title
;
Structure prediction by ZEFSAII (Michael W. Deem and Ramdas Pophale) SiO2 
 PCOD8071676
Probable space group: P 21/M
;
_chemical_formula_sum "Si O2"
_cell_formula_units_Z 28
_cell_length_a 14.746854
_cell_length_b 17.758237
_cell_length_c 9.357806
_cell_angle_alpha 90.000000
_cell_angle_beta 39.075308
_cell_angle_gamma 90.000000
_cell_volume 1544.717381
_symmetry_space_group_name_H-M "P 21/M"
_symmetry_group_IT_number 11
_symmetry_cell_setting 'monoclinic'
loop_
_space_group_symop_operation_xyz
x,y,z
-x,1/2+y,-z
-x,-y,-z
x,1/2-y,z
loop_
_atom_site_type_symbol
_atom_site_label
_atom_site_fract_x
_atom_site_fract_y
_atom_site_fract_z
Si Si1 0.222086 0.335974 0.809665
Si Si2 0.234190 0.009588 0.455108
Si Si3 0.924987 0.333544 0.632979
Si Si4 0.930693 0.562928 0.770139
Si Si5 0.859790 0.668846 0.396641
Si Si6 0.701552 0.051151 0.919415
Si Si7 0.434103 0.043649 0.447774
O O1 0.256360 0.250000 0.816524
O O2 0.116246 0.336771 0.802812
O O3 0.370720 0.377755 0.584836
O O4 0.140877 0.381045 0.031029
O O5 0.236816 0.100064 0.429178
O O6 0.312661 0.993974 0.512146
O O7 0.323149 0.976683 0.212846
O O8 0.072060 0.977139 0.662744
O O9 0.923581 0.250000 0.566819
O O10 0.763587 0.364479 0.834067
O O11 0.027423 0.388512 0.418037
O O12 0.983829 0.332920 0.722385
O O13 0.815994 0.500913 0.862484
O O14 0.784492 0.750000 0.525417
O O15 0.553884 0.058663 0.182577
O O16 0.500000 0.000000 0.500000
#
# Coordination Sequence:
#
# PCOD8071676 Si02
#       7
#     4   4   4   4   4   4   4
#     4  10  22  37  55  79 112 147 182 229 279 331
#     4  10  20  36  57  83 111 145 183 238 272 323
#     4  10  19  33  56  83 111 141 182 233 279 324
#     4  11  19  35  59  85 108 138 188 231 280 324
#     4   9  17  31  51  80 109 140 180 224 276 323
#     4  11  20  36  55  85 112 143 186 225 277 329
#     4  11  23  37  56  81 114 151 188 221 274 337
#
# _framework density 18.126294000000001
#
# number of rings (size 3 to 8) (size 9 to 14) (size 15 to 20)
#    0.000    1.714    4.286    1.714    0.000    4.000 
#    0.000    0.000    0.000    4.286    0.000    0.000 
#    0.000    0.000    0.000    0.000    0.000    0.000 
#
# Total GULP energy -346999.656721 kJ/mol
# GULP energy per Si atom -12392.844883 kJ/mol
# Density = 1.808504 g / cm^3
# Si number density = 18.126294 Si / 1000 Ang^3
#
#
#
# Elastic Constant Matrix: (Units=GPa)
#
#
# Indices 1 2 3 4 5 6 
#
# 1 109.4928 43.1560 26.1877 0.0000 6.8712 0.0000
# 2 43.1560 107.0837 37.3889 0.0000 0.4132 0.0000
# 3 26.1877 37.3889 90.0033 0.0000 -4.2911 0.0000
# 4 0.0000 0.0000 0.0000 18.2969 0.0000 3.0042
# 5 6.8712 0.4132 -4.2911 0.0000 21.8501 0.0000
# 6 0.0000 0.0000 0.0000 3.0042 0.0000 23.0346
#
#
#
# Elastic Compliance Matrix: (Units=1/GPa)
#
#
# Indices 1 2 3 4 5 6 
#
# 1 0.011364 -0.003914 -0.001865 0.000000 -0.003866 0.000000
# 2 -0.003914 0.012297 -0.003959 0.000000 0.000221 0.000000
# 3 -0.001865 -0.003959 0.013456 0.000000 0.003304 0.000000
# 4 0.000000 0.000000 0.000000 0.055850 0.000000 -0.007284
# 5 -0.003866 0.000221 0.003304 0.000000 0.047627 0.000000
# 6 0.000000 0.000000 0.000000 -0.007284 0.000000 0.044363
#
#
# Mechanical properties :
#
#
# Convention : Reuss Voigt Hill
#
# Bulk Modulus (GPa) = 56.68595 57.78279 57.23437
# Shear Modulus (GPa) = 23.77402 25.95946 24.86674
#
# Velocity S-wave (km/s) = 3.62550 3.78847 3.70788
# Velocity P-wave (km/s) = 6.99044 7.14729 7.06930
#
# Compressibility (1/GPa) = 0.01764106
#
# Stress axis : x y z
#
# Youngs Moduli (GPa) = 87.99464 81.31834 74.31843
#
# Poissons Ratio (x) = 0.31827 0.13861
# Poissons Ratio (y) = 0.34440 0.29424
# Poissons Ratio (z) = 0.16411 0.32196
#
# Static dielectric constant tensor:
#      x y z
#    x 3.539050 0.000000 0.108020 
#    y 0.000000 3.634400 0.000000 
#    z 0.108020 0.000000 3.228390 
# 
# 
# High freq. dielectric constant tensor:
#      x y z
#    x 1.707970 0.000000 0.012940 
#    y 0.000000 1.708820 0.000000 
#    z 0.012940 0.000000 1.682860 
# 
# From -- ./inp_files/22696.got.cif
#   From: 2010.06.25/outbox.cif.g09.slc.cpg/sg11_12_cif.got.tgz:22696.got - 2010.06.27 23:14:04.
