data_PCOD8071877
_publ_section_title
;
Structure prediction by ZEFSAII (Michael W. Deem and Ramdas Pophale) SiO2 
 PCOD8071877
Probable space group: P 21/M
;
_chemical_formula_sum "Si O2"
_cell_formula_units_Z 32
_cell_length_a 25.835555
_cell_length_b 9.301570
_cell_length_c 19.919803
_cell_angle_alpha 90.000000
_cell_angle_beta 158.800100
_cell_angle_gamma 90.000000
_cell_volume 1731.071752
_symmetry_space_group_name_H-M "P 21/M"
_symmetry_group_IT_number 11
_symmetry_cell_setting 'monoclinic'
loop_
_space_group_symop_operation_xyz
x,y,z
-x,1/2+y,-z
-x,-y,-z
x,1/2-y,z
loop_
_atom_site_type_symbol
_atom_site_label
_atom_site_fract_x
_atom_site_fract_y
_atom_site_fract_z
Si Si1 0.147553 0.416774 0.845387
Si Si2 0.630759 0.920166 0.777168
Si Si3 0.690500 0.417674 0.603636
Si Si4 0.129472 0.584051 0.308430
Si Si5 0.856420 0.584195 0.312318
Si Si6 0.182473 0.418674 0.121590
Si Si7 0.354310 0.415799 0.828791
Si Si8 0.870977 0.917332 0.558241
O O1 0.114140 0.250000 0.821382
O O2 0.195923 0.437774 0.827166
O O3 0.006565 0.507072 0.688972
O O4 0.275570 0.476239 0.046852
O O5 0.624603 0.750000 0.773215
O O6 0.470197 0.982128 0.587548
O O7 0.702816 0.971402 0.794991
O O8 0.693878 0.250000 0.626194
O O9 0.750827 0.445205 0.602597
O O10 0.790537 0.499029 0.776988
O O11 0.128465 0.750000 0.329869
O O12 0.169251 0.485808 0.419287
O O13 0.974436 0.539475 0.093515
O O14 0.888788 0.750000 0.367811
O O15 0.732856 0.526147 0.212011
O O16 0.000000 0.500000 0.500000
O O17 0.195113 0.250000 0.150741
O O18 0.392398 0.250000 0.884733
O O19 0.264137 0.442481 0.652716
O O20 0.500000 0.500000 0.000000
O O21 0.906247 0.750000 0.610035
#
# Coordination Sequence:
#
# PCOD8071877 Si02
#       8
#     4   4   4   4   4   4   4   4
#     4  10  19  35  60  83 108 148 189 226 276 333
#     4   9  18  34  54  79 110 141 182 229 271 324
#     4  10  21  35  54  81 110 142 184 233 275 323
#     4  10  21  37  57  81 109 147 190 224 271 337
#     4  10  20  35  59  87 114 147 188 233 278 330
#     4  10  19  34  55  77 109 148 183 226 273 330
#     4  10  23  40  57  86 121 152 189 231 281 337
#     4  11  22  37  58  84 115 144 181 237 281 323
#
# _framework density 18.485657
#
# number of rings (size 3 to 8) (size 9 to 14) (size 15 to 20)
#    0.000    2.000    2.500    1.125    0.000    3.500 
#    0.000    3.125    0.000    0.000    0.000    0.000 
#    0.000    0.000    0.000    0.000    0.000    0.000 
#
# Total GULP energy -396903.669581 kJ/mol
# GULP energy per Si atom -12403.239674 kJ/mol
# Density = 1.844358 g / cm^3
# Si number density = 18.485657 Si / 1000 Ang^3
#
#
#
# Elastic Constant Matrix: (Units=GPa)
#
#
# Indices 1 2 3 4 5 6 
#
# 1 110.7125 47.4811 53.6514 0.0000 0.8840 0.0000
# 2 47.4811 61.0981 46.4530 0.0000 -4.6275 0.0000
# 3 53.6514 46.4530 99.0517 0.0000 8.6699 0.0000
# 4 0.0000 0.0000 0.0000 25.7700 0.0000 -4.1819
# 5 0.8840 -4.6275 8.6699 0.0000 36.1915 0.0000
# 6 0.0000 0.0000 0.0000 -4.1819 0.0000 27.8626
#
#
#
# Elastic Compliance Matrix: (Units=1/GPa)
#
#
# Indices 1 2 3 4 5 6 
#
# 1 0.014505 -0.008343 -0.003901 0.000000 -0.000486 0.000000
# 2 -0.008343 0.031695 -0.010947 0.000000 0.006879 0.000000
# 3 -0.003901 -0.010947 0.017831 0.000000 -0.005576 0.000000
# 4 0.000000 0.000000 0.000000 0.039774 0.000000 0.005970
# 5 -0.000486 0.006879 -0.005576 0.000000 0.029858 0.000000
# 6 0.000000 0.000000 0.000000 0.005970 0.000000 0.036786
#
#
# Mechanical properties :
#
#
# Convention : Reuss Voigt Hill
#
# Bulk Modulus (GPa) = 56.66480 62.89259 59.77869
# Shear Modulus (GPa) = 22.45031 26.18329 24.31680
#
# Velocity S-wave (km/s) = 3.48871 3.76761 3.63084
# Velocity P-wave (km/s) = 6.85186 7.28167 7.07003
#
# Compressibility (1/GPa) = 0.01764764
#
# Stress axis : x y z
#
# Youngs Moduli (GPa) = 68.94245 31.55099 56.08185
#
# Poissons Ratio (x) = 0.26322 0.21880
# Poissons Ratio (y) = 0.57516 0.61395
# Poissons Ratio (z) = 0.26898 0.34540
#
# Static dielectric constant tensor:
#      x y z
#    x 4.382730 0.000000 -0.358340 
#    y 0.000000 3.245600 0.000000 
#    z -0.358340 0.000000 3.627680 
# 
# 
# High freq. dielectric constant tensor:
#      x y z
#    x 1.732630 0.000000 -0.002100 
#    y 0.000000 1.698610 0.000000 
#    z -0.002100 0.000000 1.719840 
# 
# From -- ./inp_files/67294.got.cif
#   From: 2010.06.25/outbox.cif.g09.slc.cpg/sg11_34_cif.got.tgz:67294.got - 2010.06.27 23:14:04.
