data_PCOD8071901
_publ_section_title
;
Structure prediction by ZEFSAII (Michael W. Deem and Ramdas Pophale) SiO2 
 PCOD8071901
Probable space group: P 21/M
;
_chemical_formula_sum "Si O2"
_cell_formula_units_Z 32
_cell_length_a 17.914319
_cell_length_b 24.049796
_cell_length_c 11.977251
_cell_angle_alpha 90.000000
_cell_angle_beta 160.785712
_cell_angle_gamma 90.000000
_cell_volume 1698.241913
_symmetry_space_group_name_H-M "P 21/M"
_symmetry_group_IT_number 11
_symmetry_cell_setting 'monoclinic'
loop_
_space_group_symop_operation_xyz
x,y,z
-x,1/2+y,-z
-x,-y,-z
x,1/2-y,z
loop_
_atom_site_type_symbol
_atom_site_label
_atom_site_fract_x
_atom_site_fract_y
_atom_site_fract_z
Si Si1 0.215321 0.504486 0.882400
Si Si2 0.425443 0.311832 0.600864
Si Si3 0.726163 0.389377 0.894686
Si Si4 0.782948 0.393099 0.615328
Si Si5 0.920038 0.688136 0.090069
Si Si6 0.381814 0.106899 0.214202
Si Si7 0.889098 0.610621 0.720586
Si Si8 0.618828 0.995516 0.285907
O O1 0.000000 0.500000 0.500000
O O2 0.180221 0.554925 0.917245
O O3 0.238839 0.447787 0.984458
O O4 0.440299 0.516685 0.130600
O O5 0.494324 0.250000 0.738638
O O6 0.651232 0.344411 0.881137
O O7 0.308592 0.344409 0.538479
O O8 0.252835 0.307442 0.255668
O O9 0.517287 0.405417 0.519408
O O10 0.930063 0.362786 0.110109
O O11 0.551659 0.376479 0.353325
O O12 0.752378 0.447783 0.497983
O O13 0.852732 0.343408 0.630211
O O14 0.986956 0.405417 0.989070
O O15 0.988701 0.750000 0.227413
O O16 0.797793 0.656590 0.020314
O O17 0.793807 0.554926 0.530830
O O18 0.500000 0.000000 0.000000
#
# Coordination Sequence:
#
# PCOD8071901 Si02
#       8
#     4   4   4   4   4   4   4   4
#     4  11  22  35  52  79 110 142 179 224 270 321
#     4   9  18  34  53  81 113 141 178 221 260 317
#     4  10  19  34  55  80 108 142 176 218 269 319
#     4   9  20  34  53  80 109 140 177 218 266 320
#     4   9  18  32  55  81 109 143 178 217 266 315
#     4   9  20  34  53  80 109 140 177 218 266 320
#     4  10  19  34  55  80 108 142 176 218 269 319
#     4  11  22  35  52  79 110 142 179 224 270 321
#
# _framework density 18.843015000000001
#
# number of rings (size 3 to 8) (size 9 to 14) (size 15 to 20)
#    0.000    2.250    1.250    1.500    3.500    1.000 
#    0.000    5.000    0.000    3.000    0.000    3.500 
#    0.000    0.000    0.000    0.000    0.000    0.000 
#
# Total GULP energy -396837.065823 kJ/mol
# GULP energy per Si atom -12401.158307 kJ/mol
# Density = 1.880013 g / cm^3
# Si number density = 18.843015 Si / 1000 Ang^3
#
#
#
# Elastic Constant Matrix: (Units=GPa)
#
#
# Indices 1 2 3 4 5 6 
#
# 1 98.3282 71.0479 38.5298 0.0000 18.7741 0.0000
# 2 71.0479 163.7959 53.9660 0.0000 15.0287 0.0000
# 3 38.5298 53.9660 68.4742 0.0000 7.5031 0.0000
# 4 0.0000 0.0000 0.0000 7.6235 0.0000 13.3240
# 5 18.7741 15.0287 7.5031 0.0000 29.1534 0.0000
# 6 0.0000 0.0000 0.0000 13.3240 0.0000 22.7499
#
#
#
# Elastic Compliance Matrix: (Units=1/GPa)
#
#
# Indices 1 2 3 4 5 6 
#
# 1 0.017176 -0.005225 -0.004764 0.000000 -0.007141 0.000000
# 2 -0.005225 0.010041 -0.004913 0.000000 -0.000546 0.000000
# 3 -0.004764 -0.004913 0.021139 0.000000 0.000160 0.000000
# 4 0.000000 0.000000 0.000000 -5.556316 0.000000 3.254170
# 5 -0.007141 -0.000546 0.000160 0.000000 0.039141 0.000000
# 6 0.000000 0.000000 0.000000 3.254170 0.000000 -1.861915
#
#
# Mechanical properties :
#
#
# Convention : Reuss Voigt Hill
#
# Bulk Modulus (GPa) = 53.90578 73.07617 63.49098
# Shear Modulus (GPa) = -0.68542 23.04233 11.17845
#
# Velocity S-wave (km/s) = -0.60378 3.50073 2.43830
# Velocity P-wave (km/s) = 5.30885 7.43007 6.45716
#
# Compressibility (1/GPa) = 0.01855089
#
# Stress axis : x y z
#
# Youngs Moduli (GPa) = 58.22115 99.59613 47.30544
#
# Poissons Ratio (x) = 0.52043 0.22536
# Poissons Ratio (y) = 0.30423 0.23241
# Poissons Ratio (z) = 0.27736 0.48932
#
# Static dielectric constant tensor:
#      x y z
#    x 3.551210 0.000000 0.254100 
#    y 0.000000 3.533460 0.000000 
#    z 0.254100 0.000000 3.262500 
# 
# 
# High freq. dielectric constant tensor:
#      x y z
#    x 1.737220 0.000000 0.023470 
#    y 0.000000 1.724920 0.000000 
#    z 0.023470 0.000000 1.710550 
# 
# From -- ./inp_files/42023.got.cif
#   From: 2010.06.25/outbox.cif.g09.slc.cpg/sg11_22_cif.got.tgz:42023.got - 2010.06.27 23:14:04.
