data_PCOD8071750
_publ_section_title
;
Structure prediction by ZEFSAII (Michael W. Deem and Ramdas Pophale) SiO2 
 PCOD8071750
Probable space group: P 21/M
;
_chemical_formula_sum "Si O2"
_cell_formula_units_Z 32
_cell_length_a 11.262447
_cell_length_b 9.361206
_cell_length_c 19.207464
_cell_angle_alpha 90.000000
_cell_angle_beta 125.899021
_cell_angle_gamma 90.000000
_cell_volume 1640.390730
_symmetry_space_group_name_H-M "P 21/M"
_symmetry_group_IT_number 11
_symmetry_cell_setting 'monoclinic'
loop_
_space_group_symop_operation_xyz
x,y,z
-x,1/2+y,-z
-x,-y,-z
x,1/2-y,z
loop_
_atom_site_type_symbol
_atom_site_label
_atom_site_fract_x
_atom_site_fract_y
_atom_site_fract_z
Si Si1 0.144784 0.407504 0.843479
Si Si2 0.424837 0.415576 0.303267
Si Si3 0.818302 0.415576 0.696733
Si Si4 0.291993 0.407817 0.596701
Si Si5 0.098592 0.092183 0.403299
Si Si6 0.375285 0.920242 1.000000
Si Si7 0.542173 0.907504 0.843479
Si Si8 0.779107 0.000000 0.279107
O O1 0.181698 0.250000 0.886363
O O2 0.198735 0.404823 0.782048
O O3 0.972214 0.437604 0.788997
O O4 0.220042 0.530819 0.915224
O O5 0.421304 0.250000 0.323228
O O6 0.302374 0.500000 0.302374
O O7 0.583934 0.476414 0.377270
O O8 0.394219 0.437604 0.211002
O O9 0.774847 0.250000 0.676772
O O10 0.829393 0.476414 0.622730
O O11 0.354215 0.250000 0.601273
O O12 0.153118 0.443744 0.500000
O O13 0.241574 0.403995 0.659610
O O14 0.151671 0.250000 0.398728
O O15 0.922356 0.096005 0.340389
O O16 0.391482 0.750000 1.000000
O O17 0.389594 0.969181 0.084776
O O18 0.500000 0.000000 0.000000
O O19 0.591028 0.750000 0.886363
O O20 0.365360 0.904823 0.782047
#
# Coordination Sequence:
#
# PCOD8071750 Si02
#       8
#     4   4   4   4   4   4   4   4
#     4  10  21  37  58  85 116 148 189 233 282 337
#     4  10  22  40  62  85 111 148 192 240 288 340
#     4  10  22  40  62  85 111 148 192 240 288 340
#     4  10  21  36  56  84 117 153 193 238 287 341
#     4  10  21  36  56  84 117 153 193 238 287 341
#     4  12  24  36  57  86 121 154 187 227 275 333
#     4  10  21  37  58  85 116 148 189 233 282 337
#     4  10  19  33  58  84 116 150 192 229 287 340
#
# _framework density 19.507546999999999
#
# number of rings (size 3 to 8) (size 9 to 14) (size 15 to 20)
#    0.000    1.750    1.250    3.000    0.000    7.000 
#    0.000    0.625    0.000    0.000    0.000    0.000 
#    0.000    0.000    0.000    0.000    0.000    0.000 
#
# Total GULP energy -396760.825826 kJ/mol
# GULP energy per Si atom -12398.775807 kJ/mol
# Density = 1.946315 g / cm^3
# Si number density = 19.507547 Si / 1000 Ang^3
#
#
#
# Elastic Constant Matrix: (Units=GPa)
#
#
# Indices 1 2 3 4 5 6 
#
# 1 99.3757 44.9844 37.3739 0.0000 1.4709 0.0000
# 2 44.9844 150.5883 60.9386 0.0000 -0.7335 0.0000
# 3 37.3739 60.9386 119.0850 0.0000 -2.3778 0.0000
# 4 0.0000 0.0000 0.0000 32.0658 0.0000 -0.1137
# 5 1.4709 -0.7335 -2.3778 0.0000 15.1774 0.0000
# 6 0.0000 0.0000 0.0000 -0.1137 0.0000 29.5915
#
#
#
# Elastic Compliance Matrix: (Units=1/GPa)
#
#
# Indices 1 2 3 4 5 6 
#
# 1 0.012232 -0.002642 -0.002521 0.000000 -0.001708 0.000000
# 2 -0.002642 0.008947 -0.003747 0.000000 0.000101 0.000000
# 3 -0.002521 -0.003747 0.011142 0.000000 0.001809 0.000000
# 4 0.000000 0.000000 0.000000 0.031186 0.000000 0.000120
# 5 -0.001708 0.000101 0.001809 0.000000 0.066341 0.000000
# 6 0.000000 0.000000 0.000000 0.000120 0.000000 0.033794
#
#
# Mechanical properties :
#
#
# Convention : Reuss Voigt Hill
#
# Bulk Modulus (GPa) = 68.96246 72.84921 70.90584
# Shear Modulus (GPa) = 26.83894 30.41709 28.62802
#
# Velocity S-wave (km/s) = 3.71323 3.95301 3.83500
# Velocity P-wave (km/s) = 7.33570 7.63284 7.48575
#
# Compressibility (1/GPa) = 0.01450064
#
# Stress axis : x y z
#
# Youngs Moduli (GPa) = 81.75091 111.77306 89.74974
#
# Poissons Ratio (x) = 0.29533 0.22626
# Poissons Ratio (y) = 0.21600 0.33629
# Poissons Ratio (z) = 0.20610 0.41881
#
# Static dielectric constant tensor:
#      x y z
#    x 3.440860 0.000000 -0.012060 
#    y 0.000000 3.595220 0.000000 
#    z -0.012060 0.000000 3.703170 
# 
# 
# High freq. dielectric constant tensor:
#      x y z
#    x 1.744240 0.000000 -0.000890 
#    y 0.000000 1.767340 0.000000 
#    z -0.000890 0.000000 1.763690 
# 
# From -- ./inp_files/64471.got.cif
#   From: 2010.06.25/outbox.cif.g09.slc.cpg/sg11_33_cif.got.tgz:64471.got - 2010.06.27 23:14:04.
