data_PCOD8071005
_publ_section_title
;
Structure prediction by ZEFSAII (Michael W. Deem and Ramdas Pophale) SiO2 
 PCOD8071005
Probable space group: P 21/M
;
_chemical_formula_sum "Si O2"
_cell_formula_units_Z 32
_cell_length_a 22.326548
_cell_length_b 8.866665
_cell_length_c 28.288141
_cell_angle_alpha 90.000000
_cell_angle_beta 18.466338
_cell_angle_gamma 90.000000
_cell_volume 1773.778616
_symmetry_space_group_name_H-M "P 21/M"
_symmetry_group_IT_number 11
_symmetry_cell_setting 'monoclinic'
loop_
_space_group_symop_operation_xyz
x,y,z
-x,1/2+y,-z
-x,-y,-z
x,1/2-y,z
loop_
_atom_site_type_symbol
_atom_site_label
_atom_site_fract_x
_atom_site_fract_y
_atom_site_fract_z
Si Si1 0.054017 0.424428 0.385912
Si Si2 0.091042 0.925019 0.999503
Si Si3 0.687844 0.071201 0.880529
Si Si4 0.987213 0.070812 0.837560
Si Si5 0.414350 0.071200 0.517277
Si Si6 0.311874 0.570813 0.012900
Si Si7 0.705697 0.575573 0.234233
Si Si8 0.271138 0.425022 0.319405
O O1 0.048727 0.250000 0.375916
O O2 0.128508 0.519270 0.285796
O O3 0.193016 0.455408 0.325528
O O4 0.843344 0.479101 0.556303
O O5 0.144311 0.750000 0.954600
O O6 0.244753 0.020906 0.855598
O O7 0.095808 0.982064 0.049840
O O8 0.881163 0.955401 0.137383
O O9 0.666415 0.250000 0.894646
O O10 0.715298 0.012064 0.913468
O O11 0.500000 0.000000 0.000000
O O12 0.987189 0.250000 0.836184
O O13 0.200230 0.012067 0.671004
O O14 0.854324 0.003826 0.895676
O O15 0.422166 0.250000 0.516772
O O16 0.500000 0.000000 0.500000
O O17 0.528709 0.019274 0.385596
O O18 0.306299 0.750000 0.017074
O O19 0.513211 0.517937 0.841142
O O20 0.649841 0.750000 0.274802
O O21 0.251336 0.250000 0.347572
#
# Coordination Sequence:
#
# PCOD8071005 Si02
#       8
#     4   4   4   4   4   4   4   4
#     4  10  19  32  51  79 107 135 172 217 263 309
#     4   9  17  32  52  77 103 133 172 216 263 309
#     4  11  20  33  54  81 108 139 177 221 269 315
#     4   9  18  34  55  78 105 137 178 223 263 312
#     4  11  20  33  54  81 108 139 177 221 269 315
#     4   9  18  34  55  78 105 137 178 223 263 312
#     4  10  19  32  51  79 107 135 172 217 263 309
#     4   9  17  32  52  77 103 133 172 216 263 309
#
# _framework density 18.040583999999999
#
# number of rings (size 3 to 8) (size 9 to 14) (size 15 to 20)
#    0.000    2.250    2.500    1.500    0.000    1.000 
#    0.000    1.250    0.000   14.250    0.000    0.000 
#    0.000    0.000    0.000    0.000    0.000    0.000 
#
# Total GULP energy -396838.098459 kJ/mol
# GULP energy per Si atom -12401.190577 kJ/mol
# Density = 1.799952 g / cm^3
# Si number density = 18.040584 Si / 1000 Ang^3
#
#
#
# Elastic Constant Matrix: (Units=GPa)
#
#
# Indices 1 2 3 4 5 6 
#
# 1 128.3798 34.8161 79.1048 0.0000 5.7049 0.0000
# 2 34.8161 54.0463 40.4395 0.0000 3.9061 0.0000
# 3 79.1048 40.4395 145.1994 0.0000 5.9828 0.0000
# 4 0.0000 0.0000 0.0000 30.0202 0.0000 6.6855
# 5 5.7049 3.9061 5.9828 0.0000 28.9368 0.0000
# 6 0.0000 0.0000 0.0000 6.6855 0.0000 20.3974
#
#
#
# Elastic Compliance Matrix: (Units=1/GPa)
#
#
# Indices 1 2 3 4 5 6 
#
# 1 0.012292 -0.003633 -0.005653 0.000000 -0.000764 0.000000
# 2 -0.003633 0.024543 -0.004790 0.000000 -0.001606 0.000000
# 3 -0.005653 -0.004790 0.011325 0.000000 -0.000580 0.000000
# 4 0.000000 0.000000 0.000000 0.035934 0.000000 -0.011778
# 5 -0.000764 -0.001606 -0.000580 0.000000 0.035046 0.000000
# 6 0.000000 0.000000 0.000000 -0.011778 0.000000 0.052886
#
#
# Mechanical properties :
#
#
# Convention : Reuss Voigt Hill
#
# Bulk Modulus (GPa) = 49.98180 70.70513 60.34347
# Shear Modulus (GPa) = 24.17233 27.42190 25.79711
#
# Velocity S-wave (km/s) = 3.66442 3.90296 3.78557
# Velocity P-wave (km/s) = 6.75791 7.71934 7.25457
#
# Compressibility (1/GPa) = 0.02000728
#
# Stress axis : x y z
#
# Youngs Moduli (GPa) = 81.35269 40.74442 88.29976
#
# Poissons Ratio (x) = 0.14803 0.49920
# Poissons Ratio (y) = 0.29557 0.42296
# Poissons Ratio (z) = 0.45992 0.19517
#
# Static dielectric constant tensor:
#      x y z
#    x 3.393230 0.000000 0.100670 
#    y 0.000000 3.171360 0.000000 
#    z 0.100670 0.000000 3.538130 
# 
# 
# High freq. dielectric constant tensor:
#      x y z
#    x 1.681460 0.000000 0.017300 
#    y 0.000000 1.680910 0.000000 
#    z 0.017300 0.000000 1.706360 
# 
# From -- ./inp_files/72090.got.cif
#   From: 2010.06.25/outbox.cif.g09.slc.cpg/sg11_37_cif.got.tgz:72090.got - 2010.06.27 23:14:04.
