data_PCOD8071591
_publ_section_title
;
Structure prediction by ZEFSAII (Michael W. Deem and Ramdas Pophale) SiO2 
 PCOD8071591
Probable space group: P 21/M
;
_chemical_formula_sum "Si O2"
_cell_formula_units_Z 28
_cell_length_a 15.568313
_cell_length_b 8.844253
_cell_length_c 20.137760
_cell_angle_alpha 90.000000
_cell_angle_beta 147.659386
_cell_angle_gamma 90.000000
_cell_volume 1483.297220
_symmetry_space_group_name_H-M "P 21/M"
_symmetry_group_IT_number 11
_symmetry_cell_setting 'monoclinic'
loop_
_space_group_symop_operation_xyz
x,y,z
-x,1/2+y,-z
-x,-y,-z
x,1/2-y,z
loop_
_atom_site_type_symbol
_atom_site_label
_atom_site_fract_x
_atom_site_fract_y
_atom_site_fract_z
Si Si1 0.536296 0.568535 0.595924
Si Si2 0.393017 0.922746 0.025915
Si Si3 0.042482 0.922097 0.458714
Si Si4 0.595227 0.918079 0.835987
Si Si5 0.835813 0.917128 0.876025
Si Si6 0.715790 0.918079 0.168084
Si Si7 0.658832 0.927979 0.414133
O O1 0.500000 0.500000 0.500000
O O2 0.529318 0.750000 0.589004
O O3 0.712871 0.514864 0.739284
O O4 0.397835 0.511639 0.555592
O O5 0.363470 0.750000 0.026051
O O6 0.578993 0.959775 0.132133
O O7 0.337678 0.027962 0.049882
O O8 0.283861 0.963131 0.891526
O O9 0.100765 0.750000 0.509415
O O10 0.884396 0.924968 0.312481
O O11 0.169674 0.013440 0.498009
O O12 0.000000 0.000000 0.500000
O O13 0.518988 0.750000 0.790852
O O14 0.745698 0.914389 0.886417
O O15 0.463059 0.037111 0.725166
O O16 0.883240 0.750000 0.883181
O O17 0.000000 0.000000 0.000000
O O18 0.679352 0.750000 0.116305
O O19 0.666205 0.750000 0.432572
#
# Coordination Sequence:
#
# PCOD8071591 Si02
#       7
#     4   4   4   4   4   4   4
#     4  10  21  40  63  89 118 155 197 242 296 358
#     4  10  19  33  55  81 106 140 184 228 276 330
#     4  11  22  37  57  82 114 152 192 236 284 337
#     4  10  20  36  57  81 110 145 184 227 277 337
#     4   9  20  37  58  85 115 145 186 234 284 343
#     4   9  20  36  52  74 108 145 183 226 274 328
#     4  11  22  37  58  85 115 149 192 239 285 342
#
# _framework density 18.876866
#
# number of rings (size 3 to 8) (size 9 to 14) (size 15 to 20)
#    0.000    2.000    0.000    4.714    0.000    6.286 
#    2.571    0.000    0.000    0.000    0.000    0.000 
#    0.000    0.000    0.000    0.000    0.000    0.000 
#
# Total GULP energy -347106.273578 kJ/mol
# GULP energy per Si atom -12396.652628 kJ/mol
# Density = 1.883390 g / cm^3
# Si number density = 18.876866 Si / 1000 Ang^3
#
#
#
# Elastic Constant Matrix: (Units=GPa)
#
#
# Indices 1 2 3 4 5 6 
#
# 1 97.1444 53.5500 50.6731 0.0000 -19.5645 0.0000
# 2 53.5500 114.5936 47.1577 0.0000 -6.1194 0.0000
# 3 50.6731 47.1577 97.5463 0.0000 -0.9304 0.0000
# 4 0.0000 0.0000 0.0000 31.0999 0.0000 -3.1292
# 5 -19.5645 -6.1194 -0.9304 0.0000 17.6968 0.0000
# 6 0.0000 0.0000 0.0000 -3.1292 0.0000 36.0375
#
#
#
# Elastic Compliance Matrix: (Units=1/GPa)
#
#
# Indices 1 2 3 4 5 6 
#
# 1 0.022528 -0.005743 -0.008712 0.000000 0.022461 0.000000
# 2 -0.005743 0.012578 -0.003118 0.000000 -0.002163 0.000000
# 3 -0.008712 -0.003118 0.016191 0.000000 -0.009859 0.000000
# 4 0.000000 0.000000 0.000000 0.032438 0.000000 0.002817
# 5 0.022461 -0.002163 -0.009859 0.000000 0.080073 0.000000
# 6 0.000000 0.000000 0.000000 0.002817 0.000000 0.027993
#
#
# Mechanical properties :
#
#
# Convention : Reuss Voigt Hill
#
# Bulk Modulus (GPa) = 61.91799 68.00511 64.96155
# Shear Modulus (GPa) = 21.52123 27.49374 24.50748
#
# Velocity S-wave (km/s) = 3.38018 3.82052 3.60708
# Velocity P-wave (km/s) = 6.93587 7.45424 7.19972
#
# Compressibility (1/GPa) = 0.01615039
#
# Stress axis : x y z
#
# Youngs Moduli (GPa) = 44.39003 79.50644 61.76391
#
# Poissons Ratio (x) = 0.45657 0.53810
# Poissons Ratio (y) = 0.25491 0.19258
# Poissons Ratio (z) = 0.38673 0.24790
#
# Static dielectric constant tensor:
#      x y z
#    x 3.415490 0.000000 -0.009930 
#    y 0.000000 3.783190 0.000000 
#    z -0.009930 0.000000 3.429840 
# 
# 
# High freq. dielectric constant tensor:
#      x y z
#    x 1.731910 0.000000 -0.005470 
#    y 0.000000 1.744610 0.000000 
#    z -0.005470 0.000000 1.728810 
# 
# From -- ./inp_files/53297.got.cif
#   From: 2010.06.25/outbox.cif.g09.slc.cpg/sg11_27_cif.got.tgz:53297.got - 2010.06.27 23:14:04.
