data_PCOD8071021
_publ_section_title
;
Structure prediction by ZEFSAII (Michael W. Deem and Ramdas Pophale) SiO2 
 PCOD8071021
Probable space group: P 21/M
;
_chemical_formula_sum "Si O2"
_cell_formula_units_Z 28
_cell_length_a 9.456097
_cell_length_b 8.985117
_cell_length_c 28.020279
_cell_angle_alpha 90.000000
_cell_angle_beta 139.542878
_cell_angle_gamma 90.000000
_cell_volume 1544.798008
_symmetry_space_group_name_H-M "P 21/M"
_symmetry_group_IT_number 11
_symmetry_cell_setting 'monoclinic'
loop_
_space_group_symop_operation_xyz
x,y,z
-x,1/2+y,-z
-x,-y,-z
x,1/2-y,z
loop_
_atom_site_type_symbol
_atom_site_label
_atom_site_fract_x
_atom_site_fract_y
_atom_site_fract_z
Si Si1 0.853907 0.918367 0.924438
Si Si2 0.363562 0.078420 0.894113
Si Si3 0.206603 0.582859 0.941467
Si Si4 0.005127 0.573663 0.351652
Si Si5 0.869943 0.077285 0.509185
Si Si6 0.634720 0.073740 0.201350
Si Si7 0.419623 0.074504 0.431445
O O1 0.834286 0.750000 0.937477
O O2 0.612923 0.984952 0.856549
O O3 0.967150 0.929128 0.901996
O O4 0.000000 0.000000 0.000000
O O5 0.324799 0.250000 0.871040
O O6 0.215495 0.034807 0.901174
O O7 0.285819 0.976642 0.830439
O O8 0.615458 0.044604 0.971904
O O9 0.253817 0.750000 0.934449
O O10 0.015335 0.750000 0.347929
O O11 0.771421 0.509523 0.277065
O O12 0.043330 0.526015 0.416512
O O13 0.184607 0.500786 0.361346
O O14 0.914891 0.250000 0.514160
O O15 0.607331 0.044063 0.439488
O O16 0.000000 0.000000 0.500000
O O17 0.659557 0.250000 0.214060
O O18 0.389641 0.250000 0.431173
O O19 0.500000 0.000000 0.500000
#
# Coordination Sequence:
#
# PCOD8071021 Si02
#       7
#     4   4   4   4   4   4   4
#     4  10  20  34  53  77 104 138 181 227 276 328
#     4  10  19  32  52  75 100 134 173 217 269 320
#     4   9  18  33  51  73 101 131 172 223 269 318
#     4  10  21  37  55  79 110 144 183 225 268 319
#     4   9  19  34  56  85 113 143 179 217 260 312
#     4  11  22  35  54  79 107 141 180 224 278 332
#     4   9  17  32  54  81 109 140 179 217 257 307
#
# _framework density 18.125346
#
# number of rings (size 3 to 8) (size 9 to 14) (size 15 to 20)
#    0.000    2.286    1.429    2.571    0.000    5.143 
#    0.000    1.429    0.000    5.143    0.000    0.000 
#    0.000    0.000    0.000    0.000    0.000    0.000 
#
# Total GULP energy -347083.524809 kJ/mol
# GULP energy per Si atom -12395.840172 kJ/mol
# Density = 1.808409 g / cm^3
# Si number density = 18.125346 Si / 1000 Ang^3
#
#
#
# Elastic Constant Matrix: (Units=GPa)
#
#
# Indices 1 2 3 4 5 6 
#
# 1 108.5054 48.4080 52.3335 0.0000 11.6991 0.0000
# 2 48.4080 80.9754 42.9056 0.0000 6.4728 0.0000
# 3 52.3335 42.9056 100.5321 0.0000 14.5681 0.0000
# 4 0.0000 0.0000 0.0000 31.2972 0.0000 -0.9465
# 5 11.6991 6.4728 14.5681 0.0000 25.1679 0.0000
# 6 0.0000 0.0000 0.0000 -0.9465 0.0000 31.3681
#
#
#
# Elastic Compliance Matrix: (Units=1/GPa)
#
#
# Indices 1 2 3 4 5 6 
#
# 1 0.014344 -0.005958 -0.004563 0.000000 -0.002494 0.000000
# 2 -0.005958 0.018434 -0.004890 0.000000 0.000859 0.000000
# 3 -0.004563 -0.004890 0.015194 0.000000 -0.005416 0.000000
# 4 0.000000 0.000000 0.000000 0.031981 0.000000 0.000965
# 5 -0.002494 0.000859 -0.005416 0.000000 0.043807 0.000000
# 6 0.000000 0.000000 0.000000 0.000965 0.000000 0.031909
#
#
# Mechanical properties :
#
#
# Convention : Reuss Voigt Hill
#
# Bulk Modulus (GPa) = 58.30925 64.14524 61.22725
# Shear Modulus (GPa) = 26.01375 27.32435 26.66905
#
# Velocity S-wave (km/s) = 3.79253 3.88689 3.84000
# Velocity P-wave (km/s) = 7.17061 7.45725 7.31533
#
# Compressibility (1/GPa) = 0.01714994
#
# Stress axis : x y z
#
# Youngs Moduli (GPa) = 69.71697 54.24890 65.81460
#
# Poissons Ratio (x) = 0.32321 0.30029
# Poissons Ratio (y) = 0.41537 0.32185
# Poissons Ratio (z) = 0.31810 0.26529
#
# Static dielectric constant tensor:
#      x y z
#    x 3.507610 0.000000 0.291210 
#    y 0.000000 3.434410 0.000000 
#    z 0.291210 0.000000 3.262350 
# 
# 
# High freq. dielectric constant tensor:
#      x y z
#    x 1.700180 0.000000 0.014700 
#    y 0.000000 1.709740 0.000000 
#    z 0.014700 0.000000 1.678700 
# 
# From -- ./inp_files/70838.got.cif
#   From: 2010.06.25/outbox.cif.g09.slc.cpg/sg11_36_cif.got.tgz:70838.got - 2010.06.27 23:14:04.
