data_PCOD8071403
_publ_section_title
;
Structure prediction by ZEFSAII (Michael W. Deem and Ramdas Pophale) SiO2 
 PCOD8071403
Probable space group: P 21/M
;
_chemical_formula_sum "Si O2"
_cell_formula_units_Z 32
_cell_length_a 12.834314
_cell_length_b 9.139002
_cell_length_c 22.266425
_cell_angle_alpha 90.000000
_cell_angle_beta 41.018908
_cell_angle_gamma 90.000000
_cell_volume 1714.074365
_symmetry_space_group_name_H-M "P 21/M"
_symmetry_group_IT_number 11
_symmetry_cell_setting 'monoclinic'
loop_
_space_group_symop_operation_xyz
x,y,z
-x,1/2+y,-z
-x,-y,-z
x,1/2-y,z
loop_
_atom_site_type_symbol
_atom_site_label
_atom_site_fract_x
_atom_site_fract_y
_atom_site_fract_z
Si Si1 0.397121 0.574698 0.284905
Si Si2 0.869163 0.578462 0.891039
Si Si3 0.823114 0.920023 0.277946
Si Si4 0.694647 0.085642 0.864185
Si Si5 0.103866 0.912805 0.342196
Si Si6 0.411700 0.422207 0.909220
Si Si7 0.784199 0.575056 0.431288
Si Si8 0.522285 0.421106 0.618069
O O1 0.394170 0.750000 0.285139
O O2 0.225201 0.511341 0.337026
O O3 0.534990 0.516382 0.179310
O O4 0.433680 0.516349 0.335336
O O5 0.897677 0.750000 0.872416
O O6 0.760014 0.526420 0.884136
O O7 0.038567 0.500560 0.818856
O O8 0.771045 0.540016 0.995100
O O9 0.865996 0.750000 0.259352
O O10 0.810317 0.978172 0.351604
O O11 0.661780 0.953111 0.312843
O O12 0.676851 0.250000 0.899030
O O13 0.820015 0.091910 0.756169
O O14 0.528554 0.019981 0.911310
O O15 0.073644 0.750000 0.379326
O O16 0.929643 0.986289 0.409752
O O17 0.441091 0.250000 0.895280
O O18 0.772079 0.750000 0.438502
O O19 0.621502 0.506517 0.525091
O O20 0.560664 0.250000 0.595566
#
# Coordination Sequence:
#
# PCOD8071403 Si02
#       8
#     4   4   4   4   4   4   4   4
#     4   8  15  31  52  73 100 132 168 202 237 291
#     4  11  20  29  47  78 105 127 165 212 249 282
#     4  10  21  37  52  70 100 136 169 199 248 306
#     4   9  15  29  50  71 102 139 166 190 238 307
#     4   8  14  27  50  75  98 132 164 188 235 305
#     4   8  16  29  49  75 102 135 167 196 241 301
#     4  10  19  33  53  74  99 131 164 198 250 314
#     4  10  21  35  54  76  95 125 172 218 246 280
#
# _framework density 18.668968
#
# number of rings (size 3 to 8) (size 9 to 14) (size 15 to 20)
#    0.000    2.750    1.250    2.625    0.000    1.500 
#    0.000    1.250    0.000    4.500    0.000    0.000 
#    0.000    0.000    0.000    0.000    0.000    0.000 
#
# Total GULP energy -396542.808018 kJ/mol
# GULP energy per Si atom -12391.962751 kJ/mol
# Density = 1.862648 g / cm^3
# Si number density = 18.668968 Si / 1000 Ang^3
#
#
#
# Elastic Constant Matrix: (Units=GPa)
#
#
# Indices 1 2 3 4 5 6 
#
# 1 83.0505 19.2167 27.4620 0.0000 -0.4723 0.0000
# 2 19.2167 29.9451 25.5618 0.0000 -8.7858 0.0000
# 3 27.4620 25.5618 70.8319 0.0000 -19.3828 0.0000
# 4 0.0000 0.0000 0.0000 22.1932 0.0000 -5.3539
# 5 -0.4723 -8.7858 -19.3828 0.0000 20.1806 0.0000
# 6 0.0000 0.0000 0.0000 -5.3539 0.0000 13.5378
#
#
#
# Elastic Compliance Matrix: (Units=1/GPa)
#
#
# Indices 1 2 3 4 5 6 
#
# 1 0.015615 -0.007733 -0.005541 0.000000 -0.008323 0.000000
# 2 -0.007733 0.052598 -0.013249 0.000000 0.009993 0.000000
# 3 -0.005541 -0.013249 0.026363 0.000000 0.019423 0.000000
# 4 0.000000 0.000000 0.000000 0.049811 0.000000 0.019699
# 5 -0.008323 0.009993 0.019423 0.000000 0.072363 0.000000
# 6 0.000000 0.000000 0.000000 0.019699 0.000000 0.081658
#
#
# Mechanical properties :
#
#
# Convention : Reuss Voigt Hill
#
# Bulk Modulus (GPa) = 24.07897 36.47872 30.27884
# Shear Modulus (GPa) = 13.68749 18.62144 16.15447
#
# Velocity S-wave (km/s) = 2.71064 3.16168 2.94481
# Velocity P-wave (km/s) = 4.76683 5.73676 5.27414
#
# Compressibility (1/GPa) = 0.04153002
#
# Stress axis : x y z
#
# Youngs Moduli (GPa) = 64.04116 19.01202 37.93265
#
# Poissons Ratio (x) = 0.14701 0.21019
# Poissons Ratio (y) = 0.49520 0.50258
# Poissons Ratio (z) = 0.35485 0.25190
#
# Static dielectric constant tensor:
#      x y z
#    x 3.527280 0.000000 -0.076330 
#    y 0.000000 3.008050 0.000000 
#    z -0.076330 0.000000 3.550370 
# 
# 
# High freq. dielectric constant tensor:
#      x y z
#    x 1.717770 0.000000 -0.011210 
#    y 0.000000 1.677600 0.000000 
#    z -0.011210 0.000000 1.730950 
# 
# From -- ./inp_files/64601.got.cif
#   From: 2010.06.25/outbox.cif.g09.slc.cpg/sg11_33_cif.got.tgz:64601.got - 2010.06.27 23:14:04.
