data_PCOD8071051
_publ_section_title
;
Structure prediction by ZEFSAII (Michael W. Deem and Ramdas Pophale) SiO2 
 PCOD8071051
Probable space group: P 21/M
;
_chemical_formula_sum "Si O2"
_cell_formula_units_Z 28
_cell_length_a 24.054008
_cell_length_b 12.731741
_cell_length_c 17.415345
_cell_angle_alpha 90.000000
_cell_angle_beta 161.907173
_cell_angle_gamma 90.000000
_cell_volume 1656.339094
_symmetry_space_group_name_H-M "P 21/M"
_symmetry_group_IT_number 11
_symmetry_cell_setting 'monoclinic'
loop_
_space_group_symop_operation_xyz
x,y,z
-x,1/2+y,-z
-x,-y,-z
x,1/2-y,z
loop_
_atom_site_type_symbol
_atom_site_label
_atom_site_fract_x
_atom_site_fract_y
_atom_site_fract_z
Si Si1 0.766600 0.127555 0.985754
Si Si2 0.555513 0.001581 0.451486
Si Si3 0.037528 0.996237 0.432333
Si Si4 0.595092 0.372256 0.355074
Si Si5 0.207444 0.127489 0.780086
Si Si6 0.886481 0.370035 0.615661
Si Si7 0.761918 0.958760 0.865986
O O1 0.798653 0.250000 0.021977
O O2 0.885463 0.080045 0.210114
O O3 0.824352 0.073341 0.980456
O O4 0.557323 0.099388 0.727564
O O5 0.636281 0.066962 0.487717
O O6 0.720904 0.963482 0.721515
O O7 0.418887 0.073701 0.323795
O O8 0.948763 0.903659 0.365832
O O9 0.130080 0.942700 0.480833
O O10 0.188713 0.058593 0.678232
O O11 0.619341 0.250000 0.404196
O O12 0.736829 0.410914 0.478095
O O13 0.397173 0.399176 0.066637
O O14 0.190613 0.250000 0.737822
O O15 0.850153 0.250000 0.544156
O O16 0.081670 0.375782 0.911872
#
# Coordination Sequence:
#
# PCOD8071051 Si02
#       7
#     4   4   4   4   4   4   4
#     4   9  16  29  48  72  97 125 159 202 250 292
#     4   9  17  33  49  76  98 130 165 208 250 286
#     4  10  19  32  52  76  97 129 162 210 251 288
#     4  10  20  33  51  73 102 136 168 200 243 296
#     4  10  19  33  53  76  98 126 166 208 250 295
#     4  10  20  34  51  73 102 136 166 199 244 297
#     4   8  18  32  49  77  96 130 166 208 250 286
#
# _framework density 16.904751999999998
#
# number of rings (size 3 to 8) (size 9 to 14) (size 15 to 20)
#    0.857    1.714    1.429    0.857    0.000    4.000 
#    0.000    0.000    0.000    4.286    0.000    0.000 
#    0.000    0.000    0.000    0.000    0.000    0.000 
#
# Total GULP energy -347059.145000 kJ/mol
# GULP energy per Si atom -12394.969464 kJ/mol
# Density = 1.686628 g / cm^3
# Si number density = 16.904752 Si / 1000 Ang^3
#
#
#
# Elastic Constant Matrix: (Units=GPa)
#
#
# Indices 1 2 3 4 5 6 
#
# 1 116.6984 41.9581 31.1103 0.0000 -6.9460 0.0000
# 2 41.9581 69.4912 10.7213 0.0000 -2.6613 0.0000
# 3 31.1103 10.7213 31.3545 0.0000 -6.6782 0.0000
# 4 0.0000 0.0000 0.0000 19.4875 0.0000 1.6658
# 5 -6.9460 -2.6613 -6.6782 0.0000 27.3585 0.0000
# 6 0.0000 0.0000 0.0000 1.6658 0.0000 21.6949
#
#
#
# Elastic Compliance Matrix: (Units=1/GPa)
#
#
# Indices 1 2 3 4 5 6 
#
# 1 0.014099 -0.006708 -0.011679 0.000000 0.000076 0.000000
# 2 -0.006708 0.018385 0.000409 0.000000 0.000185 0.000000
# 3 -0.011679 0.000409 0.045062 0.000000 0.008074 0.000000
# 4 0.000000 0.000000 0.000000 0.051654 0.000000 -0.003966
# 5 0.000076 0.000185 0.008074 0.000000 0.038560 0.000000
# 6 0.000000 0.000000 0.000000 -0.003966 0.000000 0.046398
#
#
# Mechanical properties :
#
#
# Convention : Reuss Voigt Hill
#
# Bulk Modulus (GPa) = 24.04529 42.79149 33.41839
# Shear Modulus (GPa) = 18.94105 22.62514 20.78309
#
# Velocity S-wave (km/s) = 3.35095 3.66237 3.51012
# Velocity P-wave (km/s) = 5.40617 6.57664 6.01992
#
# Compressibility (1/GPa) = 0.04158819
#
# Stress axis : x y z
#
# Youngs Moduli (GPa) = 70.92707 54.39349 22.19189
#
# Poissons Ratio (x) = 0.36487 0.25918
# Poissons Ratio (y) = 0.47578 -0.00907
# Poissons Ratio (z) = 0.82838 -0.02224
#
# Static dielectric constant tensor:
#      x y z
#    x 3.054750 0.000000 -0.134580 
#    y 0.000000 2.906690 0.000000 
#    z -0.134580 0.000000 3.126450 
# 
# 
# High freq. dielectric constant tensor:
#      x y z
#    x 1.640960 0.000000 -0.018530 
#    y 0.000000 1.635830 0.000000 
#    z -0.018530 0.000000 1.647600 
# 
# From -- ./inp_files/61957.got.cif
#   From: 2010.06.25/outbox.cif.g09.slc.cpg/sg11_31_cif.got.tgz:61957.got - 2010.06.27 23:14:04.
