data_PCOD8071672
_publ_section_title
;
Structure prediction by ZEFSAII (Michael W. Deem and Ramdas Pophale) SiO2 
 PCOD8071672
Probable space group: P 21/M
;
_chemical_formula_sum "Si O2"
_cell_formula_units_Z 32
_cell_length_a 12.305717
_cell_length_b 9.353945
_cell_length_c 14.860753
_cell_angle_alpha 90.000000
_cell_angle_beta 90.063914
_cell_angle_gamma 90.000000
_cell_volume 1710.575631
_symmetry_space_group_name_H-M "P 21/M"
_symmetry_group_IT_number 11
_symmetry_cell_setting 'monoclinic'
loop_
_space_group_symop_operation_xyz
x,y,z
-x,1/2+y,-z
-x,-y,-z
x,1/2-y,z
loop_
_atom_site_type_symbol
_atom_site_label
_atom_site_fract_x
_atom_site_fract_y
_atom_site_fract_z
Si Si1 0.848263 0.409620 0.749118
Si Si2 0.372807 0.910601 0.165221
Si Si3 0.874933 0.404534 0.421735
Si Si4 0.381672 0.410097 0.809727
Si Si5 0.179713 0.580017 0.775824
Si Si6 0.393292 0.408673 0.009534
Si Si7 0.984297 0.920596 0.095586
Si Si8 0.122227 0.405226 0.423641
O O1 0.882848 0.250000 0.719161
O O2 0.717430 0.416545 0.757839
O O3 0.908976 0.447390 0.842722
O O4 0.877953 0.518899 0.672113
O O5 0.387396 0.750000 0.126874
O O6 0.492217 0.961155 0.199631
O O7 0.323905 0.010598 0.085793
O O8 0.815157 0.250000 0.425426
O O9 0.873347 0.462236 0.319734
O O10 0.817914 0.508173 0.495417
O O11 0.998365 0.383511 0.452568
O O12 0.368968 0.250000 0.768037
O O13 0.304291 0.526800 0.763742
O O14 0.337556 0.404842 0.912519
O O15 0.174962 0.750000 0.796006
O O16 0.118061 0.492357 0.853633
O O17 0.419563 0.250000 0.044382
O O18 0.500000 0.500000 0.000000
O O19 0.964251 0.750000 0.080751
O O20 0.000000 0.000000 0.000000
O O21 0.179161 0.250000 0.414606
#
# Coordination Sequence:
#
# PCOD8071672 Si02
#       8
#     4   4   4   4   4   4   4   4
#     4  10  21  37  57  80 109 146 181 219 270 327
#     4   9  19  35  53  75 104 139 181 225 270 316
#     4   9  19  35  54  79 109 139 173 218 271 322
#     4   9  19  34  51  75 105 139 180 227 272 314
#     4  11  22  37  57  80 110 146 183 223 269 324
#     4   9  17  30  48  71  98 132 176 225 269 307
#     4  11  24  39  55  79 113 151 188 222 266 322
#     4  10  19  33  56  83 109 137 173 221 270 320
#
# _framework density 18.707153999999999
#
# number of rings (size 3 to 8) (size 9 to 14) (size 15 to 20)
#    0.000    2.250    1.250    2.250    1.750    5.000 
#    0.000    0.000    0.000    0.750    0.000    0.000 
#    0.000    0.000    0.000    0.000    0.000    0.000 
#
# Total GULP energy -396458.924578 kJ/mol
# GULP energy per Si atom -12389.341393 kJ/mol
# Density = 1.866458 g / cm^3
# Si number density = 18.707154 Si / 1000 Ang^3
#
#
#
# Elastic Constant Matrix: (Units=GPa)
#
#
# Indices 1 2 3 4 5 6 
#
# 1 72.5342 31.4816 17.5419 0.0000 0.8671 0.0000
# 2 31.4816 128.4023 65.0549 0.0000 -1.9698 0.0000
# 3 17.5419 65.0549 104.0133 0.0000 -0.1943 0.0000
# 4 0.0000 0.0000 0.0000 30.5651 0.0000 -1.3733
# 5 0.8671 -1.9698 -0.1943 0.0000 12.6740 0.0000
# 6 0.0000 0.0000 0.0000 -1.3733 0.0000 21.8353
#
#
#
# Elastic Compliance Matrix: (Units=1/GPa)
#
#
# Indices 1 2 3 4 5 6 
#
# 1 0.015470 -0.003652 -0.000328 0.000000 -0.001631 0.000000
# 2 -0.003652 0.012298 -0.007072 0.000000 0.002053 0.000000
# 3 -0.000328 -0.007072 0.014091 0.000000 -0.000861 0.000000
# 4 0.000000 0.000000 0.000000 0.032810 0.000000 0.002064
# 5 -0.001631 0.002053 -0.000861 0.000000 0.079319 0.000000
# 6 0.000000 0.000000 0.000000 0.002064 0.000000 0.045927
#
#
# Mechanical properties :
#
#
# Convention : Reuss Voigt Hill
#
# Bulk Modulus (GPa) = 50.61873 59.23408 54.92641
# Shear Modulus (GPa) = 21.87187 25.73964 23.80576
#
# Velocity S-wave (km/s) = 3.42302 3.71337 3.57115
# Velocity P-wave (km/s) = 6.53759 7.07941 6.81389
#
# Compressibility (1/GPa) = 0.01975553
#
# Stress axis : x y z
#
# Youngs Moduli (GPa) = 64.63942 81.31494 70.96716
#
# Poissons Ratio (x) = 0.29695 0.02329
# Poissons Ratio (y) = 0.23605 0.50188
# Poissons Ratio (z) = 0.02121 0.57506
#
# Static dielectric constant tensor:
#      x y z
#    x 3.357140 0.000000 -0.264060 
#    y 0.000000 4.313080 0.000000 
#    z -0.264060 0.000000 3.892340 
# 
# 
# High freq. dielectric constant tensor:
#      x y z
#    x 1.695730 0.000000 0.000880 
#    y 0.000000 1.741800 0.000000 
#    z 0.000880 0.000000 1.709140 
# 
# From -- ./inp_files/49384.got.cif
#   From: 2010.06.25/outbox.cif.g09.slc.cpg/sg11_25_cif.got.tgz:49384.got - 2010.06.27 23:14:04.
