data_PCOD8071305
_publ_section_title
;
Structure prediction by ZEFSAII (Michael W. Deem and Ramdas Pophale) SiO2 
 PCOD8071305
Probable space group: P 21/M
;
_chemical_formula_sum "Si O2"
_cell_formula_units_Z 32
_cell_length_a 15.636507
_cell_length_b 8.536108
_cell_length_c 15.650296
_cell_angle_alpha 90.000000
_cell_angle_beta 124.145906
_cell_angle_gamma 90.000000
_cell_volume 1728.814480
_symmetry_space_group_name_H-M "P 21/M"
_symmetry_group_IT_number 11
_symmetry_cell_setting 'monoclinic'
loop_
_space_group_symop_operation_xyz
x,y,z
-x,1/2+y,-z
-x,-y,-z
x,1/2-y,z
loop_
_atom_site_type_symbol
_atom_site_label
_atom_site_fract_x
_atom_site_fract_y
_atom_site_fract_z
Si Si1 0.578463 0.565396 0.226610
Si Si2 0.297549 0.433372 0.865779
Si Si3 0.047856 0.566943 0.150009
Si Si4 0.923894 0.432610 0.639812
Si Si5 0.351120 0.933068 0.075842
Si Si6 0.839037 0.568914 0.941458
Si Si7 0.880191 0.068516 0.333015
Si Si8 0.772586 0.566579 0.433430
O O1 0.585968 0.750000 0.233710
O O2 0.615865 0.509882 0.153546
O O3 0.461036 0.509991 0.177125
O O4 0.657650 0.502658 0.343789
O O5 0.273801 0.250000 0.844179
O O6 0.191670 0.526015 0.788168
O O7 0.334776 0.469987 0.981041
O O8 0.069148 0.750000 0.147619
O O9 0.069453 0.513044 0.258415
O O10 0.126167 0.470452 0.134828
O O11 0.929935 0.525384 0.059121
O O12 0.949239 0.250000 0.646497
O O13 0.810568 0.472544 0.538599
O O14 0.002987 0.530746 0.626912
O O15 0.354325 0.750000 0.055539
O O16 0.261769 0.967639 0.093621
O O17 0.809419 0.750000 0.931663
O O18 0.870273 0.250000 0.351775
O O19 0.848436 0.964700 0.396279
O O20 0.772197 0.750000 0.454152
#
# Coordination Sequence:
#
# PCOD8071305 Si02
#       8
#     4   4   4   4   4   4   4   4
#     4   8  18  34  51  71 100 138 175 214 255 295
#     4  10  19  33  50  73 106 139 172 212 256 297
#     4   9  20  37  55  75 103 134 162 200 251 306
#     4  11  21  34  53  77 104 135 171 210 256 307
#     4  11  20  32  52  77 103 135 174 209 251 307
#     4  10  20  35  55  79 105 132 163 203 253 304
#     4  11  21  33  50  75 105 139 176 210 251 303
#     4  10  20  36  53  72 102 138 176 217 257 294
#
# _framework density 18.509795
#
# number of rings (size 3 to 8) (size 9 to 14) (size 15 to 20)
#    0.000    2.000    0.000    5.250    0.000    2.500 
#    0.000    6.875    0.000    0.750    0.000    0.000 
#    0.000    0.000    0.000    0.000    0.000    0.000 
#
# Total GULP energy -396843.809496 kJ/mol
# GULP energy per Si atom -12401.369047 kJ/mol
# Density = 1.846767 g / cm^3
# Si number density = 18.509795 Si / 1000 Ang^3
#
#
#
# Elastic Constant Matrix: (Units=GPa)
#
#
# Indices 1 2 3 4 5 6 
#
# 1 89.7203 16.7510 49.7509 0.0000 14.2374 0.0000
# 2 16.7510 48.0481 15.2516 0.0000 2.5836 0.0000
# 3 49.7509 15.2516 122.6308 0.0000 5.8970 0.0000
# 4 0.0000 0.0000 0.0000 28.7863 0.0000 -0.5689
# 5 14.2374 2.5836 5.8970 0.0000 22.6993 0.0000
# 6 0.0000 0.0000 0.0000 -0.5689 0.0000 23.9982
#
#
#
# Elastic Compliance Matrix: (Units=1/GPa)
#
#
# Indices 1 2 3 4 5 6 
#
# 1 0.016319 -0.003401 -0.005796 0.000000 -0.008342 0.000000
# 2 -0.003401 0.022449 -0.001410 0.000000 -0.000056 0.000000
# 3 -0.005796 -0.001410 0.010632 0.000000 0.001034 0.000000
# 4 0.000000 0.000000 0.000000 0.034755 0.000000 0.000824
# 5 -0.008342 -0.000056 0.001034 0.000000 0.049024 0.000000
# 6 0.000000 0.000000 0.000000 0.000824 0.000000 0.041689
#
#
# Mechanical properties :
#
#
# Convention : Reuss Voigt Hill
#
# Bulk Modulus (GPa) = 35.47905 47.10069 41.28987
# Shear Modulus (GPa) = 24.33375 27.00648 25.67011
#
# Velocity S-wave (km/s) = 3.62973 3.82388 3.72807
# Velocity P-wave (km/s) = 6.06432 6.70803 6.39428
#
# Compressibility (1/GPa) = 0.02818565
#
# Stress axis : x y z
#
# Youngs Moduli (GPa) = 61.27967 44.54639 94.05843
#
# Poissons Ratio (x) = 0.15149 0.54519
# Poissons Ratio (y) = 0.20839 0.13258
# Poissons Ratio (z) = 0.35520 0.06279
#
# Static dielectric constant tensor:
#      x y z
#    x 3.362420 0.000000 0.269110 
#    y 0.000000 3.289090 0.000000 
#    z 0.269110 0.000000 3.588780 
# 
# 
# High freq. dielectric constant tensor:
#      x y z
#    x 1.696160 0.000000 0.012980 
#    y 0.000000 1.716080 0.000000 
#    z 0.012980 0.000000 1.716920 
# 
# From -- ./inp_files/51723.got.cif
#   From: 2010.06.25/outbox.cif.g09.slc.cpg/sg11_26_cif.got.tgz:51723.got - 2010.06.27 23:14:04.
