data_PCOD8071532
_publ_section_title
;
Structure prediction by ZEFSAII (Michael W. Deem and Ramdas Pophale) SiO2 
 PCOD8071532
Probable space group: P 21/M
;
_chemical_formula_sum "Si O2"
_cell_formula_units_Z 32
_cell_length_a 17.417305
_cell_length_b 19.738654
_cell_length_c 5.303761
_cell_angle_alpha 90.000000
_cell_angle_beta 119.996953
_cell_angle_gamma 90.000000
_cell_volume 1579.160972
_symmetry_space_group_name_H-M "P 21/M"
_symmetry_group_IT_number 11
_symmetry_cell_setting 'monoclinic'
loop_
_space_group_symop_operation_xyz
x,y,z
-x,1/2+y,-z
-x,-y,-z
x,1/2-y,z
loop_
_atom_site_type_symbol
_atom_site_label
_atom_site_fract_x
_atom_site_fract_y
_atom_site_fract_z
Si Si1 0.682974 0.176420 0.158917
Si Si2 0.415154 0.055219 0.147608
Si Si3 0.302750 0.071688 0.470826
Si Si4 0.047028 0.170620 0.569629
Si Si5 0.145277 0.674413 0.902629
Si Si6 0.421348 0.588080 0.313992
Si Si7 0.144185 0.330945 0.227293
Si Si8 0.255571 0.573130 0.350780
O O1 0.669293 0.250000 0.265333
O O2 0.773182 0.179002 0.150330
O O3 0.687734 0.116066 0.361114
O O4 0.593702 0.159736 0.852025
O O5 0.351621 0.070029 0.282649
O O6 0.505921 0.097991 0.346133
O O7 0.447481 0.976521 0.181637
O O8 0.372697 0.078419 0.814822
O O9 0.241774 0.137782 0.377808
O O10 0.240468 0.004503 0.415401
O O11 0.060626 0.250000 0.598104
O O12 0.095436 0.142244 0.399494
O O13 0.942987 0.151931 0.389875
O O14 0.088955 0.141030 0.895277
O O15 0.131528 0.750000 0.005759
O O16 0.165598 0.615262 0.141119
O O17 0.321383 0.566917 0.224752
O O18 0.153042 0.250000 0.238603
#
# Coordination Sequence:
#
# PCOD8071532 Si02
#       8
#     4   4   4   4   4   4   4   4
#     4  10  19  33  54  80 116 149 180 226 279 332
#     4  10  21  36  62  83 109 145 191 232 270 326
#     4  11  22  38  59  85 110 148 187 235 280 332
#     4   9  19  36  60  83 107 143 189 231 274 335
#     4   9  19  34  54  83 111 148 189 225 269 332
#     4   9  20  35  54  82 111 145 191 227 269 325
#     4  10  21  39  60  81 108 143 187 238 285 329
#     4  10  20  33  55  81 116 148 183 225 277 337
#
# _framework density 20.263926999999999
#
# number of rings (size 3 to 8) (size 9 to 14) (size 15 to 20)
#    0.000    2.250    1.250    1.125    3.500    2.000 
#    0.000    2.500    0.000    0.000    0.000    0.000 
#    0.000    0.000    0.000    0.000    0.000    0.000 
#
# Total GULP energy -396429.483883 kJ/mol
# GULP energy per Si atom -12388.421371 kJ/mol
# Density = 2.021781 g / cm^3
# Si number density = 20.263927 Si / 1000 Ang^3
#
#
#
# Elastic Constant Matrix: (Units=GPa)
#
#
# Indices 1 2 3 4 5 6 
#
# 1 37.5299 16.3701 23.5045 0.0000 3.4588 0.0000
# 2 16.3701 65.3428 29.2903 0.0000 8.6292 0.0000
# 3 23.5045 29.2903 131.6996 0.0000 10.6863 0.0000
# 4 0.0000 0.0000 0.0000 30.0112 0.0000 6.7415
# 5 3.4588 8.6292 10.6863 0.0000 35.6729 0.0000
# 6 0.0000 0.0000 0.0000 6.7415 0.0000 20.5980
#
#
#
# Elastic Compliance Matrix: (Units=1/GPa)
#
#
# Indices 1 2 3 4 5 6 
#
# 1 0.032030 -0.006030 -0.004347 0.000000 -0.000345 0.000000
# 2 -0.006030 0.018465 -0.002783 0.000000 -0.003048 0.000000
# 3 -0.004347 -0.002783 0.009121 0.000000 -0.001638 0.000000
# 4 0.000000 0.000000 0.000000 0.035965 0.000000 -0.011771
# 5 -0.000345 -0.003048 -0.001638 0.000000 0.029294 0.000000
# 6 0.000000 0.000000 0.000000 -0.011771 0.000000 0.052401
#
#
# Mechanical properties :
#
#
# Convention : Reuss Voigt Hill
#
# Bulk Modulus (GPa) = 30.03506 41.43358 35.73432
# Shear Modulus (GPa) = 23.28890 28.28358 25.78624
#
# Velocity S-wave (km/s) = 3.39378 3.74004 3.57111
# Velocity P-wave (km/s) = 5.49646 6.25635 5.88867
#
# Compressibility (1/GPa) = 0.03329442
#
# Stress axis : x y z
#
# Youngs Moduli (GPa) = 31.22058 54.15741 109.64024
#
# Poissons Ratio (x) = 0.32658 0.47665
# Poissons Ratio (y) = 0.18827 0.30513
# Poissons Ratio (z) = 0.13573 0.15072
#
# Static dielectric constant tensor:
#      x y z
#    x 3.541700 0.000000 -0.066550 
#    y 0.000000 3.915690 0.000000 
#    z -0.066550 0.000000 3.876970 
# 
# 
# High freq. dielectric constant tensor:
#      x y z
#    x 1.772180 0.000000 0.000100 
#    y 0.000000 1.768980 0.000000 
#    z 0.000100 0.000000 1.800570 
# 
# From -- ./inp_files/7059.got.cif
#   From: 2010.06.25/outbox.cif.g09.slc.cpg/sg11_4_cif.got.tgz:7059.got - 2010.06.27 23:14:04.
