data_PCOD8071759
_publ_section_title
;
Structure prediction by ZEFSAII (Michael W. Deem and Ramdas Pophale) SiO2 
 PCOD8071759
Probable space group: P 21/M
;
_chemical_formula_sum "Si O2"
_cell_formula_units_Z 24
_cell_length_a 17.031561
_cell_length_b 9.061184
_cell_length_c 13.841223
_cell_angle_alpha 90.000000
_cell_angle_beta 144.811859
_cell_angle_gamma 90.000000
_cell_volume 1230.933908
_symmetry_space_group_name_H-M "P 21/M"
_symmetry_group_IT_number 11
_symmetry_cell_setting 'monoclinic'
loop_
_space_group_symop_operation_xyz
x,y,z
-x,1/2+y,-z
-x,-y,-z
x,1/2-y,z
loop_
_atom_site_type_symbol
_atom_site_label
_atom_site_fract_x
_atom_site_fract_y
_atom_site_fract_z
Si Si1 0.158234 0.921510 0.056918
Si Si2 0.043829 0.918625 0.448384
Si Si3 0.773863 0.579934 0.062512
Si Si4 0.271756 0.418894 0.566538
Si Si5 0.841589 0.579512 0.750195
Si Si6 0.544984 0.421215 0.947885
O O1 0.193462 0.750000 0.084424
O O2 0.241403 0.006128 0.057650
O O3 0.208822 0.980921 0.211206
O O4 0.998456 0.953705 0.883252
O O5 0.069107 0.750000 0.501062
O O6 0.929667 0.936572 0.251840
O O7 0.000000 0.000000 0.500000
O O8 0.184830 0.983331 0.552000
O O9 0.728522 0.750000 0.011236
O O10 0.681624 0.496696 0.047540
O O11 0.224059 0.250000 0.532129
O O12 0.248889 0.467331 0.432738
O O13 0.429775 0.440107 0.750201
O O14 0.821680 0.750000 0.758283
O O15 0.573519 0.250000 0.998489
O O16 0.500000 0.500000 0.000000
#
# Coordination Sequence:
#
# PCOD8071759 Si02
#       6
#     4   4   4   4   4   4
#     4  10  19  33  58  88 117 150 188 233 288 343
#     4  11  23  36  56  84 113 146 189 240 288 339
#     4  11  23  39  58  84 117 153 194 237 285 340
#     4  10  21  39  60  84 114 150 191 236 287 342
#     4   9  18  34  57  85 118 150 183 233 291 342
#     4  11  24  41  61  84 115 155 197 237 287 346
#
# _framework density 19.497389999999999
#
# number of rings (size 3 to 8) (size 9 to 14) (size 15 to 20)
#    0.000    1.667    1.667    3.000    0.000    8.667 
#    0.000    0.833    0.000    0.000    0.000    0.000 
#    0.000    0.000    0.000    0.000    0.000    0.000 
#
# Total GULP energy -297737.517012 kJ/mol
# GULP energy per Si atom -12405.729876 kJ/mol
# Density = 1.945301 g / cm^3
# Si number density = 19.497390 Si / 1000 Ang^3
#
#
#
# Elastic Constant Matrix: (Units=GPa)
#
#
# Indices 1 2 3 4 5 6 
#
# 1 95.2018 53.2433 3.2636 0.0000 -14.5242 0.0000
# 2 53.2433 121.5731 19.7046 0.0000 -8.5715 0.0000
# 3 3.2636 19.7046 48.2044 0.0000 -14.2775 0.0000
# 4 0.0000 0.0000 0.0000 26.8951 0.0000 -2.8639
# 5 -14.5242 -8.5715 -14.2775 0.0000 34.4468 0.0000
# 6 0.0000 0.0000 0.0000 -2.8639 0.0000 42.1110
#
#
#
# Elastic Compliance Matrix: (Units=1/GPa)
#
#
# Indices 1 2 3 4 5 6 
#
# 1 0.015101 -0.006757 0.003565 0.000000 0.006164 0.000000
# 2 -0.006757 0.011852 -0.004967 0.000000 -0.001959 0.000000
# 3 0.003565 -0.004967 0.025778 0.000000 0.010952 0.000000
# 4 0.000000 0.000000 0.000000 0.037453 0.000000 0.002547
# 5 0.006164 -0.001959 0.010952 0.000000 0.035681 0.000000
# 6 0.000000 0.000000 0.000000 0.002547 0.000000 0.023920
#
#
# Mechanical properties :
#
#
# Convention : Reuss Voigt Hill
#
# Bulk Modulus (GPa) = 27.46302 46.37803 36.92053
# Shear Modulus (GPa) = 28.05212 33.27509 30.66361
#
# Velocity S-wave (km/s) = 3.79722 4.13564 3.97003
# Velocity P-wave (km/s) = 5.77419 6.82957 6.32393
#
# Compressibility (1/GPa) = 0.03641260
#
# Stress axis : x y z
#
# Youngs Moduli (GPa) = 66.22080 84.37628 38.79302
#
# Poissons Ratio (x) = 0.57011 -0.13830
# Poissons Ratio (y) = 0.44744 0.19270
# Poissons Ratio (z) = -0.23609 0.41912
#
# Static dielectric constant tensor:
#      x y z
#    x 3.605450 0.000000 -0.140300 
#    y 0.000000 3.629850 0.000000 
#    z -0.140300 0.000000 3.562310 
# 
# 
# High freq. dielectric constant tensor:
#      x y z
#    x 1.759260 0.000000 -0.016260 
#    y 0.000000 1.769740 0.000000 
#    z -0.016260 0.000000 1.749430 
# 
# From -- ./inp_files/46533.got.cif
#   From: 2010.06.25/outbox.cif.g09.slc.cpg/sg11_24_cif.got.tgz:46533.got - 2010.06.27 23:14:04.
