data_PCOD8071791
_publ_section_title
;
Structure prediction by ZEFSAII (Michael W. Deem and Ramdas Pophale) SiO2 
 PCOD8071791
Probable space group: P 21/M
;
_chemical_formula_sum "Si O2"
_cell_formula_units_Z 32
_cell_length_a 15.083731
_cell_length_b 12.526959
_cell_length_c 15.938445
_cell_angle_alpha 90.000000
_cell_angle_beta 143.327158
_cell_angle_gamma 90.000000
_cell_volume 1798.675981
_symmetry_space_group_name_H-M "P 21/M"
_symmetry_group_IT_number 11
_symmetry_cell_setting 'monoclinic'
loop_
_space_group_symop_operation_xyz
x,y,z
-x,1/2+y,-z
-x,-y,-z
x,1/2-y,z
loop_
_atom_site_type_symbol
_atom_site_label
_atom_site_fract_x
_atom_site_fract_y
_atom_site_fract_z
Si Si1 0.527716 0.973216 0.616894
Si Si2 0.349305 0.623979 0.155641
Si Si3 0.021679 0.129228 0.726534
Si Si4 0.693453 0.125953 0.426807
Si Si5 0.669823 0.872745 0.119203
Si Si6 0.946815 0.501200 0.083085
Si Si7 0.528258 0.003384 0.158021
Si Si8 0.834063 0.628671 0.848550
O O1 0.380591 0.923086 0.545949
O O2 0.658265 0.886569 0.723843
O O3 0.500000 0.000000 0.500000
O O4 0.574649 0.080153 0.701960
O O5 0.359258 0.750000 0.165659
O O6 0.433164 0.581628 0.137474
O O7 0.178940 0.588560 0.021496
O O8 0.021100 0.250000 0.762573
O O9 0.154394 0.114969 0.761206
O O10 0.868992 0.104869 0.562890
O O11 0.043141 0.044390 0.816061
O O12 0.654547 0.250000 0.392994
O O13 0.633600 0.071304 0.297783
O O14 0.624522 0.750000 0.098900
O O15 0.631120 0.940513 0.171461
O O16 0.582755 0.915533 0.972069
O O17 0.103045 0.446647 0.177669
O O18 0.913812 0.600069 0.996565
O O19 0.869503 0.750000 0.853132
#
# Coordination Sequence:
#
# PCOD8071791 Si02
#       8
#     4   4   4   4   4   4   4   4
#     4  10  21  36  52  77 106 143 185 228 269 318
#     4  10  20  34  54  78 108 144 179 222 275 323
#     4  10  20  35  56  81 108 143 180 221 269 322
#     4  10  21  36  56  80 111 146 181 224 273 323
#     4  10  20  35  59  84 108 142 182 223 270 323
#     4  10  19  34  51  76 107 137 179 224 269 319
#     4  10  20  36  56  84 111 141 178 227 269 322
#     4  10  20  32  51  74 101 139 180 225 268 315
#
# _framework density 17.790863000000002
#
# number of rings (size 3 to 8) (size 9 to 14) (size 15 to 20)
#    0.000    2.000    1.250    2.625    0.000    1.500 
#    0.000    3.125    0.000    2.250    0.000    0.000 
#    0.000    0.000    0.000    0.000    0.000    0.000 
#
# Total GULP energy -396906.929217 kJ/mol
# GULP energy per Si atom -12403.341538 kJ/mol
# Density = 1.775037 g / cm^3
# Si number density = 17.790863 Si / 1000 Ang^3
#
#
#
# Elastic Constant Matrix: (Units=GPa)
#
#
# Indices 1 2 3 4 5 6 
#
# 1 104.1390 43.9694 58.2409 0.0000 2.0390 0.0000
# 2 43.9694 114.7849 51.2481 0.0000 -1.3457 0.0000
# 3 58.2409 51.2481 84.9329 0.0000 0.0301 0.0000
# 4 0.0000 0.0000 0.0000 16.9242 0.0000 1.3322
# 5 2.0390 -1.3457 0.0301 0.0000 35.2264 0.0000
# 6 0.0000 0.0000 0.0000 1.3322 0.0000 19.6381
#
#
#
# Elastic Compliance Matrix: (Units=1/GPa)
#
#
# Indices 1 2 3 4 5 6 
#
# 1 0.015838 -0.001683 -0.009845 0.000000 -0.000973 0.000000
# 2 -0.001683 0.012111 -0.006154 0.000000 0.000565 0.000000
# 3 -0.009845 -0.006154 0.022238 0.000000 0.000316 0.000000
# 4 0.000000 0.000000 0.000000 0.059404 0.000000 -0.004030
# 5 -0.000973 0.000565 0.000316 0.000000 0.028465 0.000000
# 6 0.000000 0.000000 0.000000 -0.004030 0.000000 0.051195
#
#
# Mechanical properties :
#
#
# Convention : Reuss Voigt Hill
#
# Bulk Modulus (GPa) = 67.45927 67.86373 67.66150
# Shear Modulus (GPa) = 21.78130 24.38430 23.08280
#
# Velocity S-wave (km/s) = 3.50279 3.70619 3.60592
# Velocity P-wave (km/s) = 7.37290 7.51948 7.44655
#
# Compressibility (1/GPa) = 0.01482376
#
# Stress axis : x y z
#
# Youngs Moduli (GPa) = 63.13975 82.57181 44.96845
#
# Poissons Ratio (x) = 0.13896 0.44270
# Poissons Ratio (y) = 0.10626 0.27672
# Poissons Ratio (z) = 0.62159 0.50812
#
# Static dielectric constant tensor:
#      x y z
#    x 3.390180 0.000000 0.129600 
#    y 0.000000 3.214830 0.000000 
#    z 0.129600 0.000000 3.230990 
# 
# 
# High freq. dielectric constant tensor:
#      x y z
#    x 1.698910 0.000000 0.008870 
#    y 0.000000 1.690550 0.000000 
#    z 0.008870 0.000000 1.684390 
# 
# From -- ./inp_files/52266.got.cif
#   From: 2010.06.25/outbox.cif.g09.slc.cpg/sg11_27_cif.got.tgz:52266.got - 2010.06.27 23:14:04.
