data_PCOD8071281
_publ_section_title
;
Structure prediction by ZEFSAII (Michael W. Deem and Ramdas Pophale) SiO2 
 PCOD8071281
Probable space group: P 21/M
;
_chemical_formula_sum "Si O2"
_cell_formula_units_Z 32
_cell_length_a 19.811233
_cell_length_b 8.909098
_cell_length_c 25.670401
_cell_angle_alpha 90.000000
_cell_angle_beta 158.709758
_cell_angle_gamma 90.000000
_cell_volume 1645.111099
_symmetry_space_group_name_H-M "P 21/M"
_symmetry_group_IT_number 11
_symmetry_cell_setting 'monoclinic'
loop_
_space_group_symop_operation_xyz
x,y,z
-x,1/2+y,-z
-x,-y,-z
x,1/2-y,z
loop_
_atom_site_type_symbol
_atom_site_label
_atom_site_fract_x
_atom_site_fract_y
_atom_site_fract_z
Si Si1 0.306329 0.423540 0.848275
Si Si2 0.183489 0.571417 0.655798
Si Si3 0.631280 0.573975 0.399656
Si Si4 0.014763 0.579343 0.303380
Si Si5 0.092308 0.578130 0.876294
Si Si6 0.004978 0.077763 0.079790
Si Si7 0.705901 0.576566 0.796542
Si Si8 0.520256 0.925418 0.204001
O O1 0.336770 0.250000 0.854252
O O2 0.203053 0.511012 0.728156
O O3 0.183824 0.438053 0.811944
O O4 0.500000 0.500000 0.000000
O O5 0.164356 0.750000 0.642809
O O6 0.362781 0.524365 0.751844
O O7 0.000000 0.500000 0.500000
O O8 0.628971 0.750000 0.403624
O O9 0.488803 0.509515 0.339966
O O10 0.571168 0.523165 0.298808
O O11 0.837159 0.516711 0.558353
O O12 0.083565 0.750000 0.352773
O O13 0.996655 0.525963 0.231238
O O14 0.074076 0.750000 0.845078
O O15 0.974578 0.547915 0.844128
O O16 0.306073 0.537183 0.040100
O O17 0.943821 0.250000 0.025511
O O18 0.201073 0.042412 0.192796
O O19 0.844026 0.973633 0.941524
O O20 0.663224 0.750000 0.773436
O O21 0.564952 0.750000 0.227602
#
# Coordination Sequence:
#
# PCOD8071281 Si02
#       8
#     4   4   4   4   4   4   4   4
#     4  11  24  43  65  89 118 155 198 245 296 357
#     4  12  25  40  60  87 119 153 194 245 297 354
#     4  11  22  39  61  86 118 158 199 239 293 356
#     4  11  25  41  58  86 120 153 195 244 292 346
#     4  10  20  38  61  86 116 153 194 238 286 345
#     4   9  18  35  57  86 120 155 197 238 285 344
#     4  10  19  32  57  89 121 154 191 242 292 340
#     4  10  21  38  62  88 115 149 194 244 292 350
#
# _framework density 19.451573
#
# number of rings (size 3 to 8) (size 9 to 14) (size 15 to 20)
#    0.000    1.500    1.250    4.125    0.000    8.500 
#    0.000    0.625    0.000    0.000    0.000    0.000 
#    0.000    0.000    0.000    0.000    0.000    0.000 
#
# Total GULP energy -396965.787163 kJ/mol
# GULP energy per Si atom -12405.180849 kJ/mol
# Density = 1.940730 g / cm^3
# Si number density = 19.451573 Si / 1000 Ang^3
#
#
#
# Elastic Constant Matrix: (Units=GPa)
#
#
# Indices 1 2 3 4 5 6 
#
# 1 101.1897 44.8344 21.2997 0.0000 -4.9421 0.0000
# 2 44.8344 82.8594 26.7665 0.0000 -3.1203 0.0000
# 3 21.2997 26.7665 69.7467 0.0000 -11.6091 0.0000
# 4 0.0000 0.0000 0.0000 36.2101 0.0000 2.6810
# 5 -4.9421 -3.1203 -11.6091 0.0000 32.4263 0.0000
# 6 0.0000 0.0000 0.0000 2.6810 0.0000 31.9067
#
#
#
# Elastic Compliance Matrix: (Units=1/GPa)
#
#
# Indices 1 2 3 4 5 6 
#
# 1 0.013153 -0.006659 -0.001312 0.000000 0.000894 0.000000
# 2 -0.006659 0.017159 -0.004727 0.000000 -0.001056 0.000000
# 3 -0.001312 -0.004727 0.017485 0.000000 0.005605 0.000000
# 4 0.000000 0.000000 0.000000 0.027789 0.000000 -0.002335
# 5 0.000894 -0.001056 0.005605 0.000000 0.032880 0.000000
# 6 0.000000 0.000000 0.000000 -0.002335 0.000000 0.031538
#
#
# Mechanical properties :
#
#
# Convention : Reuss Voigt Hill
#
# Bulk Modulus (GPa) = 44.64320 48.84411 46.74366
# Shear Modulus (GPa) = 28.92355 30.83497 29.87926
#
# Velocity S-wave (km/s) = 3.86028 3.98580 3.92354
# Velocity P-wave (km/s) = 6.54751 6.80788 6.67896
#
# Compressibility (1/GPa) = 0.02239983
#
# Stress axis : x y z
#
# Youngs Moduli (GPa) = 76.02899 58.27763 57.19029
#
# Poissons Ratio (x) = 0.38809 0.07505
# Poissons Ratio (y) = 0.50630 0.27036
# Poissons Ratio (z) = 0.09977 0.27550
#
# Static dielectric constant tensor:
#      x y z
#    x 3.861350 0.000000 0.156880 
#    y 0.000000 3.641870 0.000000 
#    z 0.156880 0.000000 3.461790 
# 
# 
# High freq. dielectric constant tensor:
#      x y z
#    x 1.769060 0.000000 0.007310 
#    y 0.000000 1.764650 0.000000 
#    z 0.007310 0.000000 1.749540 
# 
# From -- ./inp_files/72218.got.cif
#   From: 2010.06.25/outbox.cif.g09.slc.cpg/sg11_37_cif.got.tgz:72218.got - 2010.06.27 23:14:04.
