data_PCOD8071664
_publ_section_title
;
Structure prediction by ZEFSAII (Michael W. Deem and Ramdas Pophale) SiO2 
 PCOD8071664
Probable space group: P 21/M
;
_chemical_formula_sum "Si O2"
_cell_formula_units_Z 24
_cell_length_a 14.924471
_cell_length_b 9.122826
_cell_length_c 14.645492
_cell_angle_alpha 90.000000
_cell_angle_beta 139.873507
_cell_angle_gamma 90.000000
_cell_volume 1285.108800
_symmetry_space_group_name_H-M "P 21/M"
_symmetry_group_IT_number 11
_symmetry_cell_setting 'monoclinic'
loop_
_space_group_symop_operation_xyz
x,y,z
-x,1/2+y,-z
-x,-y,-z
x,1/2-y,z
loop_
_atom_site_type_symbol
_atom_site_label
_atom_site_fract_x
_atom_site_fract_y
_atom_site_fract_z
Si Si1 0.589931 0.419462 0.192979
Si Si2 0.829521 0.419864 0.707916
Si Si3 0.715382 0.420403 0.814376
Si Si4 0.568362 0.420891 0.382161
Si Si5 0.106798 0.923950 0.874647
Si Si6 0.291214 0.079580 0.878090
O O1 0.627622 0.250000 0.205887
O O2 0.612421 0.468951 0.314600
O O3 0.691719 0.517512 0.210785
O O4 0.430238 0.450828 0.043755
O O5 0.867839 0.250000 0.721202
O O6 0.807395 0.453428 0.797152
O O7 0.690983 0.463858 0.545859
O O8 0.950578 0.522250 0.765342
O O9 0.682699 0.250000 0.798491
O O10 0.569089 0.499590 0.691043
O O11 0.801017 0.478749 0.968043
O O12 0.534399 0.250000 0.357123
O O13 0.108373 0.750000 0.866915
O O14 0.165729 0.994693 0.828373
O O15 0.254012 0.250000 0.843491
#
# Coordination Sequence:
#
# PCOD8071664 Si02
#       6
#     4   4   4   4   4   4
#     4   9  18  33  54  82 110 137 175 223 272 322
#     4  10  22  38  55  79 113 148 183 223 270 323
#     4  10  21  36  56  82 110 144 186 228 267 316
#     4  10  20  36  58  83 111 144 180 223 273 324
#     4  11  22  36  55  81 112 146 184 226 270 318
#     4  10  19  33  56  82 108 140 178 224 274 321
#
# _framework density 18.675460999999999
#
# number of rings (size 3 to 8) (size 9 to 14) (size 15 to 20)
#    0.000    2.000    1.667    2.000    0.000    3.333 
#    0.000    0.833    0.000    0.000    0.000    0.000 
#    0.000    0.000    0.000    0.000    0.000    0.000 
#
# Total GULP energy -297722.420895 kJ/mol
# GULP energy per Si atom -12405.100871 kJ/mol
# Density = 1.863295 g / cm^3
# Si number density = 18.675461 Si / 1000 Ang^3
#
#
#
# Elastic Constant Matrix: (Units=GPa)
#
#
# Indices 1 2 3 4 5 6 
#
# 1 106.3449 50.8237 20.8281 0.0000 15.1624 0.0000
# 2 50.8237 70.4610 21.7205 0.0000 13.2274 0.0000
# 3 20.8281 21.7205 39.0649 0.0000 10.9413 0.0000
# 4 0.0000 0.0000 0.0000 24.6575 0.0000 7.4827
# 5 15.1624 13.2274 10.9413 0.0000 26.5431 0.0000
# 6 0.0000 0.0000 0.0000 7.4827 0.0000 35.7042
#
#
#
# Elastic Compliance Matrix: (Units=1/GPa)
#
#
# Indices 1 2 3 4 5 6 
#
# 1 0.014715 -0.009530 -0.001721 0.000000 -0.002947 0.000000
# 2 -0.009530 0.023963 -0.007261 0.000000 -0.003504 0.000000
# 3 -0.001721 -0.007261 0.033084 0.000000 -0.009036 0.000000
# 4 0.000000 0.000000 0.000000 0.043310 0.000000 -0.009077
# 5 -0.002947 -0.003504 -0.009036 0.000000 0.044829 0.000000
# 6 0.000000 0.000000 0.000000 -0.009077 0.000000 0.029910
#
#
# Mechanical properties :
#
#
# Convention : Reuss Voigt Hill
#
# Bulk Modulus (GPa) = 28.78755 44.73506 36.76130
# Shear Modulus (GPa) = 20.97181 25.54753 23.25967
#
# Velocity S-wave (km/s) = 3.35470 3.70262 3.53295
# Velocity P-wave (km/s) = 5.51846 6.50270 6.03070
#
# Compressibility (1/GPa) = 0.03473724
#
# Stress axis : x y z
#
# Youngs Moduli (GPa) = 67.95607 41.73174 30.22610
#
# Poissons Ratio (x) = 0.39772 0.05203
# Poissons Ratio (y) = 0.64765 0.21946
# Poissons Ratio (z) = 0.11698 0.30300
#
# Static dielectric constant tensor:
#      x y z
#    x 3.446370 0.000000 -0.186150 
#    y 0.000000 3.418260 0.000000 
#    z -0.186150 0.000000 3.372980 
# 
# 
# High freq. dielectric constant tensor:
#      x y z
#    x 1.736580 0.000000 -0.008640 
#    y 0.000000 1.724080 0.000000 
#    z -0.008640 0.000000 1.710810 
# 
# From -- ./inp_files/20632.got.cif
#   From: 2010.06.25/outbox.cif.g09.slc.cpg/sg11_11_cif.got.tgz:20632.got - 2010.06.27 23:14:04.
