data_PCOD8071624
_publ_section_title
;
Structure prediction by ZEFSAII (Michael W. Deem and Ramdas Pophale) SiO2 
 PCOD8071624
Probable space group: P 21/M
;
_chemical_formula_sum "Si O2"
_cell_formula_units_Z 32
_cell_length_a 8.949837
_cell_length_b 13.773082
_cell_length_c 19.321725
_cell_angle_alpha 90.000000
_cell_angle_beta 40.191826
_cell_angle_gamma 90.000000
_cell_volume 1537.045081
_symmetry_space_group_name_H-M "P 21/M"
_symmetry_group_IT_number 11
_symmetry_cell_setting 'monoclinic'
loop_
_space_group_symop_operation_xyz
x,y,z
-x,1/2+y,-z
-x,-y,-z
x,1/2-y,z
loop_
_atom_site_type_symbol
_atom_site_label
_atom_site_fract_x
_atom_site_fract_y
_atom_site_fract_z
Si Si1 0.096709 0.356784 0.684863
Si Si2 0.493555 0.474895 0.583052
Si Si3 0.023822 0.858877 0.944063
Si Si4 0.342285 0.968654 0.142766
Si Si5 0.310853 0.141303 0.066940
Si Si6 0.775752 0.855929 0.515780
Si Si7 0.719509 0.364152 0.611174
Si Si8 0.659094 0.533725 0.157417
O O1 0.076691 0.250000 0.726488
O O2 0.239176 0.428611 0.686390
O O3 0.220803 0.346433 0.567809
O O4 0.849356 0.401057 0.754885
O O5 0.500000 0.500000 0.500000
O O6 0.562915 0.569383 0.605362
O O7 0.678474 0.393009 0.544620
O O8 0.116831 0.750000 0.926644
O O9 0.871205 0.856878 0.929668
O O10 0.868919 0.892411 0.064901
O O11 0.235363 0.931909 0.853457
O O12 0.226172 0.069475 0.157896
O O13 0.532472 0.994289 0.131589
O O14 0.445194 0.904316 0.043807
O O15 0.350469 0.250000 0.081952
O O16 0.719115 0.750000 0.568434
O O17 0.020622 0.895528 0.458757
O O18 0.689455 0.250000 0.634135
O O19 0.519941 0.420156 0.724888
#
# Coordination Sequence:
#
# PCOD8071624 Si02
#       8
#     4   4   4   4   4   4   4   4
#     4  10  19  34  57  84 111 144 184 232 280 330
#     4  10  22  38  56  83 116 145 174 226 294 349
#     4   9  19  36  55  77 118 162 191 229 284 336
#     4  10  19  33  55  83 113 149 191 237 280 325
#     4   9  19  34  53  77 112 157 195 228 275 334
#     4   9  19  37  61  83 107 141 180 225 287 344
#     4  11  21  36  62  91 112 141 190 242 283 336
#     4  10  20  34  57  88 115 147 193 241 283 328
#
# _framework density 20.819168999999999
#
# number of rings (size 3 to 8) (size 9 to 14) (size 15 to 20)
#    0.000    2.250    1.250    1.500    1.750    2.000 
#    0.000    1.250    0.000    3.000    0.000    0.000 
#    0.000    0.000    0.000    0.000    0.000    0.000 
#
# Total GULP energy -396435.254211 kJ/mol
# GULP energy per Si atom -12388.601694 kJ/mol
# Density = 2.077178 g / cm^3
# Si number density = 20.819169 Si / 1000 Ang^3
#
#
#
# Elastic Constant Matrix: (Units=GPa)
#
#
# Indices 1 2 3 4 5 6 
#
# 1 81.1065 52.4609 21.0645 0.0000 -13.7110 0.0000
# 2 52.4609 174.5944 41.5819 0.0000 -16.5125 0.0000
# 3 21.0645 41.5819 30.0616 0.0000 -5.4236 0.0000
# 4 0.0000 0.0000 0.0000 29.2527 0.0000 -5.7713
# 5 -13.7110 -16.5125 -5.4236 0.0000 27.8236 0.0000
# 6 0.0000 0.0000 0.0000 -5.7713 0.0000 37.1743
#
#
#
# Elastic Compliance Matrix: (Units=1/GPa)
#
#
# Indices 1 2 3 4 5 6 
#
# 1 0.016897 -0.002963 -0.006796 0.000000 0.005244 0.000000
# 2 -0.002963 0.009287 -0.010405 0.000000 0.002023 0.000000
# 3 -0.006796 -0.010405 0.052550 0.000000 0.000719 0.000000
# 4 0.000000 0.000000 0.000000 0.035265 0.000000 0.005475
# 5 0.005244 0.002023 0.000719 0.000000 0.039866 0.000000
# 6 0.000000 0.000000 0.000000 0.005475 0.000000 0.027750
#
#
# Mechanical properties :
#
#
# Convention : Reuss Voigt Hill
#
# Bulk Modulus (GPa) = 26.03742 57.33079 41.68411
# Shear Modulus (GPa) = 21.29966 30.22713 25.76340
#
# Velocity S-wave (km/s) = 3.20203 3.81450 3.52161
# Velocity P-wave (km/s) = 5.11901 6.85550 6.04988
#
# Compressibility (1/GPa) = 0.03840626
#
# Stress axis : x y z
#
# Youngs Moduli (GPa) = 59.18130 107.67367 19.02959
#
# Poissons Ratio (x) = 0.31900 0.12932
# Poissons Ratio (y) = 0.17534 0.19801
# Poissons Ratio (z) = 0.40219 1.12039
#
# Static dielectric constant tensor:
#      x y z
#    x 3.857610 0.000000 -0.143910 
#    y 0.000000 4.364430 0.000000 
#    z -0.143910 0.000000 3.402880 
# 
# 
# High freq. dielectric constant tensor:
#      x y z
#    x 1.819820 0.000000 -0.013000 
#    y 0.000000 1.829830 0.000000 
#    z -0.013000 0.000000 1.772510 
# 
# From -- ./inp_files/63798.got.cif
#   From: 2010.06.25/outbox.cif.g09.slc.cpg/sg11_32_cif.got.tgz:63798.got - 2010.06.27 23:14:04.
