data_PCOD8071934
_publ_section_title
;
Structure prediction by ZEFSAII (Michael W. Deem and Ramdas Pophale) SiO2 
 PCOD8071934
Probable space group: P 21/M
;
_chemical_formula_sum "Si O2"
_cell_formula_units_Z 32
_cell_length_a 28.256747
_cell_length_b 8.969742
_cell_length_c 22.328937
_cell_angle_alpha 90.000000
_cell_angle_beta 161.481882
_cell_angle_gamma 90.000000
_cell_volume 1797.450069
_symmetry_space_group_name_H-M "P 21/M"
_symmetry_group_IT_number 11
_symmetry_cell_setting 'monoclinic'
loop_
_space_group_symop_operation_xyz
x,y,z
-x,1/2+y,-z
-x,-y,-z
x,1/2-y,z
loop_
_atom_site_type_symbol
_atom_site_label
_atom_site_fract_x
_atom_site_fract_y
_atom_site_fract_z
Si Si1 0.048118 0.426634 0.496666
Si Si2 0.684937 0.426405 0.483933
Si Si3 0.350273 0.422958 0.800502
Si Si4 0.416143 0.572016 0.222102
Si Si5 0.797804 0.575741 0.501303
Si Si6 0.148778 0.921633 0.198854
Si Si7 0.455686 0.574714 0.508421
Si Si8 0.094739 0.926343 0.794662
O O1 0.039670 0.250000 0.492969
O O2 0.215133 0.478459 0.680326
O O3 0.000000 0.500000 0.500000
O O4 0.938089 0.484341 0.311967
O O5 0.655243 0.250000 0.451159
O O6 0.530010 0.511613 0.308981
O O7 0.749339 0.473305 0.497836
O O8 0.801041 0.475555 0.674978
O O9 0.373923 0.250000 0.838525
O O10 0.313843 0.456766 0.687501
O O11 0.500000 0.500000 0.000000
O O12 0.426226 0.750000 0.238068
O O13 0.446551 0.501236 0.322960
O O14 0.253113 0.514482 0.007158
O O15 0.793651 0.750000 0.514264
O O16 0.964157 0.523065 0.683220
O O17 0.109412 0.750000 0.153359
O O18 0.281058 0.955215 0.310651
O O19 0.000000 0.000000 0.000000
O O20 0.500000 0.500000 0.500000
O O21 0.490701 0.750000 0.549405
O O22 0.091598 0.750000 0.788616
#
# Coordination Sequence:
#
# PCOD8071934 Si02
#       8
#     4   4   4   4   4   4   4   4
#     4   9  18  34  52  73 101 133 167 208 253 301
#     4  10  21  36  51  75 108 136 165 208 254 301
#     4   9  19  34  52  74 102 133 169 209 253 302
#     4  10  19  34  56  79 101 133 172 210 253 302
#     4   9  18  35  55  74  98 134 173 209 250 301
#     4   9  20  36  53  74 102 133 168 207 250 298
#     4  10  21  37  54  77 107 137 169 209 253 302
#     4   8  17  34  54  74 100 131 169 212 252 297
#
# _framework density 17.802997000000001
#
# number of rings (size 3 to 8) (size 9 to 14) (size 15 to 20)
#    0.000    2.750    0.000    3.375    0.000    6.000 
#    0.000   11.875    0.000    0.000    0.000    0.000 
#    0.000    0.000    0.000    0.000    0.000    0.000 
#
# Total GULP energy -396743.551996 kJ/mol
# GULP energy per Si atom -12398.236000 kJ/mol
# Density = 1.776248 g / cm^3
# Si number density = 17.802997 Si / 1000 Ang^3
#
#
#
# Elastic Constant Matrix: (Units=GPa)
#
#
# Indices 1 2 3 4 5 6 
#
# 1 144.6427 46.5779 68.9783 0.0000 1.0870 0.0000
# 2 46.5779 63.6716 55.2387 0.0000 0.9258 0.0000
# 3 68.9783 55.2387 165.8791 0.0000 6.1162 0.0000
# 4 0.0000 0.0000 0.0000 29.1171 0.0000 -0.9775
# 5 1.0870 0.9258 6.1162 0.0000 14.0176 0.0000
# 6 0.0000 0.0000 0.0000 -0.9775 0.0000 36.0907
#
#
#
# Elastic Compliance Matrix: (Units=1/GPa)
#
#
# Indices 1 2 3 4 5 6 
#
# 1 0.009653 -0.005018 -0.002366 0.000000 0.000615 0.000000
# 2 -0.005018 0.024739 -0.006205 0.000000 0.001463 0.000000
# 3 -0.002366 -0.006205 0.009205 0.000000 -0.003423 0.000000
# 4 0.000000 0.000000 0.000000 0.034375 0.000000 0.000931
# 5 0.000615 0.001463 -0.003423 0.000000 0.072688 0.000000
# 6 0.000000 0.000000 0.000000 0.000931 0.000000 0.027733
#
#
# Mechanical properties :
#
#
# Convention : Reuss Voigt Hill
#
# Bulk Modulus (GPa) = 60.90760 79.53148 70.21954
# Shear Modulus (GPa) = 23.69169 29.40497 26.54833
#
# Velocity S-wave (km/s) = 3.65193 4.06850 3.86583
# Velocity P-wave (km/s) = 7.21584 8.17560 7.71067
#
# Compressibility (1/GPa) = 0.01641831
#
# Stress axis : x y z
#
# Youngs Moduli (GPa) = 103.59397 40.42238 108.63810
#
# Poissons Ratio (x) = 0.20284 0.25701
# Poissons Ratio (y) = 0.51985 0.67414
# Poissons Ratio (z) = 0.24507 0.25084
#
# Static dielectric constant tensor:
#      x y z
#    x 3.381040 0.000000 0.044490 
#    y 0.000000 3.298680 0.000000 
#    z 0.044490 0.000000 3.073540 
# 
# 
# High freq. dielectric constant tensor:
#      x y z
#    x 1.694600 0.000000 0.000310 
#    y 0.000000 1.680310 0.000000 
#    z 0.000310 0.000000 1.694040 
# 
# From -- ./inp_files/67160.got.cif
#   From: 2010.06.25/outbox.cif.g09.slc.cpg/sg11_34_cif.got.tgz:67160.got - 2010.06.27 23:14:04.
