data_PCOD8071168
_publ_section_title
;
Structure prediction by ZEFSAII (Michael W. Deem and Ramdas Pophale) SiO2 
 PCOD8071168
Probable space group: P 21/M
;
_chemical_formula_sum "Si O2"
_cell_formula_units_Z 28
_cell_length_a 9.528905
_cell_length_b 9.329262
_cell_length_c 27.591838
_cell_angle_alpha 90.000000
_cell_angle_beta 40.916156
_cell_angle_gamma 90.000000
_cell_volume 1606.503456
_symmetry_space_group_name_H-M "P 21/M"
_symmetry_group_IT_number 11
_symmetry_cell_setting 'monoclinic'
loop_
_space_group_symop_operation_xyz
x,y,z
-x,1/2+y,-z
-x,-y,-z
x,1/2-y,z
loop_
_atom_site_type_symbol
_atom_site_label
_atom_site_fract_x
_atom_site_fract_y
_atom_site_fract_z
Si Si1 0.175373 0.920268 0.487019
Si Si2 0.866165 0.085297 0.101203
Si Si3 0.379193 0.583657 0.640327
Si Si4 0.288385 0.912487 0.560143
Si Si5 0.293357 0.089447 0.938487
Si Si6 0.929712 0.416509 0.192561
Si Si7 0.638808 0.085766 0.925254
O O1 0.170005 0.750000 0.476955
O O2 0.125357 0.950770 0.558087
O O3 0.411129 0.983393 0.414467
O O4 0.000000 0.000000 0.500000
O O5 0.832848 0.250000 0.098265
O O6 0.821948 0.052346 0.168807
O O7 0.693479 0.002284 0.113910
O O8 0.106810 0.034430 0.023872
O O9 0.452535 0.750000 0.624768
O O10 0.221315 0.562551 0.634059
O O11 0.240555 0.538223 0.722672
O O12 0.356511 0.750000 0.534182
O O13 0.500000 0.000000 0.500000
O O14 0.239093 0.250000 0.936797
O O15 0.520593 0.079008 0.904788
O O16 0.998424 0.250000 0.178976
O O17 0.135278 0.514865 0.143943
O O18 0.664731 0.250000 0.936190
O O19 0.500000 0.000000 0.000000
#
# Coordination Sequence:
#
# PCOD8071168 Si02
#       7
#     4   4   4   4   4   4   4
#     4  10  19  32  53  80 109 136 171 210 247 296
#     4   9  17  31  49  70  96 127 164 205 253 304
#     4   9  18  34  55  76 103 136 170 209 257 304
#     4   8  15  29  50  75  99 130 167 204 243 293
#     4   9  18  32  48  69  96 124 164 212 253 300
#     4  10  20  35  53  76 104 133 168 213 260 309
#     4  11  21  34  52  74 100 130 169 216 258 303
#
# _framework density 17.429155999999999
#
# number of rings (size 3 to 8) (size 9 to 14) (size 15 to 20)
#    0.000    2.571    1.429    0.857    0.000    2.857 
#    0.000    1.429    0.000    6.857    0.000    0.000 
#    0.000    0.000    0.000    0.000    0.000    0.000 
#
# Total GULP energy -346903.536572 kJ/mol
# GULP energy per Si atom -12389.412020 kJ/mol
# Density = 1.738949 g / cm^3
# Si number density = 17.429156 Si / 1000 Ang^3
#
#
#
# Elastic Constant Matrix: (Units=GPa)
#
#
# Indices 1 2 3 4 5 6 
#
# 1 133.1632 64.8147 60.1070 0.0000 19.8589 0.0000
# 2 64.8147 82.9668 49.1094 0.0000 6.1673 0.0000
# 3 60.1070 49.1094 93.1868 0.0000 19.4292 0.0000
# 4 0.0000 0.0000 0.0000 22.6700 0.0000 -2.2322
# 5 19.8589 6.1673 19.4292 0.0000 27.4165 0.0000
# 6 0.0000 0.0000 0.0000 -2.2322 0.0000 33.9319
#
#
#
# Elastic Compliance Matrix: (Units=1/GPa)
#
#
# Indices 1 2 3 4 5 6 
#
# 1 0.014067 -0.008587 -0.003316 0.000000 -0.005908 0.000000
# 2 -0.008587 0.022980 -0.007968 0.000000 0.006697 0.000000
# 3 -0.003316 -0.007968 0.019002 0.000000 -0.009272 0.000000
# 4 0.000000 0.000000 0.000000 0.044399 0.000000 0.002921
# 5 -0.005908 0.006697 -0.009272 0.000000 0.045818 0.000000
# 6 0.000000 0.000000 0.000000 0.002921 0.000000 0.029663
#
#
# Mechanical properties :
#
#
# Convention : Reuss Voigt Hill
#
# Bulk Modulus (GPa) = 61.32498 73.04211 67.18355
# Shear Modulus (GPa) = 22.61339 25.82271 24.21805
#
# Velocity S-wave (km/s) = 3.60592 3.85331 3.73166
# Velocity P-wave (km/s) = 7.25248 7.86106 7.56290
#
# Compressibility (1/GPa) = 0.01630657
#
# Stress axis : x y z
#
# Youngs Moduli (GPa) = 71.08698 43.51606 52.62475
#
# Poissons Ratio (x) = 0.37369 0.17452
# Poissons Ratio (y) = 0.61045 0.41931
# Poissons Ratio (z) = 0.23575 0.34673
#
# Static dielectric constant tensor:
#      x y z
#    x 3.593760 0.000000 0.294680 
#    y 0.000000 3.342680 0.000000 
#    z 0.294680 0.000000 4.177860 
# 
# 
# High freq. dielectric constant tensor:
#      x y z
#    x 1.682380 0.000000 0.023390 
#    y 0.000000 1.681030 0.000000 
#    z 0.023390 0.000000 1.638060 
# 
# From -- ./inp_files/70832.got.cif
#   From: 2010.06.25/outbox.cif.g09.slc.cpg/sg11_36_cif.got.tgz:70832.got - 2010.06.27 23:14:04.
