data_PCOD8071164
_publ_section_title
;
Structure prediction by ZEFSAII (Michael W. Deem and Ramdas Pophale) SiO2 
 PCOD8071164
Probable space group: P 21/M
;
_chemical_formula_sum "Si O2"
_cell_formula_units_Z 28
_cell_length_a 21.873566
_cell_length_b 9.185538
_cell_length_c 24.500083
_cell_angle_alpha 90.000000
_cell_angle_beta 17.717140
_cell_angle_gamma 90.000000
_cell_volume 1498.026294
_symmetry_space_group_name_H-M "P 21/M"
_symmetry_group_IT_number 11
_symmetry_cell_setting 'monoclinic'
loop_
_space_group_symop_operation_xyz
x,y,z
-x,1/2+y,-z
-x,-y,-z
x,1/2-y,z
loop_
_atom_site_type_symbol
_atom_site_label
_atom_site_fract_x
_atom_site_fract_y
_atom_site_fract_z
Si Si1 0.664813 0.578077 0.128752
Si Si2 0.352107 0.079523 0.084895
Si Si3 0.189215 0.918768 0.815423
Si Si4 0.952764 0.420159 0.484435
Si Si5 0.539181 0.578044 0.598589
Si Si6 0.489706 0.922194 0.164260
Si Si7 0.871179 0.419119 0.255924
O O1 0.628378 0.750000 0.166756
O O2 0.529943 0.493886 0.286684
O O3 0.598409 0.518868 0.125893
O O4 0.896009 0.536844 0.941021
O O5 0.399221 0.250000 0.049232
O O6 0.121953 0.044320 0.295602
O O7 0.391793 0.020932 0.989965
O O8 0.500000 0.000000 0.000000
O O9 0.142811 0.750000 0.862657
O O10 0.387159 0.966738 0.679538
O O11 0.218893 0.957286 0.726777
O O12 0.000000 0.000000 0.000000
O O13 0.943205 0.250000 0.506027
O O14 0.740811 0.476818 0.641118
O O15 0.000000 0.500000 0.500000
O O16 0.554142 0.750000 0.593683
O O17 0.756621 0.514776 0.398204
O O18 0.496958 0.750000 0.159371
O O19 0.842761 0.250000 0.294806
#
# Coordination Sequence:
#
# PCOD8071164 Si02
#       7
#     4   4   4   4   4   4   4
#     4  10  21  39  61  82 109 150 196 237 276 329
#     4  10  19  32  53  80 107 137 174 218 270 323
#     4  10  20  35  57  86 114 146 188 237 287 331
#     4  10  19  32  54  82 109 138 175 219 272 326
#     4  11  23  37  57  85 118 152 185 232 292 340
#     4   9  19  35  55  81 110 140 181 230 274 321
#     4  10  21  37  59  85 112 148 196 237 275 334
#
# _framework density 18.691261000000001
#
# number of rings (size 3 to 8) (size 9 to 14) (size 15 to 20)
#    0.000    2.000    2.857    0.857    0.000    2.857 
#    0.000    5.714    0.000    1.714    0.000    0.000 
#    0.000    0.000    0.000    0.000    0.000    0.000 
#
# Total GULP energy -347258.071861 kJ/mol
# GULP energy per Si atom -12402.073995 kJ/mol
# Density = 1.864872 g / cm^3
# Si number density = 18.691261 Si / 1000 Ang^3
#
#
#
# Elastic Constant Matrix: (Units=GPa)
#
#
# Indices 1 2 3 4 5 6 
#
# 1 131.2147 25.9873 43.0286 0.0000 16.7306 0.0000
# 2 25.9873 40.1085 33.4639 0.0000 13.3130 0.0000
# 3 43.0286 33.4639 112.7836 0.0000 29.7410 0.0000
# 4 0.0000 0.0000 0.0000 29.1402 0.0000 3.2929
# 5 16.7306 13.3130 29.7410 0.0000 29.5879 0.0000
# 6 0.0000 0.0000 0.0000 3.2929 0.0000 25.7672
#
#
#
# Elastic Compliance Matrix: (Units=1/GPa)
#
#
# Indices 1 2 3 4 5 6 
#
# 1 0.009221 -0.003817 -0.001991 0.000000 -0.001495 0.000000
# 2 -0.003817 0.035765 -0.007458 0.000000 -0.006437 0.000000
# 3 -0.001991 -0.007458 0.014501 0.000000 -0.010094 0.000000
# 4 0.000000 0.000000 0.000000 0.034820 0.000000 -0.004450
# 5 -0.001495 -0.006437 -0.010094 0.000000 0.047686 0.000000
# 6 0.000000 0.000000 0.000000 -0.004450 0.000000 0.039378
#
#
# Mechanical properties :
#
#
# Convention : Reuss Voigt Hill
#
# Bulk Modulus (GPa) = 30.34495 54.34072 42.34283
# Shear Modulus (GPa) = 22.84295 29.00752 25.92524
#
# Velocity S-wave (km/s) = 3.49967 3.94373 3.72832
# Velocity P-wave (km/s) = 5.70967 7.06210 6.42159
#
# Compressibility (1/GPa) = 0.03295441
#
# Stress axis : x y z
#
# Youngs Moduli (GPa) = 108.45323 27.96063 68.96126
#
# Poissons Ratio (x) = 0.10672 0.13731
# Poissons Ratio (y) = 0.41394 0.51431
# Poissons Ratio (z) = 0.21594 0.20853
#
# Static dielectric constant tensor:
#      x y z
#    x 4.101320 0.000000 -0.002710 
#    y 0.000000 3.319250 0.000000 
#    z -0.002710 0.000000 3.840640 
# 
# 
# High freq. dielectric constant tensor:
#      x y z
#    x 1.727470 0.000000 0.004920 
#    y 0.000000 1.704160 0.000000 
#    z 0.004920 0.000000 1.738470 
# 
# From -- ./inp_files/66688.got.cif
#   From: 2010.06.25/outbox.cif.g09.slc.cpg/sg11_34_cif.got.tgz:66688.got - 2010.06.27 23:14:04.
