data_PCOD8071398
_publ_section_title
;
Structure prediction by ZEFSAII (Michael W. Deem and Ramdas Pophale) SiO2 
 PCOD8071398
Probable space group: P 21/M
;
_chemical_formula_sum "Si O2"
_cell_formula_units_Z 32
_cell_length_a 14.675299
_cell_length_b 9.314473
_cell_length_c 15.067659
_cell_angle_alpha 90.000000
_cell_angle_beta 121.206197
_cell_angle_gamma 90.000000
_cell_volume 1761.625867
_symmetry_space_group_name_H-M "P 21/M"
_symmetry_group_IT_number 11
_symmetry_cell_setting 'monoclinic'
loop_
_space_group_symop_operation_xyz
x,y,z
-x,1/2+y,-z
-x,-y,-z
x,1/2-y,z
loop_
_atom_site_type_symbol
_atom_site_label
_atom_site_fract_x
_atom_site_fract_y
_atom_site_fract_z
Si Si1 0.993257 0.584947 0.751467
Si Si2 0.597764 0.582386 0.507302
Si Si3 0.777431 0.584556 0.735442
Si Si4 0.436686 0.080107 0.706763
Si Si5 0.322514 0.579820 0.155045
Si Si6 0.720662 0.583953 0.223554
Si Si7 0.037882 0.083641 0.604557
Si Si8 0.230236 0.583508 0.921361
O O1 0.987870 0.750000 0.716182
O O2 0.978677 0.483034 0.659524
O O3 0.104162 0.551873 0.856709
O O4 0.899539 0.551282 0.773200
O O5 0.500000 0.500000 0.500000
O O6 0.570097 0.750000 0.497519
O O7 0.705379 0.544828 0.613950
O O8 0.611973 0.532150 0.412479
O O9 0.760820 0.750000 0.753456
O O10 0.748516 0.487670 0.803996
O O11 0.435761 0.250000 0.714368
O O12 0.556898 0.021745 0.776526
O O13 0.363967 0.017854 0.749307
O O14 0.316904 0.750000 0.163109
O O15 0.275354 0.528653 0.037536
O O16 0.698101 0.750000 0.192025
O O17 0.836228 0.561407 0.324009
O O18 0.708607 0.500155 0.125366
O O19 0.006527 0.250000 0.581055
O O20 0.000000 0.000000 0.500000
O O21 0.255215 0.750000 0.919714
#
# Coordination Sequence:
#
# PCOD8071398 Si02
#       8
#     4   4   4   4   4   4   4   4
#     4   9  19  36  54  73 104 138 171 213 258 303
#     4  10  19  33  53  74 102 137 170 209 257 305
#     4  10  21  34  53  79 104 136 176 213 255 305
#     4   9  18  33  53  76 103 136 171 206 253 309
#     4  10  20  35  55  76 103 139 173 210 259 309
#     4   9  19  35  55  76 101 136 175 211 253 307
#     4  10  20  33  52  77 104 136 174 213 256 305
#     4   9  19  36  55  76 104 136 170 213 263 304
#
# _framework density 18.165037000000002
#
# number of rings (size 3 to 8) (size 9 to 14) (size 15 to 20)
#    0.000    2.500    1.250    0.375    1.750    2.500 
#    0.000    1.250    0.000    0.000    0.000    0.000 
#    0.000    0.000    0.000    0.000    0.000    0.000 
#
# Total GULP energy -396857.044832 kJ/mol
# GULP energy per Si atom -12401.782651 kJ/mol
# Density = 1.812369 g / cm^3
# Si number density = 18.165037 Si / 1000 Ang^3
#
#
#
# Elastic Constant Matrix: (Units=GPa)
#
#
# Indices 1 2 3 4 5 6 
#
# 1 132.4720 40.7379 58.4205 0.0000 -26.1679 0.0000
# 2 40.7379 55.8290 48.7657 0.0000 -14.2029 0.0000
# 3 58.4205 48.7657 144.3701 0.0000 -27.8215 0.0000
# 4 0.0000 0.0000 0.0000 27.0334 0.0000 -7.3484
# 5 -26.1679 -14.2029 -27.8215 0.0000 22.7019 0.0000
# 6 0.0000 0.0000 0.0000 -7.3484 0.0000 29.6616
#
#
#
# Elastic Compliance Matrix: (Units=1/GPa)
#
#
# Indices 1 2 3 4 5 6 
#
# 1 0.011296 -0.005012 -0.001274 0.000000 0.008324 0.000000
# 2 -0.005012 0.028523 -0.006913 0.000000 0.003594 0.000000
# 3 -0.001274 -0.006913 0.011339 0.000000 0.008102 0.000000
# 4 0.000000 0.000000 0.000000 0.039662 0.000000 0.009826
# 5 0.008324 0.003594 0.008102 0.000000 0.065822 0.000000
# 6 0.000000 0.000000 0.000000 0.009826 0.000000 0.036148
#
#
# Mechanical properties :
#
#
# Convention : Reuss Voigt Hill
#
# Bulk Modulus (GPa) = 40.39115 69.83548 55.11331
# Shear Modulus (GPa) = 21.98366 28.19583 25.08974
#
# Velocity S-wave (km/s) = 3.48259 3.94408 3.72050
# Velocity P-wave (km/s) = 6.20123 7.69866 6.99016
#
# Compressibility (1/GPa) = 0.02475790
#
# Stress axis : x y z
#
# Youngs Moduli (GPa) = 88.52500 35.06002 88.19324
#
# Poissons Ratio (x) = 0.17574 0.11235
# Poissons Ratio (y) = 0.44372 0.60972
# Poissons Ratio (z) = 0.11278 0.24239
#
# Static dielectric constant tensor:
#      x y z
#    x 3.501760 0.000000 0.014210 
#    y 0.000000 3.300440 0.000000 
#    z 0.014210 0.000000 3.496490 
# 
# 
# High freq. dielectric constant tensor:
#      x y z
#    x 1.707730 0.000000 -0.001970 
#    y 0.000000 1.687030 0.000000 
#    z -0.001970 0.000000 1.709420 
# 
# From -- ./inp_files/51634.got.cif
#   From: 2010.06.25/outbox.cif.g09.slc.cpg/sg11_26_cif.got.tgz:51634.got - 2010.06.27 23:14:04.
