data_PCOD8071975
_publ_section_title
;
Structure prediction by ZEFSAII (Michael W. Deem and Ramdas Pophale) SiO2 
 PCOD8071975
Probable space group: P 21/M
;
_chemical_formula_sum "Si O2"
_cell_formula_units_Z 32
_cell_length_a 9.743391
_cell_length_b 10.938513
_cell_length_c 19.873110
_cell_angle_alpha 90.000000
_cell_angle_beta 130.555398
_cell_angle_gamma 90.000000
_cell_volume 1609.239863
_symmetry_space_group_name_H-M "P 21/M"
_symmetry_group_IT_number 11
_symmetry_cell_setting 'monoclinic'
loop_
_space_group_symop_operation_xyz
x,y,z
-x,1/2+y,-z
-x,-y,-z
x,1/2-y,z
loop_
_atom_site_type_symbol
_atom_site_label
_atom_site_fract_x
_atom_site_fract_y
_atom_site_fract_z
Si Si1 0.907096 0.385048 0.649089
Si Si2 0.173775 0.892707 0.161040
Si Si3 0.250336 0.529599 0.789380
Si Si4 0.399099 0.610035 0.358541
Si Si5 0.377931 0.888890 0.091219
Si Si6 0.140577 0.620143 0.618702
Si Si7 0.103931 0.890509 0.885120
Si Si8 0.782143 0.507722 0.487255
O O1 0.903122 0.250000 0.675580
O O2 0.763225 0.454760 0.651138
O O3 0.841551 0.390883 0.550766
O O4 0.111309 0.424537 0.724574
O O5 0.097080 0.750000 0.139828
O O6 0.350572 0.901623 0.264414
O O7 0.241565 0.925836 0.107992
O O8 0.032727 0.997928 0.140111
O O9 0.451157 0.477464 0.859773
O O10 0.242915 0.619336 0.722913
O O11 0.184996 0.595526 0.836285
O O12 0.431176 0.750000 0.389248
O O13 0.577718 0.539837 0.436744
O O14 0.445220 0.750000 0.123502
O O15 0.271577 0.903684 0.988248
O O16 0.188319 0.750000 0.600941
O O17 0.202659 0.514088 0.587825
O O18 0.922113 0.612171 0.557032
O O19 0.022602 0.750000 0.865477
#
# Coordination Sequence:
#
# PCOD8071975 Si02
#       8
#     4   4   4   4   4   4   4   4
#     4  10  20  34  56  83 113 147 190 242 287 344
#     4  10  21  40  64  90 121 159 201 248 301 359
#     4  11  21  38  61  84 119 157 195 238 300 354
#     4  10  19  34  56  82 111 145 192 238 286 348
#     4  10  22  39  63  92 120 153 201 252 299 360
#     4  10  21  36  53  78 112 151 191 235 288 347
#     4  11  23  41  62  90 125 158 199 250 303 362
#     4  10  20  34  55  78 111 149 189 238 290 343
#
# _framework density 19.885166000000002
#
# number of rings (size 3 to 8) (size 9 to 14) (size 15 to 20)
#    0.000    1.750    1.250    3.375    0.000    0.500 
#    0.000    8.750    0.000    0.000    0.000    0.000 
#    0.000    0.000    0.000    0.000    0.000    0.000 
#
# Total GULP energy -396431.691515 kJ/mol
# GULP energy per Si atom -12388.490360 kJ/mol
# Density = 1.983991 g / cm^3
# Si number density = 19.885166 Si / 1000 Ang^3
#
#
#
# Elastic Constant Matrix: (Units=GPa)
#
#
# Indices 1 2 3 4 5 6 
#
# 1 85.9519 33.6195 38.8606 0.0000 -3.9468 0.0000
# 2 33.6195 97.6368 35.4195 0.0000 11.8659 0.0000
# 3 38.8606 35.4195 108.3067 0.0000 -7.7949 0.0000
# 4 0.0000 0.0000 0.0000 -3.7829 0.0000 -5.0417
# 5 -3.9468 11.8659 -7.7949 0.0000 42.7396 0.0000
# 6 0.0000 0.0000 0.0000 -5.0417 0.0000 24.5996
#
#
#
# Elastic Compliance Matrix: (Units=1/GPa)
#
#
# Indices 1 2 3 4 5 6 
#
# 1 0.015064 -0.003956 -0.003984 0.000000 0.001763 0.000000
# 2 -0.003956 0.013365 -0.003288 0.000000 -0.004676 0.000000
# 3 -0.003984 -0.003288 0.011934 0.000000 0.002721 0.000000
# 4 0.000000 0.000000 0.000000 -0.207630 0.000000 -0.042554
# 5 0.001763 -0.004676 0.002721 0.000000 0.025355 0.000000
# 6 0.000000 0.000000 0.000000 -0.042554 0.000000 0.031930
#
#
# Mechanical properties :
#
#
# Convention : Reuss Voigt Hill
#
# Bulk Modulus (GPa) = 55.84556 56.41050 56.12803
# Shear Modulus (GPa) = -61.30627 24.97765 -18.16431
#
# Velocity S-wave (km/s) = -5.55851 3.54799 -3.02563
# Velocity P-wave (km/s) = 3.61263 6.72414 4.01017
#
# Compressibility (1/GPa) = 0.01790653
#
# Stress axis : x y z
#
# Youngs Moduli (GPa) = 66.38288 74.82156 83.79565
#
# Poissons Ratio (x) = 0.29598 0.33388
# Poissons Ratio (y) = 0.26260 0.27551
# Poissons Ratio (z) = 0.26450 0.24601
#
# Static dielectric constant tensor:
#      x y z
#    x 3.661260 0.000000 -0.171120 
#    y 0.000000 3.581560 0.000000 
#    z -0.171120 0.000000 3.647490 
# 
# 
# High freq. dielectric constant tensor:
#      x y z
#    x 1.776720 0.000000 -0.014290 
#    y 0.000000 1.761650 0.000000 
#    z -0.014290 0.000000 1.785320 
# 
# From -- ./inp_files/63671.got.cif
#   From: 2010.06.25/outbox.cif.g09.slc.cpg/sg11_32_cif.got.tgz:63671.got - 2010.06.27 23:14:04.
