data_PCOD8071500
_publ_section_title
;
Structure prediction by ZEFSAII (Michael W. Deem and Ramdas Pophale) SiO2 
 PCOD8071500
Probable space group: P 21/M
;
_chemical_formula_sum "Si O2"
_cell_formula_units_Z 32
_cell_length_a 29.181494
_cell_length_b 8.816432
_cell_length_c 11.975365
_cell_angle_alpha 90.000000
_cell_angle_beta 149.054033
_cell_angle_gamma 90.000000
_cell_volume 1584.331744
_symmetry_space_group_name_H-M "P 21/M"
_symmetry_group_IT_number 11
_symmetry_cell_setting 'monoclinic'
loop_
_space_group_symop_operation_xyz
x,y,z
-x,1/2+y,-z
-x,-y,-z
x,1/2-y,z
loop_
_atom_site_type_symbol
_atom_site_label
_atom_site_fract_x
_atom_site_fract_y
_atom_site_fract_z
Si Si1 0.503226 0.430405 0.383096
Si Si2 0.821191 0.076309 0.067230
Si Si3 0.820539 0.928793 0.287950
Si Si4 0.336860 0.429086 0.892713
Si Si5 0.272912 0.428806 0.521658
Si Si6 0.667896 0.075547 0.577268
Si Si7 0.918962 0.069568 0.899067
Si Si8 0.983945 0.070661 0.272205
O O1 0.500000 0.500000 0.500000
O O2 0.501120 0.250000 0.392301
O O3 0.591594 0.483780 0.501779
O O4 0.422260 0.493820 0.137474
O O5 0.818172 0.250000 0.100699
O O6 0.761906 0.053790 0.833912
O O7 0.921436 0.023534 0.245420
O O8 0.785041 0.972762 0.091348
O O9 0.825882 0.750000 0.309220
O O10 0.752493 0.995478 0.236617
O O11 0.918072 0.003345 0.511073
O O12 0.338558 0.250000 0.910279
O O13 0.334346 0.473769 0.756898
O O14 0.256764 0.250000 0.482313
O O15 0.328147 0.481811 0.529053
O O16 0.177032 0.506767 0.338020
O O17 0.650273 0.250000 0.508396
O O18 0.918479 0.250000 0.884635
O O19 0.935952 0.014434 0.060317
O O20 0.000000 0.000000 0.000000
O O21 0.993581 0.250000 0.287633
#
# Coordination Sequence:
#
# PCOD8071500 Si02
#       8
#     4   4   4   4   4   4   4   4
#     4  10  21  39  63  88 117 153 192 237 296 357
#     4  10  19  34  52  75 110 146 181 229 287 340
#     4  10  19  33  54  78 105 144 188 230 278 337
#     4   9  20  38  57  81 116 150 186 236 297 351
#     4  11  22  38  60  85 114 153 198 241 289 349
#     4  10  21  38  59  83 115 154 190 237 299 351
#     4  11  21  37  58  82 116 158 200 242 290 343
#     4   9  18  33  52  73 107 149 183 223 284 340
#
# _framework density 20.197790999999999
#
# number of rings (size 3 to 8) (size 9 to 14) (size 15 to 20)
#    0.000    2.000    1.250    2.625    0.000    3.500 
#    0.000    5.000    0.000    0.000    0.000    0.000 
#    0.000    0.000    0.000    0.000    0.000    0.000 
#
# Total GULP energy -396723.514544 kJ/mol
# GULP energy per Si atom -12397.609830 kJ/mol
# Density = 2.015182 g / cm^3
# Si number density = 20.197791 Si / 1000 Ang^3
#
#
#
# Elastic Constant Matrix: (Units=GPa)
#
#
# Indices 1 2 3 4 5 6 
#
# 1 153.0688 36.3230 59.9976 0.0000 1.4805 0.0000
# 2 36.3230 45.3056 28.4355 0.0000 -2.0740 0.0000
# 3 59.9976 28.4355 112.1192 0.0000 0.7780 0.0000
# 4 0.0000 0.0000 0.0000 20.0932 0.0000 -4.8027
# 5 1.4805 -2.0740 0.7780 0.0000 37.8534 0.0000
# 6 0.0000 0.0000 0.0000 -4.8027 0.0000 31.8563
#
#
#
# Elastic Compliance Matrix: (Units=1/GPa)
#
#
# Indices 1 2 3 4 5 6 
#
# 1 0.009164 -0.005111 -0.003604 0.000000 -0.000564 0.000000
# 2 -0.005111 0.029196 -0.004683 0.000000 0.001896 0.000000
# 3 -0.003604 -0.004683 0.012038 0.000000 -0.000363 0.000000
# 4 0.000000 0.000000 0.000000 0.051629 0.000000 0.007784
# 5 -0.000564 0.001896 -0.000363 0.000000 0.026551 0.000000
# 6 0.000000 0.000000 0.000000 0.007784 0.000000 0.032564
#
#
# Mechanical properties :
#
#
# Convention : Reuss Voigt Hill
#
# Bulk Modulus (GPa) = 42.36829 62.22286 52.29558
# Shear Modulus (GPa) = 25.53580 30.34308 27.93944
#
# Velocity S-wave (km/s) = 3.55954 3.88015 3.72330
# Velocity P-wave (km/s) = 6.15760 7.13777 6.66572
#
# Compressibility (1/GPa) = 0.02360256
#
# Stress axis : x y z
#
# Youngs Moduli (GPa) = 109.12520 34.25143 83.07314
#
# Poissons Ratio (x) = 0.17506 0.29936
# Poissons Ratio (y) = 0.55774 0.38901
# Poissons Ratio (z) = 0.39324 0.16039
#
# Static dielectric constant tensor:
#      x y z
#    x 3.823320 0.000000 0.085490 
#    y 0.000000 3.331010 0.000000 
#    z 0.085490 0.000000 3.916930 
# 
# 
# High freq. dielectric constant tensor:
#      x y z
#    x 1.803330 0.000000 0.000150 
#    y 0.000000 1.753860 0.000000 
#    z 0.000150 0.000000 1.796360 
# 
# From -- ./inp_files/45271.got.cif
#   From: 2010.06.25/outbox.cif.g09.slc.cpg/sg11_23_cif.got.tgz:45271.got - 2010.06.27 23:14:04.
