data_PCOD8071671
_publ_section_title
;
Structure prediction by ZEFSAII (Michael W. Deem and Ramdas Pophale) SiO2 
 PCOD8071671
Probable space group: P 21/M
;
_chemical_formula_sum "Si O2"
_cell_formula_units_Z 32
_cell_length_a 11.284848
_cell_length_b 9.316739
_cell_length_c 21.048990
_cell_angle_alpha 90.000000
_cell_angle_beta 51.691506
_cell_angle_gamma 90.000000
_cell_volume 1736.544705
_symmetry_space_group_name_H-M "P 21/M"
_symmetry_group_IT_number 11
_symmetry_cell_setting 'monoclinic'
loop_
_space_group_symop_operation_xyz
x,y,z
-x,1/2+y,-z
-x,-y,-z
x,1/2-y,z
loop_
_atom_site_type_symbol
_atom_site_label
_atom_site_fract_x
_atom_site_fract_y
_atom_site_fract_z
Si Si1 0.982276 0.417457 0.570971
Si Si2 0.156025 0.920838 0.938746
Si Si3 0.288491 0.083226 0.534298
Si Si4 0.335955 0.090021 0.122416
Si Si5 0.318786 0.582592 0.256547
Si Si6 0.556090 0.916512 0.389204
Si Si7 0.688925 0.091317 0.984299
Si Si8 0.628932 0.582528 0.222975
O O1 0.985020 0.250000 0.554301
O O2 0.116650 0.459120 0.575034
O O3 0.000000 0.500000 0.500000
O O4 0.824234 0.463325 0.654177
O O5 0.135752 0.750000 0.937594
O O6 0.239951 0.984575 0.849638
O O7 0.253510 0.964689 0.967462
O O8 0.000000 0.000000 0.000000
O O9 0.317961 0.250000 0.512752
O O10 0.323054 0.042051 0.596184
O O11 0.400019 0.000244 0.450123
O O12 0.269338 0.250000 0.152107
O O13 0.308670 0.003873 0.195244
O O14 0.251999 0.011919 0.091537
O O15 0.510125 0.096384 0.047058
O O16 0.315280 0.750000 0.240522
O O17 0.468556 0.541411 0.245435
O O18 0.513293 0.750000 0.405701
O O19 0.627099 0.956512 0.297928
O O20 0.753757 0.250000 0.948588
O O21 0.666118 0.750000 0.199331
#
# Coordination Sequence:
#
# PCOD8071671 Si02
#       8
#     4   4   4   4   4   4   4   4
#     4  10  21  36  54  80 113 149 184 225 275 326
#     4  11  23  40  59  81 111 144 181 226 275 329
#     4   9  18  34  55  80 111 145 184 226 271 322
#     4  10  19  33  56  83 108 138 180 225 269 322
#     4  10  20  34  53  78 111 147 184 227 277 330
#     4   9  18  34  57  82 109 145 186 226 269 320
#     4   9  19  36  56  79 107 141 177 218 273 327
#     4  10  20  35  56  80 107 143 186 228 272 326
#
# _framework density 18.427396999999999
#
# number of rings (size 3 to 8) (size 9 to 14) (size 15 to 20)
#    0.000    2.250    1.250    1.500    0.000    4.000 
#    2.250    0.000    0.000    0.000    0.000    0.000 
#    0.000    0.000    0.000    0.000    0.000    0.000 
#
# Total GULP energy -396824.362764 kJ/mol
# GULP energy per Si atom -12400.761336 kJ/mol
# Density = 1.838546 g / cm^3
# Si number density = 18.427397 Si / 1000 Ang^3
#
#
#
# Elastic Constant Matrix: (Units=GPa)
#
#
# Indices 1 2 3 4 5 6 
#
# 1 73.1821 37.2496 58.5311 0.0000 2.4635 0.0000
# 2 37.2496 74.8469 66.8699 0.0000 6.8301 0.0000
# 3 58.5311 66.8699 130.5569 0.0000 12.5018 0.0000
# 4 0.0000 0.0000 0.0000 37.1244 0.0000 2.4757
# 5 2.4635 6.8301 12.5018 0.0000 34.1726 0.0000
# 6 0.0000 0.0000 0.0000 2.4757 0.0000 24.6980
#
#
#
# Elastic Compliance Matrix: (Units=1/GPa)
#
#
# Indices 1 2 3 4 5 6 
#
# 1 0.022063 -0.003974 -0.008062 0.000000 0.002153 0.000000
# 2 -0.003974 0.025352 -0.011136 0.000000 -0.000707 0.000000
# 3 -0.008062 -0.011136 0.017315 0.000000 -0.003528 0.000000
# 4 0.000000 0.000000 0.000000 0.027118 0.000000 -0.002718
# 5 0.002153 -0.000707 -0.003528 0.000000 0.030540 0.000000
# 6 0.000000 0.000000 0.000000 -0.002718 0.000000 0.040762
#
#
# Mechanical properties :
#
#
# Convention : Reuss Voigt Hill
#
# Bulk Modulus (GPa) = 54.38727 67.09855 60.74291
# Shear Modulus (GPa) = 23.18892 26.92802 25.05847
#
# Velocity S-wave (km/s) = 3.55123 3.82685 3.69161
# Velocity P-wave (km/s) = 6.81127 7.48450 7.15581
#
# Compressibility (1/GPa) = 0.01838665
#
# Stress axis : x y z
#
# Youngs Moduli (GPa) = 45.32539 39.44526 57.75295
#
# Poissons Ratio (x) = 0.15675 0.46560
# Poissons Ratio (y) = 0.18012 0.64311
# Poissons Ratio (z) = 0.36541 0.43925
#
# Static dielectric constant tensor:
#      x y z
#    x 3.422740 0.000000 0.042270 
#    y 0.000000 3.511710 0.000000 
#    z 0.042270 0.000000 3.354780 
# 
# 
# High freq. dielectric constant tensor:
#      x y z
#    x 1.715070 0.000000 0.013550 
#    y 0.000000 1.715660 0.000000 
#    z 0.013550 0.000000 1.710390 
# 
# From -- ./inp_files/64382.got.cif
#   From: 2010.06.25/outbox.cif.g09.slc.cpg/sg11_33_cif.got.tgz:64382.got - 2010.06.27 23:14:04.
