data_PCOD8071720
_publ_section_title
;
Structure prediction by ZEFSAII (Michael W. Deem and Ramdas Pophale) SiO2 
 PCOD8071720
Probable space group: P 21/M
;
_chemical_formula_sum "Si O2"
_cell_formula_units_Z 28
_cell_length_a 15.126198
_cell_length_b 10.059086
_cell_length_c 11.299590
_cell_angle_alpha 90.000000
_cell_angle_beta 60.818959
_cell_angle_gamma 90.000000
_cell_volume 1501.090059
_symmetry_space_group_name_H-M "P 21/M"
_symmetry_group_IT_number 11
_symmetry_cell_setting 'monoclinic'
loop_
_space_group_symop_operation_xyz
x,y,z
-x,1/2+y,-z
-x,-y,-z
x,1/2-y,z
loop_
_atom_site_type_symbol
_atom_site_label
_atom_site_fract_x
_atom_site_fract_y
_atom_site_fract_z
Si Si1 0.647831 0.499037 0.495240
Si Si2 0.292667 0.098057 0.898807
Si Si3 0.813746 0.596293 0.787461
Si Si4 0.212854 0.898333 0.401746
Si Si5 0.958567 0.096920 0.303048
Si Si6 0.166544 0.101744 0.758585
Si Si7 0.563553 0.102928 0.312094
O O1 0.694909 0.406355 0.565941
O O2 0.734284 0.596860 0.389322
O O3 0.557121 0.584899 0.608914
O O4 0.606780 0.406793 0.416610
O O5 0.329344 0.250000 0.858898
O O6 0.198573 0.069699 0.872452
O O7 0.387206 0.004004 0.808074
O O8 0.257109 0.069652 0.054293
O O9 0.810018 0.750000 0.750150
O O10 0.770903 0.506335 0.710548
O O11 0.927676 0.553466 0.743512
O O12 0.212451 0.750000 0.347412
O O13 0.106638 0.926712 0.536395
O O14 0.952070 0.250000 0.264903
O O15 0.917486 0.005487 0.223533
O O16 0.120400 0.250000 0.778460
O O17 0.588264 0.250000 0.247906
#
# Coordination Sequence:
#
# PCOD8071720 Si02
#       7
#     4   4   4   4   4   4   4
#     4   9  19  33  53  80 109 132 158 205 264 306
#     4   9  20  36  51  72 105 140 171 208 256 302
#     4  10  21  37  53  70 101 143 176 206 251 304
#     4  10  20  34  53  78 104 131 168 213 254 296
#     4   9  19  34  52  76 104 132 166 212 262 302
#     4   9  17  31  52  77 104 132 166 207 251 304
#     4  10  19  33  57  83 104 131 169 209 252 306
#
# _framework density 18.653112
#
# number of rings (size 3 to 8) (size 9 to 14) (size 15 to 20)
#    0.000    2.571    0.000    1.286    0.000   12.000 
#    0.000    0.714    0.000    0.000    0.000    0.000 
#    0.000    0.000    0.000    0.000    0.000    0.000 
#
# Total GULP energy -347233.358883 kJ/mol
# GULP energy per Si atom -12401.191389 kJ/mol
# Density = 1.861066 g / cm^3
# Si number density = 18.653112 Si / 1000 Ang^3
#
#
#
# Elastic Constant Matrix: (Units=GPa)
#
#
# Indices 1 2 3 4 5 6 
#
# 1 60.5718 21.4824 23.8284 0.0000 -12.0436 0.0000
# 2 21.4824 91.7038 34.6103 0.0000 -0.1802 0.0000
# 3 23.8284 34.6103 66.3996 0.0000 -0.8586 0.0000
# 4 0.0000 0.0000 0.0000 24.9434 0.0000 1.7037
# 5 -12.0436 -0.1802 -0.8586 0.0000 17.8258 0.0000
# 6 0.0000 0.0000 0.0000 1.7037 0.0000 24.9251
#
#
#
# Elastic Compliance Matrix: (Units=1/GPa)
#
#
# Indices 1 2 3 4 5 6 
#
# 1 0.023185 -0.002908 -0.006607 0.000000 0.015317 0.000000
# 2 -0.002908 0.013941 -0.006250 0.000000 -0.002125 0.000000
# 3 -0.006607 -0.006250 0.020644 0.000000 -0.003533 0.000000
# 4 0.000000 0.000000 0.000000 0.040279 0.000000 -0.002753
# 5 0.015317 -0.002125 -0.003533 0.000000 0.066255 0.000000
# 6 0.000000 0.000000 0.000000 -0.002753 0.000000 0.040308
#
#
# Mechanical properties :
#
#
# Convention : Reuss Voigt Hill
#
# Bulk Modulus (GPa) = 38.11026 42.05750 40.08388
# Shear Modulus (GPa) = 20.41749 22.78913 21.60331
#
# Velocity S-wave (km/s) = 3.31205 3.49912 3.40687
# Velocity P-wave (km/s) = 5.92466 6.23869 6.08370
#
# Compressibility (1/GPa) = 0.02623965
#
# Stress axis : x y z
#
# Youngs Moduli (GPa) = 43.13119 71.73247 48.44132
#
# Poissons Ratio (x) = 0.20858 0.32003
# Poissons Ratio (y) = 0.12542 0.30278
# Poissons Ratio (z) = 0.28495 0.44836
#
# Static dielectric constant tensor:
#      x y z
#    x 3.308220 0.000000 -0.027630 
#    y 0.000000 3.410990 0.000000 
#    z -0.027630 0.000000 3.278920 
# 
# 
# High freq. dielectric constant tensor:
#      x y z
#    x 1.713670 0.000000 -0.003780 
#    y 0.000000 1.727090 0.000000 
#    z -0.003780 0.000000 1.708120 
# 
# From -- ./inp_files/37881.got.cif
#   From: 2010.06.25/outbox.cif.g09.slc.cpg/sg11_19_cif.got.tgz:37881.got - 2010.06.27 23:14:04.
