data_PCOD8071206
_publ_section_title
;
Structure prediction by ZEFSAII (Michael W. Deem and Ramdas Pophale) SiO2 
 PCOD8071206
Probable space group: P 21/M
;
_chemical_formula_sum "Si O2"
_cell_formula_units_Z 32
_cell_length_a 32.229598
_cell_length_b 9.136726
_cell_length_c 13.805835
_cell_angle_alpha 90.000000
_cell_angle_beta 24.513794
_cell_angle_gamma 90.000000
_cell_volume 1686.803458
_symmetry_space_group_name_H-M "P 21/M"
_symmetry_group_IT_number 11
_symmetry_cell_setting 'monoclinic'
loop_
_space_group_symop_operation_xyz
x,y,z
-x,1/2+y,-z
-x,-y,-z
x,1/2-y,z
loop_
_atom_site_type_symbol
_atom_site_label
_atom_site_fract_x
_atom_site_fract_y
_atom_site_fract_z
Si Si1 0.973701 0.920039 0.342581
Si Si2 0.857163 0.413940 0.439170
Si Si3 0.793303 0.919886 0.869091
Si Si4 0.324993 0.588040 0.025810
Si Si5 0.724567 0.919055 0.582434
Si Si6 0.813521 0.423036 0.028592
Si Si7 0.447147 0.920900 0.942618
Si Si8 0.323987 0.082323 0.532135
O O1 0.973742 0.750000 0.315751
O O2 0.893361 0.954127 0.596665
O O3 0.950272 0.007530 0.293755
O O4 0.080167 0.974686 0.155075
O O5 0.889429 0.250000 0.340939
O O6 0.822738 0.501431 0.416742
O O7 0.765313 0.411986 0.707110
O O8 0.780256 0.750000 0.919781
O O9 0.696095 0.973137 0.015007
O O10 0.798505 0.008038 0.956233
O O11 0.337591 0.750000 0.953366
O O12 0.422394 0.543315 0.881913
O O13 0.727233 0.750000 0.607914
O O14 0.729785 0.938595 0.456298
O O15 0.621148 0.986074 0.840319
O O16 0.808666 0.250000 0.028280
O O17 0.726518 0.476467 0.283602
O O18 0.425910 0.750000 0.008393
O O19 0.560731 0.964617 0.721818
O O20 0.315686 0.250000 0.585452
#
# Coordination Sequence:
#
# PCOD8071206 Si02
#       8
#     4   4   4   4   4   4   4   4
#     4   9  19  35  55  80 106 133 170 216 262 308
#     4   9  17  30  52  80 107 135 169 212 259 307
#     4  10  19  33  55  79 104 134 168 210 259 312
#     4   8  15  29  50  77 105 130 162 209 258 302
#     4  10  19  32  54  81 108 137 171 214 260 309
#     4  11  23  37  53  75 105 139 175 216 260 309
#     4   9  18  34  56  80 106 136 173 217 260 305
#     4  10  22  38  53  74 106 142 178 216 259 306
#
# _framework density 18.970793
#
# number of rings (size 3 to 8) (size 9 to 14) (size 15 to 20)
#    0.000    2.500    0.000    3.000    0.000    6.000 
#    0.000    1.250    0.000    0.000    0.000    0.000 
#    0.000    0.000    0.000    0.000    0.000    0.000 
#
# Total GULP energy -396825.193522 kJ/mol
# GULP energy per Si atom -12400.787298 kJ/mol
# Density = 1.892761 g / cm^3
# Si number density = 18.970793 Si / 1000 Ang^3
#
#
#
# Elastic Constant Matrix: (Units=GPa)
#
#
# Indices 1 2 3 4 5 6 
#
# 1 60.0755 19.5777 -10.0834 0.0000 -35.1542 0.0000
# 2 19.5777 76.3147 9.8960 0.0000 -12.5289 0.0000
# 3 -10.0834 9.8960 14.9965 0.0000 -11.3957 0.0000
# 4 0.0000 0.0000 0.0000 23.7720 0.0000 0.0438
# 5 -35.1542 -12.5289 -11.3957 0.0000 -17.3628 0.0000
# 6 0.0000 0.0000 0.0000 0.0438 0.0000 30.9347
#
#
#
# Elastic Compliance Matrix: (Units=1/GPa)
#
#
# Indices 1 2 3 4 5 6 
#
# 1 0.009350 -0.004556 -0.001731 0.000000 -0.014508 0.000000
# 2 -0.004556 0.016355 -0.010551 0.000000 0.004348 0.000000
# 3 -0.001731 -0.010551 0.053999 0.000000 -0.024323 0.000000
# 4 0.000000 0.000000 0.000000 0.042066 0.000000 -0.000060
# 5 -0.014508 0.004348 -0.024323 0.000000 -0.015395 0.000000
# 6 0.000000 0.000000 0.000000 -0.000060 0.000000 0.032326
#
#
# Mechanical properties :
#
#
# Convention : Reuss Voigt Hill
#
# Bulk Modulus (GPa) = 21.72639 21.12971 21.42805
# Shear Modulus (GPa) = 26.63533 16.26856 21.45194
#
# Velocity S-wave (km/s) = 3.75109 2.93159 3.36637
# Velocity P-wave (km/s) = 5.49893 4.75617 5.14098
#
# Compressibility (1/GPa) = 0.04602698
#
# Stress axis : x y z
#
# Youngs Moduli (GPa) = 106.94733 61.14487 18.51897
#
# Poissons Ratio (x) = 0.27858 0.03205
# Poissons Ratio (y) = 0.48727 0.19540
# Poissons Ratio (z) = 0.18511 0.64516
#
# Static dielectric constant tensor:
#      x y z
#    x 3.772470 0.000000 -0.192900 
#    y 0.000000 3.575690 0.000000 
#    z -0.192900 0.000000 3.119860 
# 
# 
# High freq. dielectric constant tensor:
#      x y z
#    x 1.754990 0.000000 -0.008680 
#    y 0.000000 1.742690 0.000000 
#    z -0.008680 0.000000 1.698520 
# 
# From -- ./inp_files/45212.got.cif
#   From: 2010.06.25/outbox.cif.g09.slc.cpg/sg11_23_cif.got.tgz:45212.got - 2010.06.27 23:14:04.
