data_PCOD8071893
_publ_section_title
;
Structure prediction by ZEFSAII (Michael W. Deem and Ramdas Pophale) SiO2 
 PCOD8071893
Probable space group: P 21/M
;
_chemical_formula_sum "Si O2"
_cell_formula_units_Z 32
_cell_length_a 11.986766
_cell_length_b 14.263608
_cell_length_c 17.501732
_cell_angle_alpha 90.000000
_cell_angle_beta 147.155201
_cell_angle_gamma 90.000000
_cell_volume 1622.946963
_symmetry_space_group_name_H-M "P 21/M"
_symmetry_group_IT_number 11
_symmetry_cell_setting 'monoclinic'
loop_
_space_group_symop_operation_xyz
x,y,z
-x,1/2+y,-z
-x,-y,-z
x,1/2-y,z
loop_
_atom_site_type_symbol
_atom_site_label
_atom_site_fract_x
_atom_site_fract_y
_atom_site_fract_z
Si Si1 0.923587 0.147798 0.226869
Si Si2 0.438756 0.857026 0.733745
Si Si3 0.546298 0.640254 0.048709
Si Si4 0.143351 0.079453 0.485889
Si Si5 0.172406 0.512591 0.287780
Si Si6 0.772992 0.968159 0.307694
Si Si7 0.446577 0.543274 0.584495
Si Si8 0.807364 0.643310 0.052201
O O1 0.925598 0.250000 0.188342
O O2 0.033900 0.159897 0.373247
O O3 0.047684 0.076141 0.246843
O O4 0.689503 0.114111 0.105287
O O5 0.362421 0.750000 0.706224
O O6 0.439721 0.873579 0.642938
O O7 0.298154 0.932054 0.697333
O O8 0.670502 0.869320 0.897887
O O9 0.574007 0.750000 0.082664
O O10 0.609939 0.579327 0.158405
O O11 0.679608 0.608946 0.052799
O O12 0.182746 0.105156 0.597181
O O13 0.361461 0.051926 0.574058
O O14 0.989459 0.988188 0.390280
O O15 0.303788 0.566220 0.428823
O O16 0.320136 0.474946 0.306321
O O17 0.013620 0.584558 0.159414
O O18 0.874382 0.750000 0.102534
#
# Coordination Sequence:
#
# PCOD8071893 Si02
#       8
#     4   4   4   4   4   4   4   4
#     4  10  20  33  52  79 108 139 175 217 270 326
#     4  10  21  36  56  83 112 142 178 221 271 326
#     4  10  20  34  54  81 111 144 182 224 272 323
#     4   9  19  34  51  74 104 136 174 218 267 319
#     4  10  20  37  58  79 106 141 183 226 267 315
#     4  10  19  34  55  79 107 140 179 221 269 322
#     4   9  20  37  55  76 104 139 181 223 266 314
#     4  10  21  36  55  81 110 142 182 226 272 322
#
# _framework density 19.717217999999999
#
# number of rings (size 3 to 8) (size 9 to 14) (size 15 to 20)
#    0.000    2.250    0.000    3.000    0.000    5.000 
#    0.000   12.500    0.000    3.750    0.000    0.000 
#    0.000    0.000    0.000    0.000    0.000    0.000 
#
# Total GULP energy -396642.486566 kJ/mol
# GULP energy per Si atom -12395.077705 kJ/mol
# Density = 1.967234 g / cm^3
# Si number density = 19.717218 Si / 1000 Ang^3
#
#
#
# Elastic Constant Matrix: (Units=GPa)
#
#
# Indices 1 2 3 4 5 6 
#
# 1 69.7566 24.7972 20.6046 0.0000 10.3791 0.0000
# 2 24.7972 68.2486 36.6985 0.0000 0.5908 0.0000
# 3 20.6046 36.6985 90.1189 0.0000 2.5924 0.0000
# 4 0.0000 0.0000 0.0000 23.3726 0.0000 -6.0018
# 5 10.3791 0.5908 2.5924 0.0000 37.5146 0.0000
# 6 0.0000 0.0000 0.0000 -6.0018 0.0000 18.2362
#
#
#
# Elastic Compliance Matrix: (Units=1/GPa)
#
#
# Indices 1 2 3 4 5 6 
#
# 1 0.017433 -0.005406 -0.001651 0.000000 -0.004624 0.000000
# 2 -0.005406 0.020439 -0.007135 0.000000 0.001667 0.000000
# 3 -0.001651 -0.007135 0.014392 0.000000 -0.000425 0.000000
# 4 0.000000 0.000000 0.000000 0.046735 0.000000 0.015381
# 5 -0.004624 0.001667 -0.000425 0.000000 0.027939 0.000000
# 6 0.000000 0.000000 0.000000 0.015381 0.000000 0.059898
#
#
# Mechanical properties :
#
#
# Convention : Reuss Voigt Hill
#
# Bulk Modulus (GPa) = 41.87839 43.59162 42.73501
# Shear Modulus (GPa) = 22.40349 25.55962 23.98156
#
# Velocity S-wave (km/s) = 3.37447 3.60434 3.49130
# Velocity P-wave (km/s) = 6.03890 6.28316 6.16224
#
# Compressibility (1/GPa) = 0.02387866
#
# Stress axis : x y z
#
# Youngs Moduli (GPa) = 57.36216 48.92666 69.48402
#
# Poissons Ratio (x) = 0.26450 0.11474
# Poissons Ratio (y) = 0.31010 0.49577
# Poissons Ratio (z) = 0.09473 0.34909
#
# Static dielectric constant tensor:
#      x y z
#    x 3.524090 0.000000 -0.067420 
#    y 0.000000 3.366530 0.000000 
#    z -0.067420 0.000000 3.768380 
# 
# 
# High freq. dielectric constant tensor:
#      x y z
#    x 1.757310 0.000000 -0.002150 
#    y 0.000000 1.748050 0.000000 
#    z -0.002150 0.000000 1.781110 
# 
# From -- ./inp_files/59489.got.cif
#   From: 2010.06.25/outbox.cif.g09.slc.cpg/sg11_30_cif.got.tgz:59489.got - 2010.06.27 23:14:04.
