data_PCOD8071098
_publ_section_title
;
Structure prediction by ZEFSAII (Michael W. Deem and Ramdas Pophale) SiO2 
 PCOD8071098
Probable space group: P 21/M
;
_chemical_formula_sum "Si O2"
_cell_formula_units_Z 28
_cell_length_a 23.092540
_cell_length_b 8.678594
_cell_length_c 18.871994
_cell_angle_alpha 90.000000
_cell_angle_beta 156.410204
_cell_angle_gamma 90.000000
_cell_volume 1513.563238
_symmetry_space_group_name_H-M "P 21/M"
_symmetry_group_IT_number 11
_symmetry_cell_setting 'monoclinic'
loop_
_space_group_symop_operation_xyz
x,y,z
-x,1/2+y,-z
-x,-y,-z
x,1/2-y,z
loop_
_atom_site_type_symbol
_atom_site_label
_atom_site_fract_x
_atom_site_fract_y
_atom_site_fract_z
Si Si1 0.655405 0.931359 0.158767
Si Si2 0.627914 0.565047 0.689740
Si Si3 0.791513 0.934841 0.165492
Si Si4 0.065619 0.567365 0.002923
Si Si5 0.089061 0.431627 0.452132
Si Si6 0.977663 0.079112 0.765402
Si Si7 0.307832 0.418467 0.089872
O O1 0.639949 0.750000 0.136547
O O2 0.716681 0.995372 0.152878
O O3 0.765576 0.980481 0.343939
O O4 0.500000 0.000000 0.000000
O O5 0.500000 0.500000 0.500000
O O6 0.631770 0.750000 0.693095
O O7 0.607838 0.502935 0.749263
O O8 0.774639 0.500801 0.822406
O O9 0.799718 0.750000 0.170508
O O10 0.695200 0.001403 0.990628
O O11 0.954401 0.996694 0.343555
O O12 0.072484 0.750000 0.013573
O O13 0.964909 0.516401 0.823926
O O14 0.000000 0.500000 0.000000
O O15 0.066777 0.250000 0.425408
O O16 0.107679 0.493243 0.393140
O O17 0.911069 0.250000 0.701596
O O18 0.143197 0.094520 0.929902
O O19 0.376253 0.250000 0.155587
#
# Coordination Sequence:
#
# PCOD8071098 Si02
#       7
#     4   4   4   4   4   4   4
#     4  10  22  36  51  73 105 140 174 210 258 314
#     4  10  19  33  52  77 107 142 180 220 265 317
#     4   9  17  33  55  77  98 129 172 218 261 308
#     4  11  21  35  55  80 109 142 178 221 268 316
#     4  10  19  32  52  80 105 130 169 218 262 308
#     4   9  17  32  53  77 103 136 174 214 260 312
#     4   7  13  27  49  72  96 125 166 215 258 299
#
# _framework density 18.499392
#
# number of rings (size 3 to 8) (size 9 to 14) (size 15 to 20)
#    0.000    2.571    0.000    4.714    0.000    1.714 
#    0.000    2.143    0.000    5.143    0.000    0.000 
#    0.000    0.000    0.000    0.000    0.000    0.000 
#
# Total GULP energy -346955.588533 kJ/mol
# GULP energy per Si atom -12391.271019 kJ/mol
# Density = 1.845729 g / cm^3
# Si number density = 18.499392 Si / 1000 Ang^3
#
#
#
# Elastic Constant Matrix: (Units=GPa)
#
#
# Indices 1 2 3 4 5 6 
#
# 1 158.3125 50.4470 86.5246 0.0000 -29.0169 0.0000
# 2 50.4470 82.9226 42.3482 0.0000 -10.0616 0.0000
# 3 86.5246 42.3482 125.8055 0.0000 -26.9253 0.0000
# 4 0.0000 0.0000 0.0000 28.3025 0.0000 -1.3778
# 5 -29.0169 -10.0616 -26.9253 0.0000 32.3569 0.0000
# 6 0.0000 0.0000 0.0000 -1.3778 0.0000 27.1490
#
#
#
# Elastic Compliance Matrix: (Units=1/GPa)
#
#
# Indices 1 2 3 4 5 6 
#
# 1 0.011328 -0.003454 -0.005699 0.000000 0.004342 0.000000
# 2 -0.003454 0.015624 -0.003050 0.000000 -0.000777 0.000000
# 3 -0.005699 -0.003050 0.014111 0.000000 0.005684 0.000000
# 4 0.000000 0.000000 0.000000 0.035420 0.000000 0.001798
# 5 0.004342 -0.000777 0.005684 0.000000 0.039287 0.000000
# 6 0.000000 0.000000 0.000000 0.001798 0.000000 0.036925
#
#
# Mechanical properties :
#
#
# Convention : Reuss Voigt Hill
#
# Bulk Modulus (GPa) = 60.03389 80.63114 70.33252
# Shear Modulus (GPa) = 27.37416 30.07641 28.72529
#
# Velocity S-wave (km/s) = 3.85090 4.03650 3.94479
# Velocity P-wave (km/s) = 7.23152 8.08733 7.67137
#
# Compressibility (1/GPa) = 0.01665726
#
# Stress axis : x y z
#
# Youngs Moduli (GPa) = 88.27800 64.00337 70.86511
#
# Poissons Ratio (x) = 0.22108 0.40385
# Poissons Ratio (y) = 0.30493 0.21614
# Poissons Ratio (z) = 0.50308 0.19521
#
# Static dielectric constant tensor:
#      x y z
#    x 4.022420 0.000000 -0.411460 
#    y 0.000000 3.323580 0.000000 
#    z -0.411460 0.000000 3.350570 
# 
# 
# High freq. dielectric constant tensor:
#      x y z
#    x 1.727240 0.000000 -0.032170 
#    y 0.000000 1.709150 0.000000 
#    z -0.032170 0.000000 1.696180 
# 
# From -- ./inp_files/66719.got.cif
#   From: 2010.06.25/outbox.cif.g09.slc.cpg/sg11_34_cif.got.tgz:66719.got - 2010.06.27 23:14:04.
