data_PCOD8071659
_publ_section_title
;
Structure prediction by ZEFSAII (Michael W. Deem and Ramdas Pophale) SiO2 
 PCOD8071659
Probable space group: P 21/M
;
_chemical_formula_sum "Si O2"
_cell_formula_units_Z 28
_cell_length_a 16.554630
_cell_length_b 8.873801
_cell_length_c 21.231373
_cell_angle_alpha 90.000000
_cell_angle_beta 154.513408
_cell_angle_gamma 90.000000
_cell_volume 1342.080161
_symmetry_space_group_name_H-M "P 21/M"
_symmetry_group_IT_number 11
_symmetry_cell_setting 'monoclinic'
loop_
_space_group_symop_operation_xyz
x,y,z
-x,1/2+y,-z
-x,-y,-z
x,1/2-y,z
loop_
_atom_site_type_symbol
_atom_site_label
_atom_site_fract_x
_atom_site_fract_y
_atom_site_fract_z
Si Si1 0.122715 0.414626 0.646206
Si Si2 0.753511 0.919546 0.390999
Si Si3 0.033445 0.573184 0.783544
Si Si4 0.000331 0.924214 0.906443
Si Si5 0.680848 0.426795 0.464751
Si Si6 0.702061 0.424695 0.781138
Si Si7 0.665287 0.583800 0.080972
O O1 0.037485 0.250000 0.566549
O O2 0.299440 0.446223 0.720860
O O3 0.177287 0.397921 0.756118
O O4 0.977471 0.552723 0.542533
O O5 0.707286 0.750000 0.381405
O O6 0.664898 0.032833 0.379054
O O7 0.031371 0.750000 0.769372
O O8 0.019267 0.533579 0.847012
O O9 0.858910 0.503572 0.622906
O O10 0.236306 0.508963 0.905737
O O11 0.944628 0.750000 0.877085
O O12 0.837350 0.028241 0.819506
O O13 0.196398 0.957974 0.080471
O O14 0.701968 0.250000 0.487896
O O15 0.488504 0.481350 0.360898
O O16 0.651426 0.250000 0.738571
O O17 0.601467 0.750000 0.012030
O O18 0.500000 0.500000 0.000000
#
# Coordination Sequence:
#
# PCOD8071659 Si02
#       7
#     4   4   4   4   4   4   4
#     4   9  19  35  54  78 109 146 190 241 290 341
#     4  10  19  33  56  81 108 146 191 239 293 346
#     4  11  23  41  64  90 121 159 201 250 306 361
#     4   9  21  42  66  92 123 156 196 247 302 361
#     4  12  24  38  58  89 127 162 202 251 301 356
#     4  10  21  40  66  93 121 157 199 245 299 361
#     4  11  23  39  58  83 118 157 199 245 295 354
#
# _framework density 20.863135
#
# number of rings (size 3 to 8) (size 9 to 14) (size 15 to 20)
#    0.000    1.714    1.429    3.000    0.000    4.571 
#    0.000    5.714    0.000    0.000    0.000    0.000 
#    0.000    0.000    0.000    0.000    0.000    0.000 
#
# Total GULP energy -346945.120468 kJ/mol
# GULP energy per Si atom -12390.897160 kJ/mol
# Density = 2.081565 g / cm^3
# Si number density = 20.863135 Si / 1000 Ang^3
#
#
#
# Elastic Constant Matrix: (Units=GPa)
#
#
# Indices 1 2 3 4 5 6 
#
# 1 129.4760 54.3381 32.9423 0.0000 4.9555 0.0000
# 2 54.3381 123.0400 28.2430 0.0000 13.5050 0.0000
# 3 32.9423 28.2430 46.8729 0.0000 21.5619 0.0000
# 4 0.0000 0.0000 0.0000 27.1457 0.0000 7.0566
# 5 4.9555 13.5050 21.5619 0.0000 28.3140 0.0000
# 6 0.0000 0.0000 0.0000 7.0566 0.0000 37.7813
#
#
#
# Elastic Compliance Matrix: (Units=1/GPa)
#
#
# Indices 1 2 3 4 5 6 
#
# 1 0.011203 -0.003675 -0.008563 0.000000 0.006313 0.000000
# 2 -0.003675 0.010639 -0.002754 0.000000 -0.002334 0.000000
# 3 -0.008563 -0.002754 0.042664 0.000000 -0.029677 0.000000
# 4 0.000000 0.000000 0.000000 0.038718 0.000000 -0.007232
# 5 0.006313 -0.002334 -0.029677 0.000000 0.057927 0.000000
# 6 0.000000 0.000000 0.000000 -0.007232 0.000000 0.027819
#
#
# Mechanical properties :
#
#
# Convention : Reuss Voigt Hill
#
# Bulk Modulus (GPa) = 28.96774 58.93728 43.95251
# Shear Modulus (GPa) = 21.69580 30.90591 26.30085
#
# Velocity S-wave (km/s) = 3.22826 3.85303 3.55440
# Velocity P-wave (km/s) = 5.27355 6.93579 6.16099
#
# Compressibility (1/GPa) = 0.03452117
#
# Stress axis : x y z
#
# Youngs Moduli (GPa) = 89.26378 93.99667 23.43916
#
# Poissons Ratio (x) = 0.34542 0.20071
# Poissons Ratio (y) = 0.32803 0.06455
# Poissons Ratio (z) = 0.76438 0.25886
#
# Static dielectric constant tensor:
#      x y z
#    x 4.135630 0.000000 -0.260930 
#    y 0.000000 4.049570 0.000000 
#    z -0.260930 0.000000 3.784740 
# 
# 
# High freq. dielectric constant tensor:
#      x y z
#    x 1.833200 0.000000 -0.002340 
#    y 0.000000 1.827090 0.000000 
#    z -0.002340 0.000000 1.790260 
# 
# From -- ./inp_files/65460.got.cif
#   From: 2010.06.25/outbox.cif.g09.slc.cpg/sg11_33_cif.got.tgz:65460.got - 2010.06.27 23:14:04.
