data_PCOD8071557
_publ_section_title
;
Structure prediction by ZEFSAII (Michael W. Deem and Ramdas Pophale) SiO2 
 PCOD8071557
Probable space group: P 21/M
;
_chemical_formula_sum "Si O2"
_cell_formula_units_Z 28
_cell_length_a 15.386572
_cell_length_b 8.582670
_cell_length_c 18.721192
_cell_angle_alpha 90.000000
_cell_angle_beta 142.247969
_cell_angle_gamma 90.000000
_cell_volume 1513.642281
_symmetry_space_group_name_H-M "P 21/M"
_symmetry_group_IT_number 11
_symmetry_cell_setting 'monoclinic'
loop_
_space_group_symop_operation_xyz
x,y,z
-x,1/2+y,-z
-x,-y,-z
x,1/2-y,z
loop_
_atom_site_type_symbol
_atom_site_label
_atom_site_fract_x
_atom_site_fract_y
_atom_site_fract_z
Si Si1 0.106957 0.571997 0.253552
Si Si2 0.884668 0.431229 0.374211
Si Si3 0.331478 0.566699 0.657073
Si Si4 0.600935 0.068435 0.769111
Si Si5 0.902469 0.567935 0.598860
Si Si6 0.897445 0.929618 0.992669
Si Si7 0.615311 0.567513 0.627686
O O1 0.134051 0.750000 0.293237
O O2 0.094914 0.469954 0.316363
O O3 0.234692 0.513814 0.287421
O O4 0.964746 0.554213 0.114861
O O5 0.887616 0.250000 0.388112
O O6 0.731063 0.485945 0.304943
O O7 0.000000 0.500000 0.500000
O O8 0.938172 0.473939 0.328733
O O9 0.364421 0.750000 0.674910
O O10 0.476809 0.471296 0.744245
O O11 0.220728 0.526211 0.521772
O O12 0.600764 0.250000 0.749949
O O13 0.750945 0.022833 0.900618
O O14 0.567440 0.969110 0.676716
O O15 0.869304 0.750000 0.567012
O O16 0.868693 0.750000 0.954129
O O17 0.000000 0.000000 0.000000
O O18 0.500000 0.500000 0.500000
O O19 0.629839 0.750000 0.624650
#
# Coordination Sequence:
#
# PCOD8071557 Si02
#       7
#     4   4   4   4   4   4   4
#     4  11  23  38  56  80 109 141 180 224 270 323
#     4   8  16  30  51  78 109 144 180 220 265 321
#     4  10  19  34  55  81 113 147 183 223 272 324
#     4  12  24  38  56  80 110 142 182 227 272 325
#     4  10  19  33  54  83 115 146 181 221 271 326
#     4  11  23  40  61  80 104 140 186 231 273 321
#     4  12  24  38  56  78 109 144 179 219 271 324
#
# _framework density 18.498427
#
# number of rings (size 3 to 8) (size 9 to 14) (size 15 to 20)
#    0.000    1.429    1.429    5.143    0.000    2.857 
#    0.000    0.000    0.000    0.857    0.000    0.000 
#    0.000    0.000    0.000    0.000    0.000    0.000 
#
# Total GULP energy -347086.949848 kJ/mol
# GULP energy per Si atom -12395.962495 kJ/mol
# Density = 1.845632 g / cm^3
# Si number density = 18.498427 Si / 1000 Ang^3
#
#
#
# Elastic Constant Matrix: (Units=GPa)
#
#
# Indices 1 2 3 4 5 6 
#
# 1 113.5964 20.0672 24.0846 0.0000 26.0315 0.0000
# 2 20.0672 47.8383 27.2803 0.0000 6.4438 0.0000
# 3 24.0846 27.2803 66.3604 0.0000 21.3376 0.0000
# 4 0.0000 0.0000 0.0000 26.5422 0.0000 4.5404
# 5 26.0315 6.4438 21.3376 0.0000 22.6419 0.0000
# 6 0.0000 0.0000 0.0000 4.5404 0.0000 26.8948
#
#
#
# Elastic Compliance Matrix: (Units=1/GPa)
#
#
# Indices 1 2 3 4 5 6 
#
# 1 0.012642 -0.004482 0.002178 0.000000 -0.015311 0.000000
# 2 -0.004482 0.029153 -0.013411 0.000000 0.009495 0.000000
# 3 0.002178 -0.013411 0.027791 0.000000 -0.024877 0.000000
# 4 0.000000 0.000000 0.000000 0.038796 0.000000 -0.006550
# 5 -0.015311 0.009495 -0.024877 0.000000 0.082510 0.000000
# 6 0.000000 0.000000 0.000000 -0.006550 0.000000 0.038288
#
#
# Mechanical properties :
#
#
# Convention : Reuss Voigt Hill
#
# Bulk Modulus (GPa) = 26.20925 41.18439 33.69682
# Shear Modulus (GPa) = 18.29301 25.63998 21.96650
#
# Velocity S-wave (km/s) = 3.14808 3.72703 3.44972
# Velocity P-wave (km/s) = 5.23574 6.39007 5.84149
#
# Compressibility (1/GPa) = 0.03815446
#
# Stress axis : x y z
#
# Youngs Moduli (GPa) = 79.10256 34.30229 35.98309
#
# Poissons Ratio (x) = 0.15376 -0.07836
# Poissons Ratio (y) = 0.35457 0.48255
# Poissons Ratio (z) = -0.17225 0.46001
#
# Static dielectric constant tensor:
#      x y z
#    x 4.025830 0.000000 0.122540 
#    y 0.000000 3.530540 0.000000 
#    z 0.122540 0.000000 3.226080 
# 
# 
# High freq. dielectric constant tensor:
#      x y z
#    x 1.732070 0.000000 0.009100 
#    y 0.000000 1.734070 0.000000 
#    z 0.009100 0.000000 1.686270 
# 
# From -- ./inp_files/53236.got.cif
#   From: 2010.06.25/outbox.cif.g09.slc.cpg/sg11_27_cif.got.tgz:53236.got - 2010.06.27 23:14:04.
