data_PCOD8071231
_publ_section_title
;
Structure prediction by ZEFSAII (Michael W. Deem and Ramdas Pophale) SiO2 
 PCOD8071231
Probable space group: P 21/M
;
_chemical_formula_sum "Si O2"
_cell_formula_units_Z 24
_cell_length_a 9.242393
_cell_length_b 17.656000
_cell_length_c 15.775610
_cell_angle_alpha 90.000000
_cell_angle_beta 148.737346
_cell_angle_gamma 90.000000
_cell_volume 1335.975576
_symmetry_space_group_name_H-M "P 21/M"
_symmetry_group_IT_number 11
_symmetry_cell_setting 'monoclinic'
loop_
_space_group_symop_operation_xyz
x,y,z
-x,1/2+y,-z
-x,-y,-z
x,1/2-y,z
loop_
_atom_site_type_symbol
_atom_site_label
_atom_site_fract_x
_atom_site_fract_y
_atom_site_fract_z
Si Si1 0.523098 0.088810 0.016444
Si Si2 0.457042 0.664137 0.139786
Si Si3 0.923952 0.421277 0.364227
Si Si4 0.492064 0.839089 0.342710
Si Si5 0.956157 0.095051 0.566236
Si Si6 0.083798 0.660473 0.287446
O O1 0.716637 0.114581 0.191632
O O2 0.667295 0.114792 0.999827
O O3 0.223895 0.127033 0.879993
O O4 0.500000 0.000000 0.000000
O O5 0.381276 0.750000 0.080621
O O6 0.348056 0.641568 0.179372
O O7 0.789030 0.653730 0.310323
O O8 0.229385 0.387176 0.504108
O O9 0.802373 0.403197 0.398017
O O10 0.932756 0.511404 0.356944
O O11 0.565377 0.750000 0.384490
O O12 0.274612 0.864906 0.304899
O O13 0.775650 0.125465 0.555896
O O14 0.064997 0.750000 0.284587
#
# Coordination Sequence:
#
# PCOD8071231 Si02
#       6
#     4   4   4   4   4   4
#     4  11  19  33  53  81 105 134 172 221 254 307
#     4   9  17  33  54  73 102 143 174 202 255 316
#     4  10  19  32  55  78 107 129 173 219 257 296
#     4   9  20  36  54  76 104 140 177 209 252 313
#     4   9  17  32  53  77 102 136 171 210 255 306
#     4  10  20  37  56  75 105 142 173 206 258 314
#
# _framework density 17.964400999999999
#
# number of rings (size 3 to 8) (size 9 to 14) (size 15 to 20)
#    0.000    2.333    3.333    2.000    0.000    2.667 
#    0.000    2.500    0.000    4.000    0.000    0.000 
#    0.000    0.000    0.000    0.000    0.000    0.000 
#
# Total GULP energy -297384.178682 kJ/mol
# GULP energy per Si atom -12391.007445 kJ/mol
# Density = 1.792351 g / cm^3
# Si number density = 17.964401 Si / 1000 Ang^3
#
#
#
# Elastic Constant Matrix: (Units=GPa)
#
#
# Indices 1 2 3 4 5 6 
#
# 1 159.5709 52.4988 61.8524 0.0000 -38.9646 0.0000
# 2 52.4988 72.4279 38.0172 0.0000 -15.6692 0.0000
# 3 61.8524 38.0172 106.3861 0.0000 -35.4181 0.0000
# 4 0.0000 0.0000 0.0000 21.5016 0.0000 -11.6624
# 5 -38.9646 -15.6692 -35.4181 0.0000 35.0101 0.0000
# 6 0.0000 0.0000 0.0000 -11.6624 0.0000 23.1629
#
#
#
# Elastic Compliance Matrix: (Units=1/GPa)
#
#
# Indices 1 2 3 4 5 6 
#
# 1 0.010455 -0.005010 -0.001750 0.000000 0.007623 0.000000
# 2 -0.005010 0.019509 -0.004536 0.000000 -0.001433 0.000000
# 3 -0.001750 -0.004536 0.016155 0.000000 0.012365 0.000000
# 4 0.000000 0.000000 0.000000 0.063981 0.000000 0.032214
# 5 0.007623 -0.001433 0.012365 0.000000 0.048915 0.000000
# 6 0.000000 0.000000 0.000000 0.032214 0.000000 0.059392
#
#
# Mechanical properties :
#
#
# Convention : Reuss Voigt Hill
#
# Bulk Modulus (GPa) = 42.50602 71.45798 56.98200
# Shear Modulus (GPa) = 20.09309 28.33601 24.21455
#
# Velocity S-wave (km/s) = 3.34802 3.97589 3.67538
# Velocity P-wave (km/s) = 6.21758 7.80646 7.05688
#
# Compressibility (1/GPa) = 0.02352608
#
# Stress axis : x y z
#
# Youngs Moduli (GPa) = 95.64783 51.25746 61.90124
#
# Poissons Ratio (x) = 0.25682 0.10834
# Poissons Ratio (y) = 0.47924 0.28078
# Poissons Ratio (z) = 0.16740 0.23250
#
# Static dielectric constant tensor:
#      x y z
#    x 3.813750 0.000000 -0.516890 
#    y 0.000000 3.373880 0.000000 
#    z -0.516890 0.000000 3.400780 
# 
# 
# High freq. dielectric constant tensor:
#      x y z
#    x 1.695710 0.000000 -0.043160 
#    y 0.000000 1.703070 0.000000 
#    z -0.043160 0.000000 1.669510 
# 
# From -- ./inp_files/18525.got.cif
#   From: 2010.06.25/outbox.cif.g09.slc.cpg/sg11_10_cif.got.tgz:18525.got - 2010.06.27 23:14:04.
