data_PCOD8071167
_publ_section_title
;
Structure prediction by ZEFSAII (Michael W. Deem and Ramdas Pophale) SiO2 
 PCOD8071167
Probable space group: P 21/M
;
_chemical_formula_sum "Si O2"
_cell_formula_units_Z 28
_cell_length_a 11.275246
_cell_length_b 10.232576
_cell_length_c 14.096113
_cell_angle_alpha 90.000000
_cell_angle_beta 68.900751
_cell_angle_gamma 90.000000
_cell_volume 1517.303950
_symmetry_space_group_name_H-M "P 21/M"
_symmetry_group_IT_number 11
_symmetry_cell_setting 'monoclinic'
loop_
_space_group_symop_operation_xyz
x,y,z
-x,1/2+y,-z
-x,-y,-z
x,1/2-y,z
loop_
_atom_site_type_symbol
_atom_site_label
_atom_site_fract_x
_atom_site_fract_y
_atom_site_fract_z
Si Si1 0.177847 0.603340 0.967553
Si Si2 0.940628 0.605873 0.671704
Si Si3 0.875652 0.894838 0.359435
Si Si4 0.399189 0.401630 0.486604
Si Si5 0.978858 0.025771 0.159413
Si Si6 0.662461 0.596248 0.707019
Si Si7 0.466932 0.904936 0.923442
O O1 0.159588 0.750000 0.008681
O O2 0.130200 0.591717 0.872935
O O3 0.324890 0.563498 0.929818
O O4 0.096455 0.513780 0.060159
O O5 0.956586 0.750000 0.620065
O O6 0.955541 0.498300 0.398089
O O7 0.802401 0.542564 0.692581
O O8 0.963027 0.623981 0.778850
O O9 0.910627 0.750000 0.386078
O O10 0.727276 0.920616 0.415472
O O11 0.912116 0.906831 0.237071
O O12 0.500000 0.500000 0.500000
O O13 0.445466 0.250000 0.476723
O O14 0.376518 0.450027 0.386042
O O15 0.672436 0.750000 0.707283
O O16 0.558859 0.548603 0.812325
O O17 0.483935 0.750000 0.943798
O O18 0.500000 0.000000 0.000000
#
# Coordination Sequence:
#
# PCOD8071167 Si02
#       7
#     4   4   4   4   4   4   4
#     4  10  19  32  53  80 108 143 187 230 276 331
#     4   9  18  33  56  81 107 141 184 221 267 334
#     4   9  20  36  55  79 110 143 173 224 283 321
#     4  10  22  40  60  83 113 147 187 231 280 331
#     4   9  19  32  52  81 108 141 180 230 277 327
#     4   9  19  36  58  83 113 147 184 231 278 327
#     4  10  21  37  57  82 113 150 188 227 276 328
#
# _framework density 18.453785
#
# number of rings (size 3 to 8) (size 9 to 14) (size 15 to 20)
#    0.857    1.714    0.000    1.714    2.000    1.143 
#    0.000    5.000    0.000    0.000    0.000    0.000 
#    0.000    0.000    0.000    0.000    0.000    0.000 
#
# Total GULP energy -346934.453203 kJ/mol
# GULP energy per Si atom -12390.516186 kJ/mol
# Density = 1.841178 g / cm^3
# Si number density = 18.453785 Si / 1000 Ang^3
#
#
#
# Elastic Constant Matrix: (Units=GPa)
#
#
# Indices 1 2 3 4 5 6 
#
# 1 150.3177 65.4894 44.9979 0.0000 3.7341 0.0000
# 2 65.4894 87.0449 27.4076 0.0000 -5.9391 0.0000
# 3 44.9979 27.4076 76.5087 0.0000 1.2294 0.0000
# 4 0.0000 0.0000 0.0000 22.9774 0.0000 -1.1072
# 5 3.7341 -5.9391 1.2294 0.0000 34.0385 0.0000
# 6 0.0000 0.0000 0.0000 -1.1072 0.0000 28.9308
#
#
#
# Elastic Compliance Matrix: (Units=1/GPa)
#
#
# Indices 1 2 3 4 5 6 
#
# 1 0.011014 -0.007234 -0.003849 0.000000 -0.002331 0.000000
# 2 -0.007234 0.017904 -0.002223 0.000000 0.003998 0.000000
# 3 -0.003849 -0.002223 0.016140 0.000000 -0.000549 0.000000
# 4 0.000000 0.000000 0.000000 0.043601 0.000000 0.001669
# 5 -0.002331 0.003998 -0.000549 0.000000 0.030352 0.000000
# 6 0.000000 0.000000 0.000000 0.001669 0.000000 0.034629
#
#
# Mechanical properties :
#
#
# Convention : Reuss Voigt Hill
#
# Bulk Modulus (GPa) = 54.21563 65.51789 59.86676
# Shear Modulus (GPa) = 26.82394 28.92111 27.87253
#
# Velocity S-wave (km/s) = 3.81671 3.96311 3.89060
# Velocity P-wave (km/s) = 6.99042 7.51814 7.25908
#
# Compressibility (1/GPa) = 0.01844487
#
# Stress axis : x y z
#
# Youngs Moduli (GPa) = 90.79042 55.85441 61.95978
#
# Poissons Ratio (x) = 0.40405 0.23849
# Poissons Ratio (y) = 0.65677 0.13775
# Poissons Ratio (z) = 0.34947 0.12418
#
# Static dielectric constant tensor:
#      x y z
#    x 3.511880 0.000000 -0.023480 
#    y 0.000000 3.207600 0.000000 
#    z -0.023480 0.000000 3.455930 
# 
# 
# High freq. dielectric constant tensor:
#      x y z
#    x 1.723720 0.000000 -0.003200 
#    y 0.000000 1.698870 0.000000 
#    z -0.003200 0.000000 1.712080 
# 
# From -- ./inp_files/34315.got.cif
#   From: 2010.06.25/outbox.cif.g09.slc.cpg/sg11_18_cif.got.tgz:34315.got - 2010.06.27 23:14:04.
