data_PCOD8071875
_publ_section_title
;
Structure prediction by ZEFSAII (Michael W. Deem and Ramdas Pophale) SiO2 
 PCOD8071875
Probable space group: P 21/M
;
_chemical_formula_sum "Si O2"
_cell_formula_units_Z 32
_cell_length_a 14.356781
_cell_length_b 8.856806
_cell_length_c 22.236093
_cell_angle_alpha 90.000000
_cell_angle_beta 37.377407
_cell_angle_gamma 90.000000
_cell_volume 1716.430101
_symmetry_space_group_name_H-M "P 21/M"
_symmetry_group_IT_number 11
_symmetry_cell_setting 'monoclinic'
loop_
_space_group_symop_operation_xyz
x,y,z
-x,1/2+y,-z
-x,-y,-z
x,1/2-y,z
loop_
_atom_site_type_symbol
_atom_site_label
_atom_site_fract_x
_atom_site_fract_y
_atom_site_fract_z
Si Si1 0.338094 0.925580 0.864120
Si Si2 0.644637 0.430061 0.392368
Si Si3 0.959224 0.928668 0.262665
Si Si4 0.075432 0.075633 0.317937
Si Si5 0.718102 0.572550 0.229936
Si Si6 0.941433 0.425962 0.916515
Si Si7 0.674548 0.922945 0.715914
Si Si8 0.868875 0.077186 0.529708
O O1 0.308641 0.750000 0.863883
O O2 0.494794 0.945667 0.821993
O O3 0.358134 0.016158 0.792097
O O4 0.200483 0.999309 0.974146
O O5 0.500000 0.500000 0.500000
O O6 0.637069 0.250000 0.398379
O O7 0.796677 0.486536 0.348837
O O8 0.642854 0.485776 0.324422
O O9 0.927963 0.750000 0.276832
O O10 0.050593 0.983591 0.156284
O O11 0.065334 0.972946 0.264238
O O12 0.100198 0.250000 0.286983
O O13 0.913313 0.056326 0.436890
O O14 0.220506 0.015323 0.282915
O O15 0.689529 0.750000 0.253952
O O16 0.899181 0.534967 0.132447
O O17 0.908874 0.250000 0.932334
O O18 0.719973 0.750000 0.683786
O O19 0.710059 0.002198 0.633143
O O20 0.860586 0.250000 0.551800
O O21 0.000000 0.000000 0.500000
#
# Coordination Sequence:
#
# PCOD8071875 Si02
#       8
#     4   4   4   4   4   4   4   4
#     4  10  19  34  55  77 103 140 179 219 265 311
#     4  11  22  38  58  81 110 142 173 211 257 308
#     4  10  20  35  55  79 104 137 179 220 260 310
#     4   9  18  33  50  72 101 138 177 214 259 312
#     4  10  20  35  54  80 110 138 172 216 261 314
#     4   8  17  34  54  75 102 135 175 219 264 310
#     4   9  19  33  50  74 105 136 173 217 260 306
#     4   9  17  30  49  70  97 130 166 206 251 301
#
# _framework density 18.643346999999999
#
# number of rings (size 3 to 8) (size 9 to 14) (size 15 to 20)
#    0.000    2.500    0.000    4.125    0.000    4.000 
#    0.000    6.250    0.000    0.000    0.000    0.000 
#    0.000    0.000    0.000    0.000    0.000    0.000 
#
# Total GULP energy -396655.535914 kJ/mol
# GULP energy per Si atom -12395.485497 kJ/mol
# Density = 1.860091 g / cm^3
# Si number density = 18.643347 Si / 1000 Ang^3
#
#
#
# Elastic Constant Matrix: (Units=GPa)
#
#
# Indices 1 2 3 4 5 6 
#
# 1 103.0404 37.2753 53.3798 0.0000 8.2298 0.0000
# 2 37.2753 85.1589 41.2422 0.0000 2.7110 0.0000
# 3 53.3798 41.2422 112.9506 0.0000 -6.0101 0.0000
# 4 0.0000 0.0000 0.0000 23.6357 0.0000 3.5913
# 5 8.2298 2.7110 -6.0101 0.0000 23.6826 0.0000
# 6 0.0000 0.0000 0.0000 3.5913 0.0000 28.5326
#
#
#
# Elastic Compliance Matrix: (Units=1/GPa)
#
#
# Indices 1 2 3 4 5 6 
#
# 1 0.014470 -0.003239 -0.005985 0.000000 -0.006176 0.000000
# 2 -0.003239 0.015203 -0.004109 0.000000 -0.001658 0.000000
# 3 -0.005985 -0.004109 0.013500 0.000000 0.005976 0.000000
# 4 0.000000 0.000000 0.000000 0.043134 0.000000 -0.005429
# 5 -0.006176 -0.001658 0.005976 0.000000 0.046078 0.000000
# 6 0.000000 0.000000 0.000000 -0.005429 0.000000 0.035731
#
#
# Mechanical properties :
#
#
# Convention : Reuss Voigt Hill
#
# Bulk Modulus (GPa) = 60.57337 62.77161 61.67249
# Shear Modulus (GPa) = 24.96467 26.45367 25.70917
#
# Velocity S-wave (km/s) = 3.66329 3.77096 3.71752
# Velocity P-wave (km/s) = 7.10311 7.25968 7.18182
#
# Compressibility (1/GPa) = 0.01650891
#
# Stress axis : x y z
#
# Youngs Moduli (GPa) = 69.10750 65.77622 74.07458
#
# Poissons Ratio (x) = 0.21304 0.44330
# Poissons Ratio (y) = 0.22383 0.30435
# Poissons Ratio (z) = 0.41358 0.27025
#
# Static dielectric constant tensor:
#      x y z
#    x 3.289380 0.000000 0.001980 
#    y 0.000000 3.437410 0.000000 
#    z 0.001980 0.000000 3.795270 
# 
# 
# High freq. dielectric constant tensor:
#      x y z
#    x 1.710890 0.000000 0.000920 
#    y 0.000000 1.716950 0.000000 
#    z 0.000920 0.000000 1.724060 
# 
# From -- ./inp_files/65191.got.cif
#   From: 2010.06.25/outbox.cif.g09.slc.cpg/sg11_33_cif.got.tgz:65191.got - 2010.06.27 23:14:04.
