data_PCOD8071357
_publ_section_title
;
Structure prediction by ZEFSAII (Michael W. Deem and Ramdas Pophale) SiO2 
 PCOD8071357
Probable space group: P 21/M
;
_chemical_formula_sum "Si O2"
_cell_formula_units_Z 32
_cell_length_a 12.102153
_cell_length_b 9.071548
_cell_length_c 31.544331
_cell_angle_alpha 90.000000
_cell_angle_beta 150.417319
_cell_angle_gamma 90.000000
_cell_volume 1709.661112
_symmetry_space_group_name_H-M "P 21/M"
_symmetry_group_IT_number 11
_symmetry_cell_setting 'monoclinic'
loop_
_space_group_symop_operation_xyz
x,y,z
-x,1/2+y,-z
-x,-y,-z
x,1/2-y,z
loop_
_atom_site_type_symbol
_atom_site_label
_atom_site_fract_x
_atom_site_fract_y
_atom_site_fract_z
Si Si1 0.152373 0.077166 0.110858
Si Si2 0.802713 0.578886 0.233726
Si Si3 0.547644 0.579782 0.472744
Si Si4 0.058349 0.578209 0.634098
Si Si5 0.693725 0.080782 0.917718
Si Si6 0.177612 0.421531 0.589824
Si Si7 0.842800 0.424460 0.715262
Si Si8 0.690333 0.420410 0.753104
O O1 0.186953 0.250000 0.123292
O O2 0.309138 0.013545 0.126166
O O3 0.228030 0.014816 0.180538
O O4 0.894139 0.031856 0.015746
O O5 0.857363 0.750000 0.261519
O O6 0.874862 0.484624 0.298107
O O7 0.540519 0.555315 0.136391
O O8 0.935743 0.523341 0.236295
O O9 0.500000 0.500000 0.500000
O O10 0.498892 0.750000 0.464832
O O11 0.376971 0.513329 0.381469
O O12 0.796112 0.553505 0.538719
O O13 0.123700 0.750000 0.654036
O O14 0.183702 0.491861 0.638672
O O15 0.724979 0.250000 0.914487
O O16 0.112642 0.250000 0.571227
O O17 0.427531 0.441869 0.654958
O O18 0.000000 0.500000 0.500000
O O19 0.829686 0.250000 0.712349
O O20 0.834444 0.480101 0.760986
O O21 0.740088 0.250000 0.779730
#
# Coordination Sequence:
#
# PCOD8071357 Si02
#       8
#     4   4   4   4   4   4   4   4
#     4  10  20  35  56  82 109 138 174 219 269 320
#     4  10  19  34  56  79 104 138 180 221 266 321
#     4  10  19  33  52  75 104 139 179 221 260 308
#     4  11  22  34  52  80 113 141 175 225 273 318
#     4   9  19  35  56  82 109 136 172 220 270 321
#     4  11  23  38  56  78 108 143 181 224 268 318
#     4   9  18  34  55  75 101 140 183 219 258 314
#     4  10  21  38  57  77 106 145 183 217 261 321
#
# _framework density 18.717158999999999
#
# number of rings (size 3 to 8) (size 9 to 14) (size 15 to 20)
#    0.000    2.000    1.250    2.625    0.000    7.500 
#    0.000    1.875    0.000    0.000    0.000    0.000 
#    0.000    0.000    0.000    0.000    0.000    0.000 
#
# Total GULP energy -396799.910108 kJ/mol
# GULP energy per Si atom -12399.997191 kJ/mol
# Density = 1.867456 g / cm^3
# Si number density = 18.717159 Si / 1000 Ang^3
#
#
#
# Elastic Constant Matrix: (Units=GPa)
#
#
# Indices 1 2 3 4 5 6 
#
# 1 127.8706 45.3326 49.4564 0.0000 -0.2469 0.0000
# 2 45.3326 73.2929 34.2125 0.0000 -2.2927 0.0000
# 3 49.4564 34.2125 91.4665 0.0000 -1.0668 0.0000
# 4 0.0000 0.0000 0.0000 28.3907 0.0000 -3.0090
# 5 -0.2469 -2.2927 -1.0668 0.0000 32.1357 0.0000
# 6 0.0000 0.0000 0.0000 -3.0090 0.0000 21.8824
#
#
#
# Elastic Compliance Matrix: (Units=1/GPa)
#
#
# Indices 1 2 3 4 5 6 
#
# 1 0.011213 -0.004986 -0.004202 0.000000 -0.000409 0.000000
# 2 -0.004986 0.018778 -0.004314 0.000000 0.001158 0.000000
# 3 -0.004202 -0.004314 0.014821 0.000000 0.000152 0.000000
# 4 0.000000 0.000000 0.000000 0.035744 0.000000 0.004915
# 5 -0.000409 0.001158 0.000152 0.000000 0.031203 0.000000
# 6 0.000000 0.000000 0.000000 0.004915 0.000000 0.046375
#
#
# Mechanical properties :
#
#
# Convention : Reuss Voigt Hill
#
# Bulk Modulus (GPa) = 56.16217 61.18144 58.67181
# Shear Modulus (GPa) = 26.16792 27.39032 26.77912
#
# Velocity S-wave (km/s) = 3.74314 3.82957 3.78660
# Velocity P-wave (km/s) = 6.98228 7.23273 7.10861
#
# Compressibility (1/GPa) = 0.01780558
#
# Stress axis : x y z
#
# Youngs Moduli (GPa) = 89.18409 53.25361 67.47314
#
# Poissons Ratio (x) = 0.26554 0.28355
# Poissons Ratio (y) = 0.44470 0.29109
# Poissons Ratio (z) = 0.37479 0.22974
#
# Static dielectric constant tensor:
#      x y z
#    x 3.622170 0.000000 0.131160 
#    y 0.000000 3.377350 0.000000 
#    z 0.131160 0.000000 3.536830 
# 
# 
# High freq. dielectric constant tensor:
#      x y z
#    x 1.731030 0.000000 0.006820 
#    y 0.000000 1.716240 0.000000 
#    z 0.006820 0.000000 1.725740 
# 
# From -- ./inp_files/64389.got.cif
#   From: 2010.06.25/outbox.cif.g09.slc.cpg/sg11_33_cif.got.tgz:64389.got - 2010.06.27 23:14:04.
