data_PCOD8071110
_publ_section_title
;
Structure prediction by ZEFSAII (Michael W. Deem and Ramdas Pophale) SiO2 
 PCOD8071110
Probable space group: P 21/M
;
_chemical_formula_sum "Si O2"
_cell_formula_units_Z 28
_cell_length_a 12.342139
_cell_length_b 9.149486
_cell_length_c 13.599941
_cell_angle_alpha 90.000000
_cell_angle_beta 110.404573
_cell_angle_gamma 90.000000
_cell_volume 1439.400117
_symmetry_space_group_name_H-M "P 21/M"
_symmetry_group_IT_number 11
_symmetry_cell_setting 'monoclinic'
loop_
_space_group_symop_operation_xyz
x,y,z
-x,1/2+y,-z
-x,-y,-z
x,1/2-y,z
loop_
_atom_site_type_symbol
_atom_site_label
_atom_site_fract_x
_atom_site_fract_y
_atom_site_fract_z
Si Si1 0.313489 0.921912 0.194765
Si Si2 0.902382 0.086324 0.413500
Si Si3 0.591280 0.579211 0.596580
Si Si4 0.150698 0.922849 0.819165
Si Si5 0.617103 0.077702 0.003120
Si Si6 0.068686 0.914430 0.205412
Si Si7 0.215847 0.589607 0.430720
O O1 0.328042 0.750000 0.217776
O O2 0.348606 0.966940 0.096455
O O3 0.180466 0.967972 0.177492
O O4 0.402734 0.008113 0.293259
O O5 0.948370 0.250000 0.409566
O O6 0.859992 0.020480 0.296698
O O7 0.795770 0.085012 0.455644
O O8 0.000000 0.000000 0.500000
O O9 0.500000 0.500000 0.500000
O O10 0.564819 0.750000 0.597408
O O11 0.711172 0.549404 0.579436
O O12 0.142781 0.750000 0.827049
O O13 0.275437 0.976770 0.896458
O O14 0.045075 0.988012 0.850669
O O15 0.597593 0.250000 0.007025
O O16 0.500000 0.000000 0.000000
O O17 0.037290 0.750000 0.164197
O O18 0.095978 0.924092 0.331538
O O19 0.270373 0.750000 0.419451
#
# Coordination Sequence:
#
# PCOD8071110 Si02
#       7
#     4   4   4   4   4   4   4
#     4   9  20  40  61  81 115 155 190 238 298 346
#     4  10  19  32  52  80 117 155 186 225 279 339
#     4  11  22  36  57  85 114 146 190 239 288 347
#     4  10  21  35  55  85 118 151 192 242 292 342
#     4  10  23  43  62  83 115 154 197 248 297 345
#     4   9  17  32  55  82 112 148 189 231 284 347
#     4   9  18  33  51  76 115 156 188 228 283 339
#
# _framework density 19.452548
#
# number of rings (size 3 to 8) (size 9 to 14) (size 15 to 20)
#    0.000    2.286    1.429    2.143    0.000    5.714 
#    0.000    1.429    0.000    0.000    0.000    0.000 
#    0.000    0.000    0.000    0.000    0.000    0.000 
#
# Total GULP energy -346980.960214 kJ/mol
# GULP energy per Si atom -12392.177151 kJ/mol
# Density = 1.940827 g / cm^3
# Si number density = 19.452548 Si / 1000 Ang^3
#
#
#
# Elastic Constant Matrix: (Units=GPa)
#
#
# Indices 1 2 3 4 5 6 
#
# 1 120.0728 43.2106 79.2226 0.0000 3.1827 0.0000
# 2 43.2106 71.0599 53.7797 0.0000 8.8341 0.0000
# 3 79.2226 53.7797 149.1806 0.0000 2.1207 0.0000
# 4 0.0000 0.0000 0.0000 25.0545 0.0000 3.3093
# 5 3.1827 8.8341 2.1207 0.0000 33.8972 0.0000
# 6 0.0000 0.0000 0.0000 3.3093 0.0000 35.7496
#
#
#
# Elastic Compliance Matrix: (Units=1/GPa)
#
#
# Indices 1 2 3 4 5 6 
#
# 1 0.013542 -0.003855 -0.005803 0.000000 0.000096 0.000000
# 2 -0.003855 0.021198 -0.005526 0.000000 -0.004817 0.000000
# 3 -0.005803 -0.005526 0.011760 0.000000 0.001249 0.000000
# 4 0.000000 0.000000 0.000000 0.040407 0.000000 -0.003740
# 5 0.000096 -0.004817 0.001249 0.000000 0.030669 0.000000
# 6 0.000000 0.000000 0.000000 -0.003740 0.000000 0.028319
#
#
# Mechanical properties :
#
#
# Convention : Reuss Voigt Hill
#
# Bulk Modulus (GPa) = 61.99267 76.97100 69.48184
# Shear Modulus (GPa) = 27.52713 29.88029 28.70371
#
# Velocity S-wave (km/s) = 3.76585 3.92351 3.84549
# Velocity P-wave (km/s) = 7.13069 7.75756 7.45072
#
# Compressibility (1/GPa) = 0.01613094
#
# Stress axis : x y z
#
# Youngs Moduli (GPa) = 73.84591 47.17461 85.03720
#
# Poissons Ratio (x) = 0.18184 0.49348
# Poissons Ratio (y) = 0.28464 0.46995
# Poissons Ratio (z) = 0.42854 0.26071
#
# Static dielectric constant tensor:
#      x y z
#    x 3.780110 0.000000 -0.025330 
#    y 0.000000 4.181790 0.000000 
#    z -0.025330 0.000000 3.867160 
# 
# 
# High freq. dielectric constant tensor:
#      x y z
#    x 1.747380 0.000000 -0.005820 
#    y 0.000000 1.745690 0.000000 
#    z -0.005820 0.000000 1.759950 
# 
# From -- ./inp_files/49033.got.cif
#   From: 2010.06.25/outbox.cif.g09.slc.cpg/sg11_25_cif.got.tgz:49033.got - 2010.06.27 23:14:04.
