data_PCOD8071000
_publ_section_title
;
Structure prediction by ZEFSAII (Michael W. Deem and Ramdas Pophale) SiO2 
 PCOD8071000
Probable space group: P 21/M
;
_chemical_formula_sum "Si O2"
_cell_formula_units_Z 28
_cell_length_a 11.195337
_cell_length_b 8.863640
_cell_length_c 16.744956
_cell_angle_alpha 90.000000
_cell_angle_beta 120.246544
_cell_angle_gamma 90.000000
_cell_volume 1435.422062
_symmetry_space_group_name_H-M "P 21/M"
_symmetry_group_IT_number 11
_symmetry_cell_setting 'monoclinic'
loop_
_space_group_symop_operation_xyz
x,y,z
-x,1/2+y,-z
-x,-y,-z
x,1/2-y,z
loop_
_atom_site_type_symbol
_atom_site_label
_atom_site_fract_x
_atom_site_fract_y
_atom_site_fract_z
Si Si1 0.383496 0.429499 0.016368
Si Si2 0.690246 0.427259 0.379127
Si Si3 0.796093 0.422489 0.583104
Si Si4 0.180584 0.427925 0.248118
Si Si5 0.867232 0.428730 0.153331
Si Si6 0.407582 0.428837 0.205152
Si Si7 0.886277 0.925042 0.323716
O O1 0.390357 0.250000 0.012144
O O2 0.409199 0.487520 0.115081
O O3 0.500000 0.500000 0.000000
O O4 0.232600 0.487723 0.941752
O O5 0.713596 0.250000 0.371263
O O6 0.696260 0.463434 0.475587
O O7 0.544260 0.485711 0.296484
O O8 0.811118 0.519803 0.377672
O O9 0.779390 0.250000 0.603084
O O10 0.754648 0.520074 0.645939
O O11 0.952440 0.456795 0.608804
O O12 0.184018 0.250000 0.249476
O O13 0.273310 0.492984 0.206857
O O14 0.022732 0.484060 0.184845
O O15 0.848458 0.250000 0.139514
O O16 0.828160 0.479084 0.229585
O O17 0.402392 0.250000 0.204349
O O18 0.855178 0.750000 0.297115
#
# Coordination Sequence:
#
# PCOD8071000 Si02
#       7
#     4   4   4   4   4   4   4
#     4  11  22  37  58  83 111 140 174 216 264 317
#     4  10  19  33  53  76 107 144 178 216 268 321
#     4   9  19  33  51  78 109 140 174 219 270 315
#     4   9  19  37  57  76 102 139 181 218 259 316
#     4  10  20  35  56  79 105 139 177 218 266 317
#     4   9  20  37  55  76 104 139 176 217 264 315
#     4  10  19  32  51  78 110 139 176 222 266 316
#
# _framework density 19.506456
#
# number of rings (size 3 to 8) (size 9 to 14) (size 15 to 20)
#    0.000    2.286    0.000    2.571    0.000    4.000 
#    0.000    2.857    0.000    0.000    0.000    0.000 
#    0.000    0.000    0.000    0.000    0.000    0.000 
#
# Total GULP energy -347251.019603 kJ/mol
# GULP energy per Si atom -12401.822129 kJ/mol
# Density = 1.946206 g / cm^3
# Si number density = 19.506456 Si / 1000 Ang^3
#
#
#
# Elastic Constant Matrix: (Units=GPa)
#
#
# Indices 1 2 3 4 5 6 
#
# 1 112.9698 30.2351 68.3020 0.0000 -19.3305 0.0000
# 2 30.2351 47.8387 33.8999 0.0000 -1.0182 0.0000
# 3 68.3020 33.8999 160.3379 0.0000 1.9523 0.0000
# 4 0.0000 0.0000 0.0000 30.9770 0.0000 -0.5443
# 5 -19.3305 -1.0182 1.9523 0.0000 28.7152 0.0000
# 6 0.0000 0.0000 0.0000 -0.5443 0.0000 22.5106
#
#
#
# Elastic Compliance Matrix: (Units=1/GPa)
#
#
# Indices 1 2 3 4 5 6 
#
# 1 0.015548 -0.005663 -0.005555 0.000000 0.010643 0.000000
# 2 -0.005663 0.026693 -0.003199 0.000000 -0.002648 0.000000
# 3 -0.005555 -0.003199 0.009334 0.000000 -0.004488 0.000000
# 4 0.000000 0.000000 0.000000 0.032296 0.000000 0.000781
# 5 0.010643 -0.002648 -0.004488 0.000000 0.042201 0.000000
# 6 0.000000 0.000000 0.000000 0.000781 0.000000 0.044442
#
#
# Mechanical properties :
#
#
# Convention : Reuss Voigt Hill
#
# Bulk Modulus (GPa) = 43.97499 65.11339 54.54419
# Shear Modulus (GPa) = 24.16286 29.02120 26.59203
#
# Velocity S-wave (km/s) = 3.52335 3.86135 3.69622
# Velocity P-wave (km/s) = 6.25658 7.30294 6.79992
#
# Compressibility (1/GPa) = 0.02274020
#
# Stress axis : x y z
#
# Youngs Moduli (GPa) = 64.31879 37.46249 107.13144
#
# Poissons Ratio (x) = 0.21216 0.59515
# Poissons Ratio (y) = 0.36425 0.34271
# Poissons Ratio (z) = 0.35731 0.11984
#
# Static dielectric constant tensor:
#      x y z
#    x 3.696060 0.000000 0.009830 
#    y 0.000000 3.381100 0.000000 
#    z 0.009830 0.000000 3.743790 
# 
# 
# High freq. dielectric constant tensor:
#      x y z
#    x 1.758460 0.000000 0.000940 
#    y 0.000000 1.744130 0.000000 
#    z 0.000940 0.000000 1.767270 
# 
# From -- ./inp_files/48922.got.cif
#   From: 2010.06.25/outbox.cif.g09.slc.cpg/sg11_25_cif.got.tgz:48922.got - 2010.06.27 23:14:04.
