data_PCOD8071408
_publ_section_title
;
Structure prediction by ZEFSAII (Michael W. Deem and Ramdas Pophale) SiO2 
 PCOD8071408
Probable space group: P 21/M
;
_chemical_formula_sum "Si O2"
_cell_formula_units_Z 32
_cell_length_a 14.632005
_cell_length_b 10.328960
_cell_length_c 16.928763
_cell_angle_alpha 90.000000
_cell_angle_beta 41.045978
_cell_angle_gamma 90.000000
_cell_volume 1680.076918
_symmetry_space_group_name_H-M "P 21/M"
_symmetry_group_IT_number 11
_symmetry_cell_setting 'monoclinic'
loop_
_space_group_symop_operation_xyz
x,y,z
-x,1/2+y,-z
-x,-y,-z
x,1/2-y,z
loop_
_atom_site_type_symbol
_atom_site_label
_atom_site_fract_x
_atom_site_fract_y
_atom_site_fract_z
Si Si1 0.245497 0.897174 0.831115
Si Si2 0.461351 0.101668 0.291999
Si Si3 0.423789 0.458487 0.929311
Si Si4 0.952414 0.100549 0.596698
Si Si5 0.681027 0.109121 0.856511
Si Si6 0.163226 0.391494 0.005180
Si Si7 0.803370 0.600733 0.440757
Si Si8 0.127509 0.897507 0.736050
O O1 0.209116 0.750000 0.881287
O O2 0.409662 0.923365 0.733335
O O3 0.204845 0.921707 0.768077
O O4 0.161383 0.996280 0.941194
O O5 0.434966 0.250000 0.291684
O O6 0.323079 0.046011 0.423235
O O7 0.486867 0.042762 0.189564
O O8 0.535956 0.374723 0.903809
O O9 0.336826 0.540056 0.048855
O O10 0.308884 0.377756 0.956834
O O11 0.946367 0.250000 0.568480
O O12 0.054967 0.092224 0.603551
O O13 0.801871 0.047175 0.723556
O O14 0.000000 0.000000 0.500000
O O15 0.736606 0.250000 0.842912
O O16 0.137531 0.250000 0.981854
O O17 0.037647 0.420429 0.147193
O O18 0.775954 0.750000 0.431006
O O19 0.810884 0.504176 0.362312
O O20 0.156216 0.750000 0.687509
#
# Coordination Sequence:
#
# PCOD8071408 Si02
#       8
#     4   4   4   4   4   4   4   4
#     4   9  19  35  55  78 104 136 172 210 256 310
#     4   9  18  34  54  75 101 134 173 214 257 306
#     4  10  19  33  53  75 103 135 170 212 262 309
#     4  10  21  37  55  78 107 138 175 214 254 304
#     4  10  20  33  51  76 104 135 173 215 257 305
#     4  10  20  34  53  78 107 135 169 214 259 305
#     4  10  21  36  54  77 104 136 175 215 254 303
#     4  10  21  36  53  77 108 138 171 212 257 306
#
# _framework density 19.046748000000001
#
# number of rings (size 3 to 8) (size 9 to 14) (size 15 to 20)
#    0.000    2.250    0.000    2.625    0.000    2.500 
#    0.000    6.250    0.000    0.000    0.000    0.000 
#    0.000    0.000    0.000    0.000    0.000    0.000 
#
# Total GULP energy -396645.999440 kJ/mol
# GULP energy per Si atom -12395.187483 kJ/mol
# Density = 1.900340 g / cm^3
# Si number density = 19.046748 Si / 1000 Ang^3
#
#
#
# Elastic Constant Matrix: (Units=GPa)
#
#
# Indices 1 2 3 4 5 6 
#
# 1 60.2168 25.3674 25.5626 0.0000 3.7402 0.0000
# 2 25.3674 105.9088 73.0058 0.0000 16.8529 0.0000
# 3 25.5626 73.0058 140.1570 0.0000 3.2940 0.0000
# 4 0.0000 0.0000 0.0000 32.4710 0.0000 -1.4452
# 5 3.7402 16.8529 3.2940 0.0000 28.7687 0.0000
# 6 0.0000 0.0000 0.0000 -1.4452 0.0000 5.2772
#
#
#
# Elastic Compliance Matrix: (Units=1/GPa)
#
#
# Indices 1 2 3 4 5 6 
#
# 1 0.018724 -0.003250 -0.001714 0.000000 -0.000334 0.000000
# 2 -0.003250 0.017260 -0.008192 0.000000 -0.008750 0.000000
# 3 -0.001714 -0.008192 0.011628 0.000000 0.003690 0.000000
# 4 0.000000 0.000000 0.000000 0.031177 0.000000 0.008538
# 5 -0.000334 -0.008750 0.003690 0.000000 0.039507 0.000000
# 6 0.000000 0.000000 0.000000 0.008538 0.000000 0.191834
#
#
# Mechanical properties :
#
#
# Convention : Reuss Voigt Hill
#
# Bulk Modulus (GPa) = 46.94953 61.57268 54.26111
# Shear Modulus (GPa) = 14.55425 25.45983 20.00704
#
# Velocity S-wave (km/s) = 2.76729 3.66006 3.24453
# Velocity P-wave (km/s) = 5.90878 7.08934 6.52581
#
# Compressibility (1/GPa) = 0.02129947
#
# Stress axis : x y z
#
# Youngs Moduli (GPa) = 53.40667 57.93754 85.99976
#
# Poissons Ratio (x) = 0.18829 0.14743
# Poissons Ratio (y) = 0.17357 0.70452
# Poissons Ratio (z) = 0.09156 0.47463
#
# Static dielectric constant tensor:
#      x y z
#    x 3.479190 0.000000 -0.204460 
#    y 0.000000 3.488260 0.000000 
#    z -0.204460 0.000000 3.563100 
# 
# 
# High freq. dielectric constant tensor:
#      x y z
#    x 1.744860 0.000000 -0.014840 
#    y 0.000000 1.738630 0.000000 
#    z -0.014840 0.000000 1.739580 
# 
# From -- ./inp_files/52289.got.cif
#   From: 2010.06.25/outbox.cif.g09.slc.cpg/sg11_27_cif.got.tgz:52289.got - 2010.06.27 23:14:04.
