data_PCOD8071599
_publ_section_title
;
Structure prediction by ZEFSAII (Michael W. Deem and Ramdas Pophale) SiO2 
 PCOD8071599
Probable space group: P 21/M
;
_chemical_formula_sum "Si O2"
_cell_formula_units_Z 28
_cell_length_a 21.360141
_cell_length_b 8.588100
_cell_length_c 17.462460
_cell_angle_alpha 90.000000
_cell_angle_beta 152.592871
_cell_angle_gamma 90.000000
_cell_volume 1474.542435
_symmetry_space_group_name_H-M "P 21/M"
_symmetry_group_IT_number 11
_symmetry_cell_setting 'monoclinic'
loop_
_space_group_symop_operation_xyz
x,y,z
-x,1/2+y,-z
-x,-y,-z
x,1/2-y,z
loop_
_atom_site_type_symbol
_atom_site_label
_atom_site_fract_x
_atom_site_fract_y
_atom_site_fract_z
Si Si1 0.151312 0.434593 0.149832
Si Si2 0.366280 0.568705 0.819780
Si Si3 0.863017 0.435109 0.320572
Si Si4 0.724110 0.430956 0.021635
Si Si5 0.555082 0.428888 0.258130
Si Si6 0.321528 0.563923 0.195588
Si Si7 0.616409 0.432013 0.495315
O O1 0.141525 0.250000 0.133308
O O2 0.214186 0.502815 0.140328
O O3 0.253322 0.481781 0.328475
O O4 0.000000 0.500000 0.000000
O O5 0.371284 0.750000 0.839964
O O6 0.243016 0.495680 0.733337
O O7 0.348214 0.532636 0.709241
O O8 0.500000 0.500000 0.000000
O O9 0.863108 0.250000 0.319714
O O10 0.831060 0.499720 0.199789
O O11 0.000000 0.500000 0.500000
O O12 0.749127 0.250000 0.041947
O O13 0.574583 0.461221 0.892072
O O14 0.735348 0.500517 0.947964
O O15 0.505444 0.250000 0.202429
O O16 0.630936 0.463080 0.420286
O O17 0.330324 0.750000 0.208507
O O18 0.474183 0.498261 0.374528
O O19 0.622702 0.250000 0.523136
#
# Coordination Sequence:
#
# PCOD8071599 Si02
#       7
#     4   4   4   4   4   4   4
#     4  12  25  42  61  84 115 149 185 227 283 340
#     4  10  19  33  55  81 110 144 186 231 276 324
#     4  10  21  36  52  76 112 150 189 230 275 327
#     4   9  18  34  56  81 112 145 184 230 274 323
#     4   9  18  32  55  85 113 141 182 231 277 323
#     4  10  20  37  62  88 114 147 189 233 279 332
#     4  10  20  37  60  87 118 149 188 232 276 332
#
# _framework density 18.988942000000002
#
# number of rings (size 3 to 8) (size 9 to 14) (size 15 to 20)
#    0.000    2.000    1.429    2.571    0.000    2.286 
#    2.571    0.000    0.000    0.000    0.000    0.000 
#    0.000    0.000    0.000    0.000    0.000    0.000 
#
# Total GULP energy -347023.097013 kJ/mol
# GULP energy per Si atom -12393.682036 kJ/mol
# Density = 1.894572 g / cm^3
# Si number density = 18.988942 Si / 1000 Ang^3
#
#
#
# Elastic Constant Matrix: (Units=GPa)
#
#
# Indices 1 2 3 4 5 6 
#
# 1 140.2873 28.9992 82.9846 0.0000 -4.5928 0.0000
# 2 28.9992 45.0436 23.4983 0.0000 0.9133 0.0000
# 3 82.9846 23.4983 148.2013 0.0000 -3.4776 0.0000
# 4 0.0000 0.0000 0.0000 32.4370 0.0000 2.8065
# 5 -4.5928 0.9133 -3.4776 0.0000 33.2825 0.0000
# 6 0.0000 0.0000 0.0000 2.8065 0.0000 22.5932
#
#
#
# Elastic Compliance Matrix: (Units=1/GPa)
#
#
# Indices 1 2 3 4 5 6 
#
# 1 0.011437 -0.004424 -0.005677 0.000000 0.001106 0.000000
# 2 -0.004424 0.025952 -0.001673 0.000000 -0.001497 0.000000
# 3 -0.005677 -0.001673 0.010199 0.000000 0.000328 0.000000
# 4 0.000000 0.000000 0.000000 0.031164 0.000000 -0.003871
# 5 0.001106 -0.001497 0.000328 0.000000 0.030274 0.000000
# 6 0.000000 0.000000 0.000000 -0.003871 0.000000 0.044742
#
#
# Mechanical properties :
#
#
# Convention : Reuss Voigt Hill
#
# Bulk Modulus (GPa) = 41.59558 67.16626 54.38092
# Shear Modulus (GPa) = 26.97914 30.86587 28.92251
#
# Velocity S-wave (km/s) = 3.77342 4.03608 3.90696
# Velocity P-wave (km/s) = 6.39825 7.56095 7.00377
#
# Compressibility (1/GPa) = 0.02404102
#
# Stress axis : x y z
#
# Youngs Moduli (GPa) = 87.43644 38.53271 98.04809
#
# Poissons Ratio (x) = 0.17048 0.55658
# Poissons Ratio (y) = 0.38683 0.16400
# Poissons Ratio (z) = 0.49634 0.06445
#
# Static dielectric constant tensor:
#      x y z
#    x 3.610440 0.000000 -0.457250 
#    y 0.000000 3.403250 0.000000 
#    z -0.457250 0.000000 3.093850 
# 
# 
# High freq. dielectric constant tensor:
#      x y z
#    x 1.751220 0.000000 -0.020420 
#    y 0.000000 1.735210 0.000000 
#    z -0.020420 0.000000 1.728000 
# 
# From -- ./inp_files/61306.got.cif
#   From: 2010.06.25/outbox.cif.g09.slc.cpg/sg11_31_cif.got.tgz:61306.got - 2010.06.27 23:14:04.
