data_PCOD8071282
_publ_section_title
;
Structure prediction by ZEFSAII (Michael W. Deem and Ramdas Pophale) SiO2 
 PCOD8071282
Probable space group: P 21/M
;
_chemical_formula_sum "Si O2"
_cell_formula_units_Z 32
_cell_length_a 30.305966
_cell_length_b 9.460242
_cell_length_c 11.540180
_cell_angle_alpha 90.000000
_cell_angle_beta 152.244097
_cell_angle_gamma 90.000000
_cell_volume 1540.829234
_symmetry_space_group_name_H-M "P 21/M"
_symmetry_group_IT_number 11
_symmetry_cell_setting 'monoclinic'
loop_
_space_group_symop_operation_xyz
x,y,z
-x,1/2+y,-z
-x,-y,-z
x,1/2-y,z
loop_
_atom_site_type_symbol
_atom_site_label
_atom_site_fract_x
_atom_site_fract_y
_atom_site_fract_z
Si Si1 0.286579 0.916787 0.990705
Si Si2 0.878502 0.591778 0.298767
Si Si3 0.045182 0.595513 0.826818
Si Si4 0.362044 0.588869 0.413044
Si Si5 0.077661 0.407243 0.242954
Si Si6 0.465177 0.411299 0.028303
Si Si7 0.290210 0.082738 0.771494
Si Si8 0.201626 0.091690 0.139193
O O1 0.283427 0.750000 0.958298
O O2 0.353958 0.953164 0.258394
O O3 0.181767 0.972762 0.774737
O O4 0.324850 0.997552 0.965868
O O5 0.850914 0.750000 0.279837
O O6 0.991333 0.564321 0.579872
O O7 0.857437 0.584958 0.114984
O O8 0.093974 0.750000 0.938644
O O9 0.954661 0.592855 0.699953
O O10 0.128723 0.486503 0.057510
O O11 0.326792 0.750000 0.346370
O O12 0.468707 0.568041 0.704853
O O13 0.299661 0.490124 0.352222
O O14 0.075493 0.250000 0.184000
O O15 0.185053 0.466829 0.487441
O O16 0.000000 0.500000 0.000000
O O17 0.466775 0.250000 0.990098
O O18 0.500000 0.500000 0.000000
O O19 0.360191 0.454951 0.827222
O O20 0.292925 0.250000 0.805777
O O21 0.222897 0.250000 0.232934
#
# Coordination Sequence:
#
# PCOD8071282 Si02
#       8
#     4   4   4   4   4   4   4   4
#     4  10  19  32  57  90 122 154 193 240 290 351
#     4   9  17  32  51  75 113 153 190 229 282 341
#     4  10  19  33  52  74 109 154 190 231 288 340
#     4   9  20  39  58  85 124 159 192 239 301 353
#     4  10  22  39  58  81 112 149 191 237 287 343
#     4  10  23  43  67  89 116 154 196 244 296 351
#     4  10  21  41  64  86 116 155 193 239 301 355
#     4  10  20  31  51  83 114 150 192 234 276 332
#
# _framework density 20.768039000000002
#
# number of rings (size 3 to 8) (size 9 to 14) (size 15 to 20)
#    0.000    2.250    1.250    1.125    0.000    5.000 
#    0.000    2.500    0.000    0.000    0.000    0.000 
#    0.000    0.000    0.000    0.000    0.000    0.000 
#
# Total GULP energy -396597.313627 kJ/mol
# GULP energy per Si atom -12393.666051 kJ/mol
# Density = 2.072077 g / cm^3
# Si number density = 20.768039 Si / 1000 Ang^3
#
#
#
# Elastic Constant Matrix: (Units=GPa)
#
#
# Indices 1 2 3 4 5 6 
#
# 1 86.4121 44.5049 44.4691 0.0000 18.2851 0.0000
# 2 44.5049 97.2675 45.5911 0.0000 9.4811 0.0000
# 3 44.4691 45.5911 100.2015 0.0000 11.8254 0.0000
# 4 0.0000 0.0000 0.0000 29.2314 0.0000 -0.5279
# 5 18.2851 9.4811 11.8254 0.0000 30.0516 0.0000
# 6 0.0000 0.0000 0.0000 -0.5279 0.0000 34.2810
#
#
#
# Elastic Compliance Matrix: (Units=1/GPa)
#
#
# Indices 1 2 3 4 5 6 
#
# 1 0.018473 -0.005451 -0.004818 0.000000 -0.007624 0.000000
# 2 -0.005451 0.014777 -0.004348 0.000000 0.000365 0.000000
# 3 -0.004818 -0.004348 0.014250 0.000000 -0.001304 0.000000
# 4 0.000000 0.000000 0.000000 0.034219 0.000000 0.000527
# 5 -0.007624 0.000365 -0.001304 0.000000 0.038313 0.000000
# 6 0.000000 0.000000 0.000000 0.000527 0.000000 0.029179
#
#
# Mechanical properties :
#
#
# Convention : Reuss Voigt Hill
#
# Bulk Modulus (GPa) = 54.74384 61.44569 58.09476
# Shear Modulus (GPa) = 27.09543 28.66720 27.88132
#
# Velocity S-wave (km/s) = 3.61594 3.71934 3.66800
# Velocity P-wave (km/s) = 6.62195 6.93509 6.78033
#
# Compressibility (1/GPa) = 0.01826690
#
# Stress axis : x y z
#
# Youngs Moduli (GPa) = 54.13443 67.67243 70.17405
#
# Poissons Ratio (x) = 0.36885 0.33812
# Poissons Ratio (y) = 0.29506 0.30509
# Poissons Ratio (z) = 0.26084 0.29421
#
# Static dielectric constant tensor:
#      x y z
#    x 3.747580 0.000000 -0.020520 
#    y 0.000000 3.911070 0.000000 
#    z -0.020520 0.000000 3.688240 
# 
# 
# High freq. dielectric constant tensor:
#      x y z
#    x 1.800650 0.000000 -0.001260 
#    y 0.000000 1.810140 0.000000 
#    z -0.001260 0.000000 1.809530 
# 
# From -- ./inp_files/45377.got.cif
#   From: 2010.06.25/outbox.cif.g09.slc.cpg/sg11_23_cif.got.tgz:45377.got - 2010.06.27 23:14:04.
