data_PCOD8071902
_publ_section_title
;
Structure prediction by ZEFSAII (Michael W. Deem and Ramdas Pophale) SiO2 
 PCOD8071902
Probable space group: P 21/M
;
_chemical_formula_sum "Si O2"
_cell_formula_units_Z 20
_cell_length_a 11.705302
_cell_length_b 9.129662
_cell_length_c 14.494565
_cell_angle_alpha 90.000000
_cell_angle_beta 44.914763
_cell_angle_gamma 90.000000
_cell_volume 1093.655304
_symmetry_space_group_name_H-M "P 21/M"
_symmetry_group_IT_number 11
_symmetry_cell_setting 'monoclinic'
loop_
_space_group_symop_operation_xyz
x,y,z
-x,1/2+y,-z
-x,-y,-z
x,1/2-y,z
loop_
_atom_site_type_symbol
_atom_site_label
_atom_site_fract_x
_atom_site_fract_y
_atom_site_fract_z
Si Si1 0.766190 0.414923 0.266991
Si Si2 0.777072 0.415064 0.463812
Si Si3 0.393203 0.578455 0.985741
Si Si4 0.502824 0.577366 0.719722
Si Si5 0.023798 0.923187 0.215630
O O1 0.816972 0.250000 0.208596
O O2 0.686620 0.412886 0.415536
O O3 0.638959 0.479697 0.266882
O O4 0.927411 0.516671 0.179945
O O5 0.813173 0.250000 0.477523
O O6 0.669222 0.496231 0.601118
O O7 0.947277 0.502219 0.351767
O O8 0.408751 0.750000 0.992574
O O9 0.208593 0.527167 0.101808
O O10 0.500000 0.500000 0.000000
O O11 0.455809 0.532957 0.849540
O O12 0.528541 0.750000 0.691973
O O13 0.003756 0.750000 0.232758
#
# Coordination Sequence:
#
# PCOD8071902 Si02
#       5
#     4   4   4   4   4
#     4   8  17  31  52  81 113 138 168 211 258 313
#     4   9  18  32  52  83 112 139 172 209 257 315
#     4  10  23  40  57  76 102 139 182 223 264 309
#     4  10  19  34  55  80 109 141 174 213 262 312
#     4   9  18  34  54  77 108 141 172 211 263 315
#
# _framework density 18.287296999999999
#
# number of rings (size 3 to 8) (size 9 to 14) (size 15 to 20)
#    1.200    1.600    0.000    1.200    0.000    4.000 
#    0.000    1.000    0.000    0.000    0.000    0.000 
#    0.000    0.000    0.000    0.000    0.000    0.000 
#
# Total GULP energy -247838.005477 kJ/mol
# GULP energy per Si atom -12391.900274 kJ/mol
# Density = 1.824567 g / cm^3
# Si number density = 18.287297 Si / 1000 Ang^3
#
#
#
# Elastic Constant Matrix: (Units=GPa)
#
#
# Indices 1 2 3 4 5 6 
#
# 1 57.5153 33.8773 68.3564 0.0000 1.1220 0.0000
# 2 33.8773 76.2857 60.1259 0.0000 -4.5785 0.0000
# 3 68.3564 60.1259 147.4188 0.0000 -8.7591 0.0000
# 4 0.0000 0.0000 0.0000 25.2185 0.0000 -1.0073
# 5 1.1220 -4.5785 -8.7591 0.0000 7.2477 0.0000
# 6 0.0000 0.0000 0.0000 -1.0073 0.0000 26.2409
#
#
#
# Elastic Compliance Matrix: (Units=1/GPa)
#
#
# Indices 1 2 3 4 5 6 
#
# 1 0.047764 -0.006268 -0.021834 0.000000 -0.037741 0.000000
# 2 -0.006268 0.020198 -0.004865 0.000000 0.007850 0.000000
# 3 -0.021834 -0.004865 0.020373 0.000000 0.024928 0.000000
# 4 0.000000 0.000000 0.000000 0.039714 0.000000 0.001525
# 5 -0.037741 0.007850 0.024928 0.000000 0.178904 0.000000
# 6 0.000000 0.000000 0.000000 0.001525 0.000000 0.038167
#
#
# Mechanical properties :
#
#
# Convention : Reuss Voigt Hill
#
# Bulk Modulus (GPa) = 44.64012 67.32656 55.98334
# Shear Modulus (GPa) = 11.94689 19.66542 15.80616
#
# Velocity S-wave (km/s) = 2.55872 3.28283 2.94313
# Velocity P-wave (km/s) = 5.76133 7.15997 6.49839
#
# Compressibility (1/GPa) = 0.02240137
#
# Stress axis : x y z
#
# Youngs Moduli (GPa) = 20.93641 49.51069 49.08523
#
# Poissons Ratio (x) = 0.31032 1.07170
# Poissons Ratio (y) = 0.13122 0.23880
# Poissons Ratio (z) = 0.45712 0.24087
#
# Static dielectric constant tensor:
#      x y z
#    x 3.124930 0.000000 -0.059530 
#    y 0.000000 3.299740 0.000000 
#    z -0.059530 0.000000 3.267980 
# 
# 
# High freq. dielectric constant tensor:
#      x y z
#    x 1.683560 0.000000 -0.006930 
#    y 0.000000 1.709930 0.000000 
#    z -0.006930 0.000000 1.700810 
# 
# From -- ./inp_files/37276.got.cif
#   From: 2010.06.25/outbox.cif.g09.slc.cpg/sg11_19_cif.got.tgz:37276.got - 2010.06.27 23:14:04.
