data_PCOD8071838
_publ_section_title
;
Structure prediction by ZEFSAII (Michael W. Deem and Ramdas Pophale) SiO2 
 PCOD8071838
Probable space group: P 21/M
;
_chemical_formula_sum "Si O2"
_cell_formula_units_Z 28
_cell_length_a 27.752408
_cell_length_b 9.321493
_cell_length_c 9.494164
_cell_angle_alpha 90.000000
_cell_angle_beta 140.733220
_cell_angle_gamma 90.000000
_cell_volume 1554.533184
_symmetry_space_group_name_H-M "P 21/M"
_symmetry_group_IT_number 11
_symmetry_cell_setting 'monoclinic'
loop_
_space_group_symop_operation_xyz
x,y,z
-x,1/2+y,-z
-x,-y,-z
x,1/2-y,z
loop_
_atom_site_type_symbol
_atom_site_label
_atom_site_fract_x
_atom_site_fract_y
_atom_site_fract_z
Si Si1 0.076156 0.416631 0.206647
Si Si2 0.405706 0.582213 0.406867
Si Si3 0.792186 0.584076 0.717803
Si Si4 0.177292 0.585846 0.637070
Si Si5 0.545821 0.083089 0.794374
Si Si6 0.234258 0.918133 0.071687
Si Si7 0.307518 0.914012 0.710810
O O1 0.058524 0.250000 0.192788
O O2 0.132969 0.440239 0.205476
O O3 0.112284 0.481898 0.430143
O O4 0.000000 0.500000 0.000000
O O5 0.416419 0.750000 0.453316
O O6 0.417668 0.537564 0.271968
O O7 0.467872 0.503000 0.645419
O O8 0.321977 0.532603 0.262960
O O9 0.774811 0.750000 0.703822
O O10 0.807295 0.506575 0.900031
O O11 0.718958 0.515245 0.475791
O O12 0.149284 0.750000 0.559788
O O13 0.256029 0.564291 0.732395
O O14 0.191520 0.543555 0.830529
O O15 0.526163 0.250000 0.750760
O O16 0.606295 0.044534 0.053065
O O17 0.228150 0.750000 0.089971
O O18 0.302593 0.750000 0.647007
#
# Coordination Sequence:
#
# PCOD8071838 Si02
#       7
#     4   4   4   4   4   4   4
#     4  10  21  38  59  83 108 134 167 207 251 303
#     4   9  17  29  46  72 104 135 171 217 261 304
#     4  10  22  36  52  78 109 135 167 213 259 303
#     4   9  17  32  56  81 104 134 173 214 253 301
#     4   9  16  28  47  73 101 132 174 220 263 305
#     4  10  19  34  54  77 106 141 177 210 255 313
#     4   9  16  31  53  74  99 135 178 218 258 309
#
# _framework density 18.011835999999999
#
# number of rings (size 3 to 8) (size 9 to 14) (size 15 to 20)
#    0.000    2.571    1.429    0.857    0.000    3.429 
#    0.000    1.429    0.000    0.000    0.000    0.000 
#    0.000    0.000    0.000    0.000    0.000    0.000 
#
# Total GULP energy -347242.893752 kJ/mol
# GULP energy per Si atom -12401.531920 kJ/mol
# Density = 1.797084 g / cm^3
# Si number density = 18.011836 Si / 1000 Ang^3
#
#
#
# Elastic Constant Matrix: (Units=GPa)
#
#
# Indices 1 2 3 4 5 6 
#
# 1 56.9783 47.3754 53.2578 0.0000 -10.3100 0.0000
# 2 47.3754 97.5397 79.8917 0.0000 -1.3305 0.0000
# 3 53.2578 79.8917 140.4732 0.0000 2.7017 0.0000
# 4 0.0000 0.0000 0.0000 35.3275 0.0000 1.2408
# 5 -10.3100 -1.3305 2.7017 0.0000 30.1905 0.0000
# 6 0.0000 0.0000 0.0000 1.2408 0.0000 27.8797
#
#
#
# Elastic Compliance Matrix: (Units=1/GPa)
#
#
# Indices 1 2 3 4 5 6 
#
# 1 0.036258 -0.011198 -0.007619 0.000000 0.012570 0.000000
# 2 -0.011198 0.022752 -0.008655 0.000000 -0.002047 0.000000
# 3 -0.007619 -0.008655 0.015013 0.000000 -0.004327 0.000000
# 4 0.000000 0.000000 0.000000 0.028351 0.000000 -0.001262
# 5 0.012570 -0.002047 -0.004327 0.000000 0.037713 0.000000
# 6 0.000000 0.000000 0.000000 -0.001262 0.000000 0.035925
#
#
# Mechanical properties :
#
#
# Convention : Reuss Voigt Hill
#
# Bulk Modulus (GPa) = 52.41639 72.89347 62.65493
# Shear Modulus (GPa) = 21.06887 26.31063 23.68975
#
# Velocity S-wave (km/s) = 3.42383 3.82611 3.63055
# Velocity P-wave (km/s) = 6.69286 7.75090 7.24123
#
# Compressibility (1/GPa) = 0.01907800
#
# Stress axis : x y z
#
# Youngs Moduli (GPa) = 27.58008 43.95131 66.60794
#
# Poissons Ratio (x) = 0.49218 0.50752
# Poissons Ratio (y) = 0.30885 0.57650
# Poissons Ratio (z) = 0.21015 0.38040
#
# Static dielectric constant tensor:
#      x y z
#    x 3.115030 0.000000 0.005770 
#    y 0.000000 3.319460 0.000000 
#    z 0.005770 0.000000 3.401850 
# 
# 
# High freq. dielectric constant tensor:
#      x y z
#    x 1.673510 0.000000 -0.001180 
#    y 0.000000 1.695120 0.000000 
#    z -0.001180 0.000000 1.700690 
# 
# From -- ./inp_files/28345.got.cif
#   From: 2010.06.25/outbox.cif.g09.slc.cpg/sg11_15_cif.got.tgz:28345.got - 2010.06.27 23:14:04.
