data_PCOD8071511
_publ_section_title
;
Structure prediction by ZEFSAII (Michael W. Deem and Ramdas Pophale) SiO2 
 PCOD8071511
Probable space group: P 21/M
;
_chemical_formula_sum "Si O2"
_cell_formula_units_Z 32
_cell_length_a 13.476201
_cell_length_b 14.360599
_cell_length_c 19.501858
_cell_angle_alpha 90.000000
_cell_angle_beta 28.487783
_cell_angle_gamma 90.000000
_cell_volume 1800.148485
_symmetry_space_group_name_H-M "P 21/M"
_symmetry_group_IT_number 11
_symmetry_cell_setting 'monoclinic'
loop_
_space_group_symop_operation_xyz
x,y,z
-x,1/2+y,-z
-x,-y,-z
x,1/2-y,z
loop_
_atom_site_type_symbol
_atom_site_label
_atom_site_fract_x
_atom_site_fract_y
_atom_site_fract_z
Si Si1 0.031694 0.980863 0.372144
Si Si2 0.920688 0.564136 0.107643
Si Si3 0.701684 0.355804 0.043513
Si Si4 0.253687 0.503269 0.650066
Si Si5 0.973192 0.359135 0.752208
Si Si6 0.528724 0.852667 0.278715
Si Si7 0.865671 0.142920 0.388244
Si Si8 0.344912 0.007567 0.301840
O O1 0.079237 0.897362 0.291076
O O2 0.812643 0.959943 0.542835
O O3 0.218616 0.976923 0.311937
O O4 0.024800 0.081551 0.337951
O O5 0.829314 0.497037 0.222101
O O6 0.746331 0.631775 0.183880
O O7 0.000000 0.500000 0.000000
O O8 0.108402 0.627102 0.020309
O O9 0.633240 0.250000 0.090118
O O10 0.497072 0.410380 0.188878
O O11 0.776534 0.380774 0.920981
O O12 0.500000 0.500000 0.500000
O O13 0.160350 0.595929 0.670677
O O14 0.177993 0.411077 0.655902
O O15 0.023699 0.250000 0.718759
O O16 0.526940 0.750000 0.247084
O O17 0.357849 0.861260 0.441298
O O18 0.486849 0.922583 0.241656
O O19 0.946541 0.250000 0.332535
#
# Coordination Sequence:
#
# PCOD8071511 Si02
#       8
#     4   4   4   4   4   4   4   4
#     4   9  20  36  57  81 109 140 178 231 274 313
#     4  11  20  34  55  77 111 143 173 220 269 321
#     4  10  21  36  55  79 108 144 181 217 268 327
#     4  10  19  33  54  79 107 139 181 221 265 314
#     4   9  20  36  55  79 108 142 182 221 267 324
#     4  10  19  33  55  78 105 144 183 217 265 324
#     4   9  18  34  55  79 106 141 181 221 267 320
#     4  10  20  36  56  82 109 139 182 228 272 316
#
# _framework density 17.776312000000001
#
# number of rings (size 3 to 8) (size 9 to 14) (size 15 to 20)
#    0.000    2.250    2.500    0.375    0.000    3.000 
#    0.000    3.750    0.000    0.000    0.000    0.000 
#    0.000    0.000    0.000    0.000    0.000    0.000 
#
# Total GULP energy -396790.939052 kJ/mol
# GULP energy per Si atom -12399.716845 kJ/mol
# Density = 1.773585 g / cm^3
# Si number density = 17.776312 Si / 1000 Ang^3
#
#
#
# Elastic Constant Matrix: (Units=GPa)
#
#
# Indices 1 2 3 4 5 6 
#
# 1 111.6254 50.9660 51.4412 0.0000 12.3575 0.0000
# 2 50.9660 124.4645 53.1136 0.0000 14.2003 0.0000
# 3 51.4412 53.1136 77.3783 0.0000 5.0430 0.0000
# 4 0.0000 0.0000 0.0000 27.8256 0.0000 6.3634
# 5 12.3575 14.2003 5.0430 0.0000 24.4865 0.0000
# 6 0.0000 0.0000 0.0000 6.3634 0.0000 12.3641
#
#
#
# Elastic Compliance Matrix: (Units=1/GPa)
#
#
# Indices 1 2 3 4 5 6 
#
# 1 0.013805 -0.001933 -0.007571 0.000000 -0.004287 0.000000
# 2 -0.001933 0.012285 -0.006839 0.000000 -0.004741 0.000000
# 3 -0.007571 -0.006839 0.022445 0.000000 0.003164 0.000000
# 4 0.000000 0.000000 0.000000 0.040732 0.000000 -0.020963
# 5 -0.004287 -0.004741 0.003164 0.000000 0.045100 0.000000
# 6 0.000000 0.000000 0.000000 -0.020963 0.000000 0.091669
#
#
# Mechanical properties :
#
#
# Convention : Reuss Voigt Hill
#
# Bulk Modulus (GPa) = 63.09565 69.38999 66.24282
# Shear Modulus (GPa) = 18.93911 23.46506 21.20208
#
# Velocity S-wave (km/s) = 3.26761 3.63715 3.45732
# Velocity P-wave (km/s) = 7.05745 7.53381 7.29952
#
# Compressibility (1/GPa) = 0.01584895
#
# Stress axis : x y z
#
# Youngs Moduli (GPa) = 72.43906 81.39962 44.55337
#
# Poissons Ratio (x) = 0.15732 0.33733
# Poissons Ratio (y) = 0.14001 0.30469
# Poissons Ratio (z) = 0.54846 0.55668
#
# Static dielectric constant tensor:
#      x y z
#    x 3.355600 0.000000 0.081830 
#    y 0.000000 3.327910 0.000000 
#    z 0.081830 0.000000 3.267700 
# 
# 
# High freq. dielectric constant tensor:
#      x y z
#    x 1.694800 0.000000 0.002550 
#    y 0.000000 1.684640 0.000000 
#    z 0.002550 0.000000 1.680900 
# 
# From -- ./inp_files/27804.got.cif
#   From: 2010.06.25/outbox.cif.g09.slc.cpg/sg11_14_cif.got.tgz:27804.got - 2010.06.27 23:14:04.
