data_PCOD8071768
_publ_section_title
;
Structure prediction by ZEFSAII (Michael W. Deem and Ramdas Pophale) SiO2 
 PCOD8071768
Probable space group: P 21/M
;
_chemical_formula_sum "Si O2"
_cell_formula_units_Z 28
_cell_length_a 10.015334
_cell_length_b 8.594715
_cell_length_c 29.730440
_cell_angle_alpha 90.000000
_cell_angle_beta 33.729718
_cell_angle_gamma 90.000000
_cell_volume 1421.042457
_symmetry_space_group_name_H-M "P 21/M"
_symmetry_group_IT_number 11
_symmetry_cell_setting 'monoclinic'
loop_
_space_group_symop_operation_xyz
x,y,z
-x,1/2+y,-z
-x,-y,-z
x,1/2-y,z
loop_
_atom_site_type_symbol
_atom_site_label
_atom_site_fract_x
_atom_site_fract_y
_atom_site_fract_z
Si Si1 0.844798 0.070964 0.258524
Si Si2 0.104770 0.070899 0.407976
Si Si3 0.631089 0.431597 0.006444
Si Si4 0.827227 0.929448 0.168557
Si Si5 0.603580 0.570410 0.760018
Si Si6 0.625782 0.428418 0.586643
Si Si7 0.691595 0.068843 0.829897
O O1 0.915358 0.250000 0.244978
O O2 0.777347 0.036317 0.225778
O O3 0.612451 0.031781 0.354240
O O4 0.068893 0.964676 0.208954
O O5 0.153535 0.250000 0.408342
O O6 0.820942 0.032463 0.493155
O O7 0.181206 0.037822 0.335483
O O8 0.258907 0.960899 0.397004
O O9 0.571318 0.250000 0.025972
O O10 0.538818 0.515238 0.077149
O O11 0.500000 0.500000 0.000000
O O12 0.913260 0.465562 0.924908
O O13 0.806126 0.750000 0.188862
O O14 0.631296 0.969689 0.185702
O O15 0.528224 0.750000 0.781026
O O16 0.705168 0.523769 0.779733
O O17 0.545319 0.250000 0.607559
O O18 0.670831 0.250000 0.825534
#
# Coordination Sequence:
#
# PCOD8071768 Si02
#       7
#     4   4   4   4   4   4   4
#     4  12  23  38  61  90 122 159 205 252 304 361
#     4   9  19  35  57  88 123 160 199 248 303 358
#     4  11  23  40  64  92 124 158 202 252 304 358
#     4  11  23  39  63  93 122 158 202 249 300 359
#     4  11  23  41  63  90 125 163 203 248 306 365
#     4  10  19  33  58  90 123 156 201 252 300 356
#     4  12  26  43  63  88 122 162 205 252 309 367
#
# _framework density 19.703844
#
# number of rings (size 3 to 8) (size 9 to 14) (size 15 to 20)
#    0.000    1.143    2.857    4.286    0.000    3.429 
#    0.000    0.714    0.000    0.000    0.000    0.000 
#    0.000    0.000    0.000    0.000    0.000    0.000 
#
# Total GULP energy -347368.372231 kJ/mol
# GULP energy per Si atom -12406.013294 kJ/mol
# Density = 1.965900 g / cm^3
# Si number density = 19.703844 Si / 1000 Ang^3
#
#
#
# Elastic Constant Matrix: (Units=GPa)
#
#
# Indices 1 2 3 4 5 6 
#
# 1 52.6405 15.0483 30.2089 0.0000 6.8892 0.0000
# 2 15.0483 78.3732 49.3414 0.0000 -1.7389 0.0000
# 3 30.2089 49.3414 137.0457 0.0000 -0.3519 0.0000
# 4 0.0000 0.0000 0.0000 30.7409 0.0000 -0.7817
# 5 6.8892 -1.7389 -0.3519 0.0000 34.3793 0.0000
# 6 0.0000 0.0000 0.0000 -0.7817 0.0000 33.2291
#
#
#
# Elastic Compliance Matrix: (Units=1/GPa)
#
#
# Indices 1 2 3 4 5 6 
#
# 1 0.022606 -0.001680 -0.004390 0.000000 -0.004660 0.000000
# 2 -0.001680 0.016645 -0.005620 0.000000 0.001121 0.000000
# 3 -0.004390 -0.005620 0.010290 0.000000 0.000701 0.000000
# 4 0.000000 0.000000 0.000000 0.032549 0.000000 0.000766
# 5 -0.004660 0.001121 0.000701 0.000000 0.030085 0.000000
# 6 0.000000 0.000000 0.000000 0.000766 0.000000 0.030112
#
#
# Mechanical properties :
#
#
# Convention : Reuss Voigt Hill
#
# Bulk Modulus (GPa) = 38.22456 50.80628 44.51542
# Shear Modulus (GPa) = 28.67186 31.23393 29.95290
#
# Velocity S-wave (km/s) = 3.81877 3.98574 3.90315
# Velocity P-wave (km/s) = 6.23584 6.85729 6.55393
#
# Compressibility (1/GPa) = 0.02616119
#
# Stress axis : x y z
#
# Youngs Moduli (GPa) = 44.23546 60.07887 97.18569
#
# Poissons Ratio (x) = 0.10094 0.42666
# Poissons Ratio (y) = 0.07432 0.54614
# Poissons Ratio (z) = 0.19420 0.33761
#
# Static dielectric constant tensor:
#      x y z
#    x 3.246660 0.000000 -0.088760 
#    y 0.000000 3.644750 0.000000 
#    z -0.088760 0.000000 3.907030 
# 
# 
# High freq. dielectric constant tensor:
#      x y z
#    x 1.740460 0.000000 -0.008930 
#    y 0.000000 1.779420 0.000000 
#    z -0.008930 0.000000 1.786350 
# 
# From -- ./inp_files/70851.got.cif
#   From: 2010.06.25/outbox.cif.g09.slc.cpg/sg11_36_cif.got.tgz:70851.got - 2010.06.27 23:14:04.
