data_PCOD8071686
_publ_section_title
;
Structure prediction by ZEFSAII (Michael W. Deem and Ramdas Pophale) SiO2 
 PCOD8071686
Probable space group: P 21/M
;
_chemical_formula_sum "Si O2"
_cell_formula_units_Z 32
_cell_length_a 22.624159
_cell_length_b 8.886568
_cell_length_c 11.396765
_cell_angle_alpha 90.000000
_cell_angle_beta 46.634220
_cell_angle_gamma 90.000000
_cell_volume 1665.764106
_symmetry_space_group_name_H-M "P 21/M"
_symmetry_group_IT_number 11
_symmetry_cell_setting 'monoclinic'
loop_
_space_group_symop_operation_xyz
x,y,z
-x,1/2+y,-z
-x,-y,-z
x,1/2-y,z
loop_
_atom_site_type_symbol
_atom_site_label
_atom_site_fract_x
_atom_site_fract_y
_atom_site_fract_z
Si Si1 0.267456 0.074906 0.172118
Si Si2 0.601704 0.573721 0.612766
Si Si3 0.435379 0.422073 0.820789
Si Si4 0.339351 0.074782 0.723654
Si Si5 0.115234 0.422950 0.755925
Si Si6 0.261095 0.927052 0.427225
Si Si7 0.063171 0.921037 0.056277
Si Si8 0.198752 0.923088 0.046456
O O1 0.252438 0.250000 0.214915
O O2 0.245551 0.985072 0.317963
O O3 0.206805 0.021754 0.152283
O O4 0.359916 0.041947 0.008440
O O5 0.611220 0.750000 0.617308
O O6 0.508353 0.529328 0.759740
O O7 0.629636 0.522747 0.445384
O O8 0.655337 0.493639 0.637579
O O9 0.463504 0.250000 0.795896
O O10 0.410559 0.456560 0.720441
O O11 0.314470 0.250000 0.760910
O O12 0.260931 0.976246 0.860935
O O13 0.143676 0.250000 0.710790
O O14 0.185957 0.526362 0.610105
O O15 0.032751 0.451255 0.794167
O O16 0.099738 0.464320 0.912065
O O17 0.268705 0.750000 0.415333
O O18 0.076343 0.750000 0.992799
O O19 0.107970 0.945394 0.119395
O O20 0.216967 0.750000 0.052263
#
# Coordination Sequence:
#
# PCOD8071686 Si02
#       8
#     4   4   4   4   4   4   4   4
#     4  10  22  41  60  78 105 142 184 228 273 321
#     4  11  22  35  55  82 110 143 183 225 273 327
#     4   9  19  36  56  79 108 140 177 225 275 322
#     4   9  19  34  52  79 114 148 181 219 266 320
#     4  10  20  36  58  84 116 149 181 221 269 319
#     4  12  25  40  57  78 107 143 185 229 275 325
#     4   9  19  35  57  87 119 148 179 218 266 322
#     4  10  19  33  56  84 111 142 181 222 268 321
#
# _framework density 19.210401999999998
#
# number of rings (size 3 to 8) (size 9 to 14) (size 15 to 20)
#    0.000    2.000    0.000    4.500    0.000    7.500 
#    0.000    0.625    0.000    0.000    0.000    0.000 
#    0.000    0.000    0.000    0.000    0.000    0.000 
#
# Total GULP energy -396936.425867 kJ/mol
# GULP energy per Si atom -12404.263308 kJ/mol
# Density = 1.916668 g / cm^3
# Si number density = 19.210402 Si / 1000 Ang^3
#
#
#
# Elastic Constant Matrix: (Units=GPa)
#
#
# Indices 1 2 3 4 5 6 
#
# 1 107.1020 40.7558 23.8680 0.0000 -9.9635 0.0000
# 2 40.7558 90.8458 20.4688 0.0000 -3.1095 0.0000
# 3 23.8680 20.4688 29.7756 0.0000 2.4313 0.0000
# 4 0.0000 0.0000 0.0000 32.9096 0.0000 0.5852
# 5 -9.9635 -3.1095 2.4313 0.0000 21.9355 0.0000
# 6 0.0000 0.0000 0.0000 0.5852 0.0000 31.4432
#
#
#
# Elastic Compliance Matrix: (Units=1/GPa)
#
#
# Indices 1 2 3 4 5 6 
#
# 1 0.013297 -0.003815 -0.008562 0.000000 0.006448 0.000000
# 2 -0.003815 0.014301 -0.006859 0.000000 0.001054 0.000000
# 3 -0.008562 -0.006859 0.045976 0.000000 -0.009957 0.000000
# 4 0.000000 0.000000 0.000000 0.030396 0.000000 -0.000566
# 5 0.006448 0.001054 -0.009957 0.000000 0.049770 0.000000
# 6 0.000000 0.000000 0.000000 -0.000566 0.000000 0.031814
#
#
# Mechanical properties :
#
#
# Convention : Reuss Voigt Hill
#
# Bulk Modulus (GPa) = 28.48924 44.21206 36.35065
# Shear Modulus (GPa) = 21.21104 26.76637 23.98871
#
# Velocity S-wave (km/s) = 3.32647 3.73678 3.53758
# Velocity P-wave (km/s) = 5.44208 6.45621 5.97071
#
# Compressibility (1/GPa) = 0.03510097
#
# Stress axis : x y z
#
# Youngs Moduli (GPa) = 75.20652 69.92642 21.75055
#
# Poissons Ratio (x) = 0.26679 0.18623
# Poissons Ratio (y) = 0.28694 0.14918
# Poissons Ratio (z) = 0.64394 0.47959
#
# Static dielectric constant tensor:
#      x y z
#    x 3.612020 0.000000 -0.025780 
#    y 0.000000 3.543530 0.000000 
#    z -0.025780 0.000000 3.336340 
# 
# 
# High freq. dielectric constant tensor:
#      x y z
#    x 1.755770 0.000000 -0.003540 
#    y 0.000000 1.755350 0.000000 
#    z -0.003540 0.000000 1.728500 
# 
# From -- ./inp_files/42811.got.cif
#   From: 2010.06.25/outbox.cif.g09.slc.cpg/sg11_22_cif.got.tgz:42811.got - 2010.06.27 23:14:04.
