data_PCOD8071488
_publ_section_title
;
Structure prediction by ZEFSAII (Michael W. Deem and Ramdas Pophale) SiO2 
 PCOD8071488
Probable space group: P 21/M
;
_chemical_formula_sum "Si O2"
_cell_formula_units_Z 28
_cell_length_a 15.799894
_cell_length_b 8.851092
_cell_length_c 20.014477
_cell_angle_alpha 90.000000
_cell_angle_beta 147.879551
_cell_angle_gamma 90.000000
_cell_volume 1488.204652
_symmetry_space_group_name_H-M "P 21/M"
_symmetry_group_IT_number 11
_symmetry_cell_setting 'monoclinic'
loop_
_space_group_symop_operation_xyz
x,y,z
-x,1/2+y,-z
-x,-y,-z
x,1/2-y,z
loop_
_atom_site_type_symbol
_atom_site_label
_atom_site_fract_x
_atom_site_fract_y
_atom_site_fract_z
Si Si1 0.531855 0.569642 0.594066
Si Si2 0.428731 0.077155 0.053103
Si Si3 0.045371 0.576750 0.460668
Si Si4 0.644916 0.081052 0.866934
Si Si5 0.828855 0.925101 0.879639
Si Si6 0.706591 0.919323 0.180015
Si Si7 0.666055 0.921518 0.422404
O O1 0.500000 0.500000 0.500000
O O2 0.520000 0.750000 0.582366
O O3 0.708410 0.519263 0.739436
O O4 0.395221 0.510943 0.553169
O O5 0.420447 0.250000 0.071064
O O6 0.345209 0.969511 0.050390
O O7 0.613928 0.033349 0.167021
O O8 0.331607 0.042867 0.921648
O O9 0.093661 0.750000 0.506582
O O10 0.181746 0.496330 0.509678
O O11 0.000000 0.500000 0.500000
O O12 0.893543 0.563113 0.311802
O O13 0.716139 0.250000 0.906463
O O14 0.463640 0.076788 0.722389
O O15 0.745413 0.959998 0.893434
O O16 0.858541 0.750000 0.890710
O O17 0.000000 0.000000 0.000000
O O18 0.649652 0.750000 0.160161
O O19 0.705652 0.750000 0.470818
#
# Coordination Sequence:
#
# PCOD8071488 Si02
#       7
#     4   4   4   4   4   4   4
#     4  10  21  39  63  89 117 153 194 236 289 348
#     4  10  19  33  54  77 102 138 182 223 269 324
#     4  11  22  36  54  78 110 146 185 229 279 331
#     4  10  20  35  56  80 108 142 179 222 274 326
#     4  10  21  38  60  87 116 146 187 234 281 339
#     4   9  20  36  51  72 106 142 177 221 272 324
#     4  10  21  37  57  82 112 146 187 231 276 332
#
# _framework density 18.814615
#
# number of rings (size 3 to 8) (size 9 to 14) (size 15 to 20)
#    0.000    2.000    0.000    3.429    0.000    8.571 
#    2.571    0.000    0.000    0.000    0.000    0.000 
#    0.000    0.000    0.000    0.000    0.000    0.000 
#
# Total GULP energy -347127.186696 kJ/mol
# GULP energy per Si atom -12397.399525 kJ/mol
# Density = 1.877179 g / cm^3
# Si number density = 18.814615 Si / 1000 Ang^3
#
#
#
# Elastic Constant Matrix: (Units=GPa)
#
#
# Indices 1 2 3 4 5 6 
#
# 1 123.3283 54.1066 64.3165 0.0000 -2.8209 0.0000
# 2 54.1066 95.2561 47.4323 0.0000 -0.9555 0.0000
# 3 64.3165 47.4323 96.0154 0.0000 9.8131 0.0000
# 4 0.0000 0.0000 0.0000 30.9783 0.0000 2.6793
# 5 -2.8209 -0.9555 9.8131 0.0000 24.4511 0.0000
# 6 0.0000 0.0000 0.0000 2.6793 0.0000 40.3996
#
#
#
# Elastic Compliance Matrix: (Units=1/GPa)
#
#
# Indices 1 2 3 4 5 6 
#
# 1 0.014125 -0.004015 -0.007955 0.000000 0.004665 0.000000
# 2 -0.004015 0.015348 -0.005116 0.000000 0.002190 0.000000
# 3 -0.007955 -0.005116 0.019172 0.000000 -0.008812 0.000000
# 4 0.000000 0.000000 0.000000 0.032467 0.000000 -0.002153
# 5 0.004665 0.002190 -0.008812 0.000000 0.045059 0.000000
# 6 0.000000 0.000000 0.000000 -0.002153 0.000000 0.024896
#
#
# Mechanical properties :
#
#
# Convention : Reuss Voigt Hill
#
# Bulk Modulus (GPa) = 69.09886 71.81227 70.45557
# Shear Modulus (GPa) = 26.30683 29.08208 27.69445
#
# Velocity S-wave (km/s) = 3.74332 3.93583 3.84078
# Velocity P-wave (km/s) = 7.44911 7.67499 7.56289
#
# Compressibility (1/GPa) = 0.01447202
#
# Stress axis : x y z
#
# Youngs Moduli (GPa) = 70.79402 65.15331 52.15935
#
# Poissons Ratio (x) = 0.26161 0.41494
# Poissons Ratio (y) = 0.28426 0.26686
# Poissons Ratio (z) = 0.56318 0.33335
#
# Static dielectric constant tensor:
#      x y z
#    x 3.404860 0.000000 -0.013570 
#    y 0.000000 3.669030 0.000000 
#    z -0.013570 0.000000 3.639030 
# 
# 
# High freq. dielectric constant tensor:
#      x y z
#    x 1.729790 0.000000 -0.002610 
#    y 0.000000 1.745650 0.000000 
#    z -0.002610 0.000000 1.727140 
# 
# From -- ./inp_files/65423.got.cif
#   From: 2010.06.25/outbox.cif.g09.slc.cpg/sg11_33_cif.got.tgz:65423.got - 2010.06.27 23:14:04.
