data_PCOD8071350
_publ_section_title
;
Structure prediction by ZEFSAII (Michael W. Deem and Ramdas Pophale) SiO2 
 PCOD8071350
Probable space group: P 21/M
;
_chemical_formula_sum "Si O2"
_cell_formula_units_Z 32
_cell_length_a 22.611665
_cell_length_b 9.003362
_cell_length_c 14.426920
_cell_angle_alpha 90.000000
_cell_angle_beta 143.342505
_cell_angle_gamma 90.000000
_cell_volume 1753.505637
_symmetry_space_group_name_H-M "P 21/M"
_symmetry_group_IT_number 11
_symmetry_cell_setting 'monoclinic'
loop_
_space_group_symop_operation_xyz
x,y,z
-x,1/2+y,-z
-x,-y,-z
x,1/2-y,z
loop_
_atom_site_type_symbol
_atom_site_label
_atom_site_fract_x
_atom_site_fract_y
_atom_site_fract_z
Si Si1 0.088446 0.576786 0.942587
Si Si2 0.336165 0.425921 0.947586
Si Si3 0.864219 0.572934 0.660421
Si Si4 0.393369 0.074268 0.371352
Si Si5 0.482684 0.421871 0.881712
Si Si6 0.756047 0.577098 0.977783
Si Si7 0.727654 0.920930 0.330818
Si Si8 0.766555 0.425332 0.710401
O O1 0.087264 0.750000 0.921921
O O2 0.976726 0.516138 0.809594
O O3 0.143112 0.503771 0.924107
O O4 0.144697 0.535130 0.107566
O O5 0.351492 0.250000 0.962956
O O6 0.288155 0.492867 0.791619
O O7 0.445266 0.497958 0.101544
O O8 0.268276 0.473334 0.948323
O O9 0.854853 0.750000 0.663466
O O10 0.823835 0.522753 0.507890
O O11 0.797281 0.489615 0.650663
O O12 0.404292 0.250000 0.399552
O O13 0.334996 0.033992 0.203693
O O14 0.500000 0.000000 0.500000
O O15 0.334158 0.005066 0.383616
O O16 0.511508 0.250000 0.923356
O O17 0.365547 0.444005 0.715755
O O18 0.500000 0.500000 0.000000
O O19 0.777533 0.750000 0.998493
O O20 0.741751 0.750000 0.325390
O O21 0.747628 0.250000 0.680436
#
# Coordination Sequence:
#
# PCOD8071350 Si02
#       8
#     4   4   4   4   4   4   4   4
#     4   9  19  34  52  72  97 127 163 204 247 293
#     4   9  17  32  51  71  95 128 164 199 237 285
#     4  10  19  33  52  74  98 128 163 204 250 293
#     4  10  20  35  53  76 104 133 162 199 242 288
#     4   9  16  28  46  68  93 125 159 194 234 281
#     4   9  19  34  53  73  97 130 167 201 240 288
#     4   8  16  30  48  70  98 127 159 196 241 289
#     4  10  20  34  51  74 100 130 165 201 242 293
#
# _framework density 18.249158000000001
#
# number of rings (size 3 to 8) (size 9 to 14) (size 15 to 20)
#    0.000    2.750    0.000    2.250    0.000    3.000 
#    0.000    6.250    0.000    0.000    0.000    0.000 
#    0.000    0.000    0.000    0.000    0.000    0.000 
#
# Total GULP energy -396619.611193 kJ/mol
# GULP energy per Si atom -12394.362850 kJ/mol
# Density = 1.820762 g / cm^3
# Si number density = 18.249158 Si / 1000 Ang^3
#
#
#
# Elastic Constant Matrix: (Units=GPa)
#
#
# Indices 1 2 3 4 5 6 
#
# 1 133.6578 40.1044 53.9786 0.0000 5.4257 0.0000
# 2 40.1044 50.7578 28.3103 0.0000 7.5753 0.0000
# 3 53.9786 28.3103 87.0983 0.0000 12.5728 0.0000
# 4 0.0000 0.0000 0.0000 19.1441 0.0000 5.2721
# 5 5.4257 7.5753 12.5728 0.0000 25.9834 0.0000
# 6 0.0000 0.0000 0.0000 5.2721 0.0000 32.9889
#
#
#
# Elastic Compliance Matrix: (Units=1/GPa)
#
#
# Indices 1 2 3 4 5 6 
#
# 1 0.011468 -0.006397 -0.005323 0.000000 0.002046 0.000000
# 2 -0.006397 0.027928 -0.004441 0.000000 -0.004658 0.000000
# 3 -0.005323 -0.004441 0.017069 0.000000 -0.005853 0.000000
# 4 0.000000 0.000000 0.000000 0.054640 0.000000 -0.008732
# 5 0.002046 -0.004658 -0.005853 0.000000 0.042249 0.000000
# 6 0.000000 0.000000 0.000000 -0.008732 0.000000 0.031709
#
#
# Mechanical properties :
#
#
# Convention : Reuss Voigt Hill
#
# Bulk Modulus (GPa) = 41.42133 57.36672 49.39402
# Shear Modulus (GPa) = 22.17961 25.56466 23.87213
#
# Velocity S-wave (km/s) = 3.49001 3.74688 3.62072
# Velocity P-wave (km/s) = 6.24397 7.08677 6.67868
#
# Compressibility (1/GPa) = 0.02414215
#
# Stress axis : x y z
#
# Youngs Moduli (GPa) = 87.19806 35.80640 58.58724
#
# Poissons Ratio (x) = 0.22907 0.31188
# Poissons Ratio (y) = 0.55785 0.26016
# Poissons Ratio (z) = 0.46418 0.15900
#
# Static dielectric constant tensor:
#      x y z
#    x 3.510770 0.000000 0.153500 
#    y 0.000000 3.339270 0.000000 
#    z 0.153500 0.000000 3.645660 
# 
# 
# High freq. dielectric constant tensor:
#      x y z
#    x 1.706000 0.000000 0.006490 
#    y 0.000000 1.696480 0.000000 
#    z 0.006490 0.000000 1.698330 
# 
# From -- ./inp_files/42761.got.cif
#   From: 2010.06.25/outbox.cif.g09.slc.cpg/sg11_22_cif.got.tgz:42761.got - 2010.06.27 23:14:04.
