data_PCOD8071017
_publ_section_title
;
Structure prediction by ZEFSAII (Michael W. Deem and Ramdas Pophale) SiO2 
 PCOD8071017
Probable space group: P 21/M
;
_chemical_formula_sum "Si O2"
_cell_formula_units_Z 28
_cell_length_a 11.395675
_cell_length_b 10.148091
_cell_length_c 21.205365
_cell_angle_alpha 90.000000
_cell_angle_beta 139.538017
_cell_angle_gamma 90.000000
_cell_volume 1591.391202
_symmetry_space_group_name_H-M "P 21/M"
_symmetry_group_IT_number 11
_symmetry_cell_setting 'monoclinic'
loop_
_space_group_symop_operation_xyz
x,y,z
-x,1/2+y,-z
-x,-y,-z
x,1/2-y,z
loop_
_atom_site_type_symbol
_atom_site_label
_atom_site_fract_x
_atom_site_fract_y
_atom_site_fract_z
Si Si1 0.133669 0.395560 0.919197
Si Si2 0.651678 0.599656 0.873488
Si Si3 0.741181 0.403093 0.325986
Si Si4 0.971653 0.900694 0.773029
Si Si5 0.245747 0.524877 0.215240
Si Si6 0.082865 0.096545 0.388753
Si Si7 0.642731 0.899431 0.395187
O O1 0.202383 0.250000 0.925663
O O2 0.136254 0.503699 0.863769
O O3 0.925545 0.376973 0.857686
O O4 0.258532 0.455447 0.025881
O O5 0.710601 0.750000 0.890273
O O6 0.435700 0.582947 0.790206
O O7 0.728152 0.526852 0.844210
O O8 0.765929 0.250000 0.357461
O O9 0.720189 0.494341 0.378389
O O10 0.910774 0.460303 0.356566
O O11 0.039949 0.750000 0.797817
O O12 0.803809 0.910425 0.753838
O O13 0.908744 0.957370 0.679253
O O14 0.426794 0.595869 0.313368
O O15 0.049164 0.250000 0.369788
O O16 0.268755 0.063835 0.501096
O O17 0.698903 0.750000 0.398343
#
# Coordination Sequence:
#
# PCOD8071017 Si02
#       7
#     4   4   4   4   4   4   4
#     4   9  18  31  47  70 100 128 157 195 246 287
#     4   9  16  29  49  74  96 125 159 197 243 287
#     4   9  18  33  53  74  98 124 161 202 241 285
#     4   9  19  33  50  69  97 131 168 198 230 286
#     4   9  18  29  49  70 100 122 158 193 241 281
#     4   9  18  34  52  71  96 131 164 199 240 283
#     4  10  19  32  52  74  99 126 159 199 246 289
#
# _framework density 17.594667000000001
#
# number of rings (size 3 to 8) (size 9 to 14) (size 15 to 20)
#    0.857    2.000    0.000    1.714    0.000    1.143 
#    0.000    5.000    0.000    0.000    0.000    0.000 
#    0.000    0.000    0.000    0.000    0.000    0.000 
#
# Total GULP energy -346873.504557 kJ/mol
# GULP energy per Si atom -12388.339448 kJ/mol
# Density = 1.755462 g / cm^3
# Si number density = 17.594667 Si / 1000 Ang^3
#
#
#
# Elastic Constant Matrix: (Units=GPa)
#
#
# Indices 1 2 3 4 5 6 
#
# 1 31.0793 18.7526 30.9908 0.0000 -9.1545 0.0000
# 2 18.7526 71.6814 46.3978 0.0000 -16.0234 0.0000
# 3 30.9908 46.3978 141.0366 0.0000 -22.5326 0.0000
# 4 0.0000 0.0000 0.0000 26.5725 0.0000 -3.2607
# 5 -9.1545 -16.0234 -22.5326 0.0000 26.4439 0.0000
# 6 0.0000 0.0000 0.0000 -3.2607 0.0000 16.0443
#
#
#
# Elastic Compliance Matrix: (Units=1/GPa)
#
#
# Indices 1 2 3 4 5 6 
#
# 1 0.044284 -0.005807 -0.006868 0.000000 0.005959 0.000000
# 2 -0.005807 0.019568 -0.004154 0.000000 0.006307 0.000000
# 3 -0.006868 -0.004154 0.010631 0.000000 0.004164 0.000000
# 4 0.000000 0.000000 0.000000 0.038595 0.000000 0.007844
# 5 0.005959 0.006307 0.004164 0.000000 0.047249 0.000000
# 6 0.000000 0.000000 0.000000 0.007844 0.000000 0.063922
#
#
# Mechanical properties :
#
#
# Convention : Reuss Voigt Hill
#
# Bulk Modulus (GPa) = 24.49483 48.45329 36.47406
# Shear Modulus (GPa) = 18.41507 23.65588 21.03548
#
# Velocity S-wave (km/s) = 3.23867 3.67071 3.46144
# Velocity P-wave (km/s) = 5.28557 6.75010 6.06223
#
# Compressibility (1/GPa) = 0.04082494
#
# Stress axis : x y z
#
# Youngs Moduli (GPa) = 22.58165 51.10259 94.06158
#
# Poissons Ratio (x) = 0.29677 0.64603
# Poissons Ratio (y) = 0.13114 0.39071
# Poissons Ratio (z) = 0.15509 0.21227
#
# Static dielectric constant tensor:
#      x y z
#    x 3.111050 0.000000 -0.020730 
#    y 0.000000 3.053510 0.000000 
#    z -0.020730 0.000000 3.465790 
# 
# 
# High freq. dielectric constant tensor:
#      x y z
#    x 1.653470 0.000000 -0.001280 
#    y 0.000000 1.662960 0.000000 
#    z -0.001280 0.000000 1.692700 
# 
# From -- ./inp_files/64546.got.cif
#   From: 2010.06.25/outbox.cif.g09.slc.cpg/sg11_33_cif.got.tgz:64546.got - 2010.06.27 23:14:04.
