data_PCOD8071414
_publ_section_title
;
Structure prediction by ZEFSAII (Michael W. Deem and Ramdas Pophale) SiO2 
 PCOD8071414
Probable space group: P 21/M
;
_chemical_formula_sum "Si O2"
_cell_formula_units_Z 32
_cell_length_a 28.018438
_cell_length_b 8.979519
_cell_length_c 22.791956
_cell_angle_alpha 90.000000
_cell_angle_beta 17.733997
_cell_angle_gamma 90.000000
_cell_volume 1746.650593
_symmetry_space_group_name_H-M "P 21/M"
_symmetry_group_IT_number 11
_symmetry_cell_setting 'monoclinic'
loop_
_space_group_symop_operation_xyz
x,y,z
-x,1/2+y,-z
-x,-y,-z
x,1/2-y,z
loop_
_atom_site_type_symbol
_atom_site_label
_atom_site_fract_x
_atom_site_fract_y
_atom_site_fract_z
Si Si1 0.837907 0.426359 0.791239
Si Si2 0.488782 0.576216 0.771296
Si Si3 0.541658 0.080724 0.589159
Si Si4 0.600639 0.080580 0.748269
Si Si5 0.647386 0.576990 0.298717
Si Si6 0.720199 0.926151 0.817297
Si Si7 0.148995 0.576791 0.449258
Si Si8 0.844858 0.425157 0.156181
O O1 0.853523 0.250000 0.765604
O O2 0.836222 0.501729 0.729181
O O3 0.985899 0.493794 0.651549
O O4 0.686717 0.473315 0.005986
O O5 0.507895 0.750000 0.750341
O O6 0.531448 0.523580 0.656885
O O7 0.609201 0.512298 0.678271
O O8 0.552489 0.250000 0.598211
O O9 0.383552 0.059063 0.734937
O O10 0.699274 0.039005 0.369270
O O11 0.575554 0.250000 0.758719
O O12 0.760376 0.055951 0.595965
O O13 0.456820 0.030898 0.958118
O O14 0.500000 0.500000 0.500000
O O15 0.653667 0.750000 0.309103
O O16 0.804350 0.495983 0.139310
O O17 0.749693 0.750000 0.779215
O O18 0.752282 0.999205 0.717350
O O19 0.124622 0.750000 0.462499
O O20 0.872588 0.250000 0.116005
O O21 0.000000 0.500000 0.000000
#
# Coordination Sequence:
#
# PCOD8071414 Si02
#       8
#     4   4   4   4   4   4   4   4
#     4  10  21  36  51  72 101 131 166 212 257 302
#     4  10  21  36  56  77  98 131 176 217 254 298
#     4   9  19  35  56  79 105 138 175 210 252 305
#     4   9  20  36  53  73 101 135 170 208 256 311
#     4   9  17  31  52  79 108 140 175 212 252 298
#     4  10  19  33  53  75  99 131 166 206 257 311
#     4  11  21  33  51  76 101 129 165 208 259 312
#     4  10  20  34  54  83 115 145 173 211 259 305
#
# _framework density 18.320779999999999
#
# number of rings (size 3 to 8) (size 9 to 14) (size 15 to 20)
#    0.000    2.250    0.000    3.750    0.000    6.000 
#    0.000    1.250    0.000    1.500    0.000    0.000 
#    0.000    0.000    0.000    0.000    0.000    0.000 
#
# Total GULP energy -396778.922245 kJ/mol
# GULP energy per Si atom -12399.341320 kJ/mol
# Density = 1.827908 g / cm^3
# Si number density = 18.320780 Si / 1000 Ang^3
#
#
#
# Elastic Constant Matrix: (Units=GPa)
#
#
# Indices 1 2 3 4 5 6 
#
# 1 108.0485 52.2428 36.3413 0.0000 -6.2521 0.0000
# 2 52.2428 94.8670 25.6960 0.0000 -1.2972 0.0000
# 3 36.3413 25.6960 38.5735 0.0000 -6.0628 0.0000
# 4 0.0000 0.0000 0.0000 29.9513 0.0000 -1.7277
# 5 -6.2521 -1.2972 -6.0628 0.0000 30.4572 0.0000
# 6 0.0000 0.0000 0.0000 -1.7277 0.0000 35.4448
#
#
#
# Elastic Compliance Matrix: (Units=1/GPa)
#
#
# Indices 1 2 3 4 5 6 
#
# 1 0.015718 -0.005696 -0.010885 0.000000 0.000817 0.000000
# 2 -0.005696 0.014968 -0.004840 0.000000 -0.001495 0.000000
# 3 -0.010885 -0.004840 0.040281 0.000000 0.005578 0.000000
# 4 0.000000 0.000000 0.000000 0.033482 0.000000 0.001632
# 5 0.000817 -0.001495 0.005578 0.000000 0.034047 0.000000
# 6 0.000000 0.000000 0.000000 0.001632 0.000000 0.028292
#
#
# Mechanical properties :
#
#
# Convention : Reuss Voigt Hill
#
# Bulk Modulus (GPa) = 35.55634 52.22769 43.89201
# Shear Modulus (GPa) = 22.83053 27.65124 25.24089
#
# Velocity S-wave (km/s) = 3.53392 3.88916 3.71579
# Velocity P-wave (km/s) = 6.00843 6.98117 6.51299
#
# Compressibility (1/GPa) = 0.02812438
#
# Stress axis : x y z
#
# Youngs Moduli (GPa) = 63.62273 66.80756 24.82588
#
# Poissons Ratio (x) = 0.38054 0.27023
# Poissons Ratio (y) = 0.36240 0.12015
# Poissons Ratio (z) = 0.69255 0.32334
#
# Static dielectric constant tensor:
#      x y z
#    x 3.558980 0.000000 -0.174260 
#    y 0.000000 3.531830 0.000000 
#    z -0.174260 0.000000 3.202210 
# 
# 
# High freq. dielectric constant tensor:
#      x y z
#    x 1.714990 0.000000 -0.014480 
#    y 0.000000 1.725320 0.000000 
#    z -0.014480 0.000000 1.684130 
# 
# From -- ./inp_files/67102.got.cif
#   From: 2010.06.25/outbox.cif.g09.slc.cpg/sg11_34_cif.got.tgz:67102.got - 2010.06.27 23:14:04.
