data_PCOD8071409
_publ_section_title
;
Structure prediction by ZEFSAII (Michael W. Deem and Ramdas Pophale) SiO2 
 PCOD8071409
Probable space group: P 21/M
;
_chemical_formula_sum "Si O2"
_cell_formula_units_Z 32
_cell_length_a 13.802729
_cell_length_b 12.508457
_cell_length_c 17.459452
_cell_angle_alpha 90.000000
_cell_angle_beta 35.178615
_cell_angle_gamma 90.000000
_cell_volume 1736.671806
_symmetry_space_group_name_H-M "P 21/M"
_symmetry_group_IT_number 11
_symmetry_cell_setting 'monoclinic'
loop_
_space_group_symop_operation_xyz
x,y,z
-x,1/2+y,-z
-x,-y,-z
x,1/2-y,z
loop_
_atom_site_type_symbol
_atom_site_label
_atom_site_fract_x
_atom_site_fract_y
_atom_site_fract_z
Si Si1 0.334850 0.626564 0.001257
Si Si2 0.496655 0.476055 0.413183
Si Si3 0.881230 0.014965 0.980805
Si Si4 0.837988 0.371760 0.160334
Si Si5 0.418316 0.375187 0.771730
Si Si6 0.355172 0.494004 0.267496
Si Si7 0.168364 0.871801 0.267299
Si Si8 0.213418 0.125575 0.502191
O O1 0.337587 0.750000 0.974150
O O2 0.183590 0.566821 0.055326
O O3 0.513465 0.574244 0.867144
O O4 0.301200 0.614512 0.112934
O O5 0.500000 0.500000 0.500000
O O6 0.639411 0.390340 0.298629
O O7 0.528140 0.585948 0.347223
O O8 0.316910 0.429277 0.503885
O O9 0.760405 0.923021 0.090758
O O10 0.893850 0.108146 0.036319
O O11 0.059778 0.955465 0.851602
O O12 0.879850 0.250000 0.155641
O O13 0.403233 0.250000 0.780327
O O14 0.554033 0.410102 0.746935
O O15 0.215419 0.545875 0.303494
O O16 0.266391 0.415634 0.384463
O O17 0.173044 0.750000 0.295451
O O18 0.982322 0.899846 0.357445
O O19 0.252246 0.250000 0.479778
#
# Coordination Sequence:
#
# PCOD8071409 Si02
#       8
#     4   4   4   4   4   4   4   4
#     4  10  20  34  55  82 112 142 177 220 271 321
#     4  10  22  35  53  78 106 144 183 227 274 320
#     4   9  19  32  52  79 105 139 177 225 268 320
#     4  10  19  33  53  75 104 141 183 225 272 321
#     4   9  18  33  52  76 105 138 178 219 270 327
#     4  10  19  35  57  81 107 143 181 227 266 322
#     4  10  21  35  55  83 111 143 178 223 278 324
#     4  10  21  37  57  80 107 144 187 226 270 326
#
# _framework density 18.426048000000002
#
# number of rings (size 3 to 8) (size 9 to 14) (size 15 to 20)
#    0.000    2.250    0.000    3.375    1.750    1.000 
#    0.000    0.625    0.000    3.000    0.000    0.000 
#    0.000    0.000    0.000    0.000    0.000    0.000 
#
# Total GULP energy -396837.704585 kJ/mol
# GULP energy per Si atom -12401.178268 kJ/mol
# Density = 1.838411 g / cm^3
# Si number density = 18.426048 Si / 1000 Ang^3
#
#
#
# Elastic Constant Matrix: (Units=GPa)
#
#
# Indices 1 2 3 4 5 6 
#
# 1 96.6477 48.6269 36.0383 0.0000 0.8787 0.0000
# 2 48.6269 102.2512 30.0982 0.0000 -2.7185 0.0000
# 3 36.0383 30.0982 74.8831 0.0000 -2.3375 0.0000
# 4 0.0000 0.0000 0.0000 19.0276 0.0000 -3.3498
# 5 0.8787 -2.7185 -2.3375 0.0000 26.0795 0.0000
# 6 0.0000 0.0000 0.0000 -3.3498 0.0000 20.9841
#
#
#
# Elastic Compliance Matrix: (Units=1/GPa)
#
#
# Indices 1 2 3 4 5 6 
#
# 1 0.015129 -0.005760 -0.005014 0.000000 -0.001560 0.000000
# 2 -0.005760 0.013300 -0.002531 0.000000 0.001354 0.000000
# 3 -0.005014 -0.002531 0.016829 0.000000 0.001413 0.000000
# 4 0.000000 0.000000 0.000000 0.054075 0.000000 0.008632
# 5 -0.001560 0.001354 0.001413 0.000000 0.038665 0.000000
# 6 0.000000 0.000000 0.000000 0.008632 0.000000 0.049033
#
#
# Mechanical properties :
#
#
# Convention : Reuss Voigt Hill
#
# Bulk Modulus (GPa) = 53.63053 55.92318 54.77686
# Shear Modulus (GPa) = 22.74188 23.81948 23.28068
#
# Velocity S-wave (km/s) = 3.51696 3.59932 3.55838
# Velocity P-wave (km/s) = 6.75730 6.90576 6.83193
#
# Compressibility (1/GPa) = 0.01864610
#
# Stress axis : x y z
#
# Youngs Moduli (GPa) = 66.09809 75.18621 59.42119
#
# Poissons Ratio (x) = 0.43309 0.29797
# Poissons Ratio (y) = 0.38074 0.15042
# Poissons Ratio (z) = 0.33145 0.19033
#
# Static dielectric constant tensor:
#      x y z
#    x 3.378890 0.000000 -0.145930 
#    y 0.000000 3.291550 0.000000 
#    z -0.145930 0.000000 3.347300 
# 
# 
# High freq. dielectric constant tensor:
#      x y z
#    x 1.715010 0.000000 -0.010890 
#    y 0.000000 1.715050 0.000000 
#    z -0.010890 0.000000 1.710480 
# 
# From -- ./inp_files/60412.got.cif
#   From: 2010.06.25/outbox.cif.g09.slc.cpg/sg11_31_cif.got.tgz:60412.got - 2010.06.27 23:14:04.
