data_PCOD8071166
_publ_section_title
;
Structure prediction by ZEFSAII (Michael W. Deem and Ramdas Pophale) SiO2 
 PCOD8071166
Probable space group: P 21/M
;
_chemical_formula_sum "Si O2"
_cell_formula_units_Z 28
_cell_length_a 14.963329
_cell_length_b 8.980541
_cell_length_c 12.376910
_cell_angle_alpha 90.000000
_cell_angle_beta 74.038859
_cell_angle_gamma 90.000000
_cell_volume 1599.075416
_symmetry_space_group_name_H-M "P 21/M"
_symmetry_group_IT_number 11
_symmetry_cell_setting 'monoclinic'
loop_
_space_group_symop_operation_xyz
x,y,z
-x,1/2+y,-z
-x,-y,-z
x,1/2-y,z
loop_
_atom_site_type_symbol
_atom_site_label
_atom_site_fract_x
_atom_site_fract_y
_atom_site_fract_z
Si Si1 0.578965 0.578201 0.269389
Si Si2 0.726647 0.577373 0.397059
Si Si3 0.091828 0.923597 0.349335
Si Si4 0.608986 0.574727 0.644189
Si Si5 0.408092 0.424072 0.985125
Si Si6 0.288791 0.925671 0.192602
Si Si7 0.094050 0.575392 0.596005
O O1 0.549684 0.750000 0.296582
O O2 0.670512 0.539529 0.307326
O O3 0.497080 0.473066 0.339687
O O4 0.602240 0.544259 0.137782
O O5 0.751480 0.750000 0.397032
O O6 0.666792 0.526722 0.520152
O O7 0.822728 0.487976 0.359528
O O8 0.069360 0.750000 0.351861
O O9 0.181588 0.966209 0.249345
O O10 0.110710 0.973540 0.466341
O O11 0.003879 0.010324 0.329665
O O12 0.614797 0.750000 0.664544
O O13 0.646402 0.485833 0.734096
O O14 0.412691 0.250000 0.010147
O O15 0.500000 0.500000 0.000000
O O16 0.318028 0.496391 0.071449
O O17 0.304823 0.750000 0.179548
O O18 0.091278 0.750000 0.611512
#
# Coordination Sequence:
#
# PCOD8071166 Si02
#       7
#     4   4   4   4   4   4   4
#     4  10  22  38  54  73 106 147 181 218 264 316
#     4  10  21  36  53  77 109 145 178 213 265 321
#     4   9  19  34  52  77 107 140 173 212 267 320
#     4  11  21  32  52  80 108 140 178 218 260 315
#     4  11  22  36  55  78 105 140 183 225 266 308
#     4  11  21  35  55  78 109 142 175 218 268 315
#     4  10  19  32  53  80 108 138 172 215 264 316
#
# _framework density 17.510117999999999
#
# number of rings (size 3 to 8) (size 9 to 14) (size 15 to 20)
#    0.000    1.714    2.857    2.143    0.000    3.429 
#    0.000    0.000    0.000    0.857    0.000    0.000 
#    0.000    0.000    0.000    0.000    0.000    0.000 
#
# Total GULP energy -347331.975597 kJ/mol
# GULP energy per Si atom -12404.713414 kJ/mol
# Density = 1.747026 g / cm^3
# Si number density = 17.510118 Si / 1000 Ang^3
#
#
#
# Elastic Constant Matrix: (Units=GPa)
#
#
# Indices 1 2 3 4 5 6 
#
# 1 137.9306 56.5279 52.3481 0.0000 -8.7338 0.0000
# 2 56.5279 69.7603 31.3126 0.0000 -9.2628 0.0000
# 3 52.3481 31.3126 70.2971 0.0000 -5.8861 0.0000
# 4 0.0000 0.0000 0.0000 25.2265 0.0000 -4.9544
# 5 -8.7338 -9.2628 -5.8861 0.0000 27.1958 0.0000
# 6 0.0000 0.0000 0.0000 -4.9544 0.0000 32.0387
#
#
#
# Elastic Compliance Matrix: (Units=1/GPa)
#
#
# Indices 1 2 3 4 5 6 
#
# 1 0.012629 -0.007492 -0.006051 0.000000 0.000194 0.000000
# 2 -0.007492 0.022908 -0.004250 0.000000 0.004476 0.000000
# 3 -0.006051 -0.004250 0.020716 0.000000 0.001093 0.000000
# 4 0.000000 0.000000 0.000000 0.040883 0.000000 0.006322
# 5 0.000194 0.004476 0.001093 0.000000 0.038594 0.000000
# 6 0.000000 0.000000 0.000000 0.006322 0.000000 0.032190
#
#
# Mechanical properties :
#
#
# Convention : Reuss Voigt Hill
#
# Bulk Modulus (GPa) = 48.38677 62.04056 55.21367
# Shear Modulus (GPa) = 23.76488 26.07882 24.92185
#
# Velocity S-wave (km/s) = 3.68803 3.86341 3.77673
# Velocity P-wave (km/s) = 6.76971 7.44375 7.11472
#
# Compressibility (1/GPa) = 0.02066681
#
# Stress axis : x y z
#
# Youngs Moduli (GPa) = 79.18117 43.65376 48.27141
#
# Poissons Ratio (x) = 0.32704 0.29211
# Poissons Ratio (y) = 0.59320 0.20516
# Poissons Ratio (z) = 0.47915 0.18553
#
# Static dielectric constant tensor:
#      x y z
#    x 3.272720 0.000000 -0.106100 
#    y 0.000000 3.289920 0.000000 
#    z -0.106100 0.000000 3.323840 
# 
# 
# High freq. dielectric constant tensor:
#      x y z
#    x 1.675530 0.000000 -0.009470 
#    y 0.000000 1.685890 0.000000 
#    z -0.009470 0.000000 1.659950 
# 
# From -- ./inp_files/37485.got.cif
#   From: 2010.06.25/outbox.cif.g09.slc.cpg/sg11_19_cif.got.tgz:37485.got - 2010.06.27 23:14:04.
