data_PCOD8071921
_publ_section_title
;
Structure prediction by ZEFSAII (Michael W. Deem and Ramdas Pophale) SiO2 
 PCOD8071921
Probable space group: P 21/M
;
_chemical_formula_sum "Si O2"
_cell_formula_units_Z 28
_cell_length_a 14.896991
_cell_length_b 8.493450
_cell_length_c 21.849889
_cell_angle_alpha 90.000000
_cell_angle_beta 146.845176
_cell_angle_gamma 90.000000
_cell_volume 1511.967516
_symmetry_space_group_name_H-M "P 21/M"
_symmetry_group_IT_number 11
_symmetry_cell_setting 'monoclinic'
loop_
_space_group_symop_operation_xyz
x,y,z
-x,1/2+y,-z
-x,-y,-z
x,1/2-y,z
loop_
_atom_site_type_symbol
_atom_site_label
_atom_site_fract_x
_atom_site_fract_y
_atom_site_fract_z
Si Si1 0.566261 0.933671 0.974406
Si Si2 0.678041 0.431305 0.390055
Si Si3 0.014671 0.567063 0.626181
Si Si4 0.906413 0.433490 0.190979
Si Si5 0.515770 0.567476 0.411100
Si Si6 0.323405 0.432189 0.739812
Si Si7 0.739958 0.933089 0.651454
O O1 0.526327 0.750000 0.947739
O O2 0.760217 0.964007 0.079340
O O3 0.500000 0.000000 0.000000
O O4 0.479401 0.021535 0.869178
O O5 0.663725 0.250000 0.363515
O O6 0.545183 0.469847 0.366389
O O7 0.633567 0.535991 0.305991
O O8 0.860306 0.465892 0.517596
O O9 0.964839 0.750000 0.595881
O O10 0.066327 0.515123 0.723527
O O11 0.165256 0.535481 0.666933
O O12 0.860261 0.250000 0.161394
O O13 0.067762 0.471413 0.243360
O O14 0.531261 0.750000 0.403965
O O15 0.335330 0.529546 0.334769
O O16 0.652960 0.515180 0.538680
O O17 0.281519 0.250000 0.726111
O O18 0.706699 0.750000 0.644101
#
# Coordination Sequence:
#
# PCOD8071921 Si02
#       7
#     4   4   4   4   4   4   4
#     4  12  24  39  59  84 114 149 194 239 284 334
#     4  12  24  38  57  83 117 155 193 234 285 343
#     4  11  21  37  58  84 118 153 190 233 282 339
#     4  10  20  36  59  84 117 152 189 235 284 334
#     4  10  19  34  55  83 116 150 188 233 282 337
#     4  12  25  41  59  81 112 153 197 237 285 340
#     4   9  18  34  55  83 115 149 186 231 283 335
#
# _framework density 18.518916999999998
#
# number of rings (size 3 to 8) (size 9 to 14) (size 15 to 20)
#    0.000    1.143    2.857    5.143    0.000    1.714 
#    0.000    0.000    0.000    0.857    0.000    0.000 
#    0.000    0.000    0.000    0.000    0.000    0.000 
#
# Total GULP energy -347388.740374 kJ/mol
# GULP energy per Si atom -12406.740728 kJ/mol
# Density = 1.847677 g / cm^3
# Si number density = 18.518917 Si / 1000 Ang^3
#
#
#
# Elastic Constant Matrix: (Units=GPa)
#
#
# Indices 1 2 3 4 5 6 
#
# 1 106.4203 19.1291 48.6419 0.0000 2.3719 0.0000
# 2 19.1291 66.9643 22.7667 0.0000 -1.0146 0.0000
# 3 48.6419 22.7667 74.0478 0.0000 1.3902 0.0000
# 4 0.0000 0.0000 0.0000 27.4453 0.0000 2.1281
# 5 2.3719 -1.0146 1.3902 0.0000 27.1130 0.0000
# 6 0.0000 0.0000 0.0000 2.1281 0.0000 31.0893
#
#
#
# Elastic Compliance Matrix: (Units=1/GPa)
#
#
# Indices 1 2 3 4 5 6 
#
# 1 0.013498 -0.000958 -0.008557 0.000000 -0.000778 0.000000
# 2 -0.000958 0.016766 -0.004543 0.000000 0.000944 0.000000
# 3 -0.008557 -0.004543 0.020532 0.000000 -0.000474 0.000000
# 4 0.000000 0.000000 0.000000 0.036631 0.000000 -0.002507
# 5 -0.000778 0.000944 -0.000474 0.000000 0.037010 0.000000
# 6 0.000000 0.000000 0.000000 -0.002507 0.000000 0.032337
#
#
# Mechanical properties :
#
#
# Convention : Reuss Voigt Hill
#
# Bulk Modulus (GPa) = 44.09554 47.61197 45.85375
# Shear Modulus (GPa) = 25.98076 27.58916 26.78496
#
# Velocity S-wave (km/s) = 3.74964 3.86396 3.80723
# Velocity P-wave (km/s) = 6.52757 6.75815 6.64386
#
# Compressibility (1/GPa) = 0.02267803
#
# Stress axis : x y z
#
# Youngs Moduli (GPa) = 74.08714 59.64472 48.70484
#
# Poissons Ratio (x) = 0.05715 0.41679
# Poissons Ratio (y) = 0.07099 0.22127
# Poissons Ratio (z) = 0.63399 0.27097
#
# Static dielectric constant tensor:
#      x y z
#    x 3.431800 0.000000 0.063120 
#    y 0.000000 3.419260 0.000000 
#    z 0.063120 0.000000 3.337300 
# 
# 
# High freq. dielectric constant tensor:
#      x y z
#    x 1.719430 0.000000 0.007000 
#    y 0.000000 1.726460 0.000000 
#    z 0.007000 0.000000 1.699190 
# 
# From -- ./inp_files/54502.got.cif
#   From: 2010.06.25/outbox.cif.g09.slc.cpg/sg11_28_cif.got.tgz:54502.got - 2010.06.27 23:14:04.
