data_PCOD8071146
_publ_section_title
;
Structure prediction by ZEFSAII (Michael W. Deem and Ramdas Pophale) SiO2 
 PCOD8071146
Probable space group: P 21/M
;
_chemical_formula_sum "Si O2"
_cell_formula_units_Z 32
_cell_length_a 8.694404
_cell_length_b 14.141224
_cell_length_c 14.439526
_cell_angle_alpha 90.000000
_cell_angle_beta 111.998488
_cell_angle_gamma 90.000000
_cell_volume 1646.077376
_symmetry_space_group_name_H-M "P 21/M"
_symmetry_group_IT_number 11
_symmetry_cell_setting 'monoclinic'
loop_
_space_group_symop_operation_xyz
x,y,z
-x,1/2+y,-z
-x,-y,-z
x,1/2-y,z
loop_
_atom_site_type_symbol
_atom_site_label
_atom_site_fract_x
_atom_site_fract_y
_atom_site_fract_z
Si Si1 0.725222 0.641985 0.451424
Si Si2 0.372970 0.644038 0.334010
Si Si3 0.026030 0.360484 0.332114
Si Si4 0.853128 0.639676 0.843887
Si Si5 0.980295 0.143629 0.769370
Si Si6 0.770783 0.517314 0.279388
Si Si7 0.137749 0.640853 0.048696
Si Si8 0.597160 0.012728 0.830837
O O1 0.768230 0.750000 0.432463
O O2 0.529801 0.635522 0.439500
O O3 0.833475 0.609977 0.562793
O O4 0.762089 0.575179 0.372772
O O5 0.371989 0.750000 0.289201
O O6 0.409905 0.567914 0.265892
O O7 0.186698 0.627875 0.332478
O O8 0.982031 0.250000 0.326229
O O9 0.096812 0.389800 0.248280
O O10 0.858602 0.416948 0.318338
O O11 0.815356 0.750000 0.844294
O O12 0.685757 0.587814 0.837283
O O13 0.001972 0.607632 0.944271
O O14 0.047654 0.250000 0.775027
O O15 0.123444 0.074534 0.771260
O O16 0.931151 0.121006 0.864008
O O17 0.595928 0.497014 0.188300
O O18 0.184849 0.750000 0.043640
O O19 0.303163 0.576856 0.071603
#
# Coordination Sequence:
#
# PCOD8071146 Si02
#       8
#     4   4   4   4   4   4   4   4
#     4   9  18  34  55  78 104 135 172 214 260 305
#     4   8  15  30  52  77 101 127 167 218 261 297
#     4  10  21  37  54  72 101 142 182 215 248 298
#     4  10  21  38  57  73  96 137 184 220 249 292
#     4   9  17  31  53  80 107 131 161 209 267 317
#     4  11  21  33  51  80 113 139 163 204 263 320
#     4   9  18  35  58  80 101 130 172 219 260 300
#     4  10  19  32  53  78 104 133 166 211 260 309
#
# _framework density 19.440156999999999
#
# number of rings (size 3 to 8) (size 9 to 14) (size 15 to 20)
#    0.000    2.500    0.000    3.750    0.000    2.000 
#    0.000    9.375    0.000    7.500    0.000    0.000 
#    0.000    0.000    0.000    0.000    0.000    0.000 
#
# Total GULP energy -396560.447650 kJ/mol
# GULP energy per Si atom -12392.513989 kJ/mol
# Density = 1.939591 g / cm^3
# Si number density = 19.440157 Si / 1000 Ang^3
#
#
#
# Elastic Constant Matrix: (Units=GPa)
#
#
# Indices 1 2 3 4 5 6 
#
# 1 105.6988 51.0473 53.9693 0.0000 37.7615 0.0000
# 2 51.0473 74.0743 39.9763 0.0000 19.2791 0.0000
# 3 53.9693 39.9763 98.4777 0.0000 26.4355 0.0000
# 4 0.0000 0.0000 0.0000 9.2539 0.0000 10.0147
# 5 37.7615 19.2791 26.4355 0.0000 33.4927 0.0000
# 6 0.0000 0.0000 0.0000 10.0147 0.0000 27.9791
#
#
#
# Elastic Compliance Matrix: (Units=1/GPa)
#
#
# Indices 1 2 3 4 5 6 
#
# 1 0.021219 -0.008322 -0.003952 0.000000 -0.016014 0.000000
# 2 -0.008322 0.021420 -0.004242 0.000000 0.000401 0.000000
# 3 -0.003952 -0.004242 0.015468 0.000000 -0.005312 0.000000
# 4 0.000000 0.000000 0.000000 0.176391 0.000000 -0.063137
# 5 -0.016014 0.000401 -0.005312 0.000000 0.051874 0.000000
# 6 0.000000 0.000000 0.000000 -0.063137 0.000000 0.058340
#
#
# Mechanical properties :
#
#
# Convention : Reuss Voigt Hill
#
# Bulk Modulus (GPa) = 39.88018 63.13739 51.50878
# Shear Modulus (GPa) = 12.94996 23.02899 17.98948
#
# Velocity S-wave (km/s) = 2.58378 3.44555 3.04530
# Velocity P-wave (km/s) = 5.42771 6.95539 6.23849
#
# Compressibility (1/GPa) = 0.02507511
#
# Stress axis : x y z
#
# Youngs Moduli (GPa) = 47.12829 46.68532 64.64896
#
# Poissons Ratio (x) = 0.38852 0.25546
# Poissons Ratio (y) = 0.39221 0.27425
# Poissons Ratio (z) = 0.18623 0.19805
#
# Static dielectric constant tensor:
#      x y z
#    x 3.585590 0.000000 0.478170 
#    y 0.000000 3.639340 0.000000 
#    z 0.478170 0.000000 3.633760 
# 
# 
# High freq. dielectric constant tensor:
#      x y z
#    x 1.735870 0.000000 0.032330 
#    y 0.000000 1.770700 0.000000 
#    z 0.032330 0.000000 1.746780 
# 
# From -- ./inp_files/47460.got.cif
#   From: 2010.06.25/outbox.cif.g09.slc.cpg/sg11_24_cif.got.tgz:47460.got - 2010.06.27 23:14:04.
