data_PCOD8071132
_publ_section_title
;
Structure prediction by ZEFSAII (Michael W. Deem and Ramdas Pophale) SiO2 
 PCOD8071132
Probable space group: P 21/M
;
_chemical_formula_sum "Si O2"
_cell_formula_units_Z 20
_cell_length_a 6.608880
_cell_length_b 14.682965
_cell_length_c 11.675640
_cell_angle_alpha 90.000000
_cell_angle_beta 82.272282
_cell_angle_gamma 90.000000
_cell_volume 1122.690788
_symmetry_space_group_name_H-M "P 21/M"
_symmetry_group_IT_number 11
_symmetry_cell_setting 'monoclinic'
loop_
_space_group_symop_operation_xyz
x,y,z
-x,1/2+y,-z
-x,-y,-z
x,1/2-y,z
loop_
_atom_site_type_symbol
_atom_site_label
_atom_site_fract_x
_atom_site_fract_y
_atom_site_fract_z
Si Si1 0.301133 0.060093 0.031063
Si Si2 0.426067 0.650206 0.825418
Si Si3 0.498949 0.855772 0.563185
Si Si4 0.104761 0.493479 0.834406
Si Si5 0.188316 0.486916 0.566990
O O1 0.391125 0.145380 0.094551
O O2 0.133145 0.008369 0.121527
O O3 0.500000 0.000000 0.000000
O O4 0.198606 0.083339 0.914747
O O5 0.327808 0.750000 0.839508
O O6 0.537638 0.634572 0.695493
O O7 0.234562 0.583581 0.855875
O O8 0.465010 0.750000 0.529477
O O9 0.690557 0.897699 0.482391
O O10 0.304504 0.917167 0.545757
O O11 0.125815 0.464377 0.701885
O O12 0.000000 0.500000 0.500000
#
# Coordination Sequence:
#
# PCOD8071132 Si02
#       5
#     4   4   4   4   4
#     4   9  17  31  50  69  93 125 158 198 245 290
#     4   9  17  30  50  74  96 121 158 204 251 295
#     4   9  19  34  51  76 105 130 166 213 253 298
#     4   9  18  31  48  72  99 127 163 204 244 294
#     4  10  19  32  53  76 102 138 173 204 250 304
#
# _framework density 17.814344999999999
#
# number of rings (size 3 to 8) (size 9 to 14) (size 15 to 20)
#    0.000    2.800    0.000    1.200    0.000    3.200 
#    0.000    5.000    0.000    4.800    0.000    0.000 
#    0.000    0.000    0.000    0.000    0.000    0.000 
#
# Total GULP energy -247767.636615 kJ/mol
# GULP energy per Si atom -12388.381831 kJ/mol
# Density = 1.777380 g / cm^3
# Si number density = 17.814345 Si / 1000 Ang^3
#
#
#
# Elastic Constant Matrix: (Units=GPa)
#
#
# Indices 1 2 3 4 5 6 
#
# 1 110.5091 33.9556 65.4496 0.0000 0.2767 0.0000
# 2 33.9556 87.6962 41.2463 0.0000 2.7315 0.0000
# 3 65.4496 41.2463 123.1139 0.0000 0.9971 0.0000
# 4 0.0000 0.0000 0.0000 22.6168 0.0000 2.5445
# 5 0.2767 2.7315 0.9971 0.0000 37.3318 0.0000
# 6 0.0000 0.0000 0.0000 2.5445 0.0000 15.5378
#
#
#
# Elastic Compliance Matrix: (Units=1/GPa)
#
#
# Indices 1 2 3 4 5 6 
#
# 1 0.013560 -0.002215 -0.006469 0.000000 0.000234 0.000000
# 2 -0.002215 0.013926 -0.003480 0.000000 -0.000910 0.000000
# 3 -0.006469 -0.003480 0.012728 0.000000 -0.000037 0.000000
# 4 0.000000 0.000000 0.000000 0.045045 0.000000 -0.007377
# 5 0.000234 -0.000910 -0.000037 0.000000 0.026853 0.000000
# 6 0.000000 0.000000 0.000000 -0.007377 0.000000 0.065567
#
#
# Mechanical properties :
#
#
# Convention : Reuss Voigt Hill
#
# Bulk Modulus (GPa) = 62.95180 66.95804 64.95492
# Shear Modulus (GPa) = 24.11933 27.14179 25.63056
#
# Velocity S-wave (km/s) = 3.68357 3.90756 3.79721
# Velocity P-wave (km/s) = 7.31478 7.61754 7.46769
#
# Compressibility (1/GPa) = 0.01588517
#
# Stress axis : x y z
#
# Youngs Moduli (GPa) = 73.74534 71.80755 78.56880
#
# Poissons Ratio (x) = 0.15908 0.50822
# Poissons Ratio (y) = 0.16338 0.27346
# Poissons Ratio (z) = 0.47702 0.24993
#
# Static dielectric constant tensor:
#      x y z
#    x 3.468490 0.000000 0.124260 
#    y 0.000000 3.248560 0.000000 
#    z 0.124260 0.000000 3.674210 
# 
# 
# High freq. dielectric constant tensor:
#      x y z
#    x 1.696190 0.000000 0.001120 
#    y 0.000000 1.657180 0.000000 
#    z 0.001120 0.000000 1.703320 
# 
# From -- ./inp_files/4116.got.cif
#   From: 2010.06.25/outbox.cif.g09.slc.cpg/sg11_3_cif.got.tgz:4116.got - 2010.06.27 23:14:04.
