data_PCOD8071525
_publ_section_title
;
Structure prediction by ZEFSAII (Michael W. Deem and Ramdas Pophale) SiO2 
 PCOD8071525
Probable space group: P 21/M
;
_chemical_formula_sum "Si O2"
_cell_formula_units_Z 28
_cell_length_a 16.426096
_cell_length_b 9.042644
_cell_length_c 21.108154
_cell_angle_alpha 90.000000
_cell_angle_beta 26.128723
_cell_angle_gamma 90.000000
_cell_volume 1380.755584
_symmetry_space_group_name_H-M "P 21/M"
_symmetry_group_IT_number 11
_symmetry_cell_setting 'monoclinic'
loop_
_space_group_symop_operation_xyz
x,y,z
-x,1/2+y,-z
-x,-y,-z
x,1/2-y,z
loop_
_atom_site_type_symbol
_atom_site_label
_atom_site_fract_x
_atom_site_fract_y
_atom_site_fract_z
Si Si1 0.764800 0.418012 0.301229
Si Si2 0.183263 0.078349 0.034358
Si Si3 0.511681 0.572742 0.726832
Si Si4 0.660735 0.910474 0.839699
Si Si5 0.165867 0.090524 0.412411
Si Si6 0.510431 0.421248 0.593578
Si Si7 0.757356 0.423508 0.878920
O O1 0.709031 0.250000 0.322000
O O2 0.692473 0.449511 0.423389
O O3 0.671279 0.531784 0.318352
O O4 0.983807 0.439961 0.141226
O O5 0.237870 0.250000 0.003142
O O6 0.154490 0.005116 0.123232
O O7 0.335675 0.996524 0.885578
O O8 0.494499 0.750000 0.743150
O O9 0.705653 0.517743 0.622720
O O10 0.521651 0.521068 0.647838
O O11 0.658762 0.750000 0.874894
O O12 0.699090 0.888169 0.740033
O O13 0.817263 0.011832 0.767489
O O14 0.454616 0.976810 0.978883
O O15 0.091693 0.250000 0.487970
O O16 0.000000 0.000000 0.500000
O O17 0.490999 0.250000 0.626716
O O18 0.794354 0.250000 0.859066
#
# Coordination Sequence:
#
# PCOD8071525 Si02
#       7
#     4   4   4   4   4   4   4
#     4   9  21  41  63  89 121 154 193 243 294 350
#     4  11  22  37  60  90 122 156 197 244 297 351
#     4  11  23  41  61  86 122 159 197 244 296 350
#     4   9  18  35  53  74 107 145 188 234 282 334
#     4  10  22  39  57  80 113 152 195 242 290 344
#     4  10  21  40  65  91 118 154 198 239 293 356
#     4  10  19  33  54  80 110 144 186 234 286 339
#
# _framework density 20.278752000000001
#
# number of rings (size 3 to 8) (size 9 to 14) (size 15 to 20)
#    0.000    2.000    1.429    1.714    0.000    5.714 
#    0.000    4.286    0.000    0.000    0.000    0.000 
#    0.000    0.000    0.000    0.000    0.000    0.000 
#
# Total GULP energy -346907.723585 kJ/mol
# GULP energy per Si atom -12389.561557 kJ/mol
# Density = 2.023260 g / cm^3
# Si number density = 20.278752 Si / 1000 Ang^3
#
#
#
# Elastic Constant Matrix: (Units=GPa)
#
#
# Indices 1 2 3 4 5 6 
#
# 1 112.3447 50.0690 32.7877 0.0000 -0.9289 0.0000
# 2 50.0690 108.0849 32.1980 0.0000 -8.7708 0.0000
# 3 32.7877 32.1980 49.5838 0.0000 -22.4472 0.0000
# 4 0.0000 0.0000 0.0000 26.5871 0.0000 -0.5704
# 5 -0.9289 -8.7708 -22.4472 0.0000 25.3307 0.0000
# 6 0.0000 0.0000 0.0000 -0.5704 0.0000 40.5214
#
#
#
# Elastic Compliance Matrix: (Units=1/GPa)
#
#
# Indices 1 2 3 4 5 6 
#
# 1 0.014001 -0.003865 -0.011893 0.000000 -0.011364 0.000000
# 2 -0.003865 0.012838 -0.006400 0.000000 -0.001368 0.000000
# 3 -0.011893 -0.006400 0.051748 0.000000 0.043205 0.000000
# 4 0.000000 0.000000 0.000000 0.037624 0.000000 0.000530
# 5 -0.011364 -0.001368 0.043205 0.000000 0.076874 0.000000
# 6 0.000000 0.000000 0.000000 0.000530 0.000000 0.024686
#
#
# Mechanical properties :
#
#
# Convention : Reuss Voigt Hill
#
# Bulk Modulus (GPa) = 29.17991 55.56920 42.37456
# Shear Modulus (GPa) = 18.28092 28.81839 23.54966
#
# Velocity S-wave (km/s) = 3.00573 3.77385 3.41148
# Velocity P-wave (km/s) = 5.14456 6.81553 6.03813
#
# Compressibility (1/GPa) = 0.03427015
#
# Stress axis : x y z
#
# Youngs Moduli (GPa) = 71.42522 77.89408 19.32455
#
# Poissons Ratio (x) = 0.30106 0.22982
# Poissons Ratio (y) = 0.27605 0.12368
# Poissons Ratio (z) = 0.84945 0.49854
#
# Static dielectric constant tensor:
#      x y z
#    x 5.098240 0.000000 1.621240 
#    y 0.000000 3.965180 0.000000 
#    z 1.621240 0.000000 5.348260 
# 
# 
# High freq. dielectric constant tensor:
#      x y z
#    x 1.800610 0.000000 0.004090 
#    y 0.000000 1.799500 0.000000 
#    z 0.004090 0.000000 1.778900 
# 
# From -- ./inp_files/54453.got.cif
#   From: 2010.06.25/outbox.cif.g09.slc.cpg/sg11_28_cif.got.tgz:54453.got - 2010.06.27 23:14:04.
