data_PCOD8071739
_publ_section_title
;
Structure prediction by ZEFSAII (Michael W. Deem and Ramdas Pophale) SiO2 
 PCOD8071739
Probable space group: P 21/M
;
_chemical_formula_sum "Si O2"
_cell_formula_units_Z 28
_cell_length_a 32.225178
_cell_length_b 8.999567
_cell_length_c 5.247602
_cell_angle_alpha 90.000000
_cell_angle_beta 58.455937
_cell_angle_gamma 90.000000
_cell_volume 1296.996392
_symmetry_space_group_name_H-M "P 21/M"
_symmetry_group_IT_number 11
_symmetry_cell_setting 'monoclinic'
loop_
_space_group_symop_operation_xyz
x,y,z
-x,1/2+y,-z
-x,-y,-z
x,1/2-y,z
loop_
_atom_site_type_symbol
_atom_site_label
_atom_site_fract_x
_atom_site_fract_y
_atom_site_fract_z
Si Si1 0.148932 0.925886 0.884366
Si Si2 0.794708 0.073576 0.802418
Si Si3 0.073194 0.410042 0.844410
Si Si4 0.523923 0.570928 0.173060
Si Si5 0.027739 0.591351 0.616153
Si Si6 0.627539 0.073650 0.856351
Si Si7 0.313931 0.924719 0.836109
O O1 0.142818 0.750000 0.910458
O O2 0.175550 0.987725 0.049683
O O3 0.095826 0.003370 0.017601
O O4 0.179537 0.978779 0.539113
O O5 0.792031 0.250000 0.827222
O O6 0.740221 0.005508 0.984196
O O7 0.099606 0.250000 0.723955
O O8 0.076198 0.514290 0.582180
O O9 0.015502 0.379433 0.042967
O O10 0.500000 0.500000 0.500000
O O11 0.517460 0.750000 0.193897
O O12 0.500000 0.500000 0.000000
O O13 0.580007 0.526402 0.990529
O O14 0.046733 0.750000 0.449538
O O15 0.000000 0.500000 0.500000
O O16 0.614989 0.250000 0.901823
O O17 0.660295 0.030877 0.509122
O O18 0.655223 0.019663 0.021187
O O19 0.308843 0.750000 0.875377
#
# Coordination Sequence:
#
# PCOD8071739 Si02
#       7
#     4   4   4   4   4   4   4
#     4  10  20  34  55  82 111 147 189 236 286 340
#     4   9  18  33  54  83 114 146 190 242 291 337
#     4  10  22  38  54  78 109 144 184 229 279 342
#     4  12  25  42  63  90 128 170 212 261 312 371
#     4  10  21  37  58  81 107 141 181 228 279 335
#     4  10  19  33  57  87 116 154 201 249 302 357
#     4   9  17  31  55  84 114 148 193 248 296 348
#
# _framework density 21.588338
#
# number of rings (size 3 to 8) (size 9 to 14) (size 15 to 20)
#    0.000    2.000    0.000    3.857    2.000    6.286 
#    0.000    0.000    0.000    5.143    0.000    0.000 
#    0.000    0.000    0.000    0.000    0.000    0.000 
#
# Total GULP energy -347007.158056 kJ/mol
# GULP energy per Si atom -12393.112788 kJ/mol
# Density = 2.153920 g / cm^3
# Si number density = 21.588338 Si / 1000 Ang^3
#
#
#
# Elastic Constant Matrix: (Units=GPa)
#
#
# Indices 1 2 3 4 5 6 
#
# 1 161.1096 35.9829 40.7212 0.0000 18.2055 0.0000
# 2 35.9829 102.3537 13.5886 0.0000 13.1074 0.0000
# 3 40.7212 13.5886 72.7978 0.0000 12.1929 0.0000
# 4 0.0000 0.0000 0.0000 16.2247 0.0000 -0.2283
# 5 18.2055 13.1074 12.1929 0.0000 45.2415 0.0000
# 6 0.0000 0.0000 0.0000 -0.2283 0.0000 27.5611
#
#
#
# Elastic Compliance Matrix: (Units=1/GPa)
#
#
# Indices 1 2 3 4 5 6 
#
# 1 0.007775 -0.002044 -0.003710 0.000000 -0.001537 0.000000
# 2 -0.002044 0.010836 -0.000514 0.000000 -0.002178 0.000000
# 3 -0.003710 -0.000514 0.016372 0.000000 -0.002770 0.000000
# 4 0.000000 0.000000 0.000000 0.061641 0.000000 0.000510
# 5 -0.001537 -0.002178 -0.002770 0.000000 0.024100 0.000000
# 6 0.000000 0.000000 0.000000 0.000510 0.000000 0.036287
#
#
# Mechanical properties :
#
#
# Convention : Reuss Voigt Hill
#
# Bulk Modulus (GPa) = 44.55218 57.42738 50.98978
# Shear Modulus (GPa) = 28.24378 34.20337 31.22357
#
# Velocity S-wave (km/s) = 3.62095 3.98470 3.80717
# Velocity P-wave (km/s) = 6.17768 6.91587 6.55717
#
# Compressibility (1/GPa) = 0.02244559
#
# Stress axis : x y z
#
# Youngs Moduli (GPa) = 128.61979 92.28634 61.07957
#
# Poissons Ratio (x) = 0.18863 0.22661
# Poissons Ratio (y) = 0.26289 0.03143
# Poissons Ratio (z) = 0.47720 0.04748
#
# Static dielectric constant tensor:
#      x y z
#    x 4.324100 0.000000 -0.207590 
#    y 0.000000 3.650920 0.000000 
#    z -0.207590 0.000000 4.434260 
# 
# 
# High freq. dielectric constant tensor:
#      x y z
#    x 1.861320 0.000000 0.007860 
#    y 0.000000 1.814250 0.000000 
#    z 0.007860 0.000000 1.856260 
# 
# From -- ./inp_files/9612.got.cif
#   From: 2010.06.25/outbox.cif.g09.slc.cpg/sg11_5_cif.got.tgz:9612.got - 2010.06.27 23:14:04.
