data_PCOD8071917
_publ_section_title
;
Structure prediction by ZEFSAII (Michael W. Deem and Ramdas Pophale) SiO2 
 PCOD8071917
Probable space group: P 21/M
;
_chemical_formula_sum "Si O2"
_cell_formula_units_Z 32
_cell_length_a 10.489326
_cell_length_b 19.811907
_cell_length_c 16.375808
_cell_angle_alpha 90.000000
_cell_angle_beta 148.444433
_cell_angle_gamma 90.000000
_cell_volume 1780.935851
_symmetry_space_group_name_H-M "P 21/M"
_symmetry_group_IT_number 11
_symmetry_cell_setting 'monoclinic'
loop_
_space_group_symop_operation_xyz
x,y,z
-x,1/2+y,-z
-x,-y,-z
x,1/2-y,z
loop_
_atom_site_type_symbol
_atom_site_label
_atom_site_fract_x
_atom_site_fract_y
_atom_site_fract_z
Si Si1 0.890814 0.410580 0.124097
Si Si2 0.189279 0.827576 0.771438
Si Si3 0.800228 0.981723 0.822447
Si Si4 0.735525 0.674542 0.102501
Si Si5 0.753094 0.028591 0.468726
Si Si6 0.057842 0.394407 0.506712
Si Si7 0.947366 0.049338 0.752274
Si Si8 0.442555 0.326504 0.820150
O O1 0.658010 0.379150 0.952973
O O2 0.965102 0.366551 0.243325
O O3 0.849730 0.488524 0.133144
O O4 0.108107 0.413731 0.175212
O O5 0.164084 0.750000 0.780477
O O6 0.095740 0.842301 0.630506
O O7 0.470612 0.849611 0.928068
O O8 0.532133 0.969515 0.712629
O O9 0.781719 0.041642 0.743754
O O10 0.000000 0.000000 0.000000
O O11 0.797561 0.750000 0.103991
O O12 0.930913 0.622379 0.174919
O O13 0.740453 0.673754 0.203239
O O14 0.894485 0.085516 0.495041
O O15 0.783831 0.042728 0.581682
O O16 0.869770 0.957280 0.509593
O O17 0.298709 0.354396 0.664183
O O18 0.539510 0.250000 0.857203
#
# Coordination Sequence:
#
# PCOD8071917 Si02
#       8
#     4   4   4   4   4   4   4   4
#     4   9  20  35  58  82 107 149 193 229 285 339
#     4  10  20  35  55  83 116 151 189 234 287 343
#     4  10  22  37  57  83 112 150 187 241 292 331
#     4   9  19  34  54  80 114 150 183 227 287 346
#     4  11  22  36  54  88 118 143 188 242 282 345
#     4  11  21  33  57  87 117 145 189 235 292 337
#     4  10  20  36  58  80 112 151 191 234 289 340
#     4  10  19  34  55  82 116 149 185 233 285 337
#
# _framework density 17.96808
#
# number of rings (size 3 to 8) (size 9 to 14) (size 15 to 20)
#    0.750    1.250    2.500    2.625    1.750    3.000 
#    0.000    0.000    0.000   10.500    0.000    0.000 
#    0.000    0.000    0.000    0.000    0.000    0.000 
#
# Total GULP energy -396550.966695 kJ/mol
# GULP energy per Si atom -12392.217709 kJ/mol
# Density = 1.792718 g / cm^3
# Si number density = 17.968080 Si / 1000 Ang^3
#
#
#
# Elastic Constant Matrix: (Units=GPa)
#
#
# Indices 1 2 3 4 5 6 
#
# 1 60.7304 13.9020 26.0504 0.0000 -1.7282 0.0000
# 2 13.9020 69.6200 25.7265 0.0000 10.8902 0.0000
# 3 26.0504 25.7265 103.1956 0.0000 -10.5268 0.0000
# 4 0.0000 0.0000 0.0000 25.5179 0.0000 2.1432
# 5 -1.7282 10.8902 -10.5268 0.0000 31.2216 0.0000
# 6 0.0000 0.0000 0.0000 2.1432 0.0000 9.1900
#
#
#
# Elastic Compliance Matrix: (Units=1/GPa)
#
#
# Indices 1 2 3 4 5 6 
#
# 1 0.018772 -0.002296 -0.004120 0.000000 0.000451 0.000000
# 2 -0.002296 0.017779 -0.004658 0.000000 -0.007899 0.000000
# 3 -0.004120 -0.004658 0.012463 0.000000 0.005599 0.000000
# 4 0.000000 0.000000 0.000000 0.039971 0.000000 -0.009322
# 5 0.000451 -0.007899 0.005599 0.000000 0.036697 0.000000
# 6 0.000000 0.000000 0.000000 -0.009322 0.000000 0.110988
#
#
# Mechanical properties :
#
#
# Convention : Reuss Voigt Hill
#
# Bulk Modulus (GPa) = 37.22455 40.54487 38.88471
# Shear Modulus (GPa) = 18.67233 24.37702 21.52468
#
# Velocity S-wave (km/s) = 3.22715 3.68732 3.46488
# Velocity P-wave (km/s) = 5.88626 6.38297 6.13964
#
# Compressibility (1/GPa) = 0.02686399
#
# Stress axis : x y z
#
# Youngs Moduli (GPa) = 53.27046 56.24515 80.23797
#
# Poissons Ratio (x) = 0.12917 0.33060
# Poissons Ratio (y) = 0.12233 0.37378
# Poissons Ratio (z) = 0.21949 0.26201
#
# Static dielectric constant tensor:
#      x y z
#    x 3.170250 0.000000 -0.196030 
#    y 0.000000 3.287840 0.000000 
#    z -0.196030 0.000000 3.274830 
# 
# 
# High freq. dielectric constant tensor:
#      x y z
#    x 1.673970 0.000000 -0.020820 
#    y 0.000000 1.690810 0.000000 
#    z -0.020820 0.000000 1.697700 
# 
# From -- ./inp_files/59702.got.cif
#   From: 2010.06.25/outbox.cif.g09.slc.cpg/sg11_30_cif.got.tgz:59702.got - 2010.06.27 23:14:04.
