data_PCOD8071406
_publ_section_title
;
Structure prediction by ZEFSAII (Michael W. Deem and Ramdas Pophale) SiO2 
 PCOD8071406
Probable space group: P 21/M
;
_chemical_formula_sum "Si O2"
_cell_formula_units_Z 24
_cell_length_a 23.765561
_cell_length_b 9.083742
_cell_length_c 18.285758
_cell_angle_alpha 90.000000
_cell_angle_beta 160.145225
_cell_angle_gamma 90.000000
_cell_volume 1340.729442
_symmetry_space_group_name_H-M "P 21/M"
_symmetry_group_IT_number 11
_symmetry_cell_setting 'monoclinic'
loop_
_space_group_symop_operation_xyz
x,y,z
-x,1/2+y,-z
-x,-y,-z
x,1/2-y,z
loop_
_atom_site_type_symbol
_atom_site_label
_atom_site_fract_x
_atom_site_fract_y
_atom_site_fract_z
Si Si1 0.546460 0.081541 0.130102
Si Si2 0.348458 0.081156 0.515703
Si Si3 0.500232 0.919205 0.576657
Si Si4 0.835343 0.921176 0.569039
Si Si5 0.618724 0.915413 0.928447
Si Si6 0.156309 0.085129 0.919755
O O1 0.585981 0.250000 0.159505
O O2 0.388349 0.068894 0.992197
O O3 0.709903 0.014042 0.366307
O O4 0.500000 0.000000 0.000000
O O5 0.356701 0.250000 0.501271
O O6 0.190671 0.049823 0.375572
O O7 0.351916 0.983429 0.446399
O O8 0.505811 0.043344 0.757870
O O9 0.461070 0.750000 0.514780
O O10 0.500000 0.000000 0.500000
O O11 0.675858 0.945142 0.830292
O O12 0.809062 0.750000 0.518506
O O13 0.021703 0.966579 0.778331
O O14 0.552390 0.750000 0.825628
O O15 0.801304 0.933036 0.115544
O O16 0.090104 0.250000 0.854862
#
# Coordination Sequence:
#
# PCOD8071406 Si02
#       6
#     4   4   4   4   4   4
#     4  10  19  33  53  75 101 131 165 206 250 295
#     4   9  17  30  49  72  98 128 164 202 240 290
#     4  10  20  34  53  76 101 130 166 205 247 294
#     4  10  20  33  51  76 102 130 166 204 244 293
#     4   8  16  31  50  71  96 129 166 202 243 293
#     4   9  18  33  52  74  99 128 163 203 247 293
#
# _framework density 17.900704000000001
#
# number of rings (size 3 to 8) (size 9 to 14) (size 15 to 20)
#    0.000    2.667    0.000    3.000    0.000    6.000 
#    0.000    1.667    0.000    0.000    0.000    0.000 
#    0.000    0.000    0.000    0.000    0.000    0.000 
#
# Total GULP energy -297410.302709 kJ/mol
# GULP energy per Si atom -12392.095946 kJ/mol
# Density = 1.785996 g / cm^3
# Si number density = 17.900704 Si / 1000 Ang^3
#
#
#
# Elastic Constant Matrix: (Units=GPa)
#
#
# Indices 1 2 3 4 5 6 
#
# 1 157.2102 76.4409 43.4884 0.0000 4.2663 0.0000
# 2 76.4409 119.0588 35.2813 0.0000 3.9106 0.0000
# 3 43.4884 35.2813 39.2903 0.0000 7.6258 0.0000
# 4 0.0000 0.0000 0.0000 28.2336 0.0000 -1.0471
# 5 4.2663 3.9106 7.6258 0.0000 27.6807 0.0000
# 6 0.0000 0.0000 0.0000 -1.0471 0.0000 34.7831
#
#
#
# Elastic Compliance Matrix: (Units=1/GPa)
#
#
# Indices 1 2 3 4 5 6 
#
# 1 0.010782 -0.004573 -0.008061 0.000000 0.001205 0.000000
# 2 -0.004573 0.013428 -0.007147 0.000000 0.000777 0.000000
# 3 -0.008061 -0.007147 0.042634 0.000000 -0.009493 0.000000
# 4 0.000000 0.000000 0.000000 0.035458 0.000000 0.001067
# 5 0.001205 0.000777 -0.009493 0.000000 0.038446 0.000000
# 6 0.000000 0.000000 0.000000 0.001067 0.000000 0.028782
#
#
# Mechanical properties :
#
#
# Convention : Reuss Voigt Hill
#
# Bulk Modulus (GPa) = 36.65457 69.55341 53.10399
# Shear Modulus (GPa) = 22.91632 28.82938 25.87285
#
# Velocity S-wave (km/s) = 3.58186 4.01748 3.80591
# Velocity P-wave (km/s) = 6.13411 7.77558 7.00311
#
# Compressibility (1/GPa) = 0.02728173
#
# Stress axis : x y z
#
# Youngs Moduli (GPa) = 92.74943 74.47346 23.45548
#
# Poissons Ratio (x) = 0.34058 0.18908
# Poissons Ratio (y) = 0.42415 0.16762
# Poissons Ratio (z) = 0.74767 0.53223
#
# Static dielectric constant tensor:
#      x y z
#    x 3.781520 0.000000 0.137850 
#    y 0.000000 3.427250 0.000000 
#    z 0.137850 0.000000 2.811030 
# 
# 
# High freq. dielectric constant tensor:
#      x y z
#    x 1.715210 0.000000 0.010350 
#    y 0.000000 1.708250 0.000000 
#    z 0.010350 0.000000 1.634340 
# 
# From -- ./inp_files/20502.got.cif
#   From: 2010.06.25/outbox.cif.g09.slc.cpg/sg11_11_cif.got.tgz:20502.got - 2010.06.27 23:14:04.
