data_PCOD8071867
_publ_section_title
;
Structure prediction by ZEFSAII (Michael W. Deem and Ramdas Pophale) SiO2 
 PCOD8071867
Probable space group: P 21/M
;
_chemical_formula_sum "Si O2"
_cell_formula_units_Z 32
_cell_length_a 19.107849
_cell_length_b 8.697392
_cell_length_c 26.761975
_cell_angle_alpha 90.000000
_cell_angle_beta 24.681206
_cell_angle_gamma 90.000000
_cell_volume 1857.151367
_symmetry_space_group_name_H-M "P 21/M"
_symmetry_group_IT_number 11
_symmetry_cell_setting 'monoclinic'
loop_
_space_group_symop_operation_xyz
x,y,z
-x,1/2+y,-z
-x,-y,-z
x,1/2-y,z
loop_
_atom_site_type_symbol
_atom_site_label
_atom_site_fract_x
_atom_site_fract_y
_atom_site_fract_z
Si Si1 0.189446 0.430649 0.225333
Si Si2 0.577512 0.068516 0.845578
Si Si3 0.819580 0.571934 0.608812
Si Si4 0.847423 0.927908 0.478080
Si Si5 0.229806 0.569758 0.091211
Si Si6 0.622588 0.069495 0.379692
Si Si7 0.656553 0.931255 0.507399
Si Si8 0.884982 0.570957 0.269735
O O1 0.219237 0.250000 0.209920
O O2 0.340065 0.514946 0.156161
O O3 0.190641 0.481263 0.167471
O O4 0.015780 0.473374 0.364590
O O5 0.555436 0.250000 0.860928
O O6 0.685911 0.020210 0.727729
O O7 0.397694 0.989189 0.956429
O O8 0.821553 0.750000 0.623983
O O9 0.768397 0.553063 0.584110
O O10 0.000000 0.500000 0.500000
O O11 0.895336 0.750000 0.436749
O O12 0.709809 0.991764 0.527685
O O13 0.239872 0.750000 0.096629
O O14 0.081076 0.533300 0.148402
O O15 0.629868 0.250000 0.381381
O O16 0.536654 0.024668 0.381774
O O17 0.500000 0.000000 0.500000
O O18 0.809829 0.003598 0.267335
O O19 0.676074 0.750000 0.494900
O O20 0.786690 0.997298 0.381774
O O21 0.851530 0.750000 0.286897
#
# Coordination Sequence:
#
# PCOD8071867 Si02
#       8
#     4   4   4   4   4   4   4   4
#     4  12  23  35  53  78 106 135 174 214 259 311
#     4  12  25  40  55  73 102 138 177 219 263 308
#     4  11  22  36  57  79 101 134 175 220 264 309
#     4  10  19  34  55  76 102 138 176 212 259 307
#     4  11  22  38  56  75 104 138 176 215 259 313
#     4   9  16  26  43  68 101 136 169 203 245 300
#     4   8  14  28  47  71 100 134 168 202 248 302
#     4   9  17  30  49  71 101 137 167 202 252 308
#
# _framework density 17.230689999999999
#
# number of rings (size 3 to 8) (size 9 to 14) (size 15 to 20)
#    0.000    1.750    2.500    4.500    0.000    1.500 
#    0.000    0.625    0.000    0.000    0.000    0.875 
#    0.000    0.000    0.000    0.000    0.000    0.000 
#
# Total GULP energy -396676.734611 kJ/mol
# GULP energy per Si atom -12396.147957 kJ/mol
# Density = 1.719147 g / cm^3
# Si number density = 17.230690 Si / 1000 Ang^3
#
#
#
# Elastic Constant Matrix: (Units=GPa)
#
#
# Indices 1 2 3 4 5 6 
#
# 1 99.5130 33.4854 42.2948 0.0000 -32.1004 0.0000
# 2 33.4854 1.6279 6.8324 0.0000 -8.7202 0.0000
# 3 42.2948 6.8324 73.2751 0.0000 -15.3701 0.0000
# 4 0.0000 0.0000 0.0000 26.5335 0.0000 -3.9811
# 5 -32.1004 -8.7202 -15.3701 0.0000 30.3560 0.0000
# 6 0.0000 0.0000 0.0000 -3.9811 0.0000 23.5786
#
#
#
# Elastic Compliance Matrix: (Units=1/GPa)
#
#
# Indices 1 2 3 4 5 6 
#
# 1 0.001620 0.039074 -0.002086 0.000000 0.011882 0.000000
# 2 0.039074 -0.092580 -0.012120 0.000000 0.008588 0.000000
# 3 -0.002086 -0.012120 0.016546 0.000000 0.002690 0.000000
# 4 0.000000 0.000000 0.000000 0.038668 0.000000 0.006529
# 5 0.011882 0.008588 0.002690 0.000000 0.049336 0.000000
# 6 0.000000 0.000000 0.000000 0.006529 0.000000 0.043514
#
#
# Mechanical properties :
#
#
# Convention : Reuss Voigt Hill
#
# Bulk Modulus (GPa) = -40.52076 37.73791 -1.39142
# Shear Modulus (GPa) = -5824.19012 22.21386 -2900.98813
#
# Velocity S-wave (km/s) = -58.20192 3.59444 -41.07641
# Velocity P-wave (km/s) = 67.38090 6.25906 47.43949
#
# Compressibility (1/GPa) = -0.02467871
#
# Stress axis : x y z
#
# Youngs Moduli (GPa) = 617.14915 -10.80146 60.43849
#
# Poissons Ratio (x) = 0.42205 0.12610
# Poissons Ratio (y) = -24.11434 0.73250
# Poissons Ratio (z) = 1.28761 -0.13091
#
# Static dielectric constant tensor:
#      x y z
#    x 3.637120 0.000000 -0.282140 
#    y 0.000000 3.297880 0.000000 
#    z -0.282140 0.000000 3.109980 
# 
# 
# High freq. dielectric constant tensor:
#      x y z
#    x 1.666850 0.000000 -0.024990 
#    y 0.000000 1.667040 0.000000 
#    z -0.024990 0.000000 1.634130 
# 
# From -- ./inp_files/68328.got.cif
#   From: 2010.06.25/outbox.cif.g09.slc.cpg/sg11_35_cif.got.tgz:68328.got - 2010.06.27 23:14:04.
