data_PCOD8071392
_publ_section_title
;
Structure prediction by ZEFSAII (Michael W. Deem and Ramdas Pophale) SiO2 
 PCOD8071392
Probable space group: P 21/M
;
_chemical_formula_sum "Si O2"
_cell_formula_units_Z 32
_cell_length_a 21.066719
_cell_length_b 9.014554
_cell_length_c 15.134451
_cell_angle_alpha 90.000000
_cell_angle_beta 41.479061
_cell_angle_gamma 90.000000
_cell_volume 1903.675540
_symmetry_space_group_name_H-M "P 21/M"
_symmetry_group_IT_number 11
_symmetry_cell_setting 'monoclinic'
loop_
_space_group_symop_operation_xyz
x,y,z
-x,1/2+y,-z
-x,-y,-z
x,1/2-y,z
loop_
_atom_site_type_symbol
_atom_site_label
_atom_site_fract_x
_atom_site_fract_y
_atom_site_fract_z
Si Si1 0.394055 0.077334 0.709371
Si Si2 0.133602 0.581427 0.532897
Si Si3 0.414586 0.078682 0.483859
Si Si4 0.901445 0.078590 0.124067
Si Si5 0.216855 0.423376 0.603932
Si Si6 0.794947 0.421688 0.055269
Si Si7 0.901065 0.422129 0.623153
Si Si8 0.090941 0.423047 0.214223
O O1 0.383537 0.250000 0.741235
O O2 0.385874 0.042130 0.614155
O O3 0.495746 0.020290 0.640215
O O4 0.310192 0.990693 0.847422
O O5 0.154170 0.750000 0.540833
O O6 0.199114 0.471006 0.521470
O O7 0.162759 0.559469 0.399174
O O8 0.021973 0.544100 0.664321
O O9 0.443746 0.250000 0.443926
O O10 0.325687 0.035407 0.514735
O O11 0.922990 0.250000 0.119314
O O12 0.827197 0.054978 0.122217
O O13 0.857845 0.010238 0.257756
O O14 0.000000 0.000000 0.000000
O O15 0.198117 0.250000 0.636410
O O16 0.792330 0.250000 0.031222
O O17 0.870036 0.506132 0.915718
O O18 0.918912 0.250000 0.625479
O O19 0.855885 0.501158 0.756603
O O20 0.000000 0.500000 0.500000
O O21 0.114411 0.250000 0.191520
#
# Coordination Sequence:
#
# PCOD8071392 Si02
#       8
#     4   4   4   4   4   4   4   4
#     4  10  19  33  53  72  94 125 162 207 251 291
#     4   9  19  33  49  72 101 133 166 204 244 288
#     4   9  19  34  50  71  97 125 161 205 250 292
#     4  11  23  35  48  66  95 134 171 203 238 284
#     4  11  21  33  50  72  99 131 165 203 244 289
#     4  11  22  34  49  71  98 131 167 203 246 295
#     4   9  17  31  50  71  97 128 164 206 249 289
#     4  10  20  33  50  72 100 132 167 207 247 290
#
# _framework density 16.809587000000001
#
# number of rings (size 3 to 8) (size 9 to 14) (size 15 to 20)
#    0.000    2.000    1.250    3.750    0.000    8.000 
#    0.000    0.000    0.000    0.000    0.000    0.875 
#    0.000    0.000    0.000    0.000    0.000    0.000 
#
# Total GULP energy -396839.550336 kJ/mol
# GULP energy per Si atom -12401.235948 kJ/mol
# Density = 1.677133 g / cm^3
# Si number density = 16.809587 Si / 1000 Ang^3
#
#
#
# Elastic Constant Matrix: (Units=GPa)
#
#
# Indices 1 2 3 4 5 6 
#
# 1 88.0502 48.8492 25.1515 0.0000 -0.5826 0.0000
# 2 48.8492 101.6690 27.5352 0.0000 -5.3664 0.0000
# 3 25.1515 27.5352 25.2162 0.0000 -6.6841 0.0000
# 4 0.0000 0.0000 0.0000 30.9802 0.0000 1.5533
# 5 -0.5826 -5.3664 -6.6841 0.0000 24.4420 0.0000
# 6 0.0000 0.0000 0.0000 1.5533 0.0000 29.5314
#
#
#
# Elastic Compliance Matrix: (Units=1/GPa)
#
#
# Indices 1 2 3 4 5 6 
#
# 1 0.018104 -0.005288 -0.013452 0.000000 -0.004408 0.000000
# 2 -0.005288 0.015543 -0.011673 0.000000 0.000094 0.000000
# 3 -0.013452 -0.011673 0.070141 0.000000 0.016298 0.000000
# 4 0.000000 0.000000 0.000000 0.032364 0.000000 -0.001702
# 5 -0.004408 0.000094 0.016298 0.000000 0.045286 0.000000
# 6 0.000000 0.000000 0.000000 -0.001702 0.000000 0.033952
#
#
# Mechanical properties :
#
#
# Convention : Reuss Voigt Hill
#
# Bulk Modulus (GPa) = 23.27619 46.44526 34.86072
# Shear Modulus (GPa) = 17.20956 24.55068 20.88012
#
# Velocity S-wave (km/s) = 3.20315 3.82582 3.52825
# Velocity P-wave (km/s) = 5.24950 6.87066 6.11405
#
# Compressibility (1/GPa) = 0.04296236
#
# Stress axis : x y z
#
# Youngs Moduli (GPa) = 55.23553 64.33768 14.25702
#
# Poissons Ratio (x) = 0.34022 0.19178
# Poissons Ratio (y) = 0.29209 0.16642
# Poissons Ratio (z) = 0.74302 0.75101
#
# Static dielectric constant tensor:
#      x y z
#    x 3.239950 0.000000 0.148930 
#    y 0.000000 3.335020 0.000000 
#    z 0.148930 0.000000 3.067140 
# 
# 
# High freq. dielectric constant tensor:
#      x y z
#    x 1.636350 0.000000 0.007230 
#    y 0.000000 1.665390 0.000000 
#    z 0.007230 0.000000 1.621220 
# 
# From -- ./inp_files/45209.got.cif
#   From: 2010.06.25/outbox.cif.g09.slc.cpg/sg11_23_cif.got.tgz:45209.got - 2010.06.27 23:14:04.
