data_PCOD8071700
_publ_section_title
;
Structure prediction by ZEFSAII (Michael W. Deem and Ramdas Pophale) SiO2 
 PCOD8071700
Probable space group: P 21/M
;
_chemical_formula_sum "Si O2"
_cell_formula_units_Z 32
_cell_length_a 24.307347
_cell_length_b 8.990931
_cell_length_c 20.289454
_cell_angle_alpha 90.000000
_cell_angle_beta 23.432507
_cell_angle_gamma 90.000000
_cell_volume 1763.330815
_symmetry_space_group_name_H-M "P 21/M"
_symmetry_group_IT_number 11
_symmetry_cell_setting 'monoclinic'
loop_
_space_group_symop_operation_xyz
x,y,z
-x,1/2+y,-z
-x,-y,-z
x,1/2-y,z
loop_
_atom_site_type_symbol
_atom_site_label
_atom_site_fract_x
_atom_site_fract_y
_atom_site_fract_z
Si Si1 0.256947 0.921443 0.567899
Si Si2 0.037991 0.920198 0.270954
Si Si3 0.809891 0.423545 0.027908
Si Si4 0.501438 0.926892 0.069244
Si Si5 0.322992 0.576736 0.019358
Si Si6 0.235037 0.574698 0.442436
Si Si7 0.978682 0.924454 0.092913
Si Si8 0.571746 0.921702 0.225669
O O1 0.209673 0.750000 0.623242
O O2 0.246894 0.983116 0.504374
O O3 0.413311 0.939885 0.422043
O O4 0.160562 0.017790 0.720640
O O5 0.991365 0.750000 0.319452
O O6 0.158377 0.946123 0.192061
O O7 0.091016 0.972348 0.140981
O O8 0.904726 0.015386 0.437749
O O9 0.772859 0.250000 0.062546
O O10 0.667643 0.516656 0.179529
O O11 0.887066 0.462838 0.010655
O O12 0.509751 0.750000 0.054089
O O13 0.365450 0.982516 0.257479
O O14 0.500000 0.000000 0.000000
O O15 0.634458 0.987240 0.962292
O O16 0.360115 0.750000 0.985757
O O17 0.403643 0.514105 0.867660
O O18 0.233073 0.750000 0.443494
O O19 0.963227 0.750000 0.100020
O O20 0.000000 0.000000 0.000000
O O21 0.606840 0.750000 0.172449
#
# Coordination Sequence:
#
# PCOD8071700 Si02
#       8
#     4   4   4   4   4   4   4   4
#     4  10  20  36  56  84 115 144 184 235 279 325
#     4   9  18  33  54  83 113 140 183 231 276 327
#     4   9  19  35  53  80 114 145 182 230 278 329
#     4  11  23  40  58  83 115 150 190 230 281 338
#     4  10  20  35  55  82 115 149 184 229 279 329
#     4  10  20  35  56  83 114 143 183 233 276 325
#     4  11  23  39  58  82 114 151 189 231 280 338
#     4  10  19  33  56  85 114 144 184 233 279 328
#
# _framework density 18.147475
#
# number of rings (size 3 to 8) (size 9 to 14) (size 15 to 20)
#    0.000    2.000    2.500    2.250    0.000    5.500 
#    0.000    1.250    0.000    0.000    0.000    0.000 
#    0.000    0.000    0.000    0.000    0.000    0.000 
#
# Total GULP energy -396877.812800 kJ/mol
# GULP energy per Si atom -12402.431650 kJ/mol
# Density = 1.810617 g / cm^3
# Si number density = 18.147475 Si / 1000 Ang^3
#
#
#
# Elastic Constant Matrix: (Units=GPa)
#
#
# Indices 1 2 3 4 5 6 
#
# 1 132.5077 55.8798 64.3140 0.0000 -1.6229 0.0000
# 2 55.8798 72.9351 47.7056 0.0000 -3.9612 0.0000
# 3 64.3140 47.7056 100.6159 0.0000 -4.4641 0.0000
# 4 0.0000 0.0000 0.0000 30.8038 0.0000 -3.2467
# 5 -1.6229 -3.9612 -4.4641 0.0000 28.6983 0.0000
# 6 0.0000 0.0000 0.0000 -3.2467 0.0000 35.3280
#
#
#
# Elastic Compliance Matrix: (Units=1/GPa)
#
#
# Indices 1 2 3 4 5 6 
#
# 1 0.012751 -0.006469 -0.005126 0.000000 -0.000969 0.000000
# 2 -0.006469 0.023203 -0.006788 0.000000 0.001781 0.000000
# 3 -0.005126 -0.006788 0.016493 0.000000 0.001339 0.000000
# 4 0.000000 0.000000 0.000000 0.032781 0.000000 0.003013
# 5 -0.000969 0.001781 0.001339 0.000000 0.035245 0.000000
# 6 0.000000 0.000000 0.000000 0.003013 0.000000 0.028583
#
#
# Mechanical properties :
#
#
# Convention : Reuss Voigt Hill
#
# Bulk Modulus (GPa) = 63.76770 71.31753 67.54261
# Shear Modulus (GPa) = 26.17128 28.17664 27.17396
#
# Velocity S-wave (km/s) = 3.80168 3.94464 3.87382
# Velocity P-wave (km/s) = 7.38141 7.75442 7.57022
#
# Compressibility (1/GPa) = 0.01568192
#
# Stress axis : x y z
#
# Youngs Moduli (GPa) = 78.42550 43.09723 60.63090
#
# Poissons Ratio (x) = 0.27879 0.31082
# Poissons Ratio (y) = 0.50732 0.41154
# Poissons Ratio (z) = 0.40204 0.29253
#
# Static dielectric constant tensor:
#      x y z
#    x 3.484140 0.000000 -0.166780 
#    y 0.000000 3.391950 0.000000 
#    z -0.166780 0.000000 3.369920 
# 
# 
# High freq. dielectric constant tensor:
#      x y z
#    x 1.699790 0.000000 -0.020970 
#    y 0.000000 1.709250 0.000000 
#    z -0.020970 0.000000 1.690140 
# 
# From -- ./inp_files/67120.got.cif
#   From: 2010.06.25/outbox.cif.g09.slc.cpg/sg11_34_cif.got.tgz:67120.got - 2010.06.27 23:14:04.
