data_PCOD8071501
_publ_section_title
;
Structure prediction by ZEFSAII (Michael W. Deem and Ramdas Pophale) SiO2 
 PCOD8071501
Probable space group: P 21/M
;
_chemical_formula_sum "Si O2"
_cell_formula_units_Z 32
_cell_length_a 12.500854
_cell_length_b 9.462872
_cell_length_c 19.354660
_cell_angle_alpha 90.000000
_cell_angle_beta 48.671762
_cell_angle_gamma 90.000000
_cell_volume 1719.304176
_symmetry_space_group_name_H-M "P 21/M"
_symmetry_group_IT_number 11
_symmetry_cell_setting 'monoclinic'
loop_
_space_group_symop_operation_xyz
x,y,z
-x,1/2+y,-z
-x,-y,-z
x,1/2-y,z
loop_
_atom_site_type_symbol
_atom_site_label
_atom_site_fract_x
_atom_site_fract_y
_atom_site_fract_z
Si Si1 0.690875 0.084118 0.704520
Si Si2 0.202356 0.588266 0.492991
Si Si3 0.085243 0.414093 0.021696
Si Si4 0.686224 0.407449 0.271669
Si Si5 0.630699 0.911450 0.168227
Si Si6 0.577418 0.910568 0.524450
Si Si7 0.967882 0.415451 0.217287
Si Si8 0.085030 0.413577 0.311417
O O1 0.705200 0.250000 0.712847
O O2 0.755843 0.044187 0.602233
O O3 0.527165 0.031144 0.781767
O O4 0.776778 0.001378 0.726280
O O5 0.249803 0.750000 0.487490
O O6 0.277674 0.486013 0.515633
O O7 0.034582 0.569483 0.577945
O O8 0.041728 0.250000 0.032049
O O9 0.046961 0.471734 0.114510
O O10 0.257201 0.431059 0.942005
O O11 0.000000 0.500000 0.000000
O O12 0.727448 0.250000 0.229005
O O13 0.703890 0.509962 0.200342
O O14 0.525409 0.411052 0.365884
O O15 0.799413 0.453529 0.282781
O O16 0.613838 0.750000 0.198371
O O17 0.607637 0.750000 0.486524
O O18 0.500000 0.000000 0.500000
O O19 0.990265 0.250000 0.214857
O O20 0.030208 0.479692 0.261775
O O21 0.128592 0.250000 0.285631
#
# Coordination Sequence:
#
# PCOD8071501 Si02
#       8
#     4   4   4   4   4   4   4   4
#     4  10  21  37  55  77 110 144 179 230 278 317
#     4  10  20  36  56  77 106 143 183 228 275 322
#     4  10  19  33  56  82 109 142 177 216 270 330
#     4  10  19  33  54  78 106 141 178 218 265 321
#     4  10  20  34  54  81 109 139 174 217 273 325
#     4  11  22  33  50  78 112 148 184 221 267 327
#     4   9  18  34  54  78 109 140 174 222 272 315
#     4  10  21  37  57  78 104 143 189 229 268 322
#
# _framework density 18.612181
#
# number of rings (size 3 to 8) (size 9 to 14) (size 15 to 20)
#    0.000    2.000    2.500    1.500    0.000    4.000 
#    0.000    1.875    0.000    0.000    0.000    0.000 
#    0.000    0.000    0.000    0.000    0.000    0.000 
#
# Total GULP energy -396709.162065 kJ/mol
# GULP energy per Si atom -12397.161315 kJ/mol
# Density = 1.856982 g / cm^3
# Si number density = 18.612181 Si / 1000 Ang^3
#
#
#
# Elastic Constant Matrix: (Units=GPa)
#
#
# Indices 1 2 3 4 5 6 
#
# 1 123.9613 42.8112 35.5811 0.0000 -6.7787 0.0000
# 2 42.8112 59.5525 13.5330 0.0000 -2.6273 0.0000
# 3 35.5811 13.5330 80.2728 0.0000 -8.4144 0.0000
# 4 0.0000 0.0000 0.0000 16.0881 0.0000 1.0846
# 5 -6.7787 -2.6273 -8.4144 0.0000 24.6171 0.0000
# 6 0.0000 0.0000 0.0000 1.0846 0.0000 36.0152
#
#
#
# Elastic Compliance Matrix: (Units=1/GPa)
#
#
# Indices 1 2 3 4 5 6 
#
# 1 0.011861 -0.007600 -0.003857 0.000000 0.001137 0.000000
# 2 -0.007600 0.022349 -0.000382 0.000000 0.000162 0.000000
# 3 -0.003857 -0.000382 0.014641 0.000000 0.003901 0.000000
# 4 0.000000 0.000000 0.000000 0.062284 0.000000 -0.001876
# 5 0.001137 0.000162 0.003901 0.000000 0.042286 0.000000
# 6 0.000000 0.000000 0.000000 -0.001876 0.000000 0.027823
#
#
# Mechanical properties :
#
#
# Convention : Reuss Voigt Hill
#
# Bulk Modulus (GPa) = 39.72575 49.73747 44.73161
# Shear Modulus (GPa) = 23.43978 26.80152 25.12065
#
# Velocity S-wave (km/s) = 3.55262 3.79885 3.67780
# Velocity P-wave (km/s) = 6.18211 6.78401 6.49004
#
# Compressibility (1/GPa) = 0.02517259
#
# Stress axis : x y z
#
# Youngs Moduli (GPa) = 84.30970 44.74393 68.30353
#
# Poissons Ratio (x) = 0.34006 0.26345
# Poissons Ratio (y) = 0.64076 0.02610
# Poissons Ratio (z) = 0.32518 0.01710
#
# Static dielectric constant tensor:
#      x y z
#    x 3.402770 0.000000 -0.106320 
#    y 0.000000 3.298610 0.000000 
#    z -0.106320 0.000000 3.643880 
# 
# 
# High freq. dielectric constant tensor:
#      x y z
#    x 1.714050 0.000000 -0.009720 
#    y 0.000000 1.707080 0.000000 
#    z -0.009720 0.000000 1.723780 
# 
# From -- ./inp_files/38139.got.cif
#   From: 2010.06.25/outbox.cif.g09.slc.cpg/sg11_20_cif.got.tgz:38139.got - 2010.06.27 23:14:04.
