data_PCOD8071381
_publ_section_title
;
Structure prediction by ZEFSAII (Michael W. Deem and Ramdas Pophale) SiO2 
 PCOD8071381
Probable space group: P 21/M
;
_chemical_formula_sum "Si O2"
_cell_formula_units_Z 28
_cell_length_a 31.565534
_cell_length_b 8.504795
_cell_length_c 31.565031
_cell_angle_alpha 90.000000
_cell_angle_beta 9.455914
_cell_angle_gamma 90.000000
_cell_volume 1392.165310
_symmetry_space_group_name_H-M "P 21/M"
_symmetry_group_IT_number 11
_symmetry_cell_setting 'monoclinic'
loop_
_space_group_symop_operation_xyz
x,y,z
-x,1/2+y,-z
-x,-y,-z
x,1/2-y,z
loop_
_atom_site_type_symbol
_atom_site_label
_atom_site_fract_x
_atom_site_fract_y
_atom_site_fract_z
Si Si1 0.380257 0.063981 0.382940
Si Si2 0.334003 0.062204 0.333752
Si Si3 0.523295 0.564389 0.523904
Si Si4 0.190182 0.937056 0.190509
Si Si5 0.905426 0.436917 0.908645
Si Si6 0.761434 0.063615 0.761462
Si Si7 0.045909 0.065625 0.046636
O O1 0.380030 0.250000 0.380091
O O2 0.357697 0.993919 0.357919
O O3 0.139538 0.006879 0.648150
O O4 0.643518 0.006236 0.144699
O O5 0.334166 0.250000 0.334170
O O6 0.072275 0.997123 0.571062
O O7 0.571638 0.997135 0.071774
O O8 0.500000 0.500000 0.500000
O O9 0.522420 0.750000 0.523301
O O10 0.785276 0.507954 0.286447
O O11 0.285509 0.507853 0.786127
O O12 0.189895 0.750000 0.190144
O O13 0.214472 0.999424 0.214370
O O14 0.909417 0.250000 0.912926
O O15 0.929321 0.528358 0.928621
O O16 0.760777 0.250000 0.760788
O O17 0.000000 0.000000 0.500000
O O18 0.500000 0.000000 0.000000
O O19 0.041708 0.250000 0.042721
#
# Coordination Sequence:
#
# PCOD8071381 Si02
#       7
#     4   4   4   4   4   4   4
#     4   9  17  28  48  77 109 140 179 229 285 338
#     4   9  15  26  44  72 106 138 172 226 287 336
#     4  12  25  44  67  93 124 160 199 246 298 351
#     4   9  17  28  46  72 105 138 177 228 285 336
#     4  10  19  33  52  79 112 147 184 230 283 338
#     4  11  22  37  56  82 113 150 191 238 290 348
#     4  12  25  42  63  91 123 161 204 245 289 345
#
# _framework density 20.112553999999999
#
# number of rings (size 3 to 8) (size 9 to 14) (size 15 to 20)
#    0.000    1.714    0.000    6.000    0.000    6.857 
#    0.000    0.000    0.000    0.000    0.000   20.000 
#    0.000    0.000    0.000    0.000    0.000    0.000 
#
# Total GULP energy -347285.595595 kJ/mol
# GULP energy per Si atom -12403.056986 kJ/mol
# Density = 2.006678 g / cm^3
# Si number density = 20.112554 Si / 1000 Ang^3
#
#
#
# Elastic Constant Matrix: (Units=GPa)
#
#
# Indices 1 2 3 4 5 6 
#
# 1 210.8063 41.9632 116.1790 0.0000 -1.6870 0.0000
# 2 41.9632 84.7158 41.2741 0.0000 -0.0565 0.0000
# 3 116.1790 41.2741 226.9738 0.0000 -3.0301 0.0000
# 4 0.0000 0.0000 0.0000 21.7540 0.0000 0.3487
# 5 -1.6870 -0.0565 -3.0301 0.0000 48.0917 0.0000
# 6 0.0000 0.0000 0.0000 0.3487 0.0000 26.7105
#
#
#
# Elastic Compliance Matrix: (Units=1/GPa)
#
#
# Indices 1 2 3 4 5 6 
#
# 1 0.006863 -0.001852 -0.003175 0.000000 0.000038 0.000000
# 2 -0.001852 0.013452 -0.001500 0.000000 -0.000144 0.000000
# 3 -0.003175 -0.001500 0.006308 0.000000 0.000284 0.000000
# 4 0.000000 0.000000 0.000000 0.045978 0.000000 -0.000600
# 5 0.000038 -0.000144 0.000284 0.000000 0.020813 0.000000
# 6 0.000000 0.000000 0.000000 -0.000600 0.000000 0.037446
#
#
# Mechanical properties :
#
#
# Convention : Reuss Voigt Hill
#
# Bulk Modulus (GPa) = 73.70626 102.36982 88.03804
# Shear Modulus (GPa) = 33.68407 40.84987 37.26697
#
# Velocity S-wave (km/s) = 4.09685 4.51162 4.30923
# Velocity P-wave (km/s) = 7.68800 8.84017 8.28414
#
# Compressibility (1/GPa) = 0.01356737
#
# Stress axis : x y z
#
# Youngs Moduli (GPa) = 145.71409 74.33604 158.53510
#
# Poissons Ratio (x) = 0.13769 0.50342
# Poissons Ratio (y) = 0.26990 0.23781
# Poissons Ratio (z) = 0.46271 0.11151
#
# Static dielectric constant tensor:
#      x y z
#    x 3.946950 0.000000 -0.008360 
#    y 0.000000 3.292650 0.000000 
#    z -0.008360 0.000000 4.052360 
# 
# 
# High freq. dielectric constant tensor:
#      x y z
#    x 1.808480 0.000000 -0.000100 
#    y 0.000000 1.744650 0.000000 
#    z -0.000100 0.000000 1.809360 
# 
# From -- ./inp_files/73846.got.cif
#   From: 2010.06.25/outbox.cif.g09.slc.cpg/sg11_37_cif.got.tgz:73846.got - 2010.06.27 23:14:04.
