data_PCOD8071713
_publ_section_title
;
Structure prediction by ZEFSAII (Michael W. Deem and Ramdas Pophale) SiO2 
 PCOD8071713
Probable space group: P 21/M
;
_chemical_formula_sum "Si O2"
_cell_formula_units_Z 28
_cell_length_a 15.281742
_cell_length_b 8.622851
_cell_length_c 23.025061
_cell_angle_alpha 90.000000
_cell_angle_beta 152.738642
_cell_angle_gamma 90.000000
_cell_volume 1389.752790
_symmetry_space_group_name_H-M "P 21/M"
_symmetry_group_IT_number 11
_symmetry_cell_setting 'monoclinic'
loop_
_space_group_symop_operation_xyz
x,y,z
-x,1/2+y,-z
-x,-y,-z
x,1/2-y,z
loop_
_atom_site_type_symbol
_atom_site_label
_atom_site_fract_x
_atom_site_fract_y
_atom_site_fract_z
Si Si1 0.322675 0.067032 0.962593
Si Si2 0.655543 0.067755 0.549448
Si Si3 0.029027 0.567849 0.179071
Si Si4 0.935986 0.934547 0.523639
Si Si5 0.832994 0.064744 0.862087
Si Si6 0.421764 0.565396 0.625247
Si Si7 0.745571 0.433319 0.199401
O O1 0.317749 0.250000 0.950447
O O2 0.191590 0.017314 0.940409
O O3 0.226713 0.994667 0.848924
O O4 0.538295 0.008173 0.100768
O O5 0.627962 0.250000 0.531034
O O6 0.857581 0.017217 0.696035
O O7 0.636730 0.001528 0.473169
O O8 0.500000 0.000000 0.500000
O O9 0.042785 0.750000 0.178790
O O10 0.120485 0.496383 0.174858
O O11 0.931997 0.750000 0.519029
O O12 0.087876 0.997787 0.660840
O O13 0.726632 0.997997 0.415701
O O14 0.000000 0.000000 0.500000
O O15 0.826351 0.250000 0.860795
O O16 0.631817 0.996585 0.764976
O O17 0.000000 0.000000 0.000000
O O18 0.419587 0.750000 0.627692
O O19 0.752163 0.250000 0.202517
#
# Coordination Sequence:
#
# PCOD8071713 Si02
#       7
#     4   4   4   4   4   4   4
#     4   9  17  33  58  83 111 148 188 232 287 351
#     4  10  19  33  56  86 117 151 192 240 296 356
#     4   9  18  33  55  83 114 151 190 232 289 349
#     4  11  24  41  61  86 119 158 202 249 299 356
#     4  11  23  40  60  83 118 158 200 245 295 355
#     4  11  23  40  63  90 119 154 199 249 305 363
#     4   9  19  35  55  84 117 149 186 235 295 346
#
# _framework density 20.147468
#
# number of rings (size 3 to 8) (size 9 to 14) (size 15 to 20)
#    0.000    2.000    1.429    2.143    0.000    4.000 
#    0.000    5.000    0.000    0.000    0.000    0.000 
#    0.000    0.000    0.000    0.000    0.000    0.000 
#
# Total GULP energy -347122.004193 kJ/mol
# GULP energy per Si atom -12397.214435 kJ/mol
# Density = 2.010161 g / cm^3
# Si number density = 20.147468 Si / 1000 Ang^3
#
#
#
# Elastic Constant Matrix: (Units=GPa)
#
#
# Indices 1 2 3 4 5 6 
#
# 1 150.4108 29.1785 69.2864 0.0000 22.4428 0.0000
# 2 29.1785 45.6816 34.3109 0.0000 0.9865 0.0000
# 3 69.2864 34.3109 135.6785 0.0000 13.8792 0.0000
# 4 0.0000 0.0000 0.0000 27.5992 0.0000 0.7593
# 5 22.4428 0.9865 13.8792 0.0000 32.7645 0.0000
# 6 0.0000 0.0000 0.0000 0.7593 0.0000 29.5022
#
#
#
# Elastic Compliance Matrix: (Units=1/GPa)
#
#
# Indices 1 2 3 4 5 6 
#
# 1 0.009710 -0.003402 -0.003584 0.000000 -0.005030 0.000000
# 2 -0.003402 0.028364 -0.005840 0.000000 0.003950 0.000000
# 3 -0.003584 -0.005840 0.010880 0.000000 -0.001978 0.000000
# 4 0.000000 0.000000 0.000000 0.036259 0.000000 -0.000933
# 5 -0.005030 0.003950 -0.001978 0.000000 0.034686 0.000000
# 6 0.000000 0.000000 0.000000 -0.000933 0.000000 0.033920
#
#
# Mechanical properties :
#
#
# Convention : Reuss Voigt Hill
#
# Bulk Modulus (GPa) = 42.91225 66.36916 54.64070
# Shear Modulus (GPa) = 26.70432 31.23952 28.97192
#
# Velocity S-wave (km/s) = 3.64461 3.94197 3.79620
# Velocity P-wave (km/s) = 6.24950 7.33021 6.81132
#
# Compressibility (1/GPa) = 0.02330337
#
# Stress axis : x y z
#
# Youngs Moduli (GPa) = 102.98933 35.25554 91.91577
#
# Poissons Ratio (x) = 0.11993 0.32939
# Poissons Ratio (y) = 0.35034 0.53677
# Poissons Ratio (z) = 0.36907 0.20588
#
# Static dielectric constant tensor:
#      x y z
#    x 3.959710 0.000000 0.050620 
#    y 0.000000 3.301030 0.000000 
#    z 0.050620 0.000000 4.008100 
# 
# 
# High freq. dielectric constant tensor:
#      x y z
#    x 1.795220 0.000000 0.013920 
#    y 0.000000 1.768370 0.000000 
#    z 0.013920 0.000000 1.791270 
# 
# From -- ./inp_files/65449.got.cif
#   From: 2010.06.25/outbox.cif.g09.slc.cpg/sg11_33_cif.got.tgz:65449.got - 2010.06.27 23:14:04.
