data_PCOD8071124
_publ_section_title
;
Structure prediction by ZEFSAII (Michael W. Deem and Ramdas Pophale) SiO2 
 PCOD8071124
Probable space group: P 21/M
;
_chemical_formula_sum "Si O2"
_cell_formula_units_Z 32
_cell_length_a 27.087294
_cell_length_b 8.949241
_cell_length_c 21.147078
_cell_angle_alpha 90.000000
_cell_angle_beta 19.324371
_cell_angle_gamma 90.000000
_cell_volume 1696.366597
_symmetry_space_group_name_H-M "P 21/M"
_symmetry_group_IT_number 11
_symmetry_cell_setting 'monoclinic'
loop_
_space_group_symop_operation_xyz
x,y,z
-x,1/2+y,-z
-x,-y,-z
x,1/2-y,z
loop_
_atom_site_type_symbol
_atom_site_label
_atom_site_fract_x
_atom_site_fract_y
_atom_site_fract_z
Si Si1 0.302566 0.422642 0.898047
Si Si2 0.293828 0.920772 0.274201
Si Si3 0.496725 0.925988 0.228763
Si Si4 0.350830 0.927184 0.706709
Si Si5 0.451035 0.924352 0.960350
Si Si6 0.048964 0.925175 0.005156
Si Si7 0.179885 0.424248 0.610049
Si Si8 0.032286 0.919099 0.675114
O O1 0.325906 0.250000 0.850664
O O2 0.422040 0.475682 0.805235
O O3 0.321516 0.523143 0.813612
O O4 0.141908 0.449237 0.124531
O O5 0.347103 0.750000 0.220016
O O6 0.119680 0.940986 0.502775
O O7 0.389926 0.023319 0.204775
O O8 0.320935 0.965319 0.168177
O O9 0.498668 0.750000 0.218146
O O10 0.583450 0.994450 0.063872
O O11 0.328958 0.981730 0.436125
O O12 0.367838 0.750000 0.685061
O O13 0.500000 0.000000 0.500000
O O14 0.212266 0.980129 0.830572
O O15 0.460837 0.750000 0.934594
O O16 0.051798 0.750000 0.990984
O O17 0.927910 0.972312 0.203091
O O18 0.000000 0.000000 0.000000
O O19 0.219199 0.250000 0.563688
O O20 0.095648 0.462183 0.647575
O O21 0.058722 0.750000 0.668525
#
# Coordination Sequence:
#
# PCOD8071124 Si02
#       8
#     4   4   4   4   4   4   4   4
#     4  10  23  41  61  85 115 154 196 236 285 344
#     4   9  18  32  54  83 114 149 190 237 290 342
#     4  11  23  38  56  83 118 155 195 239 287 342
#     4  11  24  43  63  87 118 153 192 235 285 343
#     4  10  19  32  52  82 117 150 190 240 289 340
#     4  10  24  42  61  88 120 150 187 235 284 339
#     4  11  22  38  59  87 116 146 192 243 288 335
#     4  10  19  36  61  86 111 149 193 236 287 341
#
# _framework density 18.863845999999999
#
# number of rings (size 3 to 8) (size 9 to 14) (size 15 to 20)
#    0.000    1.750    2.500    1.500    1.750    3.500 
#    0.000    0.625    0.000    0.000    0.000    0.000 
#    0.000    0.000    0.000    0.000    0.000    0.000 
#
# Total GULP energy -396839.652274 kJ/mol
# GULP energy per Si atom -12401.239134 kJ/mol
# Density = 1.882091 g / cm^3
# Si number density = 18.863846 Si / 1000 Ang^3
#
#
#
# Elastic Constant Matrix: (Units=GPa)
#
#
# Indices 1 2 3 4 5 6 
#
# 1 117.8114 44.9140 47.7512 0.0000 2.6243 0.0000
# 2 44.9140 61.8623 26.2757 0.0000 6.4821 0.0000
# 3 47.7512 26.2757 65.5330 0.0000 24.7427 0.0000
# 4 0.0000 0.0000 0.0000 23.4503 0.0000 6.5266
# 5 2.6243 6.4821 24.7427 0.0000 28.3802 0.0000
# 6 0.0000 0.0000 0.0000 6.5266 0.0000 31.2166
#
#
#
# Elastic Compliance Matrix: (Units=1/GPa)
#
#
# Indices 1 2 3 4 5 6 
#
# 1 0.016630 -0.007539 -0.013661 0.000000 0.012094 0.000000
# 2 -0.007539 0.023139 -0.003059 0.000000 -0.001921 0.000000
# 3 -0.013661 -0.003059 0.038310 0.000000 -0.031438 0.000000
# 4 0.000000 0.000000 0.000000 0.045278 0.000000 -0.009466
# 5 0.012094 -0.001921 -0.031438 0.000000 0.061965 0.000000
# 6 0.000000 0.000000 0.000000 -0.009466 0.000000 0.034013
#
#
# Mechanical properties :
#
#
# Convention : Reuss Voigt Hill
#
# Bulk Modulus (GPa) = 33.82879 53.67649 43.75264
# Shear Modulus (GPa) = 18.00457 25.02715 21.51586
#
# Velocity S-wave (km/s) = 3.09277 3.64638 3.38092
# Velocity P-wave (km/s) = 5.54307 6.80033 6.20364
#
# Compressibility (1/GPa) = 0.02956062
#
# Stress axis : x y z
#
# Youngs Moduli (GPa) = 60.13266 43.21722 26.10260
#
# Poissons Ratio (x) = 0.32580 0.35659
# Poissons Ratio (y) = 0.45331 0.07986
# Poissons Ratio (z) = 0.82149 0.13222
#
# Static dielectric constant tensor:
#      x y z
#    x 3.278790 0.000000 0.124160 
#    y 0.000000 3.492700 0.000000 
#    z 0.124160 0.000000 3.789030 
# 
# 
# High freq. dielectric constant tensor:
#      x y z
#    x 1.722320 0.000000 0.014760 
#    y 0.000000 1.737050 0.000000 
#    z 0.014760 0.000000 1.744900 
# 
# From -- ./inp_files/66933.got.cif
#   From: 2010.06.25/outbox.cif.g09.slc.cpg/sg11_34_cif.got.tgz:66933.got - 2010.06.27 23:14:04.
