data_PCOD8071413
_publ_section_title
;
Structure prediction by ZEFSAII (Michael W. Deem and Ramdas Pophale) SiO2 
 PCOD8071413
Probable space group: P 21/M
;
_chemical_formula_sum "Si O2"
_cell_formula_units_Z 28
_cell_length_a 9.130917
_cell_length_b 9.020982
_cell_length_c 26.085833
_cell_angle_alpha 90.000000
_cell_angle_beta 44.160241
_cell_angle_gamma 90.000000
_cell_volume 1496.919487
_symmetry_space_group_name_H-M "P 21/M"
_symmetry_group_IT_number 11
_symmetry_cell_setting 'monoclinic'
loop_
_space_group_symop_operation_xyz
x,y,z
-x,1/2+y,-z
-x,-y,-z
x,1/2-y,z
loop_
_atom_site_type_symbol
_atom_site_label
_atom_site_fract_x
_atom_site_fract_y
_atom_site_fract_z
Si Si1 0.676046 0.917481 0.575260
Si Si2 0.753706 0.416271 0.712498
Si Si3 0.900276 0.423673 0.133374
Si Si4 0.458361 0.921166 0.857569
Si Si5 0.037650 0.917073 0.569209
Si Si6 0.339460 0.925534 0.001939
Si Si7 0.391471 0.417700 0.719262
O O1 0.608155 0.750000 0.579387
O O2 0.855875 0.918400 0.572730
O O3 0.760479 0.994424 0.502413
O O4 0.473285 0.007001 0.646430
O O5 0.826463 0.250000 0.706818
O O6 0.660700 0.488246 0.787398
O O7 0.577194 0.417877 0.713534
O O8 0.955686 0.506952 0.641958
O O9 0.946010 0.250000 0.128803
O O10 0.746270 0.456587 0.124769
O O11 0.802313 0.486483 0.210578
O O12 0.110780 0.510867 0.069138
O O13 0.518770 0.750000 0.837831
O O14 0.410244 0.969736 0.927226
O O15 0.106739 0.750000 0.564590
O O16 0.336467 0.750000 0.010613
O O17 0.500000 0.000000 0.000000
O O18 0.317626 0.250000 0.726188
#
# Coordination Sequence:
#
# PCOD8071413 Si02
#       7
#     4   4   4   4   4   4   4
#     4   9  15  22  33  52  81 118 158 196 235 281
#     4   9  16  25  40  62  88 119 157 198 238 283
#     4  10  19  33  53  75  98 127 163 203 246 292
#     4   9  19  34  52  73  98 128 163 202 245 293
#     4   9  15  22  33  51  81 120 157 193 236 284
#     4  11  23  38  54  74 100 129 161 200 246 296
#     4   9  16  26  40  61  89 121 157 196 238 285
#
# _framework density 18.705081
#
# number of rings (size 3 to 8) (size 9 to 14) (size 15 to 20)
#    0.000    2.571    0.000    3.000    0.000    8.571 
#    0.000    0.000    0.000    0.000    0.000    0.000 
#    0.000    1.143    0.000    4.286    0.000    9.714 
#
# Total GULP energy -347208.457805 kJ/mol
# GULP energy per Si atom -12400.302064 kJ/mol
# Density = 1.866251 g / cm^3
# Si number density = 18.705081 Si / 1000 Ang^3
#
#
#
# Elastic Constant Matrix: (Units=GPa)
#
#
# Indices 1 2 3 4 5 6 
#
# 1 30.1302 29.2367 41.7032 0.0000 3.4890 0.0000
# 2 29.2367 144.7452 98.7504 0.0000 4.8477 0.0000
# 3 41.7032 98.7504 194.6916 0.0000 19.1249 0.0000
# 4 0.0000 0.0000 0.0000 45.3145 0.0000 -0.1458
# 5 3.4890 4.8477 19.1249 0.0000 -1.1974 0.0000
# 6 0.0000 0.0000 0.0000 -0.1458 0.0000 15.0784
#
#
#
# Elastic Compliance Matrix: (Units=1/GPa)
#
#
# Indices 1 2 3 4 5 6 
#
# 1 0.048737 -0.004308 -0.007977 0.000000 -0.002831 0.000000
# 2 -0.004308 0.010155 -0.002738 0.000000 -0.015169 0.000000
# 3 -0.007977 -0.002738 0.004518 0.000000 0.037828 0.000000
# 4 0.000000 0.000000 0.000000 0.022069 0.000000 0.000213
# 5 -0.002831 -0.015169 0.037828 0.000000 -0.300597 0.000000
# 6 0.000000 0.000000 0.000000 0.000213 0.000000 0.066322
#
#
# Mechanical properties :
#
#
# Convention : Reuss Voigt Hill
#
# Bulk Modulus (GPa) = 29.97104 78.77195 54.37150
# Shear Modulus (GPa) = -46.45515 25.16421 -10.64547
#
# Velocity S-wave (km/s) = -4.98894 3.67183 -2.38822
# Velocity P-wave (km/s) = 4.13863 7.75761 4.63962
#
# Compressibility (1/GPa) = 0.03336555
#
# Stress axis : x y z
#
# Youngs Moduli (GPa) = 20.51811 98.47739 221.35288
#
# Poissons Ratio (x) = 0.42419 1.76568
# Poissons Ratio (y) = 0.08838 0.60603
# Poissons Ratio (z) = 0.16367 0.26961
#
# Static dielectric constant tensor:
#      x y z
#    x 2.542220 0.000000 0.087320 
#    y 0.000000 3.656530 0.000000 
#    z 0.087320 0.000000 3.683600 
# 
# 
# High freq. dielectric constant tensor:
#      x y z
#    x 1.650920 0.000000 0.009330 
#    y 0.000000 1.744290 0.000000 
#    z 0.009330 0.000000 1.746600 
# 
# From -- ./inp_files/28327.got.cif
#   From: 2010.06.25/outbox.cif.g09.slc.cpg/sg11_15_cif.got.tgz:28327.got - 2010.06.27 23:14:04.
