data_PCOD8071207
_publ_section_title
;
Structure prediction by ZEFSAII (Michael W. Deem and Ramdas Pophale) SiO2 
 PCOD8071207
Probable space group: P 21/M
;
_chemical_formula_sum "Si O2"
_cell_formula_units_Z 32
_cell_length_a 20.807062
_cell_length_b 8.639135
_cell_length_c 12.285997
_cell_angle_alpha 90.000000
_cell_angle_beta 128.103691
_cell_angle_gamma 90.000000
_cell_volume 1737.834289
_symmetry_space_group_name_H-M "P 21/M"
_symmetry_group_IT_number 11
_symmetry_cell_setting 'monoclinic'
loop_
_space_group_symop_operation_xyz
x,y,z
-x,1/2+y,-z
-x,-y,-z
x,1/2-y,z
loop_
_atom_site_type_symbol
_atom_site_label
_atom_site_fract_x
_atom_site_fract_y
_atom_site_fract_z
Si Si1 0.258490 0.432440 0.846368
Si Si2 0.476358 0.566425 0.591860
Si Si3 0.879848 0.066602 0.149506
Si Si4 0.376487 0.933393 0.135301
Si Si5 0.213104 0.933542 0.578222
Si Si6 0.027242 0.568274 0.414339
Si Si7 0.237467 0.566948 0.154531
Si Si8 0.707358 0.433869 0.560578
O O1 0.249773 0.250000 0.851246
O O2 0.179649 0.514767 0.815666
O O3 0.262307 0.479889 0.724374
O O4 0.342038 0.491542 0.988751
O O5 0.500000 0.500000 0.500000
O O6 0.482498 0.750000 0.592971
O O7 0.534384 0.500488 0.747029
O O8 0.385904 0.510161 0.529347
O O9 0.886925 0.250000 0.162720
O O10 0.843018 0.009208 0.994797
O O11 0.968845 0.992926 0.257068
O O12 0.380161 0.750000 0.124765
O O13 0.318077 0.984804 0.173488
O O14 0.223826 0.750000 0.602835
O O15 0.118581 0.983362 0.481126
O O16 0.250800 0.996521 0.504890
O O17 0.019196 0.750000 0.413643
O O18 0.000000 0.500000 0.500000
O O19 0.235708 0.750000 0.156703
O O20 0.242557 0.499560 0.282244
O O21 0.711075 0.250000 0.566428
#
# Coordination Sequence:
#
# PCOD8071207 Si02
#       8
#     4   4   4   4   4   4   4   4
#     4  11  21  34  54  81 112 142 179 227 278 326
#     4  11  20  33  56  85 113 143 184 231 276 322
#     4  10  19  32  54  81 110 142 181 224 273 327
#     4  10  19  34  56  82 112 142 180 226 273 326
#     4  10  21  37  57  78 106 147 188 225 272 330
#     4  11  21  33  53  80 109 141 184 233 277 321
#     4   8  15  30  53  79 105 139 177 218 266 318
#     4   9  18  35  57  80 108 145 186 224 270 328
#
# _framework density 18.413722
#
# number of rings (size 3 to 8) (size 9 to 14) (size 15 to 20)
#    0.000    2.000    2.500    3.375    0.000    0.500 
#    0.000    2.500    0.000    0.000    0.000    0.000 
#    0.000    0.000    0.000    0.000    0.000    0.000 
#
# Total GULP energy -396786.285262 kJ/mol
# GULP energy per Si atom -12399.571414 kJ/mol
# Density = 1.837181 g / cm^3
# Si number density = 18.413722 Si / 1000 Ang^3
#
#
#
# Elastic Constant Matrix: (Units=GPa)
#
#
# Indices 1 2 3 4 5 6 
#
# 1 116.7407 29.0195 79.5279 0.0000 -4.0781 0.0000
# 2 29.0195 50.1486 32.1771 0.0000 2.9165 0.0000
# 3 79.5279 32.1771 181.1731 0.0000 -0.2115 0.0000
# 4 0.0000 0.0000 0.0000 32.0294 0.0000 4.7405
# 5 -4.0781 2.9165 -0.2115 0.0000 28.9762 0.0000
# 6 0.0000 0.0000 0.0000 4.7405 0.0000 16.8448
#
#
#
# Elastic Compliance Matrix: (Units=1/GPa)
#
#
# Indices 1 2 3 4 5 6 
#
# 1 0.013162 -0.004563 -0.004964 0.000000 0.002275 0.000000
# 2 -0.004563 0.024241 -0.002306 0.000000 -0.003099 0.000000
# 3 -0.004964 -0.002306 0.008108 0.000000 -0.000407 0.000000
# 4 0.000000 0.000000 0.000000 0.032578 0.000000 -0.009168
# 5 0.002275 -0.003099 -0.000407 0.000000 0.035140 0.000000
# 6 0.000000 0.000000 0.000000 -0.009168 0.000000 0.061946
#
#
# Mechanical properties :
#
#
# Convention : Reuss Voigt Hill
#
# Bulk Modulus (GPa) = 45.77997 69.94574 57.86286
# Shear Modulus (GPa) = 24.25734 29.39260 26.82497
#
# Velocity S-wave (km/s) = 3.63347 3.99962 3.82094
# Velocity P-wave (km/s) = 6.52063 7.70697 7.13849
#
# Compressibility (1/GPa) = 0.02184361
#
# Stress axis : x y z
#
# Youngs Moduli (GPa) = 75.97777 41.25223 123.33810
#
# Poissons Ratio (x) = 0.18825 0.61230
# Poissons Ratio (y) = 0.34671 0.28440
# Poissons Ratio (z) = 0.37718 0.09512
#
# Static dielectric constant tensor:
#      x y z
#    x 3.296360 0.000000 0.042640 
#    y 0.000000 3.220280 0.000000 
#    z 0.042640 0.000000 3.882570 
# 
# 
# High freq. dielectric constant tensor:
#      x y z
#    x 1.682680 0.000000 0.005940 
#    y 0.000000 1.701060 0.000000 
#    z 0.005940 0.000000 1.736550 
# 
# From -- ./inp_files/42886.got.cif
#   From: 2010.06.25/outbox.cif.g09.slc.cpg/sg11_22_cif.got.tgz:42886.got - 2010.06.27 23:14:04.
