data_PCOD8071150
_publ_section_title
;
Structure prediction by ZEFSAII (Michael W. Deem and Ramdas Pophale) SiO2 
 PCOD8071150
Probable space group: P 21/M
;
_chemical_formula_sum "Si O2"
_cell_formula_units_Z 28
_cell_length_a 9.591324
_cell_length_b 9.220822
_cell_length_c 28.201857
_cell_angle_alpha 90.000000
_cell_angle_beta 140.980468
_cell_angle_gamma 90.000000
_cell_volume 1570.292199
_symmetry_space_group_name_H-M "P 21/M"
_symmetry_group_IT_number 11
_symmetry_cell_setting 'monoclinic'
loop_
_space_group_symop_operation_xyz
x,y,z
-x,1/2+y,-z
-x,-y,-z
x,1/2-y,z
loop_
_atom_site_type_symbol
_atom_site_label
_atom_site_fract_x
_atom_site_fract_y
_atom_site_fract_z
Si Si1 0.276481 0.582632 0.704854
Si Si2 0.352346 0.580565 0.317070
Si Si3 0.704240 0.416439 0.807631
Si Si4 0.969463 0.082102 0.267916
Si Si5 0.815523 0.580920 0.058725
Si Si6 0.795552 0.422090 0.421892
Si Si7 0.364646 0.583302 0.900263
O O1 0.336346 0.750000 0.723618
O O2 0.504688 0.503577 0.778397
O O3 0.085567 0.542840 0.692137
O O4 0.190448 0.539559 0.630166
O O5 0.393932 0.750000 0.338529
O O6 0.275726 0.553092 0.243196
O O7 0.574960 0.490432 0.386213
O O8 0.165931 0.521308 0.303216
O O9 0.652586 0.250000 0.804268
O O10 0.938121 0.467068 0.892962
O O11 0.041686 0.250000 0.281156
O O12 0.743386 0.050706 0.179058
O O13 0.824066 0.750000 0.072567
O O14 0.762338 0.507127 0.094201
O O15 0.628102 0.542888 0.969824
O O16 0.800283 0.250000 0.432431
O O17 0.000000 0.500000 0.500000
O O18 0.335946 0.750000 0.907098
#
# Coordination Sequence:
#
# PCOD8071150 Si02
#       7
#     4   4   4   4   4   4   4
#     4   9  20  35  52  73 102 134 165 202 249 301
#     4  10  19  32  53  79 103 133 169 206 245 294
#     4   9  17  30  48  70  98 131 171 213 250 291
#     4  10  19  33  50  74 104 135 169 207 250 298
#     4   9  16  28  44  68  98 129 169 215 255 290
#     4  10  20  37  59  81 103 130 163 203 246 295
#     4   9  17  27  45  69  97 132 168 209 254 294
#
# _framework density 17.831074999999998
#
# number of rings (size 3 to 8) (size 9 to 14) (size 15 to 20)
#    0.000    2.571    1.429    0.857    0.000    2.286 
#    0.000    1.429    0.000    0.000    0.000    0.000 
#    0.000    0.000    0.000    0.000    0.000    0.000 
#
# Total GULP energy -347107.596299 kJ/mol
# GULP energy per Si atom -12396.699868 kJ/mol
# Density = 1.779049 g / cm^3
# Si number density = 17.831075 Si / 1000 Ang^3
#
#
#
# Elastic Constant Matrix: (Units=GPa)
#
#
# Indices 1 2 3 4 5 6 
#
# 1 85.1898 39.6445 41.0191 0.0000 11.6339 0.0000
# 2 39.6445 67.7956 45.7464 0.0000 11.6436 0.0000
# 3 41.0191 45.7464 108.0676 0.0000 20.3379 0.0000
# 4 0.0000 0.0000 0.0000 27.0075 0.0000 8.3911
# 5 11.6339 11.6436 20.3379 0.0000 22.1378 0.0000
# 6 0.0000 0.0000 0.0000 8.3911 0.0000 27.7175
#
#
#
# Elastic Compliance Matrix: (Units=1/GPa)
#
#
# Indices 1 2 3 4 5 6 
#
# 1 0.016943 -0.007647 -0.002751 0.000000 -0.002355 0.000000
# 2 -0.007647 0.024316 -0.006940 0.000000 -0.002395 0.000000
# 3 -0.002751 -0.006940 0.014843 0.000000 -0.008540 0.000000
# 4 0.000000 0.000000 0.000000 0.040871 0.000000 -0.012373
# 5 -0.002355 -0.002395 -0.008540 0.000000 0.055514 0.000000
# 6 0.000000 0.000000 0.000000 -0.012373 0.000000 0.039824
#
#
# Mechanical properties :
#
#
# Convention : Reuss Voigt Hill
#
# Bulk Modulus (GPa) = 46.67235 57.09701 51.88468
# Shear Modulus (GPa) = 21.35564 24.34875 22.85220
#
# Velocity S-wave (km/s) = 3.46448 3.69931 3.58382
# Velocity P-wave (km/s) = 6.49885 7.09486 6.80339
#
# Compressibility (1/GPa) = 0.02142596
#
# Stress axis : x y z
#
# Youngs Moduli (GPa) = 59.01995 41.12466 67.37362
#
# Poissons Ratio (x) = 0.31449 0.18533
# Poissons Ratio (y) = 0.45134 0.46757
# Poissons Ratio (z) = 0.16235 0.28541
#
# Static dielectric constant tensor:
#      x y z
#    x 3.171000 0.000000 0.123680 
#    y 0.000000 3.380930 0.000000 
#    z 0.123680 0.000000 3.457290 
# 
# 
# High freq. dielectric constant tensor:
#      x y z
#    x 1.667310 0.000000 0.016770 
#    y 0.000000 1.692810 0.000000 
#    z 0.016770 0.000000 1.688520 
# 
# From -- ./inp_files/24086.got.cif
#   From: 2010.06.25/outbox.cif.g09.slc.cpg/sg11_13_cif.got.tgz:24086.got - 2010.06.27 23:14:04.
