data_PCOD8071346
_publ_section_title
;
Structure prediction by ZEFSAII (Michael W. Deem and Ramdas Pophale) SiO2 
 PCOD8071346
Probable space group: P 21/M
;
_chemical_formula_sum "Si O2"
_cell_formula_units_Z 32
_cell_length_a 17.078282
_cell_length_b 15.839232
_cell_length_c 23.402485
_cell_angle_alpha 90.000000
_cell_angle_beta 16.757154
_cell_angle_gamma 90.000000
_cell_volume 1825.192866
_symmetry_space_group_name_H-M "P 21/M"
_symmetry_group_IT_number 11
_symmetry_cell_setting 'monoclinic'
loop_
_space_group_symop_operation_xyz
x,y,z
-x,1/2+y,-z
-x,-y,-z
x,1/2-y,z
loop_
_atom_site_type_symbol
_atom_site_label
_atom_site_fract_x
_atom_site_fract_y
_atom_site_fract_z
Si Si1 0.098843 0.345096 0.348901
Si Si2 0.038073 0.457782 0.082015
Si Si3 0.164272 0.954300 0.550323
Si Si4 0.400660 0.653739 0.671479
Si Si5 0.421775 0.846287 0.903542
Si Si6 0.451022 0.908778 0.758199
Si Si7 0.509632 0.343729 0.747326
Si Si8 0.097734 0.045204 0.712175
O O1 0.166489 0.250000 0.279088
O O2 0.104990 0.413794 0.292227
O O3 0.787426 0.345650 0.591278
O O4 0.304125 0.372329 0.254931
O O5 0.853358 0.403285 0.169080
O O6 0.861770 0.494348 0.257325
O O7 0.180132 0.533659 0.948284
O O8 0.276140 0.397870 0.941356
O O9 0.408958 0.884961 0.371742
O O10 0.270194 0.038142 0.443618
O O11 0.107163 0.974975 0.655835
O O12 0.366669 0.750000 0.673977
O O13 0.421576 0.654015 0.725421
O O14 0.668992 0.614734 0.455641
O O15 0.339139 0.750000 0.974274
O O16 0.189568 0.907753 0.088742
O O17 0.475727 0.855436 0.798658
O O18 0.398743 0.250000 0.814501
#
# Coordination Sequence:
#
# PCOD8071346 Si02
#       8
#     4   4   4   4   4   4   4   4
#     4   8  16  31  54  74 100 135 165 203 251 294
#     4  10  19  34  54  77  99 132 166 208 254 296
#     4   8  16  32  50  73 101 132 162 198 251 291
#     4  11  21  35  53  72 100 136 168 204 252 301
#     4  10  19  33  52  74 101 135 170 205 250 295
#     4   9  19  33  52  77  99 126 166 216 248 291
#     4   8  15  32  52  74 101 129 164 206 249 293
#     4  10  21  34  49  74 105 135 166 208 243 294
#
# _framework density 17.532394
#
# number of rings (size 3 to 8) (size 9 to 14) (size 15 to 20)
#    0.750    2.000    0.000    1.875    0.000    1.000 
#    0.000    2.500    0.000    0.000    0.000    0.000 
#    0.000    0.000    0.000    0.000    0.000    0.000 
#
# Total GULP energy -396454.060893 kJ/mol
# GULP energy per Si atom -12389.189403 kJ/mol
# Density = 1.749249 g / cm^3
# Si number density = 17.532394 Si / 1000 Ang^3
#
#
#
# Elastic Constant Matrix: (Units=GPa)
#
#
# Indices 1 2 3 4 5 6 
#
# 1 71.8295 32.2328 31.3553 0.0000 -1.3471 0.0000
# 2 32.2328 82.0876 23.2574 0.0000 -0.3103 0.0000
# 3 31.3553 23.2574 66.9854 0.0000 0.9921 0.0000
# 4 0.0000 0.0000 0.0000 23.7809 0.0000 -4.1401
# 5 -1.3471 -0.3103 0.9921 0.0000 28.4400 0.0000
# 6 0.0000 0.0000 0.0000 -4.1401 0.0000 22.7860
#
#
#
# Elastic Compliance Matrix: (Units=1/GPa)
#
#
# Indices 1 2 3 4 5 6 
#
# 1 0.019645 -0.005656 -0.007249 0.000000 0.001122 0.000000
# 2 -0.005656 0.015142 -0.002610 0.000000 -0.000012 0.000000
# 3 -0.007249 -0.002610 0.019243 0.000000 -0.001043 0.000000
# 4 0.000000 0.000000 0.000000 0.043424 0.000000 0.007890
# 5 0.001122 -0.000012 -0.001043 0.000000 0.035251 0.000000
# 6 0.000000 0.000000 0.000000 0.007890 0.000000 0.045320
#
#
# Mechanical properties :
#
#
# Convention : Reuss Voigt Hill
#
# Bulk Modulus (GPa) = 43.47437 43.84372 43.65905
# Shear Modulus (GPa) = 23.07101 23.93850 23.50476
#
# Velocity S-wave (km/s) = 3.63148 3.69912 3.66546
# Velocity P-wave (km/s) = 6.51413 6.58075 6.54753
#
# Compressibility (1/GPa) = 0.02300206
#
# Stress axis : x y z
#
# Youngs Moduli (GPa) = 50.90316 66.03980 51.96647
#
# Poissons Ratio (x) = 0.37352 0.37668
# Poissons Ratio (y) = 0.28791 0.13562
# Poissons Ratio (z) = 0.36898 0.17235
#
# Static dielectric constant tensor:
#      x y z
#    x 3.012260 0.000000 -0.052020 
#    y 0.000000 3.317960 0.000000 
#    z -0.052020 0.000000 3.209400 
# 
# 
# High freq. dielectric constant tensor:
#      x y z
#    x 1.651410 0.000000 -0.006770 
#    y 0.000000 1.687230 0.000000 
#    z -0.006770 0.000000 1.670860 
# 
# From -- ./inp_files/65839.got.cif
#   From: 2010.06.25/outbox.cif.g09.slc.cpg/sg11_33_cif.got.tgz:65839.got - 2010.06.27 23:14:04.
