data_PCOD8071552
_publ_section_title
;
Structure prediction by ZEFSAII (Michael W. Deem and Ramdas Pophale) SiO2 
 PCOD8071552
Probable space group: P 21/M
;
_chemical_formula_sum "Si O2"
_cell_formula_units_Z 28
_cell_length_a 5.037534
_cell_length_b 13.212834
_cell_length_c 21.921583
_cell_angle_alpha 90.000000
_cell_angle_beta 108.465840
_cell_angle_gamma 90.000000
_cell_volume 1383.977455
_symmetry_space_group_name_H-M "P 21/M"
_symmetry_group_IT_number 11
_symmetry_cell_setting 'monoclinic'
loop_
_space_group_symop_operation_xyz
x,y,z
-x,1/2+y,-z
-x,-y,-z
x,1/2-y,z
loop_
_atom_site_type_symbol
_atom_site_label
_atom_site_fract_x
_atom_site_fract_y
_atom_site_fract_z
Si Si1 0.948043 0.750000 0.484617
Si Si2 0.158981 0.013178 0.919125
Si Si3 0.709017 0.128424 0.963900
Si Si4 0.174315 0.981673 0.218710
Si Si5 0.702433 0.860837 0.242840
Si Si6 0.434799 0.250000 0.430467
Si Si7 0.884364 0.578210 0.382891
Si Si8 0.355843 0.047586 0.357801
O O1 0.681313 0.750000 0.509402
O O2 0.938581 0.648816 0.444270
O O3 0.230512 0.750000 0.544346
O O4 0.423809 0.080121 0.916519
O O5 0.965588 0.092192 0.941361
O O6 0.001718 0.966323 0.848482
O O7 0.249732 0.915723 0.964820
O O8 0.695196 0.250000 0.965172
O O9 0.456347 0.938713 0.208639
O O10 0.992318 0.889427 0.231947
O O11 0.247385 0.057370 0.279644
O O12 0.614407 0.750000 0.213486
O O13 0.741050 0.857615 0.318712
O O14 0.316274 0.155276 0.385203
O O15 0.678568 0.486037 0.385202
O O16 0.179545 0.534201 0.382732
#
# Coordination Sequence:
#
# PCOD8071552 Si02
#       8
#     2   4   4   4   4   2   4   4
#     4  12  24  38  64  88 112 148 191 228 287 358
#     4  10  21  37  56  85 115 148 194 229 273 337
#     4  10  21  37  58  82 120 151 181 238 278 320
#     4  10  21  35  56  81 112 150 186 229 278 334
#     4  10  19  33  54  82 113 144 180 231 289 337
#     4  12  26  40  58  86 112 150 195 238 277 320
#     4  10  21  39  60  83 113 147 182 234 290 345
#     4  10  23  41  58  81 119 148 186 240 283 322
#
# _framework density 20.231542999999999
#
# number of rings (size 3 to 8) (size 9 to 14) (size 15 to 20)
#    0.000    1.714    0.714    3.429    0.000    6.857 
#    1.286    0.000    0.000    0.000    0.000    0.000 
#    0.000    0.000    0.000    0.000    0.000    0.000 
#
# Total GULP energy -347241.405074 kJ/mol
# GULP energy per Si atom -12401.478753 kJ/mol
# Density = 2.018550 g / cm^3
# Si number density = 20.231543 Si / 1000 Ang^3
#
#
#
# Elastic Constant Matrix: (Units=GPa)
#
#
# Indices 1 2 3 4 5 6 
#
# 1 86.0817 2.7645 4.7302 0.0000 2.7032 0.0000
# 2 2.7645 71.2256 31.2660 0.0000 3.5715 0.0000
# 3 4.7302 31.2660 95.5835 0.0000 14.9135 0.0000
# 4 0.0000 0.0000 0.0000 12.4161 0.0000 -1.8773
# 5 2.7032 3.5715 14.9135 0.0000 31.3909 0.0000
# 6 0.0000 0.0000 0.0000 -1.8773 0.0000 18.6057
#
#
#
# Elastic Compliance Matrix: (Units=1/GPa)
#
#
# Indices 1 2 3 4 5 6 
#
# 1 0.011670 -0.000250 -0.000371 0.000000 -0.000800 0.000000
# 2 -0.000250 0.016415 -0.005475 0.000000 0.000755 0.000000
# 3 -0.000371 -0.005475 0.013143 0.000000 -0.005589 0.000000
# 4 0.000000 0.000000 0.000000 0.081788 0.000000 0.008252
# 5 -0.000800 0.000755 -0.005589 0.000000 0.034495 0.000000
# 6 0.000000 0.000000 0.000000 0.008252 0.000000 0.054580
#
#
# Mechanical properties :
#
#
# Convention : Reuss Voigt Hill
#
# Bulk Modulus (GPa) = 34.43855 36.71249 35.57552
# Shear Modulus (GPa) = 21.37096 26.75788 24.06442
#
# Velocity S-wave (km/s) = 3.25363 3.64068 3.45258
# Velocity P-wave (km/s) = 5.58337 5.98818 5.78931
#
# Compressibility (1/GPa) = 0.02903723
#
# Stress axis : x y z
#
# Youngs Moduli (GPa) = 85.68680 60.91962 76.08393
#
# Poissons Ratio (x) = 0.01523 0.02822
# Poissons Ratio (y) = 0.02142 0.41655
# Poissons Ratio (z) = 0.03178 0.33353
#
# Static dielectric constant tensor:
#      x y z
#    x 3.831670 0.000000 0.022750 
#    y 0.000000 3.327000 0.000000 
#    z 0.022750 0.000000 3.800270 
# 
# 
# High freq. dielectric constant tensor:
#      x y z
#    x 1.810260 0.000000 0.000600 
#    y 0.000000 1.759210 0.000000 
#    z 0.000600 0.000000 1.798140 
# 
# From -- ./inp_files/62749.got.cif
#   From: 2010.06.25/outbox.cif.g09.slc.cpg/sg11_32_cif.got.tgz:62749.got - 2010.06.27 23:14:04.
