data_PCOD8071284
_publ_section_title
;
Structure prediction by ZEFSAII (Michael W. Deem and Ramdas Pophale) SiO2 
 PCOD8071284
Probable space group: P 21/M
;
_chemical_formula_sum "Si O2"
_cell_formula_units_Z 24
_cell_length_a 17.225045
_cell_length_b 8.899604
_cell_length_c 13.903989
_cell_angle_alpha 90.000000
_cell_angle_beta 144.257655
_cell_angle_gamma 90.000000
_cell_volume 1245.054391
_symmetry_space_group_name_H-M "P 21/M"
_symmetry_group_IT_number 11
_symmetry_cell_setting 'monoclinic'
loop_
_space_group_symop_operation_xyz
x,y,z
-x,1/2+y,-z
-x,-y,-z
x,1/2-y,z
loop_
_atom_site_type_symbol
_atom_site_label
_atom_site_fract_x
_atom_site_fract_y
_atom_site_fract_z
Si Si1 0.143022 0.423336 0.030687
Si Si2 0.028318 0.077505 0.429303
Si Si3 0.760699 0.423562 0.050473
Si Si4 0.286603 0.425462 0.578087
Si Si5 0.866272 0.577669 0.761984
Si Si6 0.524834 0.572137 0.921640
O O1 0.154021 0.250000 0.012733
O O2 0.242554 0.516851 0.062376
O O3 0.990573 0.472122 0.864672
O O4 0.189594 0.451855 0.187214
O O5 0.045965 0.250000 0.471028
O O6 0.910225 0.050288 0.236073
O O7 0.163623 0.015977 0.518642
O O8 0.000000 0.000000 0.500000
O O9 0.716893 0.250000 0.009323
O O10 0.666308 0.518762 0.024647
O O11 0.316138 0.250000 0.626137
O O12 0.252498 0.455840 0.431972
O O13 0.414117 0.522259 0.733829
O O14 0.915572 0.750000 0.799791
O O15 0.524551 0.750000 0.932857
O O16 0.500000 0.500000 0.000000
#
# Coordination Sequence:
#
# PCOD8071284 Si02
#       6
#     4   4   4   4   4   4
#     4  10  19  32  57  91 122 154 193 242 293 348
#     4  10  21  35  56  83 112 144 189 240 290 343
#     4  11  22  40  61  85 117 157 197 241 294 350
#     4  10  20  39  61  84 115 156 197 242 293 346
#     4   9  18  35  58  86 121 157 196 239 292 350
#     4  12  26  43  61  86 117 156 200 242 294 356
#
# _framework density 19.276267000000001
#
# number of rings (size 3 to 8) (size 9 to 14) (size 15 to 20)
#    0.000    1.667    1.667    3.500    0.000    6.000 
#    0.000    0.833    0.000    0.000    0.000    0.000 
#    0.000    0.000    0.000    0.000    0.000    0.000 
#
# Total GULP energy -297670.202924 kJ/mol
# GULP energy per Si atom -12402.925122 kJ/mol
# Density = 1.923239 g / cm^3
# Si number density = 19.276267 Si / 1000 Ang^3
#
#
#
# Elastic Constant Matrix: (Units=GPa)
#
#
# Indices 1 2 3 4 5 6 
#
# 1 97.2894 40.9141 7.3854 0.0000 -18.6034 0.0000
# 2 40.9141 99.7802 31.9823 0.0000 -7.7104 0.0000
# 3 7.3854 31.9823 52.3575 0.0000 -14.9028 0.0000
# 4 0.0000 0.0000 0.0000 29.8323 0.0000 0.7302
# 5 -18.6034 -7.7104 -14.9028 0.0000 33.2574 0.0000
# 6 0.0000 0.0000 0.0000 0.7302 0.0000 36.4605
#
#
#
# Elastic Compliance Matrix: (Units=1/GPa)
#
#
# Indices 1 2 3 4 5 6 
#
# 1 0.014366 -0.006665 0.004461 0.000000 0.008490 0.000000
# 2 -0.006665 0.015564 -0.009859 0.000000 -0.004537 0.000000
# 3 0.004461 -0.009859 0.028141 0.000000 0.012820 0.000000
# 4 0.000000 0.000000 0.000000 0.033537 0.000000 -0.000672
# 5 0.008490 -0.004537 0.012820 0.000000 0.039510 0.000000
# 6 0.000000 0.000000 0.000000 -0.000672 0.000000 0.027440
#
#
# Mechanical properties :
#
#
# Convention : Reuss Voigt Hill
#
# Bulk Modulus (GPa) = 29.45736 45.55453 37.50594
# Shear Modulus (GPa) = 25.77325 31.18640 28.47983
#
# Velocity S-wave (km/s) = 3.66053 4.02663 3.84794
# Velocity P-wave (km/s) = 5.76028 6.73068 6.26430
#
# Compressibility (1/GPa) = 0.03394738
#
# Stress axis : x y z
#
# Youngs Moduli (GPa) = 69.60824 64.25019 35.53488
#
# Poissons Ratio (x) = 0.42820 -0.15853
# Poissons Ratio (y) = 0.46391 0.35033
# Poissons Ratio (z) = -0.31053 0.63342
#
# Static dielectric constant tensor:
#      x y z
#    x 3.700990 0.000000 -0.205160 
#    y 0.000000 3.602930 0.000000 
#    z -0.205160 0.000000 3.426360 
# 
# 
# High freq. dielectric constant tensor:
#      x y z
#    x 1.759220 0.000000 -0.015590 
#    y 0.000000 1.751710 0.000000 
#    z -0.015590 0.000000 1.738840 
# 
# From -- ./inp_files/53338.got.cif
#   From: 2010.06.25/outbox.cif.g09.slc.cpg/sg11_27_cif.got.tgz:53338.got - 2010.06.27 23:14:04.
