data_PCOD8071312
_publ_section_title
;
Structure prediction by ZEFSAII (Michael W. Deem and Ramdas Pophale) SiO2 
 PCOD8071312
Probable space group: P 21/M
;
_chemical_formula_sum "Si O2"
_cell_formula_units_Z 32
_cell_length_a 14.919510
_cell_length_b 8.917839
_cell_length_c 23.099000
_cell_angle_alpha 90.000000
_cell_angle_beta 39.224940
_cell_angle_gamma 90.000000
_cell_volume 1943.462949
_symmetry_space_group_name_H-M "P 21/M"
_symmetry_group_IT_number 11
_symmetry_cell_setting 'monoclinic'
loop_
_space_group_symop_operation_xyz
x,y,z
-x,1/2+y,-z
-x,-y,-z
x,1/2-y,z
loop_
_atom_site_type_symbol
_atom_site_label
_atom_site_fract_x
_atom_site_fract_y
_atom_site_fract_z
Si Si1 0.287758 0.075324 0.588800
Si Si2 0.698150 0.923079 0.874263
Si Si3 0.540425 0.924573 0.070257
Si Si4 0.011534 0.575046 0.746188
Si Si5 0.002871 0.075379 0.873935
Si Si6 0.708002 0.925859 0.207128
Si Si7 0.713139 0.426099 0.081153
Si Si8 0.558969 0.074812 0.382652
O O1 0.277250 0.250000 0.608075
O O2 0.396580 0.042474 0.482290
O O3 0.133913 0.010658 0.648985
O O4 0.334781 0.995054 0.624010
O O5 0.664966 0.750000 0.877235
O O6 0.864421 0.959594 0.787295
O O7 0.618515 0.025385 0.867159
O O8 0.645861 0.963269 0.964883
O O9 0.541430 0.750000 0.085439
O O10 0.589246 0.019179 0.100851
O O11 0.045044 0.750000 0.729571
O O12 0.005298 0.521111 0.815053
O O13 0.001470 0.250000 0.857609
O O14 0.138075 0.033016 0.844891
O O15 0.865530 0.029516 0.979273
O O16 0.682268 0.750000 0.217980
O O17 0.692538 0.991172 0.151517
O O18 0.585190 0.998859 0.307844
O O19 0.699158 0.250000 0.097945
O O20 0.590831 0.250000 0.362967
#
# Coordination Sequence:
#
# PCOD8071312 Si02
#       8
#     4   4   4   4   4   4   4   4
#     4  10  20  33  50  73 102 131 166 208 251 301
#     4   9  19  33  49  73 101 130 165 207 253 300
#     4  10  19  33  51  72  98 131 169 210 252 296
#     4  11  20  31  51  76 103 135 168 205 250 302
#     4  10  21  34  48  70 101 137 174 209 246 290
#     4  11  22  35  51  72 100 135 175 215 250 294
#     4  11  22  35  51  71 100 138 175 211 250 297
#     4  10  20  34  51  72  98 132 170 209 252 296
#
# _framework density 16.465453
#
# number of rings (size 3 to 8) (size 9 to 14) (size 15 to 20)
#    0.000    1.750    2.500    2.625    0.000    4.000 
#    0.000    0.000    0.000    0.000    0.000    0.875 
#    0.000    0.000    0.000    0.000    0.000    0.000 
#
# Total GULP energy -396929.361296 kJ/mol
# GULP energy per Si atom -12404.042541 kJ/mol
# Density = 1.642798 g / cm^3
# Si number density = 16.465453 Si / 1000 Ang^3
#
#
#
# Elastic Constant Matrix: (Units=GPa)
#
#
# Indices 1 2 3 4 5 6 
#
# 1 76.8333 37.3286 50.1333 0.0000 -8.9916 0.0000
# 2 37.3286 77.6813 49.9022 0.0000 -6.7705 0.0000
# 3 50.1333 49.9022 105.8058 0.0000 -10.0350 0.0000
# 4 0.0000 0.0000 0.0000 28.6898 0.0000 0.1488
# 5 -8.9916 -6.7705 -10.0350 0.0000 17.4403 0.0000
# 6 0.0000 0.0000 0.0000 0.1488 0.0000 28.9750
#
#
#
# Elastic Compliance Matrix: (Units=1/GPa)
#
#
# Indices 1 2 3 4 5 6 
#
# 1 0.020502 -0.005006 -0.006912 0.000000 0.004649 0.000000
# 2 -0.005006 0.019778 -0.006846 0.000000 0.001158 0.000000
# 3 -0.006912 -0.006846 0.016252 0.000000 0.003130 0.000000
# 4 0.000000 0.000000 0.000000 0.034857 0.000000 -0.000179
# 5 0.004649 0.001158 0.003130 0.000000 0.061986 0.000000
# 6 0.000000 0.000000 0.000000 -0.000179 0.000000 0.034513
#
#
# Mechanical properties :
#
#
# Convention : Reuss Voigt Hill
#
# Bulk Modulus (GPa) = 52.62433 59.44987 56.03710
# Shear Modulus (GPa) = 21.57500 23.21810 22.39655
#
# Velocity S-wave (km/s) = 3.62376 3.75922 3.69211
# Velocity P-wave (km/s) = 7.03837 7.41798 7.23067
#
# Compressibility (1/GPa) = 0.01900262
#
# Stress axis : x y z
#
# Youngs Moduli (GPa) = 48.77671 50.56241 61.53056
#
# Poissons Ratio (x) = 0.25313 0.42530
# Poissons Ratio (y) = 0.24419 0.42124
# Poissons Ratio (z) = 0.33715 0.34615
#
# Static dielectric constant tensor:
#      x y z
#    x 3.027230 0.000000 -0.213290 
#    y 0.000000 3.214170 0.000000 
#    z -0.213290 0.000000 3.171420 
# 
# 
# High freq. dielectric constant tensor:
#      x y z
#    x 1.615940 0.000000 -0.013580 
#    y 0.000000 1.650490 0.000000 
#    z -0.013580 0.000000 1.621860 
# 
# From -- ./inp_files/54310.got.cif
#   From: 2010.06.25/outbox.cif.g09.slc.cpg/sg11_28_cif.got.tgz:54310.got - 2010.06.27 23:14:04.
