data_PCOD8071814
_publ_section_title
;
Structure prediction by ZEFSAII (Michael W. Deem and Ramdas Pophale) SiO2 
 PCOD8071814
Probable space group: P 21/M
;
_chemical_formula_sum "Si O2"
_cell_formula_units_Z 32
_cell_length_a 10.390597
_cell_length_b 10.313431
_cell_length_c 34.066010
_cell_angle_alpha 90.000000
_cell_angle_beta 152.186964
_cell_angle_gamma 90.000000
_cell_volume 1703.328448
_symmetry_space_group_name_H-M "P 21/M"
_symmetry_group_IT_number 11
_symmetry_cell_setting 'monoclinic'
loop_
_space_group_symop_operation_xyz
x,y,z
-x,1/2+y,-z
-x,-y,-z
x,1/2-y,z
loop_
_atom_site_type_symbol
_atom_site_label
_atom_site_fract_x
_atom_site_fract_y
_atom_site_fract_z
Si Si1 0.674145 0.102230 0.313612
Si Si2 0.896063 0.389654 0.923797
Si Si3 0.261295 0.602283 0.347487
Si Si4 0.450613 0.046228 0.108991
Si Si5 0.099589 0.892254 0.710189
Si Si6 0.142998 0.103897 0.831916
Si Si7 0.203051 0.595536 0.188594
Si Si8 0.109599 0.101872 0.498046
O O1 0.555147 0.250000 0.284350
O O2 0.752876 0.068350 0.290261
O O3 0.942577 0.088726 0.412816
O O4 0.459239 0.994182 0.270544
O O5 0.771056 0.250000 0.881707
O O6 0.686494 0.446498 0.898255
O O7 0.893974 0.456791 0.880439
O O8 0.203673 0.371347 0.023920
O O9 0.225503 0.750000 0.353502
O O10 0.578271 0.564941 0.428113
O O11 0.124277 0.502796 0.341216
O O12 0.118725 0.585597 0.267011
O O13 0.673671 0.125296 0.194130
O O14 0.597887 0.979783 0.111803
O O15 0.957315 0.750000 0.667675
O O16 0.250368 0.250000 0.860326
O O17 0.047966 0.063215 0.849757
O O18 0.276144 0.750000 0.211081
O O19 0.090547 0.250000 0.509313
O O20 0.000000 0.000000 0.500000
#
# Coordination Sequence:
#
# PCOD8071814 Si02
#       8
#     4   4   4   4   4   4   4   4
#     4  10  21  37  55  80 112 144 178 224 278 326
#     4  10  20  33  53  79 106 139 187 233 267 320
#     4   9  19  35  54  78 106 142 182 222 271 324
#     4  10  19  34  53  77 108 145 179 223 278 327
#     4  10  20  35  55  79 109 143 179 222 274 326
#     4   9  18  33  54  76 106 141 179 225 274 325
#     4  10  20  36  56  81 109 143 188 231 269 322
#     4  10  21  37  57  80 110 144 182 226 271 326
#
# _framework density 18.786746999999998
#
# number of rings (size 3 to 8) (size 9 to 14) (size 15 to 20)
#    0.000    2.250    1.250    1.500    0.000    4.000 
#    0.000    5.000    0.000    0.000    0.000    0.000 
#    0.000    0.000    0.000    0.000    0.000    0.000 
#
# Total GULP energy -396595.627865 kJ/mol
# GULP energy per Si atom -12393.613371 kJ/mol
# Density = 1.874399 g / cm^3
# Si number density = 18.786747 Si / 1000 Ang^3
#
#
#
# Elastic Constant Matrix: (Units=GPa)
#
#
# Indices 1 2 3 4 5 6 
#
# 1 118.9244 56.0794 27.7252 0.0000 13.8776 0.0000
# 2 56.0794 90.7755 24.2919 0.0000 18.0498 0.0000
# 3 27.7252 24.2919 49.5239 0.0004 7.8508 0.0002
# 4 0.0000 0.0000 0.0004 121.5448 0.0000 55.1546
# 5 13.8776 18.0498 7.8508 0.0000 24.4818 0.0000
# 6 0.0000 0.0000 0.0002 55.1546 0.0000 55.7739
#
#
#
# Elastic Compliance Matrix: (Units=1/GPa)
#
#
# Indices 1 2 3 4 5 6 
#
# 1 0.012444 -0.006505 -0.003601 0.000000 -0.001104 0.000000
# 2 -0.006505 0.017648 -0.003726 0.000000 -0.008129 0.000000
# 3 -0.003601 -0.003726 0.024524 0.000000 -0.003076 0.000000
# 4 0.000000 0.000000 0.000000 0.014925 0.000000 -0.014759
# 5 -0.001104 -0.008129 -0.003076 0.000000 0.048452 0.000000
# 6 0.000000 0.000000 0.000000 -0.014759 0.000000 0.032525
#
#
# Mechanical properties :
#
#
# Convention : Reuss Voigt Hill
#
# Bulk Modulus (GPa) = 37.10330 52.82409 44.96369
# Shear Modulus (GPa) = 26.71415 50.43525 38.57470
#
# Velocity S-wave (km/s) = 3.77499 5.18695 4.53624
# Velocity P-wave (km/s) = 6.22843 8.00321 7.17094
#
# Compressibility (1/GPa) = 0.02695178
#
# Stress axis : x y z
#
# Youngs Moduli (GPa) = 80.35741 56.66249 40.77683
#
# Poissons Ratio (x) = 0.36858 0.14685
# Poissons Ratio (y) = 0.52271 0.15195
# Poissons Ratio (z) = 0.28938 0.21114
#
# Static dielectric constant tensor:
#      x y z
#    x 3.473520 0.000000 -0.075580 
#    y 0.000000 3.435720 0.000000 
#    z -0.075580 0.000000 3.401920 
# 
# 
# High freq. dielectric constant tensor:
#      x y z
#    x 1.732060 0.000000 -0.004730 
#    y 0.000000 1.728880 0.000000 
#    z -0.004730 0.000000 1.723500 
# 
# From -- ./inp_files/47199.got.cif
#   From: 2010.06.25/outbox.cif.g09.slc.cpg/sg11_24_cif.got.tgz:47199.got - 2010.06.27 23:14:04.
