data_PCOD8071952
_publ_section_title
;
Structure prediction by ZEFSAII (Michael W. Deem and Ramdas Pophale) SiO2 
 PCOD8071952
Probable space group: P 21/M
;
_chemical_formula_sum "Si O2"
_cell_formula_units_Z 32
_cell_length_a 25.962576
_cell_length_b 8.449355
_cell_length_c 14.851174
_cell_angle_alpha 90.000000
_cell_angle_beta 30.016864
_cell_angle_gamma 90.000000
_cell_volume 1629.759257
_symmetry_space_group_name_H-M "P 21/M"
_symmetry_group_IT_number 11
_symmetry_cell_setting 'monoclinic'
loop_
_space_group_symop_operation_xyz
x,y,z
-x,1/2+y,-z
-x,-y,-z
x,1/2-y,z
loop_
_atom_site_type_symbol
_atom_site_label
_atom_site_fract_x
_atom_site_fract_y
_atom_site_fract_z
Si Si1 0.511362 0.564910 0.206450
Si Si2 0.230078 0.435602 0.761864
Si Si3 0.562830 0.435516 0.487690
Si Si4 0.708995 0.436025 0.517260
Si Si5 0.164062 0.065423 0.513475
Si Si6 0.095742 0.437635 0.299789
Si Si7 0.267477 0.438560 0.174691
Si Si8 0.941258 0.563935 0.843076
O O1 0.514222 0.750000 0.185286
O O2 0.504966 0.527331 0.321766
O O3 0.409005 0.500554 0.311332
O O4 0.617078 0.488732 0.008347
O O5 0.221495 0.250000 0.753691
O O6 0.330655 0.469741 0.669130
O O7 0.232369 0.531492 0.665109
O O8 0.133119 0.500574 0.965857
O O9 0.500000 0.500000 0.500000
O O10 0.586476 0.250000 0.443091
O O11 0.714803 0.250000 0.529195
O O12 0.760022 0.534745 0.519147
O O13 0.141604 0.250000 0.537624
O O14 0.215865 0.997030 0.344246
O O15 0.057303 0.978120 0.693174
O O16 0.089953 0.250000 0.307209
O O17 0.200317 0.495187 0.190588
O O18 0.091096 0.507727 0.205404
O O19 0.000000 0.500000 0.500000
O O20 0.273144 0.250000 0.168491
O O21 0.928156 0.750000 0.857796
#
# Coordination Sequence:
#
# PCOD8071952 Si02
#       8
#     4   4   4   4   4   4   4   4
#     4   8  17  34  56  79 108 145 184 225 277 333
#     4  10  21  38  59  83 111 145 188 235 282 333
#     4  10  20  34  55  82 114 152 190 231 278 329
#     4  10  21  39  60  82 111 147 184 232 285 337
#     4  11  22  36  58  84 110 146 187 234 281 326
#     4  10  19  34  56  80 112 149 183 224 274 329
#     4   9  18  33  55  83 112 144 185 225 272 332
#     4  10  22  37  57  84 113 149 188 227 280 338
#
# _framework density 19.634802000000001
#
# number of rings (size 3 to 8) (size 9 to 14) (size 15 to 20)
#    0.000    2.250    1.250    2.250    1.750    2.000 
#    0.000    0.000    0.000    9.750    0.000    0.000 
#    0.000    0.000    0.000    0.000    0.000    0.000 
#
# Total GULP energy -396779.353328 kJ/mol
# GULP energy per Si atom -12399.354791 kJ/mol
# Density = 1.959011 g / cm^3
# Si number density = 19.634802 Si / 1000 Ang^3
#
#
#
# Elastic Constant Matrix: (Units=GPa)
#
#
# Indices 1 2 3 4 5 6 
#
# 1 120.9769 -1.4359 47.7812 0.0000 -14.2348 0.0000
# 2 -1.4359 13.9666 10.6855 0.0000 3.7759 0.0000
# 3 47.7812 10.6855 153.8042 0.0000 -7.0406 0.0000
# 4 0.0000 0.0000 0.0000 22.9630 0.0000 -1.8658
# 5 -14.2348 3.7759 -7.0406 0.0000 19.2961 0.0000
# 6 0.0000 0.0000 0.0000 -1.8658 0.0000 24.2572
#
#
#
# Elastic Compliance Matrix: (Units=1/GPa)
#
#
# Indices 1 2 3 4 5 6 
#
# 1 0.010189 0.001701 -0.003005 0.000000 0.006088 0.000000
# 2 0.001701 0.081814 -0.007005 0.000000 -0.017310 0.000000
# 3 -0.003005 -0.007005 0.008017 0.000000 0.002079 0.000000
# 4 0.000000 0.000000 0.000000 0.043822 0.000000 0.003371
# 5 0.006088 -0.017310 0.002079 0.000000 0.060461 0.000000
# 6 0.000000 0.000000 0.000000 0.003371 0.000000 0.041484
#
#
# Mechanical properties :
#
#
# Convention : Reuss Voigt Hill
#
# Bulk Modulus (GPa) = 11.99009 44.75660 28.37335
# Shear Modulus (GPa) = 17.22916 28.75104 22.99010
#
# Velocity S-wave (km/s) = 2.96544 3.83076 3.42553
# Velocity P-wave (km/s) = 4.22433 6.51232 5.48886
#
# Compressibility (1/GPa) = 0.08340220
#
# Stress axis : x y z
#
# Youngs Moduli (GPa) = 98.14160 12.22292 124.73293
#
# Poissons Ratio (x) = -0.02079 0.37482
# Poissons Ratio (y) = -0.16692 0.87373
# Poissons Ratio (z) = 0.29491 0.08562
#
# Static dielectric constant tensor:
#      x y z
#    x 3.641700 0.000000 -0.018420 
#    y 0.000000 3.310030 0.000000 
#    z -0.018420 0.000000 3.878170 
# 
# 
# High freq. dielectric constant tensor:
#      x y z
#    x 1.771860 0.000000 -0.002230 
#    y 0.000000 1.740020 0.000000 
#    z -0.002230 0.000000 1.772980 
# 
# From -- ./inp_files/51645.got.cif
#   From: 2010.06.25/outbox.cif.g09.slc.cpg/sg11_26_cif.got.tgz:51645.got - 2010.06.27 23:14:04.
