data_PCOD8071194
_publ_section_title
;
Structure prediction by ZEFSAII (Michael W. Deem and Ramdas Pophale) SiO2 
 PCOD8071194
Probable space group: P 21/M
;
_chemical_formula_sum "Si O2"
_cell_formula_units_Z 32
_cell_length_a 11.908663
_cell_length_b 17.528832
_cell_length_c 15.461345
_cell_angle_alpha 90.000000
_cell_angle_beta 151.029384
_cell_angle_gamma 90.000000
_cell_volume 1563.264376
_symmetry_space_group_name_H-M "P 21/M"
_symmetry_group_IT_number 11
_symmetry_cell_setting 'monoclinic'
loop_
_space_group_symop_operation_xyz
x,y,z
-x,1/2+y,-z
-x,-y,-z
x,1/2-y,z
loop_
_atom_site_type_symbol
_atom_site_label
_atom_site_fract_x
_atom_site_fract_y
_atom_site_fract_z
Si Si1 0.812961 0.164494 0.982816
Si Si2 0.646613 0.947705 0.034385
Si Si3 0.209742 0.575394 0.296252
Si Si4 0.955606 0.158319 0.652659
Si Si5 0.951670 0.563732 0.731441
Si Si6 0.128847 0.334533 0.035248
Si Si7 0.430429 0.908925 0.707345
Si Si8 0.527879 0.930233 0.349321
O O1 0.729005 0.250000 0.937582
O O2 0.919660 0.136996 0.144886
O O3 0.023566 0.153436 0.058803
O O4 0.582438 0.118336 0.802442
O O5 0.775757 0.872103 0.160686
O O6 0.478804 0.925425 0.841434
O O7 0.864822 0.998455 0.159461
O O8 0.500000 0.000000 0.000000
O O9 0.218491 0.628357 0.387996
O O10 0.224806 0.483881 0.324271
O O11 0.403108 0.594131 0.354938
O O12 0.961040 0.598694 0.087812
O O13 0.964303 0.250000 0.656188
O O14 0.832484 0.122428 0.483298
O O15 0.801327 0.590019 0.546783
O O16 0.059471 0.250000 0.954415
O O17 0.405162 0.342361 0.220128
O O18 0.490867 0.982107 0.689297
#
# Coordination Sequence:
#
# PCOD8071194 Si02
#       8
#     4   4   4   4   4   4   4   4
#     4  10  22  36  54  84 125 169 210 252 298 361
#     4  11  25  45  69  90 115 162 217 275 324 370
#     4  10  19  33  57  89 130 169 197 236 291 373
#     4  11  24  41  63 100 135 159 200 258 316 372
#     4  11  20  38  59  83 116 159 208 254 304 365
#     4  10  19  32  53  87 129 168 201 241 301 367
#     4  12  21  38  63  92 124 168 206 258 310 372
#     4  11  21  35  58  89 126 164 209 239 296 374
#
# _framework density 20.469987
#
# number of rings (size 3 to 8) (size 9 to 14) (size 15 to 20)
#    0.000    1.250    6.250    1.875    1.750    4.000 
#    0.000    0.625    0.000    0.000    0.000    0.000 
#    0.000    0.000    0.000    0.000    0.000    0.000 
#
# Total GULP energy -396432.449206 kJ/mol
# GULP energy per Si atom -12388.514038 kJ/mol
# Density = 2.042340 g / cm^3
# Si number density = 20.469987 Si / 1000 Ang^3
#
#
#
# Elastic Constant Matrix: (Units=GPa)
#
#
# Indices 1 2 3 4 5 6 
#
# 1 25.2533 28.2630 31.8581 0.0000 -9.5231 0.0000
# 2 28.2630 121.3310 52.2692 0.0000 -3.8352 0.0000
# 3 31.8581 52.2692 149.7159 0.0000 -19.3393 0.0000
# 4 0.0000 0.0000 0.0000 29.9761 0.0000 0.0443
# 5 -9.5231 -3.8352 -19.3393 0.0000 13.4128 0.0000
# 6 0.0000 0.0000 0.0000 0.0443 0.0000 17.9490
#
#
#
# Elastic Compliance Matrix: (Units=1/GPa)
#
#
# Indices 1 2 3 4 5 6 
#
# 1 0.080527 -0.014630 -0.006369 0.000000 0.043808 0.000000
# 2 -0.014630 0.012433 -0.002593 0.000000 -0.010571 0.000000
# 3 -0.006369 -0.002593 0.010150 0.000000 0.009372 0.000000
# 4 0.000000 0.000000 0.000000 0.033360 0.000000 -0.000082
# 5 0.043808 -0.010571 0.009372 0.000000 0.116151 0.000000
# 6 0.000000 0.000000 0.000000 -0.000082 0.000000 0.055714
#
#
# Mechanical properties :
#
#
# Convention : Reuss Voigt Hill
#
# Bulk Modulus (GPa) = 17.88042 57.89785 37.88914
# Shear Modulus (GPa) = 13.36326 24.52822 18.94574
#
# Velocity S-wave (km/s) = 2.55781 3.46533 3.04557
# Velocity P-wave (km/s) = 4.18056 6.66011 5.56031
#
# Compressibility (1/GPa) = 0.05592710
#
# Stress axis : x y z
#
# Youngs Moduli (GPa) = 12.41820 80.43327 98.51773
#
# Poissons Ratio (x) = 1.17671 0.62745
# Poissons Ratio (y) = 0.18167 0.25545
# Poissons Ratio (z) = 0.07909 0.20856
#
# Static dielectric constant tensor:
#      x y z
#    x 1.476500 0.000000 -1.480590 
#    y 0.000000 2.868090 0.000000 
#    z -1.480590 0.000000 3.154140 
# 
# 
# High freq. dielectric constant tensor:
#      x y z
#    x 1.747730 0.000000 -0.008440 
#    y 0.000000 1.798080 0.000000 
#    z -0.008440 0.000000 1.819720 
# 
# From -- ./inp_files/50711.got.cif
#   From: 2010.06.25/outbox.cif.g09.slc.cpg/sg11_26_cif.got.tgz:50711.got - 2010.06.27 23:14:04.
