data_PCOD8071149
_publ_section_title
;
Structure prediction by ZEFSAII (Michael W. Deem and Ramdas Pophale) SiO2 
 PCOD8071149
Probable space group: P 21/M
;
_chemical_formula_sum "Si O2"
_cell_formula_units_Z 32
_cell_length_a 12.113690
_cell_length_b 8.928936
_cell_length_c 20.748208
_cell_angle_alpha 90.000000
_cell_angle_beta 51.754261
_cell_angle_gamma 90.000000
_cell_volume 1762.492100
_symmetry_space_group_name_H-M "P 21/M"
_symmetry_group_IT_number 11
_symmetry_cell_setting 'monoclinic'
loop_
_space_group_symop_operation_xyz
x,y,z
-x,1/2+y,-z
-x,-y,-z
x,1/2-y,z
loop_
_atom_site_type_symbol
_atom_site_label
_atom_site_fract_x
_atom_site_fract_y
_atom_site_fract_z
Si Si1 0.653886 0.075633 0.118200
Si Si2 0.648984 0.578218 0.255398
Si Si3 0.626211 0.924191 0.629088
Si Si4 0.948849 0.577261 0.197249
Si Si5 0.931679 0.073154 0.710819
Si Si6 0.914191 0.927183 0.972965
Si Si7 0.336259 0.077918 0.238017
Si Si8 0.919774 0.925603 0.470548
O O1 0.693715 0.250000 0.101644
O O2 0.493136 0.048841 0.154598
O O3 0.678640 0.020158 0.181785
O O4 0.753387 0.984153 0.033832
O O5 0.627322 0.750000 0.242226
O O6 0.510246 0.519176 0.342623
O O7 0.780450 0.560900 0.255738
O O8 0.584444 0.750000 0.643578
O O9 0.672710 0.972021 0.684224
O O10 0.753354 0.961315 0.534627
O O11 0.993360 0.750000 0.169825
O O12 0.998363 0.516014 0.248575
O O13 0.021557 0.474317 0.118011
O O14 0.932791 0.250000 0.708692
O O15 0.021931 0.009715 0.617970
O O16 0.771266 0.018366 0.765244
O O17 0.918953 0.750000 0.978979
O O18 0.000000 0.000000 0.000000
O O19 0.292953 0.250000 0.246617
O O20 0.946383 0.750000 0.466832
O O21 0.000000 0.000000 0.500000
#
# Coordination Sequence:
#
# PCOD8071149 Si02
#       8
#     4   4   4   4   4   4   4   4
#     4  10  20  35  56  82 113 142 176 227 279 322
#     4  10  19  32  53  78 107 143 184 226 271 325
#     4   9  18  32  51  77 111 142 176 228 281 323
#     4  10  22  39  55  78 113 148 182 227 278 325
#     4  10  21  36  56  80 110 148 186 226 276 332
#     4  12  23  36  58  86 111 141 184 228 271 323
#     4   9  18  33  53  79 111 144 176 221 277 327
#     4  10  19  33  54  81 109 143 184 229 278 326
#
# _framework density 18.156110000000002
#
# number of rings (size 3 to 8) (size 9 to 14) (size 15 to 20)
#    0.000    2.000    2.500    2.625    0.000    4.000 
#    0.000    1.250    0.000    0.000    0.000    0.000 
#    0.000    0.000    0.000    0.000    0.000    0.000 
#
# Total GULP energy -396851.958990 kJ/mol
# GULP energy per Si atom -12401.623718 kJ/mol
# Density = 1.811479 g / cm^3
# Si number density = 18.156110 Si / 1000 Ang^3
#
#
#
# Elastic Constant Matrix: (Units=GPa)
#
#
# Indices 1 2 3 4 5 6 
#
# 1 120.8131 46.0740 66.9876 0.0000 -3.4375 0.0000
# 2 46.0740 78.1830 50.7232 0.0000 -3.1739 0.0000
# 3 66.9876 50.7232 116.5147 0.0000 -6.9862 0.0000
# 4 0.0000 0.0000 0.0000 27.0573 0.0000 -6.5952
# 5 -3.4375 -3.1739 -6.9862 0.0000 28.0887 0.0000
# 6 0.0000 0.0000 0.0000 -6.5952 0.0000 28.0284
#
#
#
# Elastic Compliance Matrix: (Units=1/GPa)
#
#
# Indices 1 2 3 4 5 6 
#
# 1 0.012955 -0.003906 -0.005765 0.000000 -0.000290 0.000000
# 2 -0.003906 0.019003 -0.006017 0.000000 0.000173 0.000000
# 3 -0.005765 -0.006017 0.014652 0.000000 0.002259 0.000000
# 4 0.000000 0.000000 0.000000 0.039207 0.000000 0.009226
# 5 -0.000290 0.000173 0.002259 0.000000 0.036147 0.000000
# 6 0.000000 0.000000 0.000000 0.009226 0.000000 0.037849
#
#
# Mechanical properties :
#
#
# Convention : Reuss Voigt Hill
#
# Bulk Modulus (GPa) = 65.64191 71.45339 68.54765
# Shear Modulus (GPa) = 25.47543 26.74997 26.11270
#
# Velocity S-wave (km/s) = 3.74990 3.84256 3.79652
# Velocity P-wave (km/s) = 7.41496 7.68944 7.55345
#
# Compressibility (1/GPa) = 0.01523417
#
# Stress axis : x y z
#
# Youngs Moduli (GPa) = 77.18815 52.62381 68.25050
#
# Poissons Ratio (x) = 0.20555 0.39348
# Poissons Ratio (y) = 0.30150 0.41063
# Poissons Ratio (z) = 0.44501 0.31661
#
# Static dielectric constant tensor:
#      x y z
#    x 3.341210 0.000000 -0.227210 
#    y 0.000000 3.349610 0.000000 
#    z -0.227210 0.000000 3.592510 
# 
# 
# High freq. dielectric constant tensor:
#      x y z
#    x 1.690300 0.000000 -0.024560 
#    y 0.000000 1.703930 0.000000 
#    z -0.024560 0.000000 1.699170 
# 
# From -- ./inp_files/64400.got.cif
#   From: 2010.06.25/outbox.cif.g09.slc.cpg/sg11_33_cif.got.tgz:64400.got - 2010.06.27 23:14:04.
