data_PCOD8071731
_publ_section_title
;
Structure prediction by ZEFSAII (Michael W. Deem and Ramdas Pophale) SiO2 
 PCOD8071731
Probable space group: P 21/M
;
_chemical_formula_sum "Si O2"
_cell_formula_units_Z 32
_cell_length_a 11.158821
_cell_length_b 9.118101
_cell_length_c 30.522930
_cell_angle_alpha 90.000000
_cell_angle_beta 146.567618
_cell_angle_gamma 90.000000
_cell_volume 1711.051482
_symmetry_space_group_name_H-M "P 21/M"
_symmetry_group_IT_number 11
_symmetry_cell_setting 'monoclinic'
loop_
_space_group_symop_operation_xyz
x,y,z
-x,1/2+y,-z
-x,-y,-z
x,1/2-y,z
loop_
_atom_site_type_symbol
_atom_site_label
_atom_site_fract_x
_atom_site_fract_y
_atom_site_fract_z
Si Si1 0.083350 0.920645 0.434171
Si Si2 0.822175 0.919326 0.092214
Si Si3 0.322688 0.919928 0.251972
Si Si4 0.306702 0.579446 0.796072
Si Si5 0.871665 0.419826 0.652901
Si Si6 0.478329 0.079321 0.593661
Si Si7 0.354648 0.579395 0.709570
Si Si8 0.518468 0.420953 0.937279
O O1 0.056106 0.750000 0.435827
O O2 0.160610 0.951265 0.408229
O O3 0.260181 0.986825 0.520904
O O4 0.853662 0.996615 0.373744
O O5 0.793554 0.750000 0.070410
O O6 0.688123 0.955559 0.095115
O O7 0.069871 0.960939 0.177385
O O8 0.736885 0.016746 0.025971
O O9 0.356358 0.750000 0.250471
O O10 0.428481 0.959151 0.330559
O O11 0.429292 0.017932 0.246907
O O12 0.299306 0.750000 0.805185
O O13 0.378305 0.549013 0.768274
O O14 0.483652 0.500839 0.880476
O O15 0.068903 0.513414 0.732542
O O16 0.925225 0.250000 0.678734
O O17 0.652954 0.469197 0.610454
O O18 0.421890 0.250000 0.571460
O O19 0.327190 0.750000 0.690955
O O20 0.550353 0.250000 0.938324
#
# Coordination Sequence:
#
# PCOD8071731 Si02
#       8
#     4   4   4   4   4   4   4   4
#     4  10  20  34  54  79 105 137 177 217 260 312
#     4   9  19  36  56  81 113 142 169 208 258 308
#     4  10  21  37  56  76 102 139 178 216 261 310
#     4  10  20  34  54  79 106 138 176 217 262 310
#     4   9  18  33  53  78 109 140 171 212 262 316
#     4  10  20  34  53  78 108 139 171 213 266 317
#     4  10  22  39  56  74 101 138 179 224 266 304
#     4  10  19  33  57  86 113 140 170 206 254 312
#
# _framework density 18.701951000000001
#
# number of rings (size 3 to 8) (size 9 to 14) (size 15 to 20)
#    0.000    2.250    0.000    2.625    0.000    6.500 
#    0.000    1.875    0.000    0.000    0.000    0.000 
#    0.000    0.000    0.000    0.000    0.000    0.000 
#
# Total GULP energy -396977.574026 kJ/mol
# GULP energy per Si atom -12405.549188 kJ/mol
# Density = 1.865938 g / cm^3
# Si number density = 18.701951 Si / 1000 Ang^3
#
#
#
# Elastic Constant Matrix: (Units=GPa)
#
#
# Indices 1 2 3 4 5 6 
#
# 1 66.7248 37.3039 38.5083 0.0000 6.7707 0.0000
# 2 37.3039 92.3114 65.7967 0.0000 -4.7112 0.0000
# 3 38.5083 65.7967 129.0196 0.0000 -10.3398 0.0000
# 4 0.0000 0.0000 0.0000 39.1550 0.0000 1.0807
# 5 6.7707 -4.7112 -10.3398 0.0000 14.2985 0.0000
# 6 0.0000 0.0000 0.0000 1.0807 0.0000 27.6815
#
#
#
# Elastic Compliance Matrix: (Units=1/GPa)
#
#
# Indices 1 2 3 4 5 6 
#
# 1 0.023283 -0.006840 -0.004804 0.000000 -0.016753 0.000000
# 2 -0.006840 0.019036 -0.007329 0.000000 0.004211 0.000000
# 3 -0.004804 -0.007329 0.013705 0.000000 0.009771 0.000000
# 4 0.000000 0.000000 0.000000 0.025567 0.000000 -0.000998
# 5 -0.016753 0.004211 0.009771 0.000000 0.086323 0.000000
# 6 0.000000 0.000000 0.000000 -0.000998 0.000000 0.036164
#
#
# Mechanical properties :
#
#
# Convention : Reuss Voigt Hill
#
# Bulk Modulus (GPa) = 55.31252 63.47485 59.39368
# Shear Modulus (GPa) = 20.15729 25.99012 23.07371
#
# Velocity S-wave (km/s) = 3.28658 3.73191 3.51630
# Velocity P-wave (km/s) = 6.63642 7.25145 6.95074
#
# Compressibility (1/GPa) = 0.01807909
#
# Stress axis : x y z
#
# Youngs Moduli (GPa) = 42.94945 52.53327 72.96653
#
# Poissons Ratio (x) = 0.35933 0.35050
# Poissons Ratio (y) = 0.29378 0.53474
# Poissons Ratio (z) = 0.20631 0.38500
#
# Static dielectric constant tensor:
#      x y z
#    x 3.337970 0.000000 -0.032000 
#    y 0.000000 3.441600 0.000000 
#    z -0.032000 0.000000 3.400660 
# 
# 
# High freq. dielectric constant tensor:
#      x y z
#    x 1.714990 0.000000 -0.003530 
#    y 0.000000 1.730140 0.000000 
#    z -0.003530 0.000000 1.729530 
# 
# From -- ./inp_files/73199.got.cif
#   From: 2010.06.25/outbox.cif.g09.slc.cpg/sg11_37_cif.got.tgz:73199.got - 2010.06.27 23:14:04.
