data_PCOD8071301
_publ_section_title
;
Structure prediction by ZEFSAII (Michael W. Deem and Ramdas Pophale) SiO2 
 PCOD8071301
Probable space group: P 21/M
;
_chemical_formula_sum "Si O2"
_cell_formula_units_Z 32
_cell_length_a 14.747226
_cell_length_b 13.999200
_cell_length_c 12.020029
_cell_angle_alpha 90.000000
_cell_angle_beta 139.941120
_cell_angle_gamma 90.000000
_cell_volume 1597.047725
_symmetry_space_group_name_H-M "P 21/M"
_symmetry_group_IT_number 11
_symmetry_cell_setting 'monoclinic'
loop_
_space_group_symop_operation_xyz
x,y,z
-x,1/2+y,-z
-x,-y,-z
x,1/2-y,z
loop_
_atom_site_type_symbol
_atom_site_label
_atom_site_fract_x
_atom_site_fract_y
_atom_site_fract_z
Si Si1 0.157118 0.359458 0.320976
Si Si2 0.120734 0.531483 0.920832
Si Si3 0.314752 0.641323 0.266073
Si Si4 0.547495 0.642439 0.303575
Si Si5 0.353281 0.967068 0.961201
Si Si6 0.775945 0.640448 0.872978
Si Si7 0.463759 0.638639 0.869040
Si Si8 0.464107 0.640024 0.617812
O O1 0.114544 0.250000 0.305042
O O2 0.293887 0.388427 0.519930
O O3 0.186302 0.373293 0.218983
O O4 0.033758 0.428689 0.246646
O O5 0.189037 0.583226 0.091902
O O6 0.208542 0.549058 0.890455
O O7 0.115873 0.419362 0.948110
O O8 0.260067 0.750000 0.222455
O O9 0.459140 0.634443 0.333452
O O10 0.351141 0.597775 0.423172
O O11 0.540393 0.750000 0.249956
O O12 0.488178 0.571930 0.155558
O O13 0.389705 0.079191 0.975245
O O14 0.344889 0.906360 0.838787
O O15 0.786080 0.750000 0.921244
O O16 0.620643 0.594898 0.751778
O O17 0.492861 0.750000 0.923111
O O18 0.408081 0.626745 0.690253
O O19 0.483798 0.750000 0.602062
#
# Coordination Sequence:
#
# PCOD8071301 Si02
#       8
#     4   4   4   4   4   4   4   4
#     4  10  20  34  52  77 111 148 176 208 264 324
#     4  11  21  32  53  84 111 136 173 223 272 308
#     4   9  17  30  50  80 112 136 168 216 264 313
#     4   9  17  32  53  77 109 141 172 212 260 316
#     4  10  21  34  55  85 106 132 179 228 264 309
#     4  10  19  33  50  72 107 147 182 209 250 319
#     4  10  20  35  54  78 108 140 177 221 268 312
#     4   9  16  30  51  74 101 140 177 210 252 305
#
# _framework density 20.03697
#
# number of rings (size 3 to 8) (size 9 to 14) (size 15 to 20)
#    0.000    2.250    2.500    1.125    0.000    3.000 
#    0.000    0.000    0.000    3.750    3.250    1.750 
#    0.000    0.000    0.000    0.000    0.000    0.000 
#
# Total GULP energy -396738.326866 kJ/mol
# GULP energy per Si atom -12398.072715 kJ/mol
# Density = 1.999137 g / cm^3
# Si number density = 20.036970 Si / 1000 Ang^3
#
#
#
# Elastic Constant Matrix: (Units=GPa)
#
#
# Indices 1 2 3 4 5 6 
#
# 1 94.9532 32.1739 37.6621 0.0000 -10.1410 0.0000
# 2 32.1739 85.1601 20.8655 0.0000 4.6663 0.0000
# 3 37.6621 20.8655 53.8056 0.0000 7.2810 0.0000
# 4 0.0000 0.0000 0.0000 20.3720 0.0000 -0.0341
# 5 -10.1410 4.6663 7.2810 0.0000 28.9172 0.0000
# 6 0.0000 0.0000 0.0000 -0.0341 0.0000 25.1616
#
#
#
# Elastic Compliance Matrix: (Units=1/GPa)
#
#
# Indices 1 2 3 4 5 6 
#
# 1 0.017923 -0.004326 -0.012229 0.000000 0.010063 0.000000
# 2 -0.004326 0.014040 -0.001972 0.000000 -0.003286 0.000000
# 3 -0.012229 -0.001972 0.029451 0.000000 -0.011386 0.000000
# 4 0.000000 0.000000 0.000000 0.049087 0.000000 0.000066
# 5 0.010063 -0.003286 -0.011386 0.000000 0.041507 0.000000
# 6 0.000000 0.000000 0.000000 0.000066 0.000000 0.039743
#
#
# Mechanical properties :
#
#
# Convention : Reuss Voigt Hill
#
# Bulk Modulus (GPa) = 41.05224 46.14687 43.59955
# Shear Modulus (GPa) = 21.10364 24.43800 22.77082
#
# Velocity S-wave (km/s) = 3.24888 3.49613 3.37477
# Velocity P-wave (km/s) = 5.88272 6.27520 6.08212
#
# Compressibility (1/GPa) = 0.02435921
#
# Stress axis : x y z
#
# Youngs Moduli (GPa) = 55.79512 71.22371 33.95490
#
# Poissons Ratio (x) = 0.30814 0.41524
# Poissons Ratio (y) = 0.24139 0.06695
# Poissons Ratio (z) = 0.68233 0.14044
#
# Static dielectric constant tensor:
#      x y z
#    x 3.561390 0.000000 -0.170140 
#    y 0.000000 3.879250 0.000000 
#    z -0.170140 0.000000 3.348700 
# 
# 
# High freq. dielectric constant tensor:
#      x y z
#    x 1.769650 0.000000 -0.015390 
#    y 0.000000 1.797540 0.000000 
#    z -0.015390 0.000000 1.742250 
# 
# From -- ./inp_files/22239.got.cif
#   From: 2010.06.25/outbox.cif.g09.slc.cpg/sg11_12_cif.got.tgz:22239.got - 2010.06.27 23:14:04.
