data_PCOD8071954
_publ_section_title
;
Structure prediction by ZEFSAII (Michael W. Deem and Ramdas Pophale) SiO2 
 PCOD8071954
Probable space group: P 21/M
;
_chemical_formula_sum "Si O2"
_cell_formula_units_Z 24
_cell_length_a 16.123465
_cell_length_b 13.154358
_cell_length_c 6.127510
_cell_angle_alpha 90.000000
_cell_angle_beta 112.356853
_cell_angle_gamma 90.000000
_cell_volume 1201.919166
_symmetry_space_group_name_H-M "P 21/M"
_symmetry_group_IT_number 11
_symmetry_cell_setting 'monoclinic'
loop_
_space_group_symop_operation_xyz
x,y,z
-x,1/2+y,-z
-x,-y,-z
x,1/2-y,z
loop_
_atom_site_type_symbol
_atom_site_label
_atom_site_fract_x
_atom_site_fract_y
_atom_site_fract_z
Si Si1 0.068108 0.021522 0.758548
Si Si2 0.368829 0.492853 0.006653
Si Si3 0.921283 0.130147 0.848970
Si Si4 0.209239 0.495028 0.564068
Si Si5 0.521838 0.635349 0.203548
Si Si6 0.690968 0.634300 0.667690
O O1 0.157723 0.055071 0.720461
O O2 0.023109 0.108488 0.865584
O O3 0.000000 0.000000 0.500000
O O4 0.088741 0.921085 0.923481
O O5 0.428245 0.581473 0.174593
O O6 0.306424 0.437710 0.120596
O O7 0.303142 0.538936 0.753639
O O8 0.437078 0.410777 0.975406
O O9 0.905319 0.250000 0.855005
O O10 0.847159 0.084201 0.608777
O O11 0.231463 0.404560 0.417890
O O12 0.497574 0.750000 0.124603
O O13 0.591444 0.626317 0.470218
O O14 0.714454 0.750000 0.753336
#
# Coordination Sequence:
#
# PCOD8071954 Si02
#       6
#     4   4   4   4   4   4
#     4   9  20  39  59  82 112 143 181 224 270 327
#     4  10  19  34  56  80 113 147 186 237 282 330
#     4  10  21  39  62  85 112 147 183 223 274 331
#     4  10  21  37  56  84 116 144 181 229 279 331
#     4   9  19  34  53  78 108 148 193 235 282 330
#     4  10  20  35  55  79 110 150 193 235 279 327
#
# _framework density 19.968066
#
# number of rings (size 3 to 8) (size 9 to 14) (size 15 to 20)
#    0.000    2.333    0.000    2.000    0.000    4.667 
#    0.000   14.167    0.000    0.000    0.000    0.000 
#    0.000    0.000    0.000    0.000    0.000    0.000 
#
# Total GULP energy -297473.531913 kJ/mol
# GULP energy per Si atom -12394.730496 kJ/mol
# Density = 1.992262 g / cm^3
# Si number density = 19.968066 Si / 1000 Ang^3
#
#
#
# Elastic Constant Matrix: (Units=GPa)
#
#
# Indices 1 2 3 4 5 6 
#
# 1 106.1749 56.5432 40.3438 0.0000 -12.1789 0.0000
# 2 56.5432 131.1713 52.6720 0.0000 8.2479 0.0000
# 3 40.3438 52.6720 88.1584 0.0000 -6.3592 0.0000
# 4 0.0000 0.0000 0.0000 24.5334 0.0000 3.4890
# 5 -12.1789 8.2479 -6.3592 0.0000 34.1296 0.0000
# 6 0.0000 0.0000 0.0000 3.4890 0.0000 23.1724
#
#
#
# Elastic Compliance Matrix: (Units=1/GPa)
#
#
# Indices 1 2 3 4 5 6 
#
# 1 0.013936 -0.005223 -0.002845 0.000000 0.005705 0.000000
# 2 -0.005223 0.012441 -0.005468 0.000000 -0.005889 0.000000
# 3 -0.002845 -0.005468 0.016151 0.000000 0.003315 0.000000
# 4 0.000000 0.000000 0.000000 0.041653 0.000000 -0.006271
# 5 0.005705 -0.005889 0.003315 0.000000 0.033377 0.000000
# 6 0.000000 0.000000 0.000000 -0.006271 0.000000 0.044099
#
#
# Mechanical properties :
#
#
# Convention : Reuss Voigt Hill
#
# Bulk Modulus (GPa) = 64.70094 69.40251 67.05173
# Shear Modulus (GPa) = 25.78910 28.09677 26.94294
#
# Velocity S-wave (km/s) = 3.59767 3.75518 3.67727
# Velocity P-wave (km/s) = 7.05196 7.32353 7.18903
#
# Compressibility (1/GPa) = 0.01545572
#
# Stress axis : x y z
#
# Youngs Moduli (GPa) = 71.75876 80.37875 61.91556
#
# Poissons Ratio (x) = 0.41986 0.17615
# Poissons Ratio (y) = 0.37483 0.33853
# Poissons Ratio (z) = 0.20415 0.43948
#
# Static dielectric constant tensor:
#      x y z
#    x 4.170530 0.000000 -0.038120 
#    y 0.000000 3.376300 0.000000 
#    z -0.038120 0.000000 3.722780 
# 
# 
# High freq. dielectric constant tensor:
#      x y z
#    x 1.786470 0.000000 0.003180 
#    y 0.000000 1.748180 0.000000 
#    z 0.003180 0.000000 1.791380 
# 
# From -- ./inp_files/7723.got.cif
#   From: 2010.06.25/outbox.cif.g09.slc.cpg/sg11_4_cif.got.tgz:7723.got - 2010.06.27 23:14:04.
