data_PCOD8071733
_publ_section_title
;
Structure prediction by ZEFSAII (Michael W. Deem and Ramdas Pophale) SiO2 
 PCOD8071733
Probable space group: P 21/M
;
_chemical_formula_sum "Si O2"
_cell_formula_units_Z 28
_cell_length_a 22.402158
_cell_length_b 8.769614
_cell_length_c 17.222393
_cell_angle_alpha 90.000000
_cell_angle_beta 26.209618
_cell_angle_gamma 90.000000
_cell_volume 1494.336560
_symmetry_space_group_name_H-M "P 21/M"
_symmetry_group_IT_number 11
_symmetry_cell_setting 'monoclinic'
loop_
_space_group_symop_operation_xyz
x,y,z
-x,1/2+y,-z
-x,-y,-z
x,1/2-y,z
loop_
_atom_site_type_symbol
_atom_site_label
_atom_site_fract_x
_atom_site_fract_y
_atom_site_fract_z
Si Si1 0.375062 0.928776 0.387924
Si Si2 0.103903 0.927155 0.979789
Si Si3 0.109381 0.569326 0.147275
Si Si4 0.655459 0.431089 0.016450
Si Si5 0.197399 0.073850 0.720757
Si Si6 0.366290 0.425418 0.122238
Si Si7 0.809373 0.926004 0.525326
O O1 0.400341 0.750000 0.356698
O O2 0.516606 0.013317 0.215118
O O3 0.310183 0.976006 0.545408
O O4 0.280112 0.973948 0.427450
O O5 0.136008 0.750000 0.928893
O O6 0.142474 0.983620 0.020886
O O7 0.945406 0.959547 0.153296
O O8 0.192974 0.023751 0.815695
O O9 0.108718 0.750000 0.151162
O O10 0.962032 0.510209 0.345558
O O11 0.222953 0.504003 0.072264
O O12 0.654362 0.250000 0.014875
O O13 0.679546 0.492356 0.902268
O O14 0.237360 0.250000 0.669080
O O15 0.398765 0.250000 0.066376
O O16 0.243980 0.443288 0.325168
O O17 0.500000 0.500000 0.000000
O O18 0.802031 0.750000 0.505666
#
# Coordination Sequence:
#
# PCOD8071733 Si02
#       7
#     4   4   4   4   4   4   4
#     4  12  23  36  57  86 116 149 196 241 284 339
#     4   9  17  33  57  85 117 148 187 236 286 339
#     4   9  19  38  61  85 114 154 193 233 288 347
#     4  11  23  39  60  83 116 156 193 235 291 346
#     4  10  19  33  57  86 117 149 189 236 289 339
#     4  11  22  36  59  87 118 151 193 240 286 338
#     4  10  20  38  62  85 112 150 193 238 288 340
#
# _framework density 18.737413
#
# number of rings (size 3 to 8) (size 9 to 14) (size 15 to 20)
#    0.000    1.714    2.857    2.571    0.000    1.714 
#    0.000    3.571    0.000    0.000    0.000    0.000 
#    0.000    0.000    0.000    0.000    0.000    0.000 
#
# Total GULP energy -347295.460115 kJ/mol
# GULP energy per Si atom -12403.409290 kJ/mol
# Density = 1.869477 g / cm^3
# Si number density = 18.737413 Si / 1000 Ang^3
#
#
#
# Elastic Constant Matrix: (Units=GPa)
#
#
# Indices 1 2 3 4 5 6 
#
# 1 146.0698 40.4570 63.3747 0.0000 -1.5871 0.0000
# 2 40.4570 73.6447 35.2331 0.0000 4.7366 0.0000
# 3 63.3747 35.2331 108.1344 0.0000 3.3563 0.0000
# 4 0.0000 0.0000 0.0000 20.0449 0.0000 14.3410
# 5 -1.5871 4.7366 3.3563 0.0000 29.4461 0.0000
# 6 0.0000 0.0000 0.0000 14.3410 0.0000 20.2502
#
#
#
# Elastic Compliance Matrix: (Units=1/GPa)
#
#
# Indices 1 2 3 4 5 6 
#
# 1 0.009818 -0.003222 -0.004754 0.000000 0.001589 0.000000
# 2 -0.003222 0.017261 -0.003657 0.000000 -0.002533 0.000000
# 3 -0.004754 -0.003657 0.013262 0.000000 -0.001180 0.000000
# 4 0.000000 0.000000 0.000000 0.101125 0.000000 -0.071616
# 5 0.001589 -0.002533 -0.001180 0.000000 0.034588 0.000000
# 6 0.000000 0.000000 0.000000 -0.071616 0.000000 0.100100
#
#
# Mechanical properties :
#
#
# Convention : Reuss Voigt Hill
#
# Bulk Modulus (GPa) = 58.56225 67.33094 62.94659
# Shear Modulus (GPa) = 16.38743 26.53384 21.46063
#
# Velocity S-wave (km/s) = 2.96054 3.76718 3.38795
# Velocity P-wave (km/s) = 6.55808 7.41176 6.99795
#
# Compressibility (1/GPa) = 0.01707585
#
# Stress axis : x y z
#
# Youngs Moduli (GPa) = 101.85288 57.93334 75.40257
#
# Poissons Ratio (x) = 0.18663 0.35845
# Poissons Ratio (y) = 0.32812 0.27578
# Poissons Ratio (z) = 0.48419 0.21189
#
# Static dielectric constant tensor:
#      x y z
#    x 3.540600 0.000000 0.084180 
#    y 0.000000 3.368830 0.000000 
#    z 0.084180 0.000000 3.630110 
# 
# 
# High freq. dielectric constant tensor:
#      x y z
#    x 1.719950 0.000000 0.015400 
#    y 0.000000 1.720110 0.000000 
#    z 0.015400 0.000000 1.737100 
# 
# From -- ./inp_files/54537.got.cif
#   From: 2010.06.25/outbox.cif.g09.slc.cpg/sg11_28_cif.got.tgz:54537.got - 2010.06.27 23:14:04.
