data_PCOD8071908
_publ_section_title
;
Structure prediction by ZEFSAII (Michael W. Deem and Ramdas Pophale) SiO2 
 PCOD8071908
Probable space group: P 21/M
;
_chemical_formula_sum "Si O2"
_cell_formula_units_Z 24
_cell_length_a 21.786702
_cell_length_b 11.010540
_cell_length_c 16.149420
_cell_angle_alpha 90.000000
_cell_angle_beta 162.138285
_cell_angle_gamma 90.000000
_cell_volume 1188.228926
_symmetry_space_group_name_H-M "P 21/M"
_symmetry_group_IT_number 11
_symmetry_cell_setting 'monoclinic'
loop_
_space_group_symop_operation_xyz
x,y,z
-x,1/2+y,-z
-x,-y,-z
x,1/2-y,z
loop_
_atom_site_type_symbol
_atom_site_label
_atom_site_fract_x
_atom_site_fract_y
_atom_site_fract_z
Si Si1 0.788218 0.385893 0.165808
Si Si2 0.965518 0.885562 0.897402
Si Si3 0.786655 0.534919 0.325878
Si Si4 0.608036 0.112209 0.592426
Si Si5 0.415750 0.516656 0.622028
Si Si6 0.373605 0.880402 0.741529
O O1 0.707831 0.250000 0.061128
O O2 0.795757 0.426858 0.270695
O O3 0.008234 0.390894 0.408659
O O4 0.638647 0.464699 0.917944
O O5 0.963274 0.750000 0.936450
O O6 0.746723 0.907334 0.577625
O O7 0.155964 0.889260 0.079020
O O8 0.000000 0.000000 0.000000
O O9 0.756100 0.481706 0.378560
O O10 0.602712 0.621297 0.067083
O O11 0.522753 0.250000 0.503375
O O12 0.500000 0.000000 0.500000
O O13 0.592639 0.091116 0.474072
O O14 0.366115 0.606057 0.633353
O O15 0.279726 0.750000 0.642201
#
# Coordination Sequence:
#
# PCOD8071908 Si02
#       6
#     4   4   4   4   4   4
#     4  10  19  34  55  80 114 146 180 226 272 321
#     4   9  19  37  59  82 109 141 178 223 276 333
#     4   9  20  34  52  81 108 146 189 221 269 323
#     4  10  22  40  60  83 112 145 183 228 281 338
#     4  10  21  36  57  85 109 140 184 228 278 332
#     4  10  19  35  56  77 109 146 185 229 271 320
#
# _framework density 20.198126999999999
#
# number of rings (size 3 to 8) (size 9 to 14) (size 15 to 20)
#    0.000    2.333    0.000    2.000    0.000    5.333 
#    0.000    8.333    0.000    0.000    0.000    0.000 
#    0.000    0.000    0.000    0.000    0.000    0.000 
#
# Total GULP energy -297323.197503 kJ/mol
# GULP energy per Si atom -12388.466563 kJ/mol
# Density = 2.015216 g / cm^3
# Si number density = 20.198127 Si / 1000 Ang^3
#
#
#
# Elastic Constant Matrix: (Units=GPa)
#
#
# Indices 1 2 3 4 5 6 
#
# 1 91.2598 34.4976 19.2630 0.0000 -3.9985 0.0000
# 2 34.4976 142.5799 19.6277 0.0000 0.9347 0.0000
# 3 19.2630 19.6277 75.5713 0.0000 8.3124 0.0000
# 4 0.0000 0.0000 0.0000 13.0600 0.0000 10.1434
# 5 -3.9985 0.9347 8.3124 0.0000 27.2161 0.0000
# 6 0.0000 0.0000 0.0000 10.1434 0.0000 16.5813
#
#
#
# Elastic Compliance Matrix: (Units=1/GPa)
#
#
# Indices 1 2 3 4 5 6 
#
# 1 0.012704 -0.002700 -0.002848 0.000000 0.002829 0.000000
# 2 -0.002700 0.007851 -0.001322 0.000000 -0.000263 0.000000
# 3 -0.002848 -0.001322 0.014841 0.000000 -0.004906 0.000000
# 4 0.000000 0.000000 0.000000 0.145881 0.000000 -0.089241
# 5 0.002829 -0.000263 -0.004906 0.000000 0.038666 0.000000
# 6 0.000000 0.000000 0.000000 -0.089241 0.000000 0.114900
#
#
# Mechanical properties :
#
#
# Convention : Reuss Voigt Hill
#
# Bulk Modulus (GPa) = 46.17741 50.68753 48.43247
# Shear Modulus (GPa) = 14.05280 27.10633 20.57957
#
# Velocity S-wave (km/s) = 2.64056 3.66734 3.19546
# Velocity P-wave (km/s) = 5.67526 6.56370 6.13558
#
# Compressibility (1/GPa) = 0.02165561
#
# Stress axis : x y z
#
# Youngs Moduli (GPa) = 78.71835 127.37871 67.37891
#
# Poissons Ratio (x) = 0.34394 0.19189
# Poissons Ratio (y) = 0.21255 0.08906
# Poissons Ratio (z) = 0.22419 0.16838
#
# Static dielectric constant tensor:
#      x y z
#    x 3.474860 0.000000 0.225800 
#    y 0.000000 3.669210 0.000000 
#    z 0.225800 0.000000 4.031200 
# 
# 
# High freq. dielectric constant tensor:
#      x y z
#    x 1.767880 0.000000 0.013160 
#    y 0.000000 1.796140 0.000000 
#    z 0.013160 0.000000 1.790280 
# 
# From -- ./inp_files/16929.got.cif
#   From: 2010.06.25/outbox.cif.g09.slc.cpg/sg11_9_cif.got.tgz:16929.got - 2010.06.27 23:14:04.
