data_PCOD8071142
_publ_section_title
;
Structure prediction by ZEFSAII (Michael W. Deem and Ramdas Pophale) SiO2 
 PCOD8071142
Probable space group: P 21/M
;
_chemical_formula_sum "Si O2"
_cell_formula_units_Z 24
_cell_length_a 12.153020
_cell_length_b 9.089092
_cell_length_c 24.721294
_cell_angle_alpha 90.000000
_cell_angle_beta 151.491432
_cell_angle_gamma 90.000000
_cell_volume 1303.342041
_symmetry_space_group_name_H-M "P 21/M"
_symmetry_group_IT_number 11
_symmetry_cell_setting 'monoclinic'
loop_
_space_group_symop_operation_xyz
x,y,z
-x,1/2+y,-z
-x,-y,-z
x,1/2-y,z
loop_
_atom_site_type_symbol
_atom_site_label
_atom_site_fract_x
_atom_site_fract_y
_atom_site_fract_z
Si Si1 0.077435 0.423110 0.924503
Si Si2 0.980908 0.423791 0.323017
Si Si3 0.523641 0.075557 0.181976
Si Si4 0.411132 0.917939 0.240316
Si Si5 0.095988 0.424080 0.252775
Si Si6 0.443345 0.421225 0.578198
O O1 0.084785 0.250000 0.915189
O O2 0.853628 0.463325 0.863274
O O3 0.069108 0.507056 0.863951
O O4 0.299935 0.480121 0.052787
O O5 0.977478 0.250000 0.327407
O O6 0.749844 0.489368 0.250156
O O7 0.988193 0.470382 0.263636
O O8 0.204510 0.483925 0.451381
O O9 0.527134 0.250000 0.185160
O O10 0.518737 0.019428 0.240960
O O11 0.424992 0.750000 0.226869
O O12 0.559710 0.943575 0.358593
O O13 0.106976 0.250000 0.249966
O O14 0.353255 0.486966 0.361237
O O15 0.482952 0.250000 0.580881
#
# Coordination Sequence:
#
# PCOD8071142 Si02
#       6
#     4   4   4   4   4   4
#     4   9  19  35  53  73 100 133 166 203 250 297
#     4   9  19  34  51  74 104 134 163 201 249 295
#     4  10  20  34  52  73 100 136 170 199 242 300
#     4   9  18  32  50  73  99 129 166 208 249 286
#     4  10  19  32  53  78 100 126 167 212 245 285
#     4   9  18  35  55  73 100 134 163 200 252 299
#
# _framework density 18.414199
#
# number of rings (size 3 to 8) (size 9 to 14) (size 15 to 20)
#    0.000    2.667    0.000    2.500    0.000    4.667 
#    0.000    3.333    0.000    0.000    0.000    0.000 
#    0.000    0.000    0.000    0.000    0.000    0.000 
#
# Total GULP energy -297632.497445 kJ/mol
# GULP energy per Si atom -12401.354060 kJ/mol
# Density = 1.837229 g / cm^3
# Si number density = 18.414199 Si / 1000 Ang^3
#
#
#
# Elastic Constant Matrix: (Units=GPa)
#
#
# Indices 1 2 3 4 5 6 
#
# 1 138.7121 38.1758 52.9472 0.0000 -4.0003 0.0000
# 2 38.1758 38.6201 22.5458 0.0000 -4.3067 0.0000
# 3 52.9472 22.5458 62.5796 0.0000 -4.4388 0.0000
# 4 0.0000 0.0000 0.0000 19.2721 0.0000 -4.2239
# 5 -4.0003 -4.3067 -4.4388 0.0000 20.9754 0.0000
# 6 0.0000 0.0000 0.0000 -4.2239 0.0000 29.1046
#
#
#
# Elastic Compliance Matrix: (Units=1/GPa)
#
#
# Indices 1 2 3 4 5 6 
#
# 1 0.012218 -0.007729 -0.007614 0.000000 -0.000868 0.000000
# 2 -0.007729 0.038065 -0.006827 0.000000 0.004897 0.000000
# 3 -0.007614 -0.006827 0.025055 0.000000 0.002448 0.000000
# 4 0.000000 0.000000 0.000000 0.053593 0.000000 0.007778
# 5 -0.000868 0.004897 0.002448 0.000000 0.049033 0.000000
# 6 0.000000 0.000000 0.000000 0.007778 0.000000 0.035488
#
#
# Mechanical properties :
#
#
# Convention : Reuss Voigt Hill
#
# Bulk Modulus (GPa) = 32.26102 51.91659 42.08881
# Shear Modulus (GPa) = 18.64809 22.28661 20.46735
#
# Velocity S-wave (km/s) = 3.18575 3.48270 3.33753
# Velocity P-wave (km/s) = 5.57581 6.66538 6.14479
#
# Compressibility (1/GPa) = 0.03099716
#
# Stress axis : x y z
#
# Youngs Moduli (GPa) = 81.84928 26.27099 39.91198
#
# Poissons Ratio (x) = 0.20304 0.30389
# Poissons Ratio (y) = 0.63260 0.27249
# Poissons Ratio (z) = 0.62321 0.17936
#
# Static dielectric constant tensor:
#      x y z
#    x 3.397030 0.000000 0.039710 
#    y 0.000000 3.144510 0.000000 
#    z 0.039710 0.000000 3.625750 
# 
# 
# High freq. dielectric constant tensor:
#      x y z
#    x 1.714840 0.000000 -0.007080 
#    y 0.000000 1.692310 0.000000 
#    z -0.007080 0.000000 1.721900 
# 
# From -- ./inp_files/33728.got.cif
#   From: 2010.06.25/outbox.cif.g09.slc.cpg/sg11_17_cif.got.tgz:33728.got - 2010.06.27 23:14:04.
