data_PCOD8071182
_publ_section_title
;
Structure prediction by ZEFSAII (Michael W. Deem and Ramdas Pophale) SiO2 
 PCOD8071182
Probable space group: P 21/M
;
_chemical_formula_sum "Si O2"
_cell_formula_units_Z 32
_cell_length_a 14.695749
_cell_length_b 17.990342
_cell_length_c 12.054024
_cell_angle_alpha 90.000000
_cell_angle_beta 148.705886
_cell_angle_gamma 90.000000
_cell_volume 1655.355737
_symmetry_space_group_name_H-M "P 21/M"
_symmetry_group_IT_number 11
_symmetry_cell_setting 'monoclinic'
loop_
_space_group_symop_operation_xyz
x,y,z
-x,1/2+y,-z
-x,-y,-z
x,1/2-y,z
loop_
_atom_site_type_symbol
_atom_site_label
_atom_site_fract_x
_atom_site_fract_y
_atom_site_fract_z
Si Si1 0.686841 0.050947 0.295688
Si Si2 0.951182 0.893060 0.051879
Si Si3 0.283815 0.832896 0.493822
Si Si4 0.357887 0.546449 0.001846
Si Si5 0.998280 0.525172 0.737887
Si Si6 0.966373 0.165097 0.097507
Si Si7 0.570282 0.166945 0.744198
Si Si8 0.579827 0.661683 0.639575
O O1 0.702597 0.127808 0.374928
O O2 0.694563 0.073611 0.175254
O O3 0.846744 0.996536 0.494099
O O4 0.503939 0.015937 0.142069
O O5 0.082951 0.834110 0.244361
O O6 0.005489 0.974915 0.153556
O O7 0.750082 0.875585 0.872243
O O8 0.969187 0.882044 0.939797
O O9 0.344617 0.750000 0.579479
O O10 0.412942 0.868258 0.535445
O O11 0.187192 0.510932 0.880054
O O12 0.436042 0.613976 0.155911
O O13 0.971322 0.613258 0.734942
O O14 0.044171 0.250000 0.184276
O O15 0.757959 0.169499 0.880168
O O16 0.519333 0.250000 0.731209
O O17 0.439447 0.138370 0.510657
O O18 0.595054 0.750000 0.661720
#
# Coordination Sequence:
#
# PCOD8071182 Si02
#       8
#     4   4   4   4   4   4   4   4
#     4  10  22  38  59  79 105 145 186 227 277 318
#     4  11  20  33  54  82 113 145 181 215 267 330
#     4  10  20  36  55  81 113 143 180 225 271 326
#     4  10  21  40  57  78 109 142 185 233 270 316
#     4  10  22  37  56  82 107 143 182 228 271 322
#     4  10  19  35  54  78 115 148 175 217 269 326
#     4   9  19  35  56  81 112 147 181 222 271 320
#     4  10  19  32  53  81 114 148 175 217 276 324
#
# _framework density 19.331192999999999
#
# number of rings (size 3 to 8) (size 9 to 14) (size 15 to 20)
#    0.000    2.000    1.250    2.625    1.750    0.500 
#    0.000    1.875    0.000    0.750    0.000    0.000 
#    0.000    0.000    0.000    0.000    0.000    0.000 
#
# Total GULP energy -396671.210065 kJ/mol
# GULP energy per Si atom -12395.975315 kJ/mol
# Density = 1.928719 g / cm^3
# Si number density = 19.331193 Si / 1000 Ang^3
#
#
#
# Elastic Constant Matrix: (Units=GPa)
#
#
# Indices 1 2 3 4 5 6 
#
# 1 85.9371 36.6840 39.6443 0.0000 -5.6322 0.0000
# 2 36.6840 62.1254 31.4541 0.0000 -3.6013 0.0000
# 3 39.6443 31.4541 113.0115 0.0000 -6.3320 0.0000
# 4 0.0000 0.0000 0.0000 13.2061 0.0000 1.0187
# 5 -5.6322 -3.6013 -6.3320 0.0000 21.6016 0.0000
# 6 0.0000 0.0000 0.0000 1.0187 0.0000 18.3969
#
#
#
# Elastic Compliance Matrix: (Units=1/GPa)
#
#
# Indices 1 2 3 4 5 6 
#
# 1 0.016835 -0.008022 -0.003560 0.000000 0.002008 0.000000
# 2 -0.008022 0.022615 -0.003443 0.000000 0.000670 0.000000
# 3 -0.003560 -0.003443 0.011155 0.000000 0.001768 0.000000
# 4 0.000000 0.000000 0.000000 0.076047 0.000000 -0.004211
# 5 0.002008 0.000670 0.001768 0.000000 0.047446 0.000000
# 6 0.000000 0.000000 0.000000 -0.004211 0.000000 0.054590
#
#
# Mechanical properties :
#
#
# Convention : Reuss Voigt Hill
#
# Bulk Modulus (GPa) = 48.65025 52.95988 50.80507
# Shear Modulus (GPa) = 18.82604 20.86037 19.84320
#
# Velocity S-wave (km/s) = 3.12407 3.28854 3.20736
# Velocity P-wave (km/s) = 6.18340 6.47108 6.32887
#
# Compressibility (1/GPa) = 0.02055488
#
# Stress axis : x y z
#
# Youngs Moduli (GPa) = 59.40110 44.21842 89.64632
#
# Poissons Ratio (x) = 0.35470 0.31918
# Poissons Ratio (y) = 0.47649 0.30864
# Poissons Ratio (z) = 0.21150 0.15224
#
# Static dielectric constant tensor:
#      x y z
#    x 3.534820 0.000000 0.072170 
#    y 0.000000 3.412720 0.000000 
#    z 0.072170 0.000000 3.673650 
# 
# 
# High freq. dielectric constant tensor:
#      x y z
#    x 1.747190 0.000000 0.009710 
#    y 0.000000 1.741960 0.000000 
#    z 0.009710 0.000000 1.756300 
# 
# From -- ./inp_files/40003.got.cif
#   From: 2010.06.25/outbox.cif.g09.slc.cpg/sg11_21_cif.got.tgz:40003.got - 2010.06.27 23:14:04.
