data_PCOD8071510
_publ_section_title
;
Structure prediction by ZEFSAII (Michael W. Deem and Ramdas Pophale) SiO2 
 PCOD8071510
Probable space group: P 21/M
;
_chemical_formula_sum "Si O2"
_cell_formula_units_Z 32
_cell_length_a 25.288072
_cell_length_b 9.002912
_cell_length_c 20.571735
_cell_angle_alpha 90.000000
_cell_angle_beta 22.410553
_cell_angle_gamma 90.000000
_cell_volume 1785.537004
_symmetry_space_group_name_H-M "P 21/M"
_symmetry_group_IT_number 11
_symmetry_cell_setting 'monoclinic'
loop_
_space_group_symop_operation_xyz
x,y,z
-x,1/2+y,-z
-x,-y,-z
x,1/2-y,z
loop_
_atom_site_type_symbol
_atom_site_label
_atom_site_fract_x
_atom_site_fract_y
_atom_site_fract_z
Si Si1 0.066049 0.577911 0.863770
Si Si2 0.634179 0.076939 0.520833
Si Si3 0.921722 0.579079 0.391560
Si Si4 0.942263 0.423970 0.629010
Si Si5 0.643718 0.426179 0.175054
Si Si6 0.360527 0.078463 0.350767
Si Si7 0.335784 0.576651 0.996090
Si Si8 0.911968 0.573997 0.909953
O O1 0.033076 0.750000 0.907607
O O2 0.230502 0.547012 0.676622
O O3 0.998043 0.517905 0.874451
O O4 0.000000 0.500000 0.000000
O O5 0.596594 0.250000 0.566529
O O6 0.507360 0.987141 0.632572
O O7 0.669595 0.023030 0.553130
O O8 0.961285 0.750000 0.331769
O O9 0.956501 0.538048 0.426016
O O10 0.757407 0.550387 0.568871
O O11 0.010204 0.477767 0.243256
O O12 0.936247 0.250000 0.622092
O O13 0.000000 0.500000 0.500000
O O14 0.788683 0.491704 0.819382
O O15 0.645860 0.250000 0.180853
O O16 0.671566 0.480591 0.069621
O O17 0.760552 0.499481 0.087354
O O18 0.363257 0.250000 0.371272
O O19 0.511738 0.038466 0.148085
O O20 0.306828 0.750000 0.026933
O O21 0.896493 0.750000 0.925346
#
# Coordination Sequence:
#
# PCOD8071510 Si02
#       8
#     4   4   4   4   4   4   4   4
#     4  10  23  39  56  80 114 149 183 222 271 329
#     4  10  19  34  53  81 115 143 173 225 281 319
#     4  10  19  33  54  79 106 138 182 227 266 323
#     4  10  20  35  51  72 106 143 180 224 270 323
#     4  10  19  34  56  83 108 141 185 225 268 325
#     4   9  17  30  53  80 102 136 179 221 268 321
#     4   8  15  30  50  73 103 133 170 217 262 311
#     4  11  21  35  55  84 114 140 177 230 280 319
#
# _framework density 17.921780999999999
#
# number of rings (size 3 to 8) (size 9 to 14) (size 15 to 20)
#    0.000    2.250    2.500    1.875    0.000    2.500 
#    0.000    1.875    0.000    0.000    0.000    0.000 
#    0.000    0.000    0.000    0.000    0.000    0.000 
#
# Total GULP energy -396738.824045 kJ/mol
# GULP energy per Si atom -12398.088251 kJ/mol
# Density = 1.788099 g / cm^3
# Si number density = 17.921781 Si / 1000 Ang^3
#
#
#
# Elastic Constant Matrix: (Units=GPa)
#
#
# Indices 1 2 3 4 5 6 
#
# 1 81.2840 39.5065 54.7356 0.0000 -12.5636 0.0000
# 2 39.5065 65.0928 47.0583 0.0000 -4.6570 0.0000
# 3 54.7356 47.0583 126.6642 0.0000 -13.5813 0.0000
# 4 0.0000 0.0000 0.0000 30.8192 0.0000 0.8650
# 5 -12.5636 -4.6570 -13.5813 0.0000 33.7316 0.0000
# 6 0.0000 0.0000 0.0000 0.8650 0.0000 26.0058
#
#
#
# Elastic Compliance Matrix: (Units=1/GPa)
#
#
# Indices 1 2 3 4 5 6 
#
# 1 0.020637 -0.008346 -0.005348 0.000000 0.004381 0.000000
# 2 -0.008346 0.024381 -0.005669 0.000000 -0.002025 0.000000
# 3 -0.005348 -0.005669 0.012556 0.000000 0.002281 0.000000
# 4 0.000000 0.000000 0.000000 0.032478 0.000000 -0.001080
# 5 0.004381 -0.002025 0.002281 0.000000 0.031916 0.000000
# 6 0.000000 0.000000 0.000000 -0.001080 0.000000 0.038489
#
#
# Mechanical properties :
#
#
# Convention : Reuss Voigt Hill
#
# Bulk Modulus (GPa) = 53.04883 61.73798 57.39340
# Shear Modulus (GPa) = 24.33504 26.89403 25.61453
#
# Velocity S-wave (km/s) = 3.68890 3.87800 3.78463
# Velocity P-wave (km/s) = 6.91436 7.38751 7.15485
#
# Compressibility (1/GPa) = 0.01885056
#
# Stress axis : x y z
#
# Youngs Moduli (GPa) = 48.45694 41.01512 79.64078
#
# Poissons Ratio (x) = 0.34230 0.42588
# Poissons Ratio (y) = 0.40441 0.45147
# Poissons Ratio (z) = 0.25912 0.23251
#
# Static dielectric constant tensor:
#      x y z
#    x 3.300850 0.000000 -0.360950 
#    y 0.000000 3.320260 0.000000 
#    z -0.360950 0.000000 3.584850 
# 
# 
# High freq. dielectric constant tensor:
#      x y z
#    x 1.674920 0.000000 -0.027130 
#    y 0.000000 1.684230 0.000000 
#    z -0.027130 0.000000 1.700600 
# 
# From -- ./inp_files/67030.got.cif
#   From: 2010.06.25/outbox.cif.g09.slc.cpg/sg11_34_cif.got.tgz:67030.got - 2010.06.27 23:14:04.
