data_PCOD8071171
_publ_section_title
;
Structure prediction by ZEFSAII (Michael W. Deem and Ramdas Pophale) SiO2 
 PCOD8071171
Probable space group: P 21/M
;
_chemical_formula_sum "Si O2"
_cell_formula_units_Z 28
_cell_length_a 9.541880
_cell_length_b 9.336505
_cell_length_c 31.553907
_cell_angle_alpha 90.000000
_cell_angle_beta 34.913018
_cell_angle_gamma 90.000000
_cell_volume 1608.865017
_symmetry_space_group_name_H-M "P 21/M"
_symmetry_group_IT_number 11
_symmetry_cell_setting 'monoclinic'
loop_
_space_group_symop_operation_xyz
x,y,z
-x,1/2+y,-z
-x,-y,-z
x,1/2-y,z
loop_
_atom_site_type_symbol
_atom_site_label
_atom_site_fract_x
_atom_site_fract_y
_atom_site_fract_z
Si Si1 0.370931 0.583651 0.308561
Si Si2 0.228413 0.086058 0.425312
Si Si3 0.136747 0.414999 0.601535
Si Si4 0.192306 0.415683 0.860457
Si Si5 0.757066 0.587613 0.059937
Si Si6 0.509670 0.089736 0.438311
Si Si7 0.682168 0.579871 0.986920
O O1 0.358053 0.750000 0.325620
O O2 0.346285 0.484434 0.355159
O O3 0.623761 0.545539 0.222914
O O4 0.148224 0.547898 0.332119
O O5 0.148335 0.250000 0.436247
O O6 0.445853 0.079911 0.405153
O O7 0.000000 0.000000 0.500000
O O8 0.177730 0.250000 0.600531
O O9 0.247640 0.497030 0.614223
O O10 0.278227 0.464907 0.523658
O O11 0.105899 0.250000 0.878651
O O12 0.348052 0.437113 0.866287
O O13 0.957203 0.518097 0.913716
O O14 0.837551 0.750000 0.033781
O O15 0.595888 0.548495 0.057724
O O16 0.000000 0.500000 0.000000
O O17 0.573713 0.250000 0.436287
O O18 0.680690 0.750000 0.977250
O O19 0.500000 0.500000 0.000000
#
# Coordination Sequence:
#
# PCOD8071171 Si02
#       7
#     4   4   4   4   4   4   4
#     4  10  20  35  53  76 104 133 170 217 267 318
#     4  11  21  34  52  74 102 136 176 220 263 314
#     4   9  17  31  49  70  96 126 163 207 256 307
#     4   9  18  34  55  76 103 136 172 216 263 308
#     4   8  15  29  50  75  99 130 168 206 245 295
#     4   9  18  32  48  69  96 124 163 213 256 301
#     4  10  19  32  53  80 111 141 175 212 252 305
#
# _framework density 17.403573000000002
#
# number of rings (size 3 to 8) (size 9 to 14) (size 15 to 20)
#    0.000    2.571    1.429    0.857    0.000    2.857 
#    0.000    1.429    0.000    3.429    0.000    0.000 
#    0.000    0.000    0.000    0.000    0.000    0.000 
#
# Total GULP energy -346892.430606 kJ/mol
# GULP energy per Si atom -12389.015379 kJ/mol
# Density = 1.736396 g / cm^3
# Si number density = 17.403573 Si / 1000 Ang^3
#
#
#
# Elastic Constant Matrix: (Units=GPa)
#
#
# Indices 1 2 3 4 5 6 
#
# 1 120.1068 63.0568 48.1798 0.0000 5.7758 0.0000
# 2 63.0568 83.7018 47.3626 0.0000 5.2901 0.0000
# 3 48.1798 47.3626 83.0768 0.0000 9.3764 0.0000
# 4 0.0000 0.0000 0.0000 23.3293 0.0000 0.2803
# 5 5.7758 5.2901 9.3764 0.0000 24.3391 0.0000
# 6 0.0000 0.0000 0.0000 0.2803 0.0000 33.9895
#
#
#
# Elastic Compliance Matrix: (Units=1/GPa)
#
#
# Indices 1 2 3 4 5 6 
#
# 1 0.014322 -0.008990 -0.003155 0.000000 -0.000229 0.000000
# 2 -0.008990 0.023280 -0.008079 0.000000 0.000186 0.000000
# 3 -0.003155 -0.008079 0.019017 0.000000 -0.004821 0.000000
# 4 0.000000 0.000000 0.000000 0.042869 0.000000 -0.000354
# 5 -0.000229 0.000186 -0.004821 0.000000 0.042958 0.000000
# 6 0.000000 0.000000 0.000000 -0.000354 0.000000 0.029424
#
#
# Mechanical properties :
#
#
# Convention : Reuss Voigt Hill
#
# Bulk Modulus (GPa) = 61.84078 67.12042 64.48060
# Shear Modulus (GPa) = 22.96658 24.88400 23.92529
#
# Velocity S-wave (km/s) = 3.63664 3.78540 3.71176
# Velocity P-wave (km/s) = 7.29685 7.59977 7.44985
#
# Compressibility (1/GPa) = 0.01617056
#
# Stress axis : x y z
#
# Youngs Moduli (GPa) = 69.82088 42.95597 52.58474
#
# Poissons Ratio (x) = 0.38617 0.16590
# Poissons Ratio (y) = 0.62769 0.42484
# Poissons Ratio (z) = 0.22028 0.34705
#
# Static dielectric constant tensor:
#      x y z
#    x 3.495920 0.000000 0.343180 
#    y 0.000000 3.347190 0.000000 
#    z 0.343180 0.000000 3.179300 
# 
# 
# High freq. dielectric constant tensor:
#      x y z
#    x 1.676350 0.000000 0.014060 
#    y 0.000000 1.679690 0.000000 
#    z 0.014060 0.000000 1.640970 
# 
# From -- ./inp_files/28975.got.cif
#   From: 2010.06.25/outbox.cif.g09.slc.cpg/sg11_15_cif.got.tgz:28975.got - 2010.06.27 23:14:04.
