data_PCOD8071380
_publ_section_title
;
Structure prediction by ZEFSAII (Michael W. Deem and Ramdas Pophale) SiO2 
 PCOD8071380
Probable space group: P 21/M
;
_chemical_formula_sum "Si O2"
_cell_formula_units_Z 32
_cell_length_a 11.755902
_cell_length_b 8.893640
_cell_length_c 16.756112
_cell_angle_alpha 90.000000
_cell_angle_beta 85.641485
_cell_angle_gamma 90.000000
_cell_volume 1746.831341
_symmetry_space_group_name_H-M "P 21/M"
_symmetry_group_IT_number 11
_symmetry_cell_setting 'monoclinic'
loop_
_space_group_symop_operation_xyz
x,y,z
-x,1/2+y,-z
-x,-y,-z
x,1/2-y,z
loop_
_atom_site_type_symbol
_atom_site_label
_atom_site_fract_x
_atom_site_fract_y
_atom_site_fract_z
Si Si1 0.935563 0.075285 0.154334
Si Si2 0.739257 0.076293 0.042008
Si Si3 0.603508 0.425406 0.598231
Si Si4 0.823625 0.426086 0.863821
Si Si5 0.573665 0.924355 0.163256
Si Si6 0.350964 0.072397 0.238687
Si Si7 0.228682 0.077079 0.724766
Si Si8 0.649373 0.576206 0.439327
O O1 0.968078 0.250000 0.156160
O O2 0.853108 0.036046 0.085063
O O3 0.873472 0.028942 0.240218
O O4 0.046428 0.976101 0.135573
O O5 0.708223 0.250000 0.056279
O O6 0.633062 0.978196 0.078448
O O7 0.758878 0.035386 0.949263
O O8 0.621449 0.250000 0.612542
O O9 0.650499 0.513791 0.671216
O O10 0.673858 0.476243 0.516045
O O11 0.471373 0.467673 0.593428
O O12 0.819029 0.250000 0.845504
O O13 0.765237 0.516729 0.795687
O O14 0.542950 0.750000 0.157633
O O15 0.655771 0.958299 0.233313
O O16 0.457028 0.012290 0.182247
O O17 0.354408 0.250000 0.239407
O O18 0.193299 0.250000 0.740093
O O19 0.251937 0.042989 0.630485
O O20 0.647951 0.750000 0.464960
#
# Coordination Sequence:
#
# PCOD8071380 Si02
#       8
#     4   4   4   4   4   4   4   4
#     4  10  20  35  56  83 110 135 177 228 272 316
#     4   9  20  37  57  82 108 137 176 226 274 320
#     4  10  19  33  52  79 112 144 179 217 263 318
#     4  11  23  39  57  76 104 144 186 223 269 323
#     4  10  19  34  55  80 109 143 179 219 269 322
#     4  12  24  37  54  76 109 147 183 223 269 321
#     4   9  17  32  54  80 111 143 177 217 265 316
#     4   9  17  31  52  81 113 142 177 217 261 314
#
# _framework density 18.318883
#
# number of rings (size 3 to 8) (size 9 to 14) (size 15 to 20)
#    0.000    2.000    1.250    3.000    0.000    3.500 
#    0.000    0.000    0.000    0.750    0.000    0.000 
#    0.000    0.000    0.000    0.000    0.000    0.000 
#
# Total GULP energy -396928.481182 kJ/mol
# GULP energy per Si atom -12404.015037 kJ/mol
# Density = 1.827719 g / cm^3
# Si number density = 18.318883 Si / 1000 Ang^3
#
#
#
# Elastic Constant Matrix: (Units=GPa)
#
#
# Indices 1 2 3 4 5 6 
#
# 1 25.1170 27.8744 19.6681 0.0000 6.6485 0.0000
# 2 27.8744 96.1105 48.4432 0.0000 1.5388 0.0000
# 3 19.6681 48.4432 94.7792 0.0000 -0.0836 0.0000
# 4 0.0000 0.0000 0.0000 32.0807 0.0000 -3.5421
# 5 6.6485 1.5388 -0.0836 0.0000 17.8760 0.0000
# 6 0.0000 0.0000 0.0000 -3.5421 0.0000 31.8631
#
#
#
# Elastic Compliance Matrix: (Units=1/GPa)
#
#
# Indices 1 2 3 4 5 6 
#
# 1 0.069541 -0.016828 -0.005851 0.000000 -0.024443 0.000000
# 2 -0.016828 0.018115 -0.005763 0.000000 0.004672 0.000000
# 3 -0.005851 -0.005763 0.014713 0.000000 0.002741 0.000000
# 4 0.000000 0.000000 0.000000 0.031559 0.000000 0.003508
# 5 -0.024443 0.004672 0.002741 0.000000 0.064642 0.000000
# 6 0.000000 0.000000 0.000000 0.003508 0.000000 0.031774
#
#
# Mechanical properties :
#
#
# Convention : Reuss Voigt Hill
#
# Bulk Modulus (GPa) = 21.98530 45.33091 33.65811
# Shear Modulus (GPa) = 16.53494 24.36535 20.45015
#
# Velocity S-wave (km/s) = 3.00762 3.65097 3.34480
# Velocity P-wave (km/s) = 4.90801 6.52472 5.77323
#
# Compressibility (1/GPa) = 0.04548494
#
# Stress axis : x y z
#
# Youngs Moduli (GPa) = 14.38000 55.20281 67.96754
#
# Poissons Ratio (x) = 0.92895 0.39770
# Poissons Ratio (y) = 0.24199 0.39168
# Poissons Ratio (z) = 0.08414 0.31812
#
# Static dielectric constant tensor:
#      x y z
#    x 3.161880 0.000000 -0.145420 
#    y 0.000000 3.404650 0.000000 
#    z -0.145420 0.000000 3.494870 
# 
# 
# High freq. dielectric constant tensor:
#      x y z
#    x 1.685570 0.000000 -0.012930 
#    y 0.000000 1.718040 0.000000 
#    z -0.012930 0.000000 1.712710 
# 
# From -- ./inp_files/38153.got.cif
#   From: 2010.06.25/outbox.cif.g09.slc.cpg/sg11_20_cif.got.tgz:38153.got - 2010.06.27 23:14:04.
