data_PCOD8071451
_publ_section_title
;
Structure prediction by ZEFSAII (Michael W. Deem and Ramdas Pophale) SiO2 
 PCOD8071451
Probable space group: P 21/M
;
_chemical_formula_sum "Si O2"
_cell_formula_units_Z 32
_cell_length_a 32.217367
_cell_length_b 9.435777
_cell_length_c 12.702208
_cell_angle_alpha 90.000000
_cell_angle_beta 26.815601
_cell_angle_gamma 90.000000
_cell_volume 1741.965536
_symmetry_space_group_name_H-M "P 21/M"
_symmetry_group_IT_number 11
_symmetry_cell_setting 'monoclinic'
loop_
_space_group_symop_operation_xyz
x,y,z
-x,1/2+y,-z
-x,-y,-z
x,1/2-y,z
loop_
_atom_site_type_symbol
_atom_site_label
_atom_site_fract_x
_atom_site_fract_y
_atom_site_fract_z
Si Si1 0.190235 0.584623 0.234946
Si Si2 0.700762 0.083456 0.214093
Si Si3 0.076156 0.404710 0.777877
Si Si4 0.980593 0.906574 0.330106
Si Si5 0.230044 0.589908 0.513125
Si Si6 0.811753 0.082032 0.159340
Si Si7 0.501193 0.581917 0.388058
Si Si8 0.660755 0.409592 0.929614
O O1 0.169011 0.750000 0.272219
O O2 0.091181 0.508334 0.448352
O O3 0.245772 0.552984 0.217188
O O4 0.252127 0.525278 0.998783
O O5 0.714851 0.250000 0.184823
O O6 0.748986 0.016446 0.208498
O O7 0.593207 0.045573 0.458732
O O8 0.076648 0.250000 0.830990
O O9 0.058260 0.387147 0.697049
O O10 0.171746 0.480023 0.579094
O O11 0.000000 0.500000 0.000000
O O12 0.983410 0.750000 0.377810
O O13 0.083387 0.974600 0.091633
O O14 0.188216 0.750000 0.605584
O O15 0.235397 0.537969 0.622331
O O16 0.324255 0.587354 0.231633
O O17 0.815092 0.250000 0.145372
O O18 0.500000 0.500000 0.500000
O O19 0.512649 0.750000 0.381150
O O20 0.583199 0.524208 0.130429
O O21 0.629640 0.250000 0.033707
#
# Coordination Sequence:
#
# PCOD8071451 Si02
#       8
#     4   4   4   4   4   4   4   4
#     4  10  19  33  53  78 110 141 175 220 269 318
#     4   9  19  36  56  77 103 141 182 218 263 325
#     4  11  20  30  48  76 107 139 182 226 267 311
#     4  10  20  32  50  79 109 140 181 222 263 310
#     4  10  19  34  55  78 106 144 182 220 266 315
#     4   9  18  35  55  74 104 147 189 217 252 317
#     4  11  21  36  60  86 109 136 176 223 275 323
#     4  10  20  34  54  84 114 137 172 220 275 325
#
# _framework density 18.370052999999999
#
# number of rings (size 3 to 8) (size 9 to 14) (size 15 to 20)
#    0.000    2.000    3.750    0.750    0.000    2.000 
#    0.000    0.625    0.000    3.750    0.000    0.000 
#    0.000    0.000    0.000    0.000    0.000    0.000 
#
# Total GULP energy -396546.724923 kJ/mol
# GULP energy per Si atom -12392.085154 kJ/mol
# Density = 1.832824 g / cm^3
# Si number density = 18.370053 Si / 1000 Ang^3
#
#
#
# Elastic Constant Matrix: (Units=GPa)
#
#
# Indices 1 2 3 4 5 6 
#
# 1 103.7169 27.5908 53.0251 0.0000 -3.1363 0.0000
# 2 27.5908 77.6784 48.6796 0.0000 -5.0074 0.0000
# 3 53.0251 48.6796 119.4630 0.0000 2.3982 0.0000
# 4 0.0000 0.0000 0.0000 32.8603 0.0000 -0.7358
# 5 -3.1363 -5.0074 2.3982 0.0000 23.8697 0.0000
# 6 0.0000 0.0000 0.0000 -0.7358 0.0000 12.5239
#
#
#
# Elastic Compliance Matrix: (Units=1/GPa)
#
#
# Indices 1 2 3 4 5 6 
#
# 1 0.012657 -0.001107 -0.005206 0.000000 0.001954 0.000000
# 2 -0.001107 0.017847 -0.006867 0.000000 0.004288 0.000000
# 3 -0.005206 -0.006867 0.013550 0.000000 -0.003486 0.000000
# 4 0.000000 0.000000 0.000000 0.030472 0.000000 0.001790
# 5 0.001954 0.004288 -0.003486 0.000000 0.043401 0.000000
# 6 0.000000 0.000000 0.000000 0.001790 0.000000 0.079953
#
#
# Mechanical properties :
#
#
# Convention : Reuss Voigt Hill
#
# Bulk Modulus (GPa) = 56.51944 62.16103 59.34023
# Shear Modulus (GPa) = 21.72627 25.28830 23.50728
#
# Velocity S-wave (km/s) = 3.44277 3.71429 3.58110
# Velocity P-wave (km/s) = 6.82917 7.23231 7.03363
#
# Compressibility (1/GPa) = 0.01769303
#
# Stress axis : x y z
#
# Youngs Moduli (GPa) = 79.00922 56.03280 73.80266
#
# Poissons Ratio (x) = 0.06204 0.38421
# Poissons Ratio (y) = 0.08748 0.50680
# Poissons Ratio (z) = 0.41131 0.38477
#
# Static dielectric constant tensor:
#      x y z
#    x 3.330990 0.000000 0.183850 
#    y 0.000000 3.322940 0.000000 
#    z 0.183850 0.000000 3.367850 
# 
# 
# High freq. dielectric constant tensor:
#      x y z
#    x 1.696320 0.000000 0.009360 
#    y 0.000000 1.690800 0.000000 
#    z 0.009360 0.000000 1.714390 
# 
# From -- ./inp_files/45136.got.cif
#   From: 2010.06.25/outbox.cif.g09.slc.cpg/sg11_23_cif.got.tgz:45136.got - 2010.06.27 23:14:04.
