data_PCOD8071367
_publ_section_title
;
Structure prediction by ZEFSAII (Michael W. Deem and Ramdas Pophale) SiO2 
 PCOD8071367
Probable space group: P 21/M
;
_chemical_formula_sum "Si O2"
_cell_formula_units_Z 20
_cell_length_a 10.247359
_cell_length_b 8.881657
_cell_length_c 11.522250
_cell_angle_alpha 90.000000
_cell_angle_beta 89.897066
_cell_angle_gamma 90.000000
_cell_volume 1048.678928
_symmetry_space_group_name_H-M "P 21/M"
_symmetry_group_IT_number 11
_symmetry_cell_setting 'monoclinic'
loop_
_space_group_symop_operation_xyz
x,y,z
-x,1/2+y,-z
-x,-y,-z
x,1/2-y,z
loop_
_atom_site_type_symbol
_atom_site_label
_atom_site_fract_x
_atom_site_fract_y
_atom_site_fract_z
Si Si1 0.014597 0.573501 0.622273
Si Si2 0.236127 0.073346 0.231111
Si Si3 0.144026 0.571256 0.003632
Si Si4 0.510693 0.928526 0.626895
Si Si5 0.258236 0.928460 0.761966
O O1 0.023556 0.750000 0.605082
O O2 0.893665 0.528470 0.701488
O O3 0.000000 0.500000 0.500000
O O4 0.144101 0.507018 0.680679
O O5 0.244717 0.250000 0.203258
O O6 0.356914 0.020120 0.309925
O O7 0.231244 0.983052 0.111110
O O8 0.125658 0.750000 0.005523
O O9 0.229097 0.517308 0.892697
O O10 0.000000 0.500000 0.000000
O O11 0.505161 0.750000 0.611003
O O12 0.394840 0.988598 0.710661
O O13 0.500000 0.000000 0.500000
O O14 0.256803 0.750000 0.758839
#
# Coordination Sequence:
#
# PCOD8071367 Si02
#       5
#     4   4   4   4   4
#     4  10  19  33  52  76 108 142 183 230 274 325
#     4  10  21  37  56  82 115 148 184 233 284 328
#     4  11  21  37  60  84 113 148 189 234 282 337
#     4  10  21  38  59  82 115 152 186 229 280 334
#     4   9  19  36  56  78 111 150 181 224 284 331
#
# _framework density 19.071611999999998
#
# number of rings (size 3 to 8) (size 9 to 14) (size 15 to 20)
#    0.000    2.000    2.000    1.800    0.000    2.400 
#    0.000    2.000    0.000    0.000    0.000    0.000 
#    0.000    0.000    0.000    0.000    0.000    0.000 
#
# Total GULP energy -247989.481717 kJ/mol
# GULP energy per Si atom -12399.474086 kJ/mol
# Density = 1.902820 g / cm^3
# Si number density = 19.071612 Si / 1000 Ang^3
#
#
#
# Elastic Constant Matrix: (Units=GPa)
#
#
# Indices 1 2 3 4 5 6 
#
# 1 92.1992 28.9405 23.9427 0.0000 11.7614 0.0000
# 2 28.9405 29.9517 43.2648 0.0000 -3.2136 0.0000
# 3 23.9427 43.2648 137.3956 0.0000 11.2895 0.0000
# 4 0.0000 0.0000 0.0000 37.9100 0.0000 5.3903
# 5 11.7614 -3.2136 11.2895 0.0000 38.4791 0.0000
# 6 0.0000 0.0000 0.0000 5.3903 0.0000 14.0995
#
#
#
# Elastic Compliance Matrix: (Units=1/GPa)
#
#
# Indices 1 2 3 4 5 6 
#
# 1 0.020020 -0.030699 0.007062 0.000000 -0.010755 0.000000
# 2 -0.030699 0.113264 -0.032652 0.000000 0.028422 0.000000
# 3 0.007062 -0.032652 0.017144 0.000000 -0.009915 0.000000
# 4 0.000000 0.000000 0.000000 0.027895 0.000000 -0.010664
# 5 -0.010755 0.028422 -0.009915 0.000000 0.034558 0.000000
# 6 0.000000 0.000000 0.000000 -0.010664 0.000000 0.075001
#
#
# Mechanical properties :
#
#
# Convention : Reuss Voigt Hill
#
# Bulk Modulus (GPa) = 26.41965 50.20474 38.31219
# Shear Modulus (GPa) = 12.10426 28.99094 20.54760
#
# Velocity S-wave (km/s) = 2.52201 3.90309 3.28593
# Velocity P-wave (km/s) = 4.72902 6.83327 5.87611
#
# Compressibility (1/GPa) = 0.03785061
#
# Stress axis : x y z
#
# Youngs Moduli (GPa) = 49.94908 8.82893 58.32898
#
# Poissons Ratio (x) = 0.27104 -0.41191
# Poissons Ratio (y) = 1.53339 1.90454
# Poissons Ratio (z) = -0.35273 0.28828
#
# Static dielectric constant tensor:
#      x y z
#    x 3.868860 0.000000 -0.114290 
#    y 0.000000 3.386820 0.000000 
#    z -0.114290 0.000000 3.728100 
# 
# 
# High freq. dielectric constant tensor:
#      x y z
#    x 1.751970 0.000000 0.000140 
#    y 0.000000 1.715200 0.000000 
#    z 0.000140 0.000000 1.759360 
# 
# From -- ./inp_files/15871.got.cif
#   From: 2010.06.25/outbox.cif.g09.slc.cpg/sg11_8_cif.got.tgz:15871.got - 2010.06.27 23:14:04.
