data_PCOD8071516
_publ_section_title
;
Structure prediction by ZEFSAII (Michael W. Deem and Ramdas Pophale) SiO2 
 PCOD8071516
Probable space group: P 21/M
;
_chemical_formula_sum "Si O2"
_cell_formula_units_Z 32
_cell_length_a 11.871186
_cell_length_b 8.949183
_cell_length_c 28.842309
_cell_angle_alpha 90.000000
_cell_angle_beta 31.574621
_cell_angle_gamma 90.000000
_cell_volume 1604.406017
_symmetry_space_group_name_H-M "P 21/M"
_symmetry_group_IT_number 11
_symmetry_cell_setting 'monoclinic'
loop_
_space_group_symop_operation_xyz
x,y,z
-x,1/2+y,-z
-x,-y,-z
x,1/2-y,z
loop_
_atom_site_type_symbol
_atom_site_label
_atom_site_fract_x
_atom_site_fract_y
_atom_site_fract_z
Si Si1 0.601536 0.426001 0.838847
Si Si2 0.620067 0.423101 0.415267
Si Si3 0.421193 0.920247 0.333581
Si Si4 0.022596 0.575279 0.228656
Si Si5 0.907508 0.926478 0.166274
Si Si6 0.885355 0.928449 0.995443
Si Si7 0.824868 0.422612 0.671398
Si Si8 0.756468 0.578360 0.521559
O O1 0.582847 0.250000 0.838125
O O2 0.735783 0.463958 0.838426
O O3 0.359606 0.489497 0.923263
O O4 0.735064 0.499353 0.749436
O O5 0.500000 0.500000 0.500000
O O6 0.652590 0.250000 0.416014
O O7 0.471224 0.446158 0.422807
O O8 0.849930 0.493890 0.322208
O O9 0.405298 0.750000 0.354769
O O10 0.661774 0.978446 0.256061
O O11 0.358988 0.944083 0.302314
O O12 0.253323 0.007992 0.424270
O O13 0.971091 0.750000 0.251590
O O14 0.016317 0.527202 0.176997
O O15 0.930192 0.750000 0.147920
O O16 0.006443 0.020511 0.090024
O O17 0.897933 0.750000 0.995693
O O18 0.000000 0.000000 0.000000
O O19 0.870291 0.250000 0.666322
O O20 0.050523 0.496781 0.576084
O O21 0.816724 0.750000 0.507759
#
# Coordination Sequence:
#
# PCOD8071516 Si02
#       8
#     4   4   4   4   4   4   4   4
#     4   9  19  37  60  84 113 150 193 238 294 356
#     4  11  22  35  54  80 115 157 201 247 293 343
#     4  10  19  33  54  79 110 149 189 232 283 339
#     4  10  20  38  62  85 114 154 198 242 294 353
#     4  10  21  37  59  87 119 155 194 242 296 350
#     4  11  23  40  64  91 118 152 194 241 295 356
#     4   9  17  31  52  77 108 146 188 234 284 339
#     4  10  20  33  51  78 109 144 187 235 285 336
#
# _framework density 19.945076
#
# number of rings (size 3 to 8) (size 9 to 14) (size 15 to 20)
#    0.000    2.000    1.250    2.625    0.000    6.000 
#    0.000    1.250    0.000    2.250    0.000    0.000 
#    0.000    0.000    0.000    0.000    0.000    0.000 
#
# Total GULP energy -396728.453669 kJ/mol
# GULP energy per Si atom -12397.764177 kJ/mol
# Density = 1.989968 g / cm^3
# Si number density = 19.945076 Si / 1000 Ang^3
#
#
#
# Elastic Constant Matrix: (Units=GPa)
#
#
# Indices 1 2 3 4 5 6 
#
# 1 108.4414 34.9044 79.6940 0.0000 -1.1805 0.0000
# 2 34.9044 53.2237 38.5932 0.0000 3.6380 0.0000
# 3 79.6940 38.5932 121.1250 0.0000 0.0109 0.0000
# 4 0.0000 0.0000 0.0000 25.3827 0.0000 6.9071
# 5 -1.1805 3.6380 0.0109 0.0000 41.4245 0.0000
# 6 0.0000 0.0000 0.0000 6.9071 0.0000 21.5705
#
#
#
# Elastic Compliance Matrix: (Units=1/GPa)
#
#
# Indices 1 2 3 4 5 6 
#
# 1 0.018624 -0.004410 -0.010848 0.000000 0.000921 0.000000
# 2 -0.004410 0.025670 -0.005277 0.000000 -0.002379 0.000000
# 3 -0.010848 -0.005277 0.017075 0.000000 0.000150 0.000000
# 4 0.000000 0.000000 0.000000 0.043157 0.000000 -0.013820
# 5 0.000921 -0.002379 0.000150 0.000000 0.024375 0.000000
# 6 0.000000 0.000000 0.000000 -0.013820 0.000000 0.050785
#
#
# Mechanical properties :
#
#
# Convention : Reuss Voigt Hill
#
# Bulk Modulus (GPa) = 49.26765 65.46369 57.36567
# Shear Modulus (GPa) = 21.97580 26.31543 24.14562
#
# Velocity S-wave (km/s) = 3.32296 3.63629 3.48315
# Velocity P-wave (km/s) = 6.28316 7.10798 6.70826
#
# Compressibility (1/GPa) = 0.02029730
#
# Stress axis : x y z
#
# Youngs Moduli (GPa) = 53.69558 38.95610 58.56550
#
# Poissons Ratio (x) = 0.17180 0.63533
# Poissons Ratio (y) = 0.23681 0.30906
# Poissons Ratio (z) = 0.58250 0.20558
#
# Static dielectric constant tensor:
#      x y z
#    x 3.787290 0.000000 -0.125240 
#    y 0.000000 3.329710 0.000000 
#    z -0.125240 0.000000 3.867600 
# 
# 
# High freq. dielectric constant tensor:
#      x y z
#    x 1.793470 0.000000 -0.002030 
#    y 0.000000 1.742140 0.000000 
#    z -0.002030 0.000000 1.786090 
# 
# From -- ./inp_files/45364.got.cif
#   From: 2010.06.25/outbox.cif.g09.slc.cpg/sg11_23_cif.got.tgz:45364.got - 2010.06.27 23:14:04.
