data_PCOD8071589
_publ_section_title
;
Structure prediction by ZEFSAII (Michael W. Deem and Ramdas Pophale) SiO2 
 PCOD8071589
Probable space group: P 21/M
;
_chemical_formula_sum "Si O2"
_cell_formula_units_Z 28
_cell_length_a 28.213384
_cell_length_b 8.870335
_cell_length_c 9.866783
_cell_angle_alpha 90.000000
_cell_angle_beta 37.847635
_cell_angle_gamma 90.000000
_cell_volume 1515.062272
_symmetry_space_group_name_H-M "P 21/M"
_symmetry_group_IT_number 11
_symmetry_cell_setting 'monoclinic'
loop_
_space_group_symop_operation_xyz
x,y,z
-x,1/2+y,-z
-x,-y,-z
x,1/2-y,z
loop_
_atom_site_type_symbol
_atom_site_label
_atom_site_fract_x
_atom_site_fract_y
_atom_site_fract_z
Si Si1 0.803841 0.571798 0.159700
Si Si2 0.201397 0.072483 0.525727
Si Si3 0.627146 0.929320 0.872884
Si Si4 0.501602 0.429627 0.346686
Si Si5 0.956989 0.572576 0.219802
Si Si6 0.630450 0.928070 0.557030
Si Si7 0.951845 0.427879 0.725770
O O1 0.814640 0.750000 0.118487
O O2 0.820093 0.513619 0.275565
O O3 0.716578 0.521038 0.318815
O O4 0.864377 0.489515 0.924627
O O5 0.208178 0.250000 0.524219
O O6 0.285515 0.016798 0.288177
O O7 0.133703 0.022002 0.575144
O O8 0.615225 0.750000 0.917038
O O9 0.608803 0.982261 0.759125
O O10 0.576491 0.017789 0.095856
O O11 0.500000 0.500000 0.500000
O O12 0.501004 0.250000 0.362062
O O13 0.428678 0.489661 0.422730
O O14 0.961951 0.750000 0.192638
O O15 0.000030 0.514932 0.254352
O O16 0.000000 0.500000 0.000000
O O17 0.627668 0.750000 0.568059
O O18 0.949403 0.250000 0.716710
O O19 0.000000 0.500000 0.500000
#
# Coordination Sequence:
#
# PCOD8071589 Si02
#       7
#     4   4   4   4   4   4   4
#     4   9  16  33  59  80 102 135 177 221 265 313
#     4   8  15  30  55  82 105 131 169 215 263 312
#     4   9  17  34  59  83 105 134 175 219 261 311
#     4  11  22  37  54  78 112 144 175 213 262 316
#     4  10  19  33  55  81 105 137 178 219 262 311
#     4   8  17  34  59  84 103 134 178 218 261 319
#     4  11  23  36  51  76 111 146 181 218 263 315
#
# _framework density 18.481089999999998
#
# number of rings (size 3 to 8) (size 9 to 14) (size 15 to 20)
#    0.000    2.571    1.429    3.000    0.000    0.571 
#    2.571    5.714    0.000    0.000    0.000    0.000 
#    0.000    0.000    0.000    0.000    0.000    0.000 
#
# Total GULP energy -346994.486668 kJ/mol
# GULP energy per Si atom -12392.660238 kJ/mol
# Density = 1.843903 g / cm^3
# Si number density = 18.481090 Si / 1000 Ang^3
#
#
#
# Elastic Constant Matrix: (Units=GPa)
#
#
# Indices 1 2 3 4 5 6 
#
# 1 120.7687 31.1439 77.9106 0.0000 -5.9119 0.0000
# 2 31.1439 40.8303 41.1830 0.0000 1.5967 0.0000
# 3 77.9106 41.1830 167.3600 0.0000 -4.8214 0.0000
# 4 0.0000 0.0000 0.0000 34.5759 0.0000 -0.5419
# 5 -5.9119 1.5967 -4.8214 0.0000 30.1040 0.0000
# 6 0.0000 0.0000 0.0000 -0.5419 0.0000 21.1258
#
#
#
# Elastic Compliance Matrix: (Units=1/GPa)
#
#
# Indices 1 2 3 4 5 6 
#
# 1 0.012647 -0.005116 -0.004570 0.000000 0.002023 0.000000
# 2 -0.005116 0.034923 -0.006324 0.000000 -0.003870 0.000000
# 3 -0.004570 -0.006324 0.009687 0.000000 0.000989 0.000000
# 4 0.000000 0.000000 0.000000 0.028933 0.000000 0.000742
# 5 0.002023 -0.003870 0.000989 0.000000 0.033979 0.000000
# 6 0.000000 0.000000 0.000000 0.000742 0.000000 0.047355
#
#
# Mechanical properties :
#
#
# Convention : Reuss Voigt Hill
#
# Bulk Modulus (GPa) = 39.62290 69.93711 54.78001
# Shear Modulus (GPa) = 24.04335 29.07591 26.55963
#
# Velocity S-wave (km/s) = 3.61081 3.97076 3.79506
# Velocity P-wave (km/s) = 6.23459 7.67771 6.99348
#
# Compressibility (1/GPa) = 0.02523793
#
# Stress axis : x y z
#
# Youngs Moduli (GPa) = 79.06957 28.63404 103.22739
#
# Poissons Ratio (x) = 0.14649 0.47179
# Poissons Ratio (y) = 0.40452 0.65277
# Poissons Ratio (z) = 0.36138 0.18107
#
# Static dielectric constant tensor:
#      x y z
#    x 3.809670 0.000000 -0.512800 
#    y 0.000000 3.086560 0.000000 
#    z -0.512800 0.000000 4.057100 
# 
# 
# High freq. dielectric constant tensor:
#      x y z
#    x 1.719610 0.000000 -0.017320 
#    y 0.000000 1.688170 0.000000 
#    z -0.017320 0.000000 1.720020 
# 
# From -- ./inp_files/28437.got.cif
#   From: 2010.06.25/outbox.cif.g09.slc.cpg/sg11_15_cif.got.tgz:28437.got - 2010.06.27 23:14:04.
