data_PCOD8071236
_publ_section_title
;
Structure prediction by ZEFSAII (Michael W. Deem and Ramdas Pophale) SiO2 
 PCOD8071236
Probable space group: P 21/M
;
_chemical_formula_sum "Si O2"
_cell_formula_units_Z 32
_cell_length_a 7.450754
_cell_length_b 22.940627
_cell_length_c 10.723402
_cell_angle_alpha 90.000000
_cell_angle_beta 57.777010
_cell_angle_gamma 90.000000
_cell_volume 1550.593011
_symmetry_space_group_name_H-M "P 21/M"
_symmetry_group_IT_number 11
_symmetry_cell_setting 'monoclinic'
loop_
_space_group_symop_operation_xyz
x,y,z
-x,1/2+y,-z
-x,-y,-z
x,1/2-y,z
loop_
_atom_site_type_symbol
_atom_site_label
_atom_site_fract_x
_atom_site_fract_y
_atom_site_fract_z
Si Si1 0.488733 0.685340 0.219661
Si Si2 0.659495 0.927564 0.049105
Si Si3 0.849639 0.682685 0.287931
Si Si4 0.722230 0.315452 0.261355
Si Si5 0.126369 0.817437 0.533022
Si Si6 0.713091 0.865145 0.597863
Si Si7 0.081637 0.892544 0.009748
Si Si8 0.476829 0.044337 0.163924
O O1 0.491400 0.750000 0.156319
O O2 0.558483 0.637020 0.094843
O O3 0.641716 0.685454 0.281567
O O4 0.254633 0.670141 0.358014
O O5 0.502005 0.974890 0.172002
O O6 0.680006 0.942014 0.894392
O O7 0.880198 0.931882 0.043795
O O8 0.915780 0.750000 0.299495
O O9 0.795388 0.642293 0.426802
O O10 0.037329 0.648696 0.146084
O O11 0.799365 0.250000 0.219038
O O12 0.736483 0.337507 0.398732
O O13 0.479800 0.320711 0.305836
O O14 0.886390 0.351304 0.119879
O O15 0.069930 0.750000 0.563044
O O16 0.906449 0.852047 0.618156
O O17 0.621839 0.929090 0.671661
O O18 0.288882 0.931205 0.958160
#
# Coordination Sequence:
#
# PCOD8071236 Si02
#       8
#     4   4   4   4   4   4   4   4
#     4   9  19  36  59  86 114 149 188 232 289 341
#     4  10  21  42  62  80 116 149 188 245 282 332
#     4  10  19  35  57  85 122 154 185 236 289 333
#     4  10  19  34  54  82 117 148 185 233 280 337
#     4  10  19  32  55  81 113 153 184 226 289 336
#     4  11  21  35  55  82 116 149 191 231 279 339
#     4  10  21  36  60  84 110 150 195 231 281 342
#     4  10  23  40  61  83 112 152 195 233 288 334
#
# _framework density 20.637264999999999
#
# number of rings (size 3 to 8) (size 9 to 14) (size 15 to 20)
#    0.000    2.000    1.250    2.625    1.750    0.500 
#    0.000    6.875    2.750    0.000    0.000    0.000 
#    0.000    0.000    0.000    0.000    0.000    0.000 
#
# Total GULP energy -396641.523812 kJ/mol
# GULP energy per Si atom -12395.047619 kJ/mol
# Density = 2.059029 g / cm^3
# Si number density = 20.637265 Si / 1000 Ang^3
#
#
#
# Elastic Constant Matrix: (Units=GPa)
#
#
# Indices 1 2 3 4 5 6 
#
# 1 59.3727 18.7168 -2.0024 0.0000 -10.6270 0.0000
# 2 18.7168 89.8143 35.9801 0.0000 1.8347 0.0000
# 3 -2.0024 35.9801 67.5217 0.0000 -3.7778 0.0000
# 4 0.0000 0.0000 0.0000 30.6999 0.0000 4.1141
# 5 -10.6270 1.8347 -3.7778 0.0000 28.0399 0.0000
# 6 0.0000 0.0000 0.0000 4.1141 0.0000 23.4107
#
#
#
# Elastic Compliance Matrix: (Units=1/GPa)
#
#
# Indices 1 2 3 4 5 6 
#
# 1 0.020527 -0.006227 0.004418 0.000000 0.008782 0.000000
# 2 -0.006227 0.016152 -0.009051 0.000000 -0.004636 0.000000
# 3 0.004418 -0.009051 0.020042 0.000000 0.004967 0.000000
# 4 0.000000 0.000000 0.000000 0.033359 0.000000 -0.005862
# 5 0.008782 -0.004636 0.004967 0.000000 0.039964 0.000000
# 6 0.000000 0.000000 0.000000 -0.005862 0.000000 0.043746
#
#
# Mechanical properties :
#
#
# Convention : Reuss Voigt Hill
#
# Bulk Modulus (GPa) = 28.57038 35.78866 32.17952
# Shear Modulus (GPa) = 24.13392 27.36437 25.74914
#
# Velocity S-wave (km/s) = 3.42341 3.64534 3.53611
# Velocity P-wave (km/s) = 5.43143 5.92430 5.68321
#
# Compressibility (1/GPa) = 0.03500129
#
# Stress axis : x y z
#
# Youngs Moduli (GPa) = 48.71708 61.91026 49.89513
#
# Poissons Ratio (x) = 0.38552 -0.22045
# Poissons Ratio (y) = 0.30336 0.45161
# Poissons Ratio (z) = -0.21524 0.56036
#
# Static dielectric constant tensor:
#      x y z
#    x 3.772290 0.000000 -0.060100 
#    y 0.000000 3.752570 0.000000 
#    z -0.060100 0.000000 3.621520 
# 
# 
# High freq. dielectric constant tensor:
#      x y z
#    x 1.816290 0.000000 -0.005120 
#    y 0.000000 1.792290 0.000000 
#    z -0.005120 0.000000 1.793390 
# 
# From -- ./inp_files/32808.got.cif
#   From: 2010.06.25/outbox.cif.g09.slc.cpg/sg11_17_cif.got.tgz:32808.got - 2010.06.27 23:14:04.
