data_PCOD8071874
_publ_section_title
;
Structure prediction by ZEFSAII (Michael W. Deem and Ramdas Pophale) SiO2 
 PCOD8071874
Probable space group: P 21/M
;
_chemical_formula_sum "Si O2"
_cell_formula_units_Z 28
_cell_length_a 27.076654
_cell_length_b 8.935518
_cell_length_c 9.548873
_cell_angle_alpha 90.000000
_cell_angle_beta 38.936536
_cell_angle_gamma 90.000000
_cell_volume 1451.924158
_symmetry_space_group_name_H-M "P 21/M"
_symmetry_group_IT_number 11
_symmetry_cell_setting 'monoclinic'
loop_
_space_group_symop_operation_xyz
x,y,z
-x,1/2+y,-z
-x,-y,-z
x,1/2-y,z
loop_
_atom_site_type_symbol
_atom_site_label
_atom_site_fract_x
_atom_site_fract_y
_atom_site_fract_z
Si Si1 0.682139 0.078319 0.784608
Si Si2 0.474251 0.420556 0.917235
Si Si3 0.916175 0.926076 0.199267
Si Si4 0.788217 0.078199 0.294420
Si Si5 0.433275 0.918626 0.558559
Si Si6 0.191482 0.424648 0.312139
Si Si7 0.257957 0.572102 0.910592
O O1 0.687682 0.250000 0.824172
O O2 0.710709 0.063467 0.561444
O O3 0.731730 0.972333 0.774189
O O4 0.594886 0.018761 0.995777
O O5 0.447272 0.250000 0.007213
O O6 0.546160 0.422862 0.650905
O O7 0.500000 0.500000 0.000000
O O8 0.923662 0.750000 0.164336
O O9 0.883397 0.967595 0.426503
O O10 0.859580 0.984614 0.201747
O O11 0.000000 0.000000 0.000000
O O12 0.816101 0.250000 0.224474
O O13 0.765714 0.014003 0.191609
O O14 0.431802 0.750000 0.618541
O O15 0.344996 0.987777 0.764287
O O16 0.500000 0.000000 0.500000
O O17 0.194023 0.250000 0.274757
O O18 0.191586 0.511222 0.163788
O O19 0.258491 0.750000 0.909526
#
# Coordination Sequence:
#
# PCOD8071874 Si02
#       7
#     4   4   4   4   4   4   4
#     4  10  19  34  55  77 103 139 182 226 272 324
#     4  11  22  35  51  74 104 138 180 231 280 325
#     4  10  21  38  61  87 114 141 174 215 262 320
#     4   9  19  36  58  82 110 144 182 225 273 321
#     4  10  22  37  52  74 106 144 187 231 275 320
#     4  10  21  36  55  82 111 139 174 218 263 314
#     4  10  20  36  56  78 107 145 186 226 270 324
#
# _framework density 19.284754
#
# number of rings (size 3 to 8) (size 9 to 14) (size 15 to 20)
#    0.000    2.000    0.000    3.429    0.000    9.143 
#    0.000    2.143    0.000    0.000    0.000    0.000 
#    0.000    0.000    0.000    0.000    0.000    0.000 
#
# Total GULP energy -347179.704141 kJ/mol
# GULP energy per Si atom -12399.275148 kJ/mol
# Density = 1.924086 g / cm^3
# Si number density = 19.284754 Si / 1000 Ang^3
#
#
#
# Elastic Constant Matrix: (Units=GPa)
#
#
# Indices 1 2 3 4 5 6 
#
# 1 76.0824 35.2220 48.0436 0.0000 7.1505 0.0000
# 2 35.2220 47.5997 38.6722 0.0000 -3.2683 0.0000
# 3 48.0436 38.6722 111.9858 0.0000 1.7626 0.0000
# 4 0.0000 0.0000 0.0000 32.0260 0.0000 0.8033
# 5 7.1505 -3.2683 1.7626 0.0000 37.8509 0.0000
# 6 0.0000 0.0000 0.0000 0.8033 0.0000 33.3860
#
#
#
# Elastic Compliance Matrix: (Units=1/GPa)
#
#
# Indices 1 2 3 4 5 6 
#
# 1 0.023041 -0.013129 -0.005269 0.000000 -0.005241 0.000000
# 2 -0.013129 0.037025 -0.007248 0.000000 0.006015 0.000000
# 3 -0.005269 -0.007248 0.013697 0.000000 -0.000268 0.000000
# 4 0.000000 0.000000 0.000000 0.031243 0.000000 -0.000752
# 5 -0.005241 0.006015 -0.000268 0.000000 0.027941 0.000000
# 6 0.000000 0.000000 0.000000 -0.000752 0.000000 0.029971
#
#
# Mechanical properties :
#
#
# Convention : Reuss Voigt Hill
#
# Bulk Modulus (GPa) = 44.49959 53.28262 48.89110
# Shear Modulus (GPa) = 22.55285 28.23459 25.39372
#
# Velocity S-wave (km/s) = 3.42345 3.83049 3.63268
# Velocity P-wave (km/s) = 6.22510 6.87408 6.55762
#
# Compressibility (1/GPa) = 0.02247212
#
# Stress axis : x y z
#
# Youngs Moduli (GPa) = 43.40041 27.00870 73.00735
#
# Poissons Ratio (x) = 0.35460 0.38465
# Poissons Ratio (y) = 0.56980 0.52916
# Poissons Ratio (z) = 0.22866 0.19576
#
# Static dielectric constant tensor:
#      x y z
#    x 3.341270 0.000000 0.112090 
#    y 0.000000 3.475480 0.000000 
#    z 0.112090 0.000000 3.838520 
# 
# 
# High freq. dielectric constant tensor:
#      x y z
#    x 1.739910 0.000000 0.013180 
#    y 0.000000 1.750410 0.000000 
#    z 0.013180 0.000000 1.756590 
# 
# From -- ./inp_files/28247.got.cif
#   From: 2010.06.25/outbox.cif.g09.slc.cpg/sg11_15_cif.got.tgz:28247.got - 2010.06.27 23:14:04.
