data_PCOD8071225
_publ_section_title
;
Structure prediction by ZEFSAII (Michael W. Deem and Ramdas Pophale) SiO2 
 PCOD8071225
Probable space group: P 21/M
;
_chemical_formula_sum "Si O2"
_cell_formula_units_Z 28
_cell_length_a 12.146000
_cell_length_b 8.923070
_cell_length_c 29.409294
_cell_angle_alpha 90.000000
_cell_angle_beta 151.657364
_cell_angle_gamma 90.000000
_cell_volume 1513.181409
_symmetry_space_group_name_H-M "P 21/M"
_symmetry_group_IT_number 11
_symmetry_cell_setting 'monoclinic'
loop_
_space_group_symop_operation_xyz
x,y,z
-x,1/2+y,-z
-x,-y,-z
x,1/2-y,z
loop_
_atom_site_type_symbol
_atom_site_label
_atom_site_fract_x
_atom_site_fract_y
_atom_site_fract_z
Si Si1 0.992937 0.072446 0.715574
Si Si2 0.045508 0.077212 0.969027
Si Si3 0.567858 0.423245 0.160065
Si Si4 0.337481 0.576283 0.240469
Si Si5 0.700362 0.922847 0.297753
Si Si6 0.806725 0.074304 0.551789
Si Si7 0.657870 0.927748 0.661830
O O1 0.989243 0.250000 0.719276
O O2 0.852874 0.016566 0.619861
O O3 0.881542 0.998283 0.719258
O O4 0.258467 0.018508 0.808215
O O5 0.990121 0.250000 0.957325
O O6 0.872449 0.017059 0.867339
O O7 0.307814 0.051371 0.047062
O O8 0.000000 0.000000 0.000000
O O9 0.640479 0.250000 0.184300
O O10 0.572250 0.476665 0.213846
O O11 0.303456 0.750000 0.241742
O O12 0.581347 0.552081 0.303079
O O13 0.343040 0.473029 0.286281
O O14 0.678209 0.750000 0.273755
O O15 0.972099 0.968354 0.399338
O O16 0.770964 0.250000 0.539971
O O17 0.573444 0.003167 0.446116
O O18 0.669530 0.750000 0.662101
#
# Coordination Sequence:
#
# PCOD8071225 Si02
#       7
#     4   4   4   4   4   4   4
#     4  10  20  37  59  79 104 141 182 219 266 325
#     4  10  20  34  56  83 110 140 176 218 263 317
#     4  10  19  32  54  85 112 133 171 226 272 308
#     4  10  21  36  53  77 111 148 181 213 260 324
#     4   9  17  33  55  78 108 144 179 215 262 320
#     4   8  17  33  55  81 106 137 178 222 266 314
#     4  11  22  36  53  77 110 143 180 227 269 308
#
# _framework density 18.504061
#
# number of rings (size 3 to 8) (size 9 to 14) (size 15 to 20)
#    0.000    2.286    1.429    2.571    0.000    2.286 
#    0.000    7.143    0.000    0.000    0.000    0.000 
#    0.000    0.000    0.000    0.000    0.000    0.000 
#
# Total GULP energy -347198.365470 kJ/mol
# GULP energy per Si atom -12399.941624 kJ/mol
# Density = 1.846195 g / cm^3
# Si number density = 18.504061 Si / 1000 Ang^3
#
#
#
# Elastic Constant Matrix: (Units=GPa)
#
#
# Indices 1 2 3 4 5 6 
#
# 1 116.8214 39.4929 36.8335 0.0000 11.9207 0.0000
# 2 39.4929 64.3015 25.6510 0.0000 5.5155 0.0000
# 3 36.8335 25.6510 66.5442 0.0000 11.8417 0.0000
# 4 0.0000 0.0000 0.0000 22.8536 0.0000 -1.2498
# 5 11.9207 5.5155 11.8417 0.0000 20.9903 0.0000
# 6 0.0000 0.0000 0.0000 -1.2498 0.0000 31.4512
#
#
#
# Elastic Compliance Matrix: (Units=1/GPa)
#
#
# Indices 1 2 3 4 5 6 
#
# 1 0.011992 -0.005520 -0.003953 0.000000 -0.003130 0.000000
# 2 -0.005520 0.020935 -0.005106 0.000000 0.000514 0.000000
# 3 -0.003953 -0.005106 0.020615 0.000000 -0.008043 0.000000
# 4 0.000000 0.000000 0.000000 0.043852 0.000000 0.001743
# 5 -0.003130 0.000514 -0.008043 0.000000 0.053821 0.000000
# 6 0.000000 0.000000 0.000000 0.001743 0.000000 0.031865
#
#
# Mechanical properties :
#
#
# Convention : Reuss Voigt Hill
#
# Bulk Modulus (GPa) = 41.01026 50.18021 45.59523
# Shear Modulus (GPa) = 22.68962 24.77167 23.73064
#
# Velocity S-wave (km/s) = 3.50551 3.66281 3.58502
# Velocity P-wave (km/s) = 6.21255 6.71309 6.46766
#
# Compressibility (1/GPa) = 0.02438414
#
# Stress axis : x y z
#
# Youngs Moduli (GPa) = 83.38982 47.76774 48.50785
#
# Poissons Ratio (x) = 0.26367 0.19175
# Poissons Ratio (y) = 0.46030 0.24768
# Poissons Ratio (z) = 0.32964 0.24390
#
# Static dielectric constant tensor:
#      x y z
#    x 3.319340 0.000000 0.233000 
#    y 0.000000 3.277320 0.000000 
#    z 0.233000 0.000000 3.683180 
# 
# 
# High freq. dielectric constant tensor:
#      x y z
#    x 1.713020 0.000000 0.020350 
#    y 0.000000 1.708120 0.000000 
#    z 0.020350 0.000000 1.715490 
# 
# From -- ./inp_files/71353.got.cif
#   From: 2010.06.25/outbox.cif.g09.slc.cpg/sg11_36_cif.got.tgz:71353.got - 2010.06.27 23:14:04.
