data_PCOD8071163
_publ_section_title
;
Structure prediction by ZEFSAII (Michael W. Deem and Ramdas Pophale) SiO2 
 PCOD8071163
Probable space group: P 21/M
;
_chemical_formula_sum "Si O2"
_cell_formula_units_Z 32
_cell_length_a 22.808616
_cell_length_b 9.103685
_cell_length_c 28.117080
_cell_angle_alpha 90.000000
_cell_angle_beta 163.209412
_cell_angle_gamma 90.000000
_cell_volume 1686.536054
_symmetry_space_group_name_H-M "P 21/M"
_symmetry_group_IT_number 11
_symmetry_cell_setting 'monoclinic'
loop_
_space_group_symop_operation_xyz
x,y,z
-x,1/2+y,-z
-x,-y,-z
x,1/2-y,z
loop_
_atom_site_type_symbol
_atom_site_label
_atom_site_fract_x
_atom_site_fract_y
_atom_site_fract_z
Si Si1 0.619236 0.923056 0.634635
Si Si2 0.448549 0.420884 0.813971
Si Si3 0.675665 0.087446 0.422646
Si Si4 0.087502 0.577318 0.481908
Si Si5 0.924848 0.080027 0.036003
Si Si6 0.552394 0.421578 0.679927
Si Si7 0.632401 0.919636 0.141442
Si Si8 0.294373 0.085657 0.057212
O O1 0.579122 0.750000 0.601897
O O2 0.500000 0.000000 0.500000
O O3 0.537740 0.987429 0.620448
O O4 0.856398 0.961142 0.814534
O O5 0.449451 0.250000 0.801220
O O6 0.238251 0.488541 0.632713
O O7 0.465512 0.447451 0.883269
O O8 0.646458 0.496417 0.944263
O O9 0.701777 0.250000 0.465444
O O10 0.869347 0.044293 0.540689
O O11 0.487795 0.087569 0.241067
O O12 0.638524 0.969995 0.435619
O O13 0.118367 0.750000 0.516471
O O14 0.862692 0.520810 0.319117
O O15 0.905513 0.250000 0.034340
O O16 0.761938 0.037628 0.869081
O O17 0.890018 0.990835 0.057733
O O18 0.534720 0.250000 0.654889
O O19 0.635330 0.750000 0.130014
O O20 0.500000 0.000000 0.000000
O O21 0.227119 0.250000 0.990698
#
# Coordination Sequence:
#
# PCOD8071163 Si02
#       8
#     4   4   4   4   4   4   4   4
#     4  11  23  38  54  75 106 141 176 215 258 305
#     4  10  19  32  53  80 107 136 172 214 261 311
#     4   8  15  29  50  76 104 132 165 210 258 302
#     4   9  18  34  55  79 105 134 173 218 261 308
#     4   9  19  35  56  81 107 135 170 215 261 305
#     4  10  19  33  55  81 106 134 170 211 258 311
#     4  10  22  37  52  74 105 140 177 217 261 310
#     4   9  17  30  52  80 107 136 170 210 257 308
#
# _framework density 18.973800000000001
#
# number of rings (size 3 to 8) (size 9 to 14) (size 15 to 20)
#    0.000    2.500    0.000    3.000    0.000    6.000 
#    0.000    1.250    0.000    3.000    0.000    0.000 
#    0.000    0.000    0.000    0.000    0.000    0.000 
#
# Total GULP energy -396811.477240 kJ/mol
# GULP energy per Si atom -12400.358664 kJ/mol
# Density = 1.893061 g / cm^3
# Si number density = 18.973800 Si / 1000 Ang^3
#
#
#
# Elastic Constant Matrix: (Units=GPa)
#
#
# Indices 1 2 3 4 5 6 
#
# 1 120.6986 62.0297 27.9059 0.0000 1.8236 0.0000
# 2 62.0297 97.8512 27.2328 0.0000 -4.9745 0.0000
# 3 27.9059 27.2328 23.6510 0.0000 -10.6710 0.0000
# 4 0.0000 0.0000 0.0000 25.7490 0.0000 -0.5536
# 5 1.8236 -4.9745 -10.6710 0.0000 20.8907 0.0000
# 6 0.0000 0.0000 0.0000 -0.5536 0.0000 35.9226
#
#
#
# Elastic Compliance Matrix: (Units=1/GPa)
#
#
# Indices 1 2 3 4 5 6 
#
# 1 0.015100 -0.005580 -0.016356 0.000000 -0.011001 0.000000
# 2 -0.005580 0.017893 -0.015434 0.000000 -0.003136 0.000000
# 3 -0.016356 -0.015434 0.101798 0.000000 0.049751 0.000000
# 4 0.000000 0.000000 0.000000 0.038849 0.000000 0.000599
# 5 -0.011001 -0.003136 0.049751 0.000000 0.073495 0.000000
# 6 0.000000 0.000000 0.000000 0.000599 0.000000 0.027847
#
#
# Mechanical properties :
#
#
# Convention : Reuss Voigt Hill
#
# Bulk Modulus (GPa) = 16.65218 52.94862 34.80040
# Shear Modulus (GPa) = 13.52311 24.84796 19.18554
#
# Velocity S-wave (km/s) = 2.67259 3.62276 3.18332
# Velocity P-wave (km/s) = 4.28008 6.74284 5.64734
#
# Compressibility (1/GPa) = 0.06005219
#
# Stress axis : x y z
#
# Youngs Moduli (GPa) = 66.22334 55.88926 9.82340
#
# Poissons Ratio (x) = 0.31185 0.16067
# Poissons Ratio (y) = 0.36951 0.15161
# Poissons Ratio (z) = 1.08315 0.86257
#
# Static dielectric constant tensor:
#      x y z
#    x 3.659610 0.000000 0.279930 
#    y 0.000000 3.561140 0.000000 
#    z 0.279930 0.000000 3.320550 
# 
# 
# High freq. dielectric constant tensor:
#      x y z
#    x 1.748130 0.000000 0.019410 
#    y 0.000000 1.742420 0.000000 
#    z 0.019410 0.000000 1.705220 
# 
# From -- ./inp_files/72155.got.cif
#   From: 2010.06.25/outbox.cif.g09.slc.cpg/sg11_37_cif.got.tgz:72155.got - 2010.06.27 23:14:04.
