data_PCOD8071631
_publ_section_title
;
Structure prediction by ZEFSAII (Michael W. Deem and Ramdas Pophale) SiO2 
 PCOD8071631
Probable space group: P 21/M
;
_chemical_formula_sum "Si O2"
_cell_formula_units_Z 28
_cell_length_a 9.058541
_cell_length_b 28.417041
_cell_length_c 5.140833
_cell_angle_alpha 90.000000
_cell_angle_beta 105.403853
_cell_angle_gamma 90.000000
_cell_volume 1275.799922
_symmetry_space_group_name_H-M "P 21/M"
_symmetry_group_IT_number 11
_symmetry_cell_setting 'monoclinic'
loop_
_space_group_symop_operation_xyz
x,y,z
-x,1/2+y,-z
-x,-y,-z
x,1/2-y,z
loop_
_atom_site_type_symbol
_atom_site_label
_atom_site_fract_x
_atom_site_fract_y
_atom_site_fract_z
Si Si1 0.821853 0.638221 0.127728
Si Si2 0.319961 0.504879 0.424398
Si Si3 0.244696 0.559464 0.881267
Si Si4 0.467365 0.698554 0.459441
Si Si5 0.173168 0.302972 0.380502
Si Si6 0.537363 0.143499 0.033727
Si Si7 0.066592 0.448190 0.097606
O O1 0.865575 0.671969 0.908076
O O2 0.640084 0.629167 0.060977
O O3 0.901445 0.587047 0.128848
O O4 0.888910 0.663973 0.414685
O O5 0.500000 0.500000 0.500000
O O6 0.268149 0.517005 0.691397
O O7 0.229499 0.455932 0.320352
O O8 0.278004 0.544439 0.193603
O O9 0.360973 0.599107 0.844194
O O10 0.065913 0.575584 0.785395
O O11 0.392928 0.750000 0.390360
O O12 0.647062 0.701971 0.494517
O O13 0.430809 0.681896 0.731391
O O14 0.400082 0.663624 0.210407
O O15 0.101318 0.250000 0.354276
O O16 0.000000 0.500000 0.000000
#
# Coordination Sequence:
#
# PCOD8071631 Si02
#       7
#     4   4   4   4   4   4   4
#     4  10  20  34  58  84 113 151 194 240 290 351
#     4  11  23  40  62  85 112 149 197 248 290 340
#     4  11  23  39  58  83 117 154 190 238 292 345
#     4   9  17  31  54  84 115 145 184 241 299 348
#     4   9  18  33  56  86 114 143 188 246 299 346
#     4  10  19  33  55  84 112 147 196 241 286 349
#     4  10  24  42  60  86 122 163 203 244 301 361
#
# _framework density 21.947016000000001
#
# number of rings (size 3 to 8) (size 9 to 14) (size 15 to 20)
#    0.000    2.000    0.000    3.429    0.000   11.429 
#    0.000    0.000    0.000    5.143    0.000    0.000 
#    0.000    0.000    0.000    0.000    0.000    0.000 
#
# Total GULP energy -347049.602148 kJ/mol
# GULP energy per Si atom -12394.628648 kJ/mol
# Density = 2.189706 g / cm^3
# Si number density = 21.947016 Si / 1000 Ang^3
#
#
#
# Elastic Constant Matrix: (Units=GPa)
#
#
# Indices 1 2 3 4 5 6 
#
# 1 103.3852 29.9785 25.5025 0.0000 0.2568 0.0000
# 2 29.9785 100.9406 10.4302 0.0000 -1.5228 0.0000
# 3 25.5025 10.4302 78.1808 0.0000 -11.8444 0.0000
# 4 0.0000 0.0000 0.0000 23.6074 0.0000 -1.9004
# 5 0.2568 -1.5228 -11.8444 0.0000 22.7276 0.0000
# 6 0.0000 0.0000 0.0000 -1.9004 0.0000 18.2227
#
#
#
# Elastic Compliance Matrix: (Units=1/GPa)
#
#
# Indices 1 2 3 4 5 6 
#
# 1 0.011472 -0.003061 -0.003675 0.000000 -0.002250 0.000000
# 2 -0.003061 0.010862 -0.000364 0.000000 0.000573 0.000000
# 3 -0.003675 -0.000364 0.015244 0.000000 0.007962 0.000000
# 4 0.000000 0.000000 0.000000 0.042718 0.000000 0.004455
# 5 -0.002250 0.000573 0.007962 0.000000 0.048212 0.000000
# 6 0.000000 0.000000 0.000000 0.004455 0.000000 0.055341
#
#
# Mechanical properties :
#
#
# Convention : Reuss Voigt Hill
#
# Bulk Modulus (GPa) = 42.77306 46.03653 44.40479
# Shear Modulus (GPa) = 24.29030 27.35122 25.82076
#
# Velocity S-wave (km/s) = 3.33042 3.53404 3.43374
# Velocity P-wave (km/s) = 5.85837 6.13794 5.99979
#
# Compressibility (1/GPa) = 0.02337920
#
# Stress axis : x y z
#
# Youngs Moduli (GPa) = 87.16634 92.06191 65.59845
#
# Poissons Ratio (x) = 0.28184 0.24105
# Poissons Ratio (y) = 0.26685 0.02386
# Poissons Ratio (z) = 0.32031 0.03349
#
# Static dielectric constant tensor:
#      x y z
#    x 4.234220 0.000000 0.109360 
#    y 0.000000 4.077250 0.000000 
#    z 0.109360 0.000000 4.131720 
# 
# 
# High freq. dielectric constant tensor:
#      x y z
#    x 1.845190 0.000000 -0.017330 
#    y 0.000000 1.862800 0.000000 
#    z -0.017330 0.000000 1.861090 
# 
# From -- ./inp_files/3270.got.cif
#   From: 2010.06.25/outbox.cif.g09.slc.cpg/sg11_2_cif.got.tgz:3270.got - 2010.06.27 23:14:04.
