data_PCOD8071872
_publ_section_title
;
Structure prediction by ZEFSAII (Michael W. Deem and Ramdas Pophale) SiO2 
 PCOD8071872
Probable space group: P 21/M
;
_chemical_formula_sum "Si O2"
_cell_formula_units_Z 28
_cell_length_a 25.626205
_cell_length_b 8.819514
_cell_length_c 9.176527
_cell_angle_alpha 90.000000
_cell_angle_beta 44.366196
_cell_angle_gamma 90.000000
_cell_volume 1450.222398
_symmetry_space_group_name_H-M "P 21/M"
_symmetry_group_IT_number 11
_symmetry_cell_setting 'monoclinic'
loop_
_space_group_symop_operation_xyz
x,y,z
-x,1/2+y,-z
-x,-y,-z
x,1/2-y,z
loop_
_atom_site_type_symbol
_atom_site_label
_atom_site_fract_x
_atom_site_fract_y
_atom_site_fract_z
Si Si1 0.711397 0.569749 0.741118
Si Si2 0.413644 0.427385 0.531109
Si Si3 0.002135 0.069870 0.836335
Si Si4 0.145809 0.070272 0.372067
Si Si5 0.134033 0.430610 0.064386
Si Si6 0.279261 0.070515 0.603248
Si Si7 0.416753 0.573531 0.829982
O O1 0.710431 0.750000 0.742935
O O2 0.777389 0.506521 0.712702
O O3 0.725245 0.505330 0.551092
O O4 0.631505 0.512140 0.953544
O O5 0.404097 0.250000 0.585382
O O6 0.356261 0.484360 0.523016
O O7 0.393978 0.517414 0.716010
O O8 0.496812 0.464547 0.309805
O O9 0.999778 0.250000 0.853716
O O10 0.077237 0.012918 0.607001
O O11 0.933949 0.011975 0.877441
O O12 0.000000 0.000000 0.000000
O O13 0.148518 0.250000 0.366105
O O14 0.136992 0.011386 0.224878
O O15 0.124074 0.250000 0.073536
O O16 0.209200 0.487892 0.836118
O O17 0.277443 0.250000 0.602056
O O18 0.400060 0.750000 0.874232
#
# Coordination Sequence:
#
# PCOD8071872 Si02
#       7
#     4   4   4   4   4   4   4
#     4  10  19  34  55  77 102 137 178 215 258 314
#     4   9  18  35  56  76 102 140 182 218 257 312
#     4  11  22  37  56  81 111 141 175 215 261 311
#     4   9  19  35  57  80 103 137 180 218 254 312
#     4  10  19  35  58  81 104 134 175 220 263 307
#     4   9  18  33  56  80 102 136 181 219 255 313
#     4  10  20  33  51  78 108 137 174 221 268 311
#
# _framework density 19.307385
#
# number of rings (size 3 to 8) (size 9 to 14) (size 15 to 20)
#    0.000    2.286    0.000    3.000    0.000    5.714 
#    0.000    7.857    0.000    0.000    0.000    0.000 
#    0.000    0.000    0.000    0.000    0.000    0.000 
#
# Total GULP energy -347247.008667 kJ/mol
# GULP energy per Si atom -12401.678881 kJ/mol
# Density = 1.926344 g / cm^3
# Si number density = 19.307385 Si / 1000 Ang^3
#
#
#
# Elastic Constant Matrix: (Units=GPa)
#
#
# Indices 1 2 3 4 5 6 
#
# 1 130.3802 31.3482 79.4320 0.0000 7.0721 0.0000
# 2 31.3482 33.3663 32.2259 0.0000 1.0239 0.0000
# 3 79.4320 32.2259 175.8638 0.0000 8.1873 0.0000
# 4 0.0000 0.0000 0.0000 28.3220 0.0000 -3.5099
# 5 7.0721 1.0239 8.1873 0.0000 34.6626 0.0000
# 6 0.0000 0.0000 0.0000 -3.5099 0.0000 25.7546
#
#
#
# Elastic Compliance Matrix: (Units=1/GPa)
#
#
# Indices 1 2 3 4 5 6 
#
# 1 0.011927 -0.007316 -0.003987 0.000000 -0.001276 0.000000
# 2 -0.007316 0.040911 -0.004252 0.000000 0.001289 0.000000
# 3 -0.003987 -0.004252 0.008314 0.000000 -0.001025 0.000000
# 4 0.000000 0.000000 0.000000 0.035915 0.000000 0.004895
# 5 -0.001276 0.001289 -0.001025 0.000000 0.029314 0.000000
# 6 0.000000 0.000000 0.000000 0.004895 0.000000 0.039495
#
#
# Mechanical properties :
#
#
# Convention : Reuss Voigt Hill
#
# Bulk Modulus (GPa) = 33.28709 69.51361 51.40035
# Shear Modulus (GPa) = 24.15457 30.85480 27.50468
#
# Velocity S-wave (km/s) = 3.54086 4.00194 3.77844
# Velocity P-wave (km/s) = 5.83052 7.57864 6.76132
#
# Compressibility (1/GPa) = 0.03004167
#
# Stress axis : x y z
#
# Youngs Moduli (GPa) = 83.84234 24.44329 120.27877
#
# Poissons Ratio (x) = 0.17882 0.47957
# Poissons Ratio (y) = 0.61336 0.51147
# Poissons Ratio (z) = 0.33429 0.10394
#
# Static dielectric constant tensor:
#      x y z
#    x 3.842150 0.000000 0.076100 
#    y 0.000000 3.213450 0.000000 
#    z 0.076100 0.000000 3.823990 
# 
# 
# High freq. dielectric constant tensor:
#      x y z
#    x 1.764750 0.000000 -0.002700 
#    y 0.000000 1.716970 0.000000 
#    z -0.002700 0.000000 1.765840 
# 
# From -- ./inp_files/28264.got.cif
#   From: 2010.06.25/outbox.cif.g09.slc.cpg/sg11_15_cif.got.tgz:28264.got - 2010.06.27 23:14:04.
