data_PCOD8071670
_publ_section_title
;
Structure prediction by ZEFSAII (Michael W. Deem and Ramdas Pophale) SiO2 
 PCOD8071670
Probable space group: P 21/M
;
_chemical_formula_sum "Si O2"
_cell_formula_units_Z 24
_cell_length_a 11.269552
_cell_length_b 19.215471
_cell_length_c 7.337948
_cell_angle_alpha 90.000000
_cell_angle_beta 58.767625
_cell_angle_gamma 90.000000
_cell_volume 1358.734812
_symmetry_space_group_name_H-M "P 21/M"
_symmetry_group_IT_number 11
_symmetry_cell_setting 'monoclinic'
loop_
_space_group_symop_operation_xyz
x,y,z
-x,1/2+y,-z
-x,-y,-z
x,1/2-y,z
loop_
_atom_site_type_symbol
_atom_site_label
_atom_site_fract_x
_atom_site_fract_y
_atom_site_fract_z
Si Si1 0.113009 0.830498 0.359166
Si Si2 0.333932 0.556631 0.265125
Si Si3 0.120297 0.169749 0.168659
Si Si4 0.978260 0.107374 0.939478
Si Si5 0.345860 0.441606 0.962607
Si Si6 0.210037 0.998364 0.728015
O O1 0.150488 0.750000 0.354857
O O2 0.248430 0.873127 0.307743
O O3 0.069256 0.844048 0.187013
O O4 0.988625 0.853171 0.590655
O O5 0.494273 0.578059 0.141953
O O6 0.295490 0.516579 0.479243
O O7 0.300835 0.506086 0.123771
O O8 0.161406 0.250000 0.154038
O O9 0.258844 0.125667 0.091471
O O10 0.056934 0.155874 0.020614
O O11 0.843255 0.073405 0.140669
O O12 0.077712 0.046293 0.785053
O O13 0.313895 0.461824 0.780370
#
# Coordination Sequence:
#
# PCOD8071670 Si02
#       6
#     4   4   4   4   4   4
#     4  11  22  35  55  80 109 143 178 223 271 319
#     4  11  21  36  55  82 112 138 184 221 267 323
#     4  10  21  37  56  79 107 142 181 219 266 322
#     4  10  19  33  56  83 107 136 177 227 269 310
#     4  10  22  36  56  81 108 146 175 224 270 313
#     4  10  19  33  57  82 107 137 179 225 267 314
#
# _framework density 17.663489999999999
#
# number of rings (size 3 to 8) (size 9 to 14) (size 15 to 20)
#    0.000    1.667    3.333    2.000    0.000    2.000 
#    0.000    0.000    0.000    0.000    0.000    0.000 
#    0.000    0.000    0.000    0.000    0.000    0.000 
#
# Total GULP energy -297728.731796 kJ/mol
# GULP energy per Si atom -12405.363825 kJ/mol
# Density = 1.762329 g / cm^3
# Si number density = 17.663490 Si / 1000 Ang^3
#
#
#
# Elastic Constant Matrix: (Units=GPa)
#
#
# Indices 1 2 3 4 5 6 
#
# 1 77.3934 35.6264 19.3730 0.0000 -7.5100 0.0000
# 2 35.6264 67.3040 16.8170 0.0000 -15.9879 0.0000
# 3 19.3730 16.8170 71.6153 0.0000 -7.4173 0.0000
# 4 0.0000 0.0000 0.0000 27.8390 0.0000 -3.8450
# 5 -7.5100 -15.9879 -7.4173 0.0000 25.3159 0.0000
# 6 0.0000 0.0000 0.0000 -3.8450 0.0000 17.5053
#
#
#
# Elastic Compliance Matrix: (Units=1/GPa)
#
#
# Indices 1 2 3 4 5 6 
#
# 1 0.017604 -0.008911 -0.002797 0.000000 -0.001224 0.000000
# 2 -0.008911 0.022663 -0.001756 0.000000 0.011155 0.000000
# 3 -0.002797 -0.001756 0.015399 0.000000 0.002573 0.000000
# 4 0.000000 0.000000 0.000000 0.037045 0.000000 0.008137
# 5 -0.001224 0.011155 0.002573 0.000000 0.046936 0.000000
# 6 0.000000 0.000000 0.000000 0.008137 0.000000 0.058913
#
#
# Mechanical properties :
#
#
# Convention : Reuss Voigt Hill
#
# Bulk Modulus (GPa) = 34.79508 39.99394 37.39451
# Shear Modulus (GPa) = 21.27064 23.76513 22.51789
#
# Velocity S-wave (km/s) = 3.47394 3.67200 3.57434
# Velocity P-wave (km/s) = 5.98604 6.37726 6.18474
#
# Compressibility (1/GPa) = 0.02873969
#
# Stress axis : x y z
#
# Youngs Moduli (GPa) = 56.80539 44.12440 64.93976
#
# Poissons Ratio (x) = 0.39317 0.18161
# Poissons Ratio (y) = 0.50616 0.11404
# Poissons Ratio (z) = 0.15886 0.07749
#
# Static dielectric constant tensor:
#      x y z
#    x 3.182790 0.000000 0.029730 
#    y 0.000000 3.167260 0.000000 
#    z 0.029730 0.000000 3.346670 
# 
# 
# High freq. dielectric constant tensor:
#      x y z
#    x 1.682780 0.000000 0.006210 
#    y 0.000000 1.679260 0.000000 
#    z 0.006210 0.000000 1.692680 
# 
# From -- ./inp_files/4807.got.cif
#   From: 2010.06.25/outbox.cif.g09.slc.cpg/sg11_3_cif.got.tgz:4807.got - 2010.06.27 23:14:04.
