data_PCOD8071502
_publ_section_title
;
Structure prediction by ZEFSAII (Michael W. Deem and Ramdas Pophale) SiO2 
 PCOD8071502
Probable space group: P 21/M
;
_chemical_formula_sum "Si O2"
_cell_formula_units_Z 28
_cell_length_a 18.474876
_cell_length_b 8.887239
_cell_length_c 14.013207
_cell_angle_alpha 90.000000
_cell_angle_beta 137.475954
_cell_angle_gamma 90.000000
_cell_volume 1555.135013
_symmetry_space_group_name_H-M "P 21/M"
_symmetry_group_IT_number 11
_symmetry_cell_setting 'monoclinic'
loop_
_space_group_symop_operation_xyz
x,y,z
-x,1/2+y,-z
-x,-y,-z
x,1/2-y,z
loop_
_atom_site_type_symbol
_atom_site_label
_atom_site_fract_x
_atom_site_fract_y
_atom_site_fract_z
Si Si1 0.085957 0.425501 0.712456
Si Si2 0.681451 0.076126 0.387353
Si Si3 0.375140 0.074783 0.480078
Si Si4 0.468332 0.075928 0.067223
Si Si5 0.870865 0.574448 0.463754
Si Si6 0.279023 0.926988 0.994298
Si Si7 0.622864 0.075602 0.710456
O O1 0.088048 0.250000 0.738112
O O2 0.127768 0.461117 0.647070
O O3 0.965889 0.486182 0.609200
O O4 0.160336 0.512597 0.859625
O O5 0.715103 0.250000 0.416986
O O6 0.560966 0.050714 0.234524
O O7 0.690577 0.015227 0.503763
O O8 0.758311 0.982110 0.393619
O O9 0.351564 0.250000 0.470102
O O10 0.500018 0.035616 0.613255
O O11 0.334318 0.021674 0.336766
O O12 0.446095 0.250000 0.025996
O O13 0.359891 0.003608 0.999658
O O14 0.500000 0.000000 0.000000
O O15 0.885429 0.750000 0.498289
O O16 0.285328 0.750000 0.983479
O O17 0.307306 0.969523 0.130311
O O18 0.634590 0.250000 0.695115
#
# Coordination Sequence:
#
# PCOD8071502 Si02
#       7
#     4   4   4   4   4   4   4
#     4  10  21  37  57  81 108 141 183 227 268 316
#     4  11  22  35  53  78 109 143 179 222 270 322
#     4  10  19  33  54  78 106 141 180 222 266 318
#     4  11  23  35  50  75 109 146 180 217 266 321
#     4  10  21  37  57  79 106 142 184 227 268 316
#     4  11  21  35  55  79 110 144 179 220 268 320
#     4   9  19  34  52  77 108 142 178 220 266 317
#
# _framework density 18.004867000000001
#
# number of rings (size 3 to 8) (size 9 to 14) (size 15 to 20)
#    0.000    1.714    1.429    3.429    0.000    7.429 
#    0.000    0.000    0.000    0.857    0.000    0.000 
#    0.000    0.000    0.000    0.000    0.000    0.000 
#
# Total GULP energy -347365.424444 kJ/mol
# GULP energy per Si atom -12405.908016 kJ/mol
# Density = 1.796389 g / cm^3
# Si number density = 18.004867 Si / 1000 Ang^3
#
#
#
# Elastic Constant Matrix: (Units=GPa)
#
#
# Indices 1 2 3 4 5 6 
#
# 1 36.5715 27.8972 8.9982 0.0000 -11.6556 0.0000
# 2 27.8972 80.4071 40.4231 0.0000 -12.9506 0.0000
# 3 8.9982 40.4231 89.7703 0.0000 -8.9206 0.0000
# 4 0.0000 0.0000 0.0000 32.6326 0.0000 0.3328
# 5 -11.6556 -12.9506 -8.9206 0.0000 24.6829 0.0000
# 6 0.0000 0.0000 0.0000 0.3328 0.0000 34.5300
#
#
#
# Elastic Compliance Matrix: (Units=1/GPa)
#
#
# Indices 1 2 3 4 5 6 
#
# 1 0.041429 -0.013942 0.003467 0.000000 0.013501 0.000000
# 2 -0.013942 0.021684 -0.008184 0.000000 0.001836 0.000000
# 3 0.003467 -0.008184 0.014743 0.000000 0.002671 0.000000
# 4 0.000000 0.000000 0.000000 0.030647 0.000000 -0.000295
# 5 0.013501 0.001836 0.002671 0.000000 0.048818 0.000000
# 6 0.000000 0.000000 0.000000 -0.000295 0.000000 0.028963
#
#
# Mechanical properties :
#
#
# Convention : Reuss Voigt Hill
#
# Bulk Modulus (GPa) = 24.66894 40.15400 32.41147
# Shear Modulus (GPa) = 21.08684 26.99781 24.04232
#
# Velocity S-wave (km/s) = 3.42596 3.87650 3.65817
# Velocity P-wave (km/s) = 5.42038 6.51049 5.99029
#
# Compressibility (1/GPa) = 0.04053681
#
# Stress axis : x y z
#
# Youngs Moduli (GPa) = 24.13785 46.11678 67.82968
#
# Poissons Ratio (x) = 0.64297 -0.23517
# Poissons Ratio (y) = 0.33653 0.55514
# Poissons Ratio (z) = -0.08369 0.37743
#
# Static dielectric constant tensor:
#      x y z
#    x 3.152560 0.000000 -0.084280 
#    y 0.000000 3.437400 0.000000 
#    z -0.084280 0.000000 3.342650 
# 
# 
# High freq. dielectric constant tensor:
#      x y z
#    x 1.682770 0.000000 -0.008930 
#    y 0.000000 1.713590 0.000000 
#    z -0.008930 0.000000 1.689450 
# 
# From -- ./inp_files/44650.got.cif
#   From: 2010.06.25/outbox.cif.g09.slc.cpg/sg11_23_cif.got.tgz:44650.got - 2010.06.27 23:14:04.
