data_PCOD8071687
_publ_section_title
;
Structure prediction by ZEFSAII (Michael W. Deem and Ramdas Pophale) SiO2 
 PCOD8071687
Probable space group: P 21/M
;
_chemical_formula_sum "Si O2"
_cell_formula_units_Z 32
_cell_length_a 21.636403
_cell_length_b 8.998384
_cell_length_c 27.974494
_cell_angle_alpha 90.000000
_cell_angle_beta 18.906443
_cell_angle_gamma 90.000000
_cell_volume 1764.772557
_symmetry_space_group_name_H-M "P 21/M"
_symmetry_group_IT_number 11
_symmetry_cell_setting 'monoclinic'
loop_
_space_group_symop_operation_xyz
x,y,z
-x,1/2+y,-z
-x,-y,-z
x,1/2-y,z
loop_
_atom_site_type_symbol
_atom_site_label
_atom_site_fract_x
_atom_site_fract_y
_atom_site_fract_z
Si Si1 0.366251 0.426301 0.457830
Si Si2 0.349316 0.922577 0.832793
Si Si3 0.311064 0.425410 0.157817
Si Si4 0.379863 0.581049 0.301765
Si Si5 0.809790 0.423413 0.656815
Si Si6 0.542569 0.927169 0.418422
Si Si7 0.955361 0.923274 0.081801
Si Si8 0.084912 0.577007 0.597120
O O1 0.361422 0.250000 0.469408
O O2 0.536398 0.478811 0.297878
O O3 0.397159 0.507219 0.485747
O O4 0.164905 0.480361 0.582815
O O5 0.383955 0.750000 0.811737
O O6 0.431868 0.992723 0.820623
O O7 0.126549 0.964330 0.992845
O O8 0.339974 0.250000 0.142623
O O9 0.269869 0.494957 0.239074
O O10 0.137563 0.459732 0.248357
O O11 0.500000 0.500000 0.000000
O O12 0.424184 0.750000 0.281115
O O13 0.346462 0.555333 0.270342
O O14 0.195081 0.530866 0.467761
O O15 0.847954 0.250000 0.639375
O O16 0.000000 0.500000 0.500000
O O17 0.520809 0.750000 0.436994
O O18 0.756943 0.978151 0.248716
O O19 0.500000 0.000000 0.500000
O O20 0.950452 0.750000 0.074832
O O21 0.000000 0.000000 0.000000
O O22 0.114500 0.750000 0.587429
#
# Coordination Sequence:
#
# PCOD8071687 Si02
#       8
#     4   4   4   4   4   4   4   4
#     4  10  19  33  56  84 112 142 184 233 280 335
#     4   9  18  32  52  82 113 140 178 230 281 330
#     4  11  23  40  59  85 117 154 194 238 288 344
#     4   9  18  33  53  81 113 145 183 228 280 335
#     4  11  21  36  58  85 115 149 190 238 287 341
#     4  11  23  38  57  81 113 153 190 231 281 334
#     4  10  20  35  56  82 110 141 180 225 276 328
#     4   9  18  35  56  80 113 147 186 231 278 337
#
# _framework density 18.132648
#
# number of rings (size 3 to 8) (size 9 to 14) (size 15 to 20)
#    0.000    2.000    2.500    1.500    0.000    3.500 
#    0.000    1.250    0.000    3.000    0.000    0.000 
#    0.000    0.000    0.000    0.000    0.000    0.000 
#
# Total GULP energy -396816.262661 kJ/mol
# GULP energy per Si atom -12400.508208 kJ/mol
# Density = 1.809138 g / cm^3
# Si number density = 18.132648 Si / 1000 Ang^3
#
#
#
# Elastic Constant Matrix: (Units=GPa)
#
#
# Indices 1 2 3 4 5 6 
#
# 1 130.9018 65.3134 69.4066 0.0000 -6.5629 0.0000
# 2 65.3134 83.8171 55.0381 0.0000 -4.2476 0.0000
# 3 69.4066 55.0381 118.3637 0.0000 -4.1187 0.0000
# 4 0.0000 0.0000 0.0000 27.5102 0.0000 -1.5408
# 5 -6.5629 -4.2476 -4.1187 0.0000 27.6893 0.0000
# 6 0.0000 0.0000 0.0000 -1.5408 0.0000 38.4405
#
#
#
# Elastic Compliance Matrix: (Units=1/GPa)
#
#
# Indices 1 2 3 4 5 6 
#
# 1 0.014052 -0.007916 -0.004509 0.000000 0.001446 0.000000
# 2 -0.007916 0.021693 -0.005423 0.000000 0.000645 0.000000
# 3 -0.004509 -0.005423 0.013618 0.000000 0.000125 0.000000
# 4 0.000000 0.000000 0.000000 0.036432 0.000000 0.001460
# 5 0.001446 0.000645 0.000125 0.000000 0.036575 0.000000
# 6 0.000000 0.000000 0.000000 0.001460 0.000000 0.026073
#
#
# Mechanical properties :
#
#
# Convention : Reuss Voigt Hill
#
# Bulk Modulus (GPa) = 73.16261 79.17762 76.17011
# Shear Modulus (GPa) = 26.49796 28.28294 27.39045
#
# Velocity S-wave (km/s) = 3.82689 3.95369 3.89081
# Velocity P-wave (km/s) = 7.74358 8.03759 7.89195
#
# Compressibility (1/GPa) = 0.01366818
#
# Stress axis : x y z
#
# Youngs Moduli (GPa) = 71.16368 46.09869 73.43102
#
# Poissons Ratio (x) = 0.36492 0.33108
# Poissons Ratio (y) = 0.56333 0.39819
# Poissons Ratio (z) = 0.32086 0.24997
#
# Static dielectric constant tensor:
#      x y z
#    x 3.240960 0.000000 -0.233830 
#    y 0.000000 3.399170 0.000000 
#    z -0.233830 0.000000 3.009110 
# 
# 
# High freq. dielectric constant tensor:
#      x y z
#    x 1.707030 0.000000 -0.017660 
#    y 0.000000 1.709700 0.000000 
#    z -0.017660 0.000000 1.684030 
# 
# From -- ./inp_files/72005.got.cif
#   From: 2010.06.25/outbox.cif.g09.slc.cpg/sg11_37_cif.got.tgz:72005.got - 2010.06.27 23:14:04.
