data_PCOD8071933
_publ_section_title
;
Structure prediction by ZEFSAII (Michael W. Deem and Ramdas Pophale) SiO2 
 PCOD8071933
Probable space group: P 21/M
;
_chemical_formula_sum "Si O2"
_cell_formula_units_Z 28
_cell_length_a 9.375994
_cell_length_b 8.901506
_cell_length_c 25.541407
_cell_angle_alpha 90.000000
_cell_angle_beta 44.462876
_cell_angle_gamma 90.000000
_cell_volume 1493.141245
_symmetry_space_group_name_H-M "P 21/M"
_symmetry_group_IT_number 11
_symmetry_cell_setting 'monoclinic'
loop_
_space_group_symop_operation_xyz
x,y,z
-x,1/2+y,-z
-x,-y,-z
x,1/2-y,z
loop_
_atom_site_type_symbol
_atom_site_label
_atom_site_fract_x
_atom_site_fract_y
_atom_site_fract_z
Si Si1 0.262558 0.926297 0.792678
Si Si2 0.198056 0.424104 0.076609
Si Si3 0.977310 0.428632 0.354541
Si Si4 0.652519 0.574548 0.500120
Si Si5 0.594630 0.427846 0.777364
Si Si6 0.308697 0.924376 0.663753
Si Si7 0.459102 0.573122 0.090889
O O1 0.320575 0.750000 0.779972
O O2 0.275691 0.991719 0.730070
O O3 0.037007 0.956206 0.874013
O O4 0.411425 0.024147 0.788450
O O5 0.237154 0.250000 0.076976
O O6 0.263307 0.507477 0.112544
O O7 0.332745 0.481302 0.992121
O O8 0.979240 0.250000 0.357025
O O9 0.203551 0.490534 0.294880
O O10 0.869737 0.492304 0.435843
O O11 0.852217 0.490728 0.336543
O O12 0.500000 0.500000 0.500000
O O13 0.677608 0.750000 0.481486
O O14 0.545452 0.548702 0.584814
O O15 0.625758 0.250000 0.766756
O O16 0.540238 0.484910 0.849891
O O17 0.257889 0.750000 0.679836
O O18 0.440373 0.750000 0.094404
#
# Coordination Sequence:
#
# PCOD8071933 Si02
#       7
#     4   4   4   4   4   4   4
#     4  10  20  35  53  74 102 137 175 211 249 299
#     4   9  18  34  57  81 103 132 172 213 253 302
#     4  10  19  34  56  79 101 131 174 219 262 308
#     4   9  16  29  50  78 108 135 167 211 261 308
#     4  11  23  36  49  72 107 141 172 210 258 309
#     4   8  16  31  53  78 102 129 166 212 255 300
#     4   9  19  35  54  78 107 135 167 211 259 305
#
# _framework density 18.752413000000001
#
# number of rings (size 3 to 8) (size 9 to 14) (size 15 to 20)
#    0.000    2.571    0.000    3.000    0.000    3.429 
#    0.000    5.000    0.000    0.000    0.000    0.000 
#    0.000    0.000    0.000    0.000    0.000    0.000 
#
# Total GULP energy -347090.317079 kJ/mol
# GULP energy per Si atom -12396.082753 kJ/mol
# Density = 1.870973 g / cm^3
# Si number density = 18.752413 Si / 1000 Ang^3
#
#
#
# Elastic Constant Matrix: (Units=GPa)
#
#
# Indices 1 2 3 4 5 6 
#
# 1 66.0865 15.2469 34.9645 0.0000 -16.7701 0.0000
# 2 15.2469 48.9634 29.7638 0.0000 -8.8103 0.0000
# 3 34.9645 29.7638 108.6111 0.0000 -17.7236 0.0000
# 4 0.0000 0.0000 0.0000 24.3287 0.0000 -5.2050
# 5 -16.7701 -8.8103 -17.7236 0.0000 18.3556 0.0000
# 6 0.0000 0.0000 0.0000 -5.2050 0.0000 28.0908
#
#
#
# Elastic Compliance Matrix: (Units=1/GPa)
#
#
# Indices 1 2 3 4 5 6 
#
# 1 0.021408 -0.001526 -0.004038 0.000000 0.014928 0.000000
# 2 -0.001526 0.025237 -0.005550 0.000000 0.005360 0.000000
# 3 -0.004038 -0.005550 0.013047 0.000000 0.006245 0.000000
# 4 0.000000 0.000000 0.000000 0.042800 0.000000 0.007931
# 5 0.014928 0.005360 0.006245 0.000000 0.076720 0.000000
# 6 0.000000 0.000000 0.000000 0.007931 0.000000 0.037068
#
#
# Mechanical properties :
#
#
# Convention : Reuss Voigt Hill
#
# Bulk Modulus (GPa) = 26.69173 42.62348 34.65761
# Shear Modulus (GPa) = 19.92065 23.73410 21.82737
#
# Velocity S-wave (km/s) = 3.26283 3.56146 3.41541
# Velocity P-wave (km/s) = 5.33473 6.30008 5.83740
#
# Compressibility (1/GPa) = 0.03746479
#
# Stress axis : x y z
#
# Youngs Moduli (GPa) = 46.71153 39.62475 76.64615
#
# Poissons Ratio (x) = 0.06046 0.30947
# Poissons Ratio (y) = 0.07128 0.42538
# Poissons Ratio (z) = 0.18860 0.21992
#
# Static dielectric constant tensor:
#      x y z
#    x 3.262290 0.000000 0.161940 
#    y 0.000000 3.368950 0.000000 
#    z 0.161940 0.000000 4.080150 
# 
# 
# High freq. dielectric constant tensor:
#      x y z
#    x 1.699660 0.000000 -0.001540 
#    y 0.000000 1.716430 0.000000 
#    z -0.001540 0.000000 1.749380 
# 
# From -- ./inp_files/61236.got.cif
#   From: 2010.06.25/outbox.cif.g09.slc.cpg/sg11_31_cif.got.tgz:61236.got - 2010.06.27 23:14:04.
