data_PCOD8071188
_publ_section_title
;
Structure prediction by ZEFSAII (Michael W. Deem and Ramdas Pophale) SiO2 
 PCOD8071188
Probable space group: P 21/M
;
_chemical_formula_sum "Si O2"
_cell_formula_units_Z 24
_cell_length_a 23.170743
_cell_length_b 9.235650
_cell_length_c 18.788099
_cell_angle_alpha 90.000000
_cell_angle_beta 17.690555
_cell_angle_gamma 90.000000
_cell_volume 1221.762209
_symmetry_space_group_name_H-M "P 21/M"
_symmetry_group_IT_number 11
_symmetry_cell_setting 'monoclinic'
loop_
_space_group_symop_operation_xyz
x,y,z
-x,1/2+y,-z
-x,-y,-z
x,1/2-y,z
loop_
_atom_site_type_symbol
_atom_site_label
_atom_site_fract_x
_atom_site_fract_y
_atom_site_fract_z
Si Si1 0.052259 0.080475 0.103716
Si Si2 0.170513 0.918737 0.837437
Si Si3 0.382834 0.584614 0.927230
Si Si4 0.003250 0.915899 0.302981
Si Si5 0.578279 0.579443 0.839751
Si Si6 0.640984 0.413743 0.523821
O O1 0.100660 0.250000 0.045915
O O2 0.840985 0.046003 0.324893
O O3 0.072812 0.019766 0.158539
O O4 0.203254 0.997131 0.874968
O O5 0.119600 0.750000 0.908384
O O6 0.349623 0.934549 0.573156
O O7 0.000000 0.000000 0.000000
O O8 0.447042 0.750000 0.849064
O O9 0.459608 0.519542 0.911280
O O10 0.476896 0.512463 0.747958
O O11 0.154960 0.566847 0.189045
O O12 0.996825 0.750000 0.283096
O O13 0.798260 0.963782 0.572314
O O14 0.550926 0.750000 0.882372
O O15 0.500000 0.500000 0.000000
O O16 0.587517 0.250000 0.605590
#
# Coordination Sequence:
#
# PCOD8071188 Si02
#       6
#     4   4   4   4   4   4
#     4  10  19  32  53  82 113 150 194 236 283 335
#     4   9  17  29  48  78 113 151 195 240 283 330
#     4  10  21  37  59  85 112 148 189 226 277 337
#     4  10  21  38  59  84 114 148 187 230 278 333
#     4  10  22  40  61  86 114 145 180 226 278 336
#     4   9  18  32  52  80 113 148 189 234 279 328
#
# _framework density 19.643757000000001
#
# number of rings (size 3 to 8) (size 9 to 14) (size 15 to 20)
#    0.000    2.333    1.667    2.000    0.000    6.000 
#    0.000    0.833    0.000    0.000    0.000    0.000 
#    0.000    0.000    0.000    0.000    0.000    0.000 
#
# Total GULP energy -297539.017278 kJ/mol
# GULP energy per Si atom -12397.459053 kJ/mol
# Density = 1.959905 g / cm^3
# Si number density = 19.643757 Si / 1000 Ang^3
#
#
#
# Elastic Constant Matrix: (Units=GPa)
#
#
# Indices 1 2 3 4 5 6 
#
# 1 101.7290 49.7725 84.0649 0.0000 8.5729 0.0000
# 2 49.7725 86.3379 49.6719 0.0000 13.5905 0.0000
# 3 84.0649 49.6719 98.3226 0.0000 15.8377 0.0000
# 4 0.0000 0.0000 0.0000 32.2519 0.0000 12.0628
# 5 8.5729 13.5905 15.8377 0.0000 33.2167 0.0000
# 6 0.0000 0.0000 0.0000 12.0628 0.0000 27.1384
#
#
#
# Elastic Compliance Matrix: (Units=1/GPa)
#
#
# Indices 1 2 3 4 5 6 
#
# 1 0.035803 -0.004880 -0.029224 0.000000 0.006690 0.000000
# 2 -0.004880 0.017270 -0.003918 0.000000 -0.003938 0.000000
# 3 -0.029224 -0.003918 0.038629 0.000000 -0.009273 0.000000
# 4 0.000000 0.000000 0.000000 0.037189 0.000000 -0.016530
# 5 0.006690 -0.003938 -0.009273 0.000000 0.034412 0.000000
# 6 0.000000 0.000000 0.000000 -0.016530 0.000000 0.044196
#
#
# Mechanical properties :
#
#
# Convention : Reuss Voigt Hill
#
# Bulk Modulus (GPa) = 63.85928 72.60090 68.23009
# Shear Modulus (GPa) = 17.31540 25.38007 21.34773
#
# Velocity S-wave (km/s) = 2.97218 3.59836 3.30016
# Velocity P-wave (km/s) = 6.66016 7.36908 7.02357
#
# Compressibility (1/GPa) = 0.01565943
#
# Stress axis : x y z
#
# Youngs Moduli (GPa) = 27.93045 57.90546 25.88702
#
# Poissons Ratio (x) = 0.28259 0.75651
# Poissons Ratio (y) = 0.13630 0.10141
# Poissons Ratio (z) = 0.81623 0.22685
#
# Static dielectric constant tensor:
#      x y z
#    x 3.668670 0.000000 0.132360 
#    y 0.000000 3.574420 0.000000 
#    z 0.132360 0.000000 3.592790 
# 
# 
# High freq. dielectric constant tensor:
#      x y z
#    x 1.758890 0.000000 0.006620 
#    y 0.000000 1.764330 0.000000 
#    z 0.006620 0.000000 1.753770 
# 
# From -- ./inp_files/57392.got.cif
#   From: 2010.06.25/outbox.cif.g09.slc.cpg/sg11_29_cif.got.tgz:57392.got - 2010.06.27 23:14:04.
