data_PCOD8071878
_publ_section_title
;
Structure prediction by ZEFSAII (Michael W. Deem and Ramdas Pophale) SiO2 
 PCOD8071878
Probable space group: P 21/M
;
_chemical_formula_sum "Si O2"
_cell_formula_units_Z 32
_cell_length_a 16.451364
_cell_length_b 15.117070
_cell_length_c 13.999420
_cell_angle_alpha 90.000000
_cell_angle_beta 31.594744
_cell_angle_gamma 90.000000
_cell_volume 1824.040257
_symmetry_space_group_name_H-M "P 21/M"
_symmetry_group_IT_number 11
_symmetry_cell_setting 'monoclinic'
loop_
_space_group_symop_operation_xyz
x,y,z
-x,1/2+y,-z
-x,-y,-z
x,1/2-y,z
loop_
_atom_site_type_symbol
_atom_site_label
_atom_site_fract_x
_atom_site_fract_y
_atom_site_fract_z
Si Si1 0.816866 0.008490 0.182693
Si Si2 0.609636 0.849706 0.889994
Si Si3 0.609230 0.845599 0.389769
Si Si4 0.335232 0.649752 0.025134
Si Si5 0.395364 0.916982 0.760218
Si Si6 0.665416 0.149754 0.695147
Si Si7 0.178888 0.979577 0.320944
Si Si8 0.603541 0.082472 0.552476
O O1 0.755595 0.066408 0.154913
O O2 0.754792 0.045995 0.345541
O O3 0.750433 0.911182 0.234295
O O4 0.000000 0.000000 0.000000
O O5 0.682410 0.750000 0.816785
O O6 0.738957 0.924956 0.761090
O O7 0.505393 0.863652 0.899984
O O8 0.504649 0.862646 0.089180
O O9 0.686858 0.750000 0.312230
O O10 0.519672 0.859463 0.578438
O O11 0.486001 0.851461 0.427619
O O12 0.277329 0.750000 0.104452
O O13 0.219318 0.578171 0.186992
O O14 0.339496 0.636080 0.908009
O O15 0.482946 0.006296 0.703754
O O16 0.724454 0.250000 0.656070
O O17 0.780804 0.078208 0.625966
O O18 0.660874 0.134758 0.587071
O O19 0.000000 0.000000 0.500000
#
# Coordination Sequence:
#
# PCOD8071878 Si02
#       8
#     4   4   4   4   4   4   4   4
#     4   9  19  33  49  72 105 138 164 195 249 307
#     4   9  19  34  54  75  97 129 172 213 250 292
#     4   9  17  31  50  74  97 126 170 215 250 287
#     4  10  19  34  55  77  98 128 171 215 250 291
#     4   9  17  31  53  74  97 131 168 208 249 292
#     4  10  19  34  55  77  98 128 171 215 250 291
#     4  11  22  34  51  75 107 139 161 199 252 306
#     4   9  17  31  53  74  97 131 168 208 249 292
#
# _framework density 17.543472000000001
#
# number of rings (size 3 to 8) (size 9 to 14) (size 15 to 20)
#    0.000    2.500    0.000    6.375    0.000    2.000 
#    0.000    3.750    0.000    0.000    0.000    0.000 
#    0.000    0.000    0.000    0.000    0.000    0.000 
#
# Total GULP energy -396691.718625 kJ/mol
# GULP energy per Si atom -12396.616207 kJ/mol
# Density = 1.750354 g / cm^3
# Si number density = 17.543472 Si / 1000 Ang^3
#
#
#
# Elastic Constant Matrix: (Units=GPa)
#
#
# Indices 1 2 3 4 5 6 
#
# 1 90.2101 43.7120 59.2025 0.0000 11.8411 0.0000
# 2 43.7120 131.3622 49.3378 0.0000 -7.4491 0.0000
# 3 59.2025 49.3378 89.9517 0.0000 -13.5385 0.0000
# 4 0.0000 0.0000 0.0000 16.1168 0.0000 4.4536
# 5 11.8411 -7.4491 -13.5385 0.0000 34.5713 0.0000
# 6 0.0000 0.0000 0.0000 4.4536 0.0000 19.8228
#
#
#
# Elastic Compliance Matrix: (Units=1/GPa)
#
#
# Indices 1 2 3 4 5 6 
#
# 1 0.027178 -0.002933 -0.018888 0.000000 -0.017338 0.000000
# 2 -0.002933 0.009904 -0.003220 0.000000 0.001878 0.000000
# 3 -0.018888 -0.003220 0.027824 0.000000 0.016672 0.000000
# 4 0.000000 0.000000 0.000000 0.066154 0.000000 -0.014863
# 5 -0.017338 0.001878 0.016672 0.000000 0.041798 0.000000
# 6 0.000000 0.000000 0.000000 -0.014863 0.000000 0.053786
#
#
# Mechanical properties :
#
#
# Convention : Reuss Voigt Hill
#
# Bulk Modulus (GPa) = 67.45487 68.44762 67.95125
# Shear Modulus (GPa) = 17.75147 24.72028 21.23587
#
# Velocity S-wave (km/s) = 3.18442 3.75785 3.48296
# Velocity P-wave (km/s) = 7.21487 7.61113 7.41565
#
# Compressibility (1/GPa) = 0.01482473
#
# Stress axis : x y z
#
# Youngs Moduli (GPa) = 36.79452 100.96815 35.94047
#
# Poissons Ratio (x) = 0.29611 0.67886
# Poissons Ratio (y) = 0.10791 0.11571
# Poissons Ratio (z) = 0.69499 0.32507
#
# Static dielectric constant tensor:
#      x y z
#    x 3.175430 0.000000 0.163220 
#    y 0.000000 3.411500 0.000000 
#    z 0.163220 0.000000 2.980800 
# 
# 
# High freq. dielectric constant tensor:
#      x y z
#    x 1.672360 0.000000 0.018830 
#    y 0.000000 1.693420 0.000000 
#    z 0.018830 0.000000 1.653300 
# 
# From -- ./inp_files/53721.got.cif
#   From: 2010.06.25/outbox.cif.g09.slc.cpg/sg11_27_cif.got.tgz:53721.got - 2010.06.27 23:14:04.
