data_PCOD8071810
_publ_section_title
;
Structure prediction by ZEFSAII (Michael W. Deem and Ramdas Pophale) SiO2 
 PCOD8071810
Probable space group: P 21/M
;
_chemical_formula_sum "Si O2"
_cell_formula_units_Z 32
_cell_length_a 22.841223
_cell_length_b 8.645412
_cell_length_c 27.968687
_cell_angle_alpha 90.000000
_cell_angle_beta 161.989009
_cell_angle_gamma 90.000000
_cell_volume 1707.716641
_symmetry_space_group_name_H-M "P 21/M"
_symmetry_group_IT_number 11
_symmetry_cell_setting 'monoclinic'
loop_
_space_group_symop_operation_xyz
x,y,z
-x,1/2+y,-z
-x,-y,-z
x,1/2-y,z
loop_
_atom_site_type_symbol
_atom_site_label
_atom_site_fract_x
_atom_site_fract_y
_atom_site_fract_z
Si Si1 0.953742 0.932353 0.015149
Si Si2 0.175525 0.931486 0.827653
Si Si3 0.216464 0.070701 0.757101
Si Si4 0.220682 0.933497 0.484755
Si Si5 0.426479 0.567357 0.295009
Si Si6 0.207947 0.928348 0.581264
Si Si7 0.453268 0.933269 0.857511
Si Si8 0.360969 0.569543 0.352901
O O1 0.920935 0.750000 0.986435
O O2 0.757905 0.013605 0.879306
O O3 0.138638 0.969729 0.191879
O O4 0.000000 0.000000 0.000000
O O5 0.186449 0.750000 0.844614
O O6 0.224648 0.971258 0.811309
O O7 0.970891 0.993006 0.684975
O O8 0.329430 0.016912 0.980622
O O9 0.251807 0.250000 0.797556
O O10 0.010244 0.047222 0.573191
O O11 0.376245 0.011001 0.845812
O O12 0.195945 0.750000 0.466032
O O13 0.250245 0.999326 0.561640
O O14 0.392282 0.982630 0.584988
O O15 0.448368 0.750000 0.307235
O O16 0.409955 0.511904 0.337321
O O17 0.261980 0.750000 0.620529
O O18 0.338909 0.004563 0.723602
O O19 0.430020 0.750000 0.843555
O O20 0.500000 0.500000 0.500000
O O21 0.393673 0.750000 0.380029
#
# Coordination Sequence:
#
# PCOD8071810 Si02
#       8
#     4   4   4   4   4   4   4   4
#     4   9  17  31  51  78 107 138 173 212 250 294
#     4  11  22  36  52  74 103 137 173 214 258 309
#     4  10  19  34  53  76 102 132 170 213 259 314
#     4  10  20  38  59  78  99 133 176 216 256 307
#     4  10  20  35  55  81 107 138 176 214 252 304
#     4   8  18  34  53  75 101 129 166 214 261 307
#     4  11  20  33  52  76 103 133 166 210 265 316
#     4   9  19  33  52  80 114 142 172 211 255 299
#
# _framework density 18.738472999999999
#
# number of rings (size 3 to 8) (size 9 to 14) (size 15 to 20)
#    0.000    2.250    0.000    5.250    0.000    3.000 
#    0.000    8.125    0.000    1.500    0.000    0.000 
#    0.000    0.000    0.000    0.000    0.000    0.000 
#
# Total GULP energy -396666.150393 kJ/mol
# GULP energy per Si atom -12395.817200 kJ/mol
# Density = 1.869582 g / cm^3
# Si number density = 18.738473 Si / 1000 Ang^3
#
#
#
# Elastic Constant Matrix: (Units=GPa)
#
#
# Indices 1 2 3 4 5 6 
#
# 1 42.4517 10.8978 35.0811 0.0000 11.7365 0.0000
# 2 10.8978 48.2211 16.9006 0.0000 -1.3719 0.0000
# 3 35.0811 16.9006 135.2002 0.0000 1.4487 0.0000
# 4 0.0000 0.0000 0.0000 33.3114 0.0000 4.4524
# 5 11.7365 -1.3719 1.4487 0.0000 28.2773 0.0000
# 6 0.0000 0.0000 0.0000 4.4524 0.0000 23.2084
#
#
#
# Elastic Compliance Matrix: (Units=1/GPa)
#
#
# Indices 1 2 3 4 5 6 
#
# 1 0.036133 -0.005603 -0.008516 0.000000 -0.014832 0.000000
# 2 -0.005603 0.022597 -0.001408 0.000000 0.003494 0.000000
# 3 -0.008516 -0.001408 0.009750 0.000000 0.002967 0.000000
# 4 0.000000 0.000000 0.000000 0.030810 0.000000 -0.005911
# 5 -0.014832 0.003494 0.002967 0.000000 0.041538 0.000000
# 6 0.000000 0.000000 0.000000 -0.005911 0.000000 0.044222
#
#
# Mechanical properties :
#
#
# Convention : Reuss Voigt Hill
#
# Bulk Modulus (GPa) = 26.72004 39.07025 32.89515
# Shear Modulus (GPa) = 21.87416 27.82564 24.84990
#
# Velocity S-wave (km/s) = 3.42034 3.85768 3.64558
# Velocity P-wave (km/s) = 5.46706 6.38262 5.94250
#
# Compressibility (1/GPa) = 0.03742509
#
# Stress axis : x y z
#
# Youngs Moduli (GPa) = 27.67559 44.25352 102.55932
#
# Poissons Ratio (x) = 0.24796 0.87342
# Poissons Ratio (y) = 0.15507 0.14443
# Poissons Ratio (z) = 0.23569 0.06232
#
# Static dielectric constant tensor:
#      x y z
#    x 3.322870 0.000000 -0.156050 
#    y 0.000000 3.400860 0.000000 
#    z -0.156050 0.000000 4.055490 
# 
# 
# High freq. dielectric constant tensor:
#      x y z
#    x 1.690790 0.000000 0.001370 
#    y 0.000000 1.726710 0.000000 
#    z 0.001370 0.000000 1.749040 
# 
# From -- ./inp_files/72194.got.cif
#   From: 2010.06.25/outbox.cif.g09.slc.cpg/sg11_37_cif.got.tgz:72194.got - 2010.06.27 23:14:04.
