data_PCOD8071890
_publ_section_title
;
Structure prediction by ZEFSAII (Michael W. Deem and Ramdas Pophale) SiO2 
 PCOD8071890
Probable space group: P 21/M
;
_chemical_formula_sum "Si O2"
_cell_formula_units_Z 32
_cell_length_a 32.409810
_cell_length_b 8.772148
_cell_length_c 13.724715
_cell_angle_alpha 90.000000
_cell_angle_beta 155.188506
_cell_angle_gamma 90.000000
_cell_volume 1637.406940
_symmetry_space_group_name_H-M "P 21/M"
_symmetry_group_IT_number 11
_symmetry_cell_setting 'monoclinic'
loop_
_space_group_symop_operation_xyz
x,y,z
-x,1/2+y,-z
-x,-y,-z
x,1/2-y,z
loop_
_atom_site_type_symbol
_atom_site_label
_atom_site_fract_x
_atom_site_fract_y
_atom_site_fract_z
Si Si1 0.019502 0.931411 0.437213
Si Si2 0.147253 0.430662 0.066380
Si Si3 0.770665 0.069291 0.186314
Si Si4 0.642800 0.569099 0.561783
Si Si5 0.264611 0.930379 0.670368
Si Si6 0.600934 0.069159 0.679966
Si Si7 0.101899 0.069290 0.184778
Si Si8 0.521031 0.428950 0.941548
O O1 0.017961 0.750000 0.440754
O O2 0.123868 0.993129 0.622237
O O3 0.000000 0.000000 0.500000
O O4 0.936161 0.993016 0.185171
O O5 0.144996 0.250000 0.063717
O O6 0.253155 0.487724 0.257178
O O7 0.126656 0.494097 0.130193
O O8 0.770794 0.250000 0.184885
O O9 0.748934 0.011619 0.248468
O O10 0.686952 0.006650 0.934729
O O11 0.639642 0.750000 0.572399
O O12 0.624280 0.484045 0.622112
O O13 0.559653 0.514305 0.308441
O O14 0.247175 0.750000 0.623686
O O15 0.187496 0.018441 0.439589
O O16 0.372647 0.979940 0.868242
O O17 0.593773 0.250000 0.668804
O O18 0.500000 0.000000 0.500000
O O19 0.092987 0.250000 0.165702
O O20 0.000000 0.000000 0.000000
O O21 0.514052 0.250000 0.938513
O O22 0.500000 0.500000 0.000000
#
# Coordination Sequence:
#
# PCOD8071890 Si02
#       8
#     4   4   4   4   4   4   4   4
#     4  10  19  34  55  79 105 138 175 216 263 317
#     4   9  19  35  57  80 108 145 181 217 269 329
#     4   9  19  36  57  77 106 146 184 219 270 331
#     4  10  20  37  58  82 111 146 185 229 279 333
#     4  10  20  37  58  80 107 145 187 228 273 327
#     4  11  22  37  57  82 110 146 187 231 280 334
#     4  11  22  38  59  84 112 146 185 228 276 331
#     4  10  21  36  57  82 113 150 187 230 284 340
#
# _framework density 19.543095000000001
#
# number of rings (size 3 to 8) (size 9 to 14) (size 15 to 20)
#    0.000    2.000    0.000    3.750    0.000    6.000 
#    0.000    7.500    0.000    0.000    0.000    0.000 
#    0.000    0.000    0.000    0.000    0.000    0.000 
#
# Total GULP energy -396901.480148 kJ/mol
# GULP energy per Si atom -12403.171255 kJ/mol
# Density = 1.949861 g / cm^3
# Si number density = 19.543095 Si / 1000 Ang^3
#
#
#
# Elastic Constant Matrix: (Units=GPa)
#
#
# Indices 1 2 3 4 5 6 
#
# 1 216.2148 40.5344 117.4674 0.0000 0.3093 0.0000
# 2 40.5344 37.4587 40.2052 0.0000 0.5429 0.0000
# 3 117.4674 40.2052 214.6070 0.0000 0.9799 0.0000
# 4 0.0000 0.0000 0.0000 28.1133 0.0000 -3.5859
# 5 0.3093 0.5429 0.9799 0.0000 47.3449 0.0000
# 6 0.0000 0.0000 0.0000 -3.5859 0.0000 34.8162
#
#
#
# Elastic Compliance Matrix: (Units=1/GPa)
#
#
# Indices 1 2 3 4 5 6 
#
# 1 0.007120 -0.004409 -0.003072 0.000000 0.000068 0.000000
# 2 -0.004409 0.036148 -0.004357 0.000000 -0.000296 0.000000
# 3 -0.003072 -0.004357 0.007158 0.000000 -0.000078 0.000000
# 4 0.000000 0.000000 0.000000 0.036044 0.000000 0.003712
# 5 0.000068 -0.000296 -0.000078 0.000000 0.021126 0.000000
# 6 0.000000 0.000000 0.000000 0.003712 0.000000 0.029105
#
#
# Mechanical properties :
#
#
# Convention : Reuss Voigt Hill
#
# Bulk Modulus (GPa) = 37.38315 96.07716 66.73015
# Shear Modulus (GPa) = 29.53438 40.05979 34.79709
#
# Velocity S-wave (km/s) = 3.89169 4.53240 4.22421
# Velocity P-wave (km/s) = 6.27405 8.75549 7.61651
#
# Compressibility (1/GPa) = 0.02675002
#
# Stress axis : x y z
#
# Youngs Moduli (GPa) = 140.44289 27.66371 139.70964
#
# Poissons Ratio (x) = 0.12197 0.42914
# Poissons Ratio (y) = 0.61922 0.60878
# Poissons Ratio (z) = 0.43140 0.12054
#
# Static dielectric constant tensor:
#      x y z
#    x 3.744510 0.000000 0.047070 
#    y 0.000000 3.188700 0.000000 
#    z 0.047070 0.000000 3.944430 
# 
# 
# High freq. dielectric constant tensor:
#      x y z
#    x 1.782820 0.000000 0.001220 
#    y 0.000000 1.730320 0.000000 
#    z 0.001220 0.000000 1.783980 
# 
# From -- ./inp_files/45372.got.cif
#   From: 2010.06.25/outbox.cif.g09.slc.cpg/sg11_23_cif.got.tgz:45372.got - 2010.06.27 23:14:04.
