data_PCOD8071061
_publ_section_title
;
Structure prediction by ZEFSAII (Michael W. Deem and Ramdas Pophale) SiO2 
 PCOD8071061
Probable space group: P 21/M
;
_chemical_formula_sum "Si O2"
_cell_formula_units_Z 32
_cell_length_a 23.781696
_cell_length_b 9.165026
_cell_length_c 20.829130
_cell_angle_alpha 90.000000
_cell_angle_beta 23.578559
_cell_angle_gamma 90.000000
_cell_volume 1815.993356
_symmetry_space_group_name_H-M "P 21/M"
_symmetry_group_IT_number 11
_symmetry_cell_setting 'monoclinic'
loop_
_space_group_symop_operation_xyz
x,y,z
-x,1/2+y,-z
-x,-y,-z
x,1/2-y,z
loop_
_atom_site_type_symbol
_atom_site_label
_atom_site_fract_x
_atom_site_fract_y
_atom_site_fract_z
Si Si1 0.589871 0.081102 0.148452
Si Si2 0.133843 0.918611 0.385667
Si Si3 0.965981 0.078159 0.379801
Si Si4 0.930140 0.080701 0.275574
Si Si5 0.461230 0.578648 0.605743
Si Si6 0.247182 0.078942 0.914970
Si Si7 0.670724 0.916826 0.501327
Si Si8 0.763900 0.417817 0.850428
O O1 0.615892 0.250000 0.141503
O O2 0.429165 0.040396 0.333529
O O3 0.696652 0.980416 0.076127
O O4 0.619952 0.054383 0.041060
O O5 0.095857 0.750000 0.423545
O O6 0.154518 0.960506 0.439628
O O7 0.258451 0.953394 0.203134
O O8 0.000000 0.000000 0.500000
O O9 0.989663 0.250000 0.347474
O O10 0.921414 0.014487 0.357214
O O11 0.114055 0.013544 0.246568
O O12 0.895893 0.250000 0.313370
O O13 0.812694 0.008562 0.353928
O O14 0.080836 0.049865 0.086071
O O15 0.500000 0.500000 0.500000
O O16 0.436987 0.750000 0.619817
O O17 0.317847 0.507796 0.782373
O O18 0.587066 0.548880 0.523769
O O19 0.282374 0.250000 0.872696
O O20 0.716320 0.750000 0.457078
O O21 0.809998 0.250000 0.810010
#
# Coordination Sequence:
#
# PCOD8071061 Si02
#       8
#     4   4   4   4   4   4   4   4
#     4   9  17  30  47  70  98 127 167 214 255 299
#     4   8  14  23  37  59  89 123 158 202 253 300
#     4   9  16  27  41  63  96 128 161 204 252 297
#     4  10  20  32  48  73 103 134 169 206 246 294
#     4  10  21  39  61  84 106 131 163 197 237 286
#     4  10  19  32  52  78 104 132 167 204 243 287
#     4   9  20  35  51  73 101 131 163 201 243 288
#     4   9  15  24  42  67  91 121 164 209 255 303
#
# _framework density 17.621210000000001
#
# number of rings (size 3 to 8) (size 9 to 14) (size 15 to 20)
#    0.000    2.750    1.250    1.500    0.000    4.000 
#    0.000    0.625    0.000    0.750    0.000    0.000 
#    0.000    0.000    0.000    0.000    0.000    0.250 
#
# Total GULP energy -396423.574403 kJ/mol
# GULP energy per Si atom -12388.236700 kJ/mol
# Density = 1.758110 g / cm^3
# Si number density = 17.621210 Si / 1000 Ang^3
#
#
#
# Elastic Constant Matrix: (Units=GPa)
#
#
# Indices 1 2 3 4 5 6 
#
# 1 79.6721 38.4465 61.8373 0.0000 22.7429 0.0000
# 2 38.4465 63.0418 50.7196 0.0000 4.3540 0.0000
# 3 61.8373 50.7196 108.0120 0.0000 17.2556 0.0000
# 4 0.0000 0.0000 0.0000 25.9062 0.0000 0.0764
# 5 22.7429 4.3540 17.2556 0.0000 37.2829 0.0000
# 6 0.0000 0.0000 0.0000 0.0764 0.0000 22.3080
#
#
#
# Elastic Compliance Matrix: (Units=1/GPa)
#
#
# Indices 1 2 3 4 5 6 
#
# 1 0.027421 -0.007633 -0.010349 0.000000 -0.011045 0.000000
# 2 -0.007633 0.027886 -0.009663 0.000000 0.005872 0.000000
# 3 -0.010349 -0.009663 0.020011 0.000000 -0.001820 0.000000
# 4 0.000000 0.000000 0.000000 0.038601 0.000000 -0.000132
# 5 -0.011045 0.005872 -0.001820 0.000000 0.033716 0.000000
# 6 0.000000 0.000000 0.000000 -0.000132 0.000000 0.044827
#
#
# Mechanical properties :
#
#
# Convention : Reuss Voigt Hill
#
# Bulk Modulus (GPa) = 49.93132 61.41474 55.67303
# Shear Modulus (GPa) = 19.65182 23.74759 21.69971
#
# Velocity S-wave (km/s) = 3.34314 3.67505 3.51301
# Velocity P-wave (km/s) = 6.58024 7.27574 6.93671
#
# Compressibility (1/GPa) = 0.02002751
#
# Stress axis : x y z
#
# Youngs Moduli (GPa) = 36.46894 35.86026 49.97157
#
# Poissons Ratio (x) = 0.27373 0.51718
# Poissons Ratio (y) = 0.27838 0.48285
# Poissons Ratio (z) = 0.37743 0.34650
#
# Static dielectric constant tensor:
#      x y z
#    x 3.295010 0.000000 0.505730 
#    y 0.000000 3.265740 0.000000 
#    z 0.505730 0.000000 3.321300 
# 
# 
# High freq. dielectric constant tensor:
#      x y z
#    x 1.659120 0.000000 0.037040 
#    y 0.000000 1.684040 0.000000 
#    z 0.037040 0.000000 1.671630 
# 
# From -- ./inp_files/70334.got.cif
#   From: 2010.06.25/outbox.cif.g09.slc.cpg/sg11_36_cif.got.tgz:70334.got - 2010.06.27 23:14:04.
