data_PCOD8071968
_publ_section_title
;
Structure prediction by ZEFSAII (Michael W. Deem and Ramdas Pophale) SiO2 
 PCOD8071968
Probable space group: P 21/M
;
_chemical_formula_sum "Si O2"
_cell_formula_units_Z 32
_cell_length_a 24.852005
_cell_length_b 14.015954
_cell_length_c 9.024563
_cell_angle_alpha 90.000000
_cell_angle_beta 31.819770
_cell_angle_gamma 90.000000
_cell_volume 1657.395132
_symmetry_space_group_name_H-M "P 21/M"
_symmetry_group_IT_number 11
_symmetry_cell_setting 'monoclinic'
loop_
_space_group_symop_operation_xyz
x,y,z
-x,1/2+y,-z
-x,-y,-z
x,1/2-y,z
loop_
_atom_site_type_symbol
_atom_site_label
_atom_site_fract_x
_atom_site_fract_y
_atom_site_fract_z
Si Si1 0.622694 0.138418 0.397042
Si Si2 0.318197 0.140744 0.487174
Si Si3 0.505569 0.523246 0.816601
Si Si4 0.283377 0.516430 0.335655
Si Si5 0.173813 0.147905 0.079668
Si Si6 0.222710 0.962907 0.154432
Si Si7 0.046074 0.897326 0.391110
Si Si8 0.799178 0.356556 0.220726
O O1 0.591455 0.250000 0.445306
O O2 0.702226 0.127473 0.343850
O O3 0.527211 0.071756 0.666574
O O4 0.672975 0.092706 0.131924
O O5 0.343121 0.250000 0.389322
O O6 0.404966 0.102307 0.400237
O O7 0.308149 0.085377 0.354426
O O8 0.212028 0.127232 0.823220
O O9 0.500000 0.500000 0.000000
O O10 0.393438 0.563912 0.036146
O O11 0.219434 0.509425 0.334260
O O12 0.212379 0.576813 0.610747
O O13 0.221107 0.250000 0.023061
O O14 0.051998 0.168583 0.356274
O O15 0.210444 0.062735 0.097938
O O16 0.130027 0.890744 0.326669
O O17 0.098110 0.877385 0.110847
O O18 0.000000 0.000000 0.500000
O O19 0.803390 0.250000 0.272405
#
# Coordination Sequence:
#
# PCOD8071968 Si02
#       8
#     4   4   4   4   4   4   4   4
#     4  10  19  36  58  79 110 152 199 240 276 333
#     4  10  20  37  59  82 112 151 202 241 276 343
#     4  10  19  35  57  82 110 150 197 232 282 335
#     4  11  22  36  56  83 121 153 184 240 298 346
#     4  10  19  37  63  84 110 151 200 242 283 345
#     4  10  21  37  57  84 121 148 187 243 300 341
#     4   9  18  35  60  82 107 147 194 235 285 342
#     4  10  19  34  56  81 112 150 195 237 279 338
#
# _framework density 19.307404999999999
#
# number of rings (size 3 to 8) (size 9 to 14) (size 15 to 20)
#    0.000    2.000    3.750    1.875    0.000    4.500 
#    0.000    5.625    0.000    3.000    0.000    0.000 
#    0.000    0.000    0.000    0.000    0.000    0.000 
#
# Total GULP energy -396448.527102 kJ/mol
# GULP energy per Si atom -12389.016472 kJ/mol
# Density = 1.926346 g / cm^3
# Si number density = 19.307405 Si / 1000 Ang^3
#
#
#
# Elastic Constant Matrix: (Units=GPa)
#
#
# Indices 1 2 3 4 5 6 
#
# 1 78.2659 32.4937 36.3203 0.0000 17.0377 0.0000
# 2 32.4937 109.3102 33.2942 0.0000 14.4165 0.0000
# 3 36.3203 33.2942 117.9784 0.0000 -3.3276 0.0000
# 4 0.0000 0.0000 0.0000 11.3975 0.0000 2.8647
# 5 17.0377 14.4165 -3.3276 0.0000 22.3025 0.0000
# 6 0.0000 0.0000 0.0000 2.8647 0.0000 11.0389
#
#
#
# Elastic Compliance Matrix: (Units=1/GPa)
#
#
# Indices 1 2 3 4 5 6 
#
# 1 0.019482 -0.002128 -0.005802 0.000000 -0.014373 0.000000
# 2 -0.002128 0.011431 -0.002745 0.000000 -0.006173 0.000000
# 3 -0.005802 -0.002745 0.011259 0.000000 0.007887 0.000000
# 4 0.000000 0.000000 0.000000 0.093861 0.000000 -0.024358
# 5 -0.014373 -0.006173 0.007887 0.000000 0.060985 0.000000
# 6 0.000000 0.000000 0.000000 -0.024358 0.000000 0.096910
#
#
# Mechanical properties :
#
#
# Convention : Reuss Voigt Hill
#
# Bulk Modulus (GPa) = 48.02715 56.64120 52.33417
# Shear Modulus (GPa) = 15.51731 22.51086 19.01408
#
# Velocity S-wave (km/s) = 2.83803 3.41826 3.14157
# Velocity P-wave (km/s) = 5.97229 6.70668 6.35011
#
# Compressibility (1/GPa) = 0.02082156
#
# Stress axis : x y z
#
# Youngs Moduli (GPa) = 51.32888 87.48087 88.81392
#
# Poissons Ratio (x) = 0.18619 0.51534
# Poissons Ratio (y) = 0.10925 0.24378
# Poissons Ratio (z) = 0.29783 0.24012
#
# Static dielectric constant tensor:
#      x y z
#    x 1.715060 0.000000 2.520790 
#    y 0.000000 4.006190 0.000000 
#    z 2.520790 0.000000 -0.847640 
# 
# 
# High freq. dielectric constant tensor:
#      x y z
#    x 1.704870 0.000000 -0.003010 
#    y 0.000000 1.757590 0.000000 
#    z -0.003010 0.000000 1.767500 
# 
# From -- ./inp_files/22188.got.cif
#   From: 2010.06.25/outbox.cif.g09.slc.cpg/sg11_12_cif.got.tgz:22188.got - 2010.06.27 23:14:04.
