data_PCOD8071722
_publ_section_title
;
Structure prediction by ZEFSAII (Michael W. Deem and Ramdas Pophale) SiO2 
 PCOD8071722
Probable space group: P 21/M
;
_chemical_formula_sum "Si O2"
_cell_formula_units_Z 32
_cell_length_a 23.874678
_cell_length_b 10.336248
_cell_length_c 11.805537
_cell_angle_alpha 90.000000
_cell_angle_beta 143.505347
_cell_angle_gamma 90.000000
_cell_volume 1732.682583
_symmetry_space_group_name_H-M "P 21/M"
_symmetry_group_IT_number 11
_symmetry_cell_setting 'monoclinic'
loop_
_space_group_symop_operation_xyz
x,y,z
-x,1/2+y,-z
-x,-y,-z
x,1/2-y,z
loop_
_atom_site_type_symbol
_atom_site_label
_atom_site_fract_x
_atom_site_fract_y
_atom_site_fract_z
Si Si1 0.992839 0.104842 0.392746
Si Si2 0.308086 0.599672 0.360753
Si Si3 0.491647 0.104434 0.386937
Si Si4 0.326412 0.481670 0.965254
Si Si5 0.218148 0.602523 0.991379
Si Si6 0.430038 0.892554 0.934042
Si Si7 0.176356 0.106605 0.547422
Si Si8 0.242906 0.604353 0.491120
O O1 0.999240 0.250000 0.455079
O O2 0.892906 0.085275 0.169113
O O3 0.076088 0.081426 0.440735
O O4 0.000000 0.000000 0.500000
O O5 0.283072 0.750000 0.318162
O O6 0.420201 0.577480 0.552890
O O7 0.254720 0.544485 0.384228
O O8 0.269387 0.533601 0.181843
O O9 0.498878 0.250000 0.450468
O O10 0.396559 0.099612 0.158828
O O11 0.500000 0.000000 0.500000
O O12 0.250913 0.549370 0.923801
O O13 0.390542 0.578771 0.995798
O O14 0.263422 0.396696 0.777447
O O15 0.249920 0.750000 0.041352
O O16 0.478978 0.750000 0.017844
O O17 0.345858 0.886832 0.709645
O O18 0.500000 0.000000 0.000000
O O19 0.178977 0.250000 0.496846
O O20 0.180056 0.996239 0.458429
O O21 0.198067 0.750000 0.420095
#
# Coordination Sequence:
#
# PCOD8071722 Si02
#       8
#     4   4   4   4   4   4   4   4
#     4  10  20  35  56  84 111 142 178 222 276 334
#     4   9  18  35  56  78 107 144 186 226 262 314
#     4  11  22  35  53  79 111 146 183 224 270 324
#     4  11  20  34  56  80 111 143 186 221 277 324
#     4  10  19  33  57  83 109 142 181 224 272 326
#     4  10  21  34  52  78 107 143 185 231 274 325
#     4  10  21  36  55  82 115 142 174 225 283 326
#     4   9  19  36  57  77 102 142 190 224 262 321
#
# _framework density 18.468471999999998
#
# number of rings (size 3 to 8) (size 9 to 14) (size 15 to 20)
#    0.000    2.000    2.500    1.500    0.000    5.000 
#    0.000    1.250    0.000    0.000    0.000    0.000 
#    0.000    0.000    0.000    0.000    0.000    0.000 
#
# Total GULP energy -396562.531712 kJ/mol
# GULP energy per Si atom -12392.579116 kJ/mol
# Density = 1.842644 g / cm^3
# Si number density = 18.468472 Si / 1000 Ang^3
#
#
#
# Elastic Constant Matrix: (Units=GPa)
#
#
# Indices 1 2 3 4 5 6 
#
# 1 131.4874 70.5844 37.7496 0.0000 1.7955 0.0000
# 2 70.5844 113.0075 21.1304 0.0000 7.8696 0.0000
# 3 37.7496 21.1304 53.8544 0.0000 9.2440 0.0000
# 4 0.0000 0.0000 0.0000 19.6342 0.0000 4.0610
# 5 1.7955 7.8696 9.2440 0.0000 31.4808 0.0000
# 6 0.0000 0.0000 0.0000 4.0610 0.0000 30.1883
#
#
#
# Elastic Compliance Matrix: (Units=1/GPa)
#
#
# Indices 1 2 3 4 5 6 
#
# 1 0.013569 -0.007355 -0.007169 0.000000 0.003170 0.000000
# 2 -0.007355 0.013592 0.000352 0.000000 -0.003081 0.000000
# 3 -0.007169 0.000352 0.024643 0.000000 -0.006915 0.000000
# 4 0.000000 0.000000 0.000000 0.052389 0.000000 -0.007047
# 5 0.003170 -0.003081 -0.006915 0.000000 0.034385 0.000000
# 6 0.000000 0.000000 0.000000 -0.007047 0.000000 0.034073
#
#
# Mechanical properties :
#
#
# Convention : Reuss Voigt Hill
#
# Bulk Modulus (GPa) = 42.62963 61.91980 52.27471
# Shear Modulus (GPa) = 23.94448 27.51964 25.73206
#
# Velocity S-wave (km/s) = 3.60461 3.86435 3.73674
# Velocity P-wave (km/s) = 6.36056 7.31512 6.85448
#
# Compressibility (1/GPa) = 0.02345786
#
# Stress axis : x y z
#
# Youngs Moduli (GPa) = 73.69916 73.57341 40.57962
#
# Poissons Ratio (x) = 0.54115 0.29093
# Poissons Ratio (y) = 0.54207 -0.01427
# Poissons Ratio (z) = 0.52837 -0.02587
#
# Static dielectric constant tensor:
#      x y z
#    x 3.459000 0.000000 -0.120920 
#    y 0.000000 3.457120 0.000000 
#    z -0.120920 0.000000 3.429050 
# 
# 
# High freq. dielectric constant tensor:
#      x y z
#    x 1.720220 0.000000 0.003780 
#    y 0.000000 1.705060 0.000000 
#    z 0.003780 0.000000 1.706290 
# 
# From -- ./inp_files/43159.got.cif
#   From: 2010.06.25/outbox.cif.g09.slc.cpg/sg11_22_cif.got.tgz:43159.got - 2010.06.27 23:14:04.
