data_PCOD8071780
_publ_section_title
;
Structure prediction by ZEFSAII (Michael W. Deem and Ramdas Pophale) SiO2 
 PCOD8071780
Probable space group: P 21/M
;
_chemical_formula_sum "Si O2"
_cell_formula_units_Z 28
_cell_length_a 9.537818
_cell_length_b 14.224514
_cell_length_c 13.023739
_cell_angle_alpha 90.000000
_cell_angle_beta 132.672404
_cell_angle_gamma 90.000000
_cell_volume 1299.128025
_symmetry_space_group_name_H-M "P 21/M"
_symmetry_group_IT_number 11
_symmetry_cell_setting 'monoclinic'
loop_
_space_group_symop_operation_xyz
x,y,z
-x,1/2+y,-z
-x,-y,-z
x,1/2-y,z
loop_
_atom_site_type_symbol
_atom_site_label
_atom_site_fract_x
_atom_site_fract_y
_atom_site_fract_z
Si Si1 0.951447 0.639534 0.840741
Si Si2 0.409078 0.458141 0.250242
Si Si3 0.787677 0.359440 0.834443
Si Si4 0.197480 0.636798 0.540917
Si Si5 0.031738 0.357287 0.765295
Si Si6 0.154847 0.646629 0.744038
Si Si7 0.436315 0.088989 0.030917
O O1 0.912659 0.750000 0.809855
O O2 0.753129 0.589129 0.761440
O O3 0.045510 0.593637 0.783134
O O4 0.100213 0.622152 0.005230
O O5 0.397719 0.572151 0.257324
O O6 0.607913 0.417585 0.389655
O O7 0.371427 0.432407 0.113765
O O8 0.724799 0.250000 0.792166
O O9 0.924186 0.398375 0.811273
O O10 0.232177 0.750000 0.560608
O O11 0.123316 0.600494 0.615949
O O12 0.045058 0.601796 0.380870
O O13 0.972966 0.250000 0.735991
O O14 0.258945 0.366427 0.882982
O O15 0.066444 0.750000 0.697900
O O16 0.381279 0.656977 0.878063
O O17 0.500000 0.000000 0.000000
#
# Coordination Sequence:
#
# PCOD8071780 Si02
#       7
#     4   4   4   4   4   4   4
#     4  10  19  33  60  93 123 155 198 254 305 357
#     4  11  21  36  62  91 121 160 202 254 298 362
#     4  10  21  35  58  89 119 156 202 254 309 355
#     4   9  20  39  62  89 122 163 205 242 295 364
#     4  10  21  39  62  87 122 161 199 247 301 361
#     4   9  19  35  57  86 120 157 200 246 292 355
#     4  11  22  35  60  90 115 154 202 251 302 358
#
# _framework density 21.552917999999998
#
# number of rings (size 3 to 8) (size 9 to 14) (size 15 to 20)
#    0.000    2.000    1.429    2.143    2.000    1.714 
#    0.000    3.571    6.286    0.000    0.000    1.000 
#    0.000    0.000    0.000    0.000    0.000    0.000 
#
# Total GULP energy -347030.853987 kJ/mol
# GULP energy per Si atom -12393.959071 kJ/mol
# Density = 2.150386 g / cm^3
# Si number density = 21.552918 Si / 1000 Ang^3
#
#
#
# Elastic Constant Matrix: (Units=GPa)
#
#
# Indices 1 2 3 4 5 6 
#
# 1 148.0944 22.8203 66.2554 0.0000 -28.2930 0.0000
# 2 22.8203 33.1500 10.9018 0.0000 -9.9254 0.0000
# 3 66.2554 10.9018 139.0508 0.0000 -15.8966 0.0000
# 4 0.0000 0.0000 0.0000 14.0528 0.0000 2.2715
# 5 -28.2930 -9.9254 -15.8966 0.0000 26.1150 0.0000
# 6 0.0000 0.0000 0.0000 2.2715 0.0000 30.0950
#
#
#
# Elastic Compliance Matrix: (Units=1/GPa)
#
#
# Indices 1 2 3 4 5 6 
#
# 1 0.010496 -0.003676 -0.003840 0.000000 0.007637 0.000000
# 2 -0.003676 0.035540 0.000058 0.000000 0.009560 0.000000
# 3 -0.003840 0.000058 0.009183 0.000000 0.001452 0.000000
# 4 0.000000 0.000000 0.000000 0.072039 0.000000 -0.005437
# 5 0.007637 0.009560 0.001452 0.000000 0.051083 0.000000
# 6 0.000000 0.000000 0.000000 -0.005437 0.000000 0.033638
#
#
# Mechanical properties :
#
#
# Convention : Reuss Voigt Hill
#
# Bulk Modulus (GPa) = 24.81217 57.80557 41.30887
# Shear Modulus (GPa) = 20.80488 28.74040 24.77264
#
# Velocity S-wave (km/s) = 3.11029 3.65565 3.39394
# Velocity P-wave (km/s) = 4.94325 6.68557 5.87931
#
# Compressibility (1/GPa) = 0.04030280
#
# Stress axis : x y z
#
# Youngs Moduli (GPa) = 95.27698 28.13750 108.90138
#
# Poissons Ratio (x) = 0.10343 0.41816
# Poissons Ratio (y) = 0.35024 -0.00633
# Poissons Ratio (z) = 0.36584 -0.00164
#
# Static dielectric constant tensor:
#      x y z
#    x 4.021930 0.000000 -0.377330 
#    y 0.000000 3.896790 0.000000 
#    z -0.377330 0.000000 3.814590 
# 
# 
# High freq. dielectric constant tensor:
#      x y z
#    x 1.848260 0.000000 -0.020860 
#    y 0.000000 1.843670 0.000000 
#    z -0.020860 0.000000 1.834770 
# 
# From -- ./inp_files/31961.got.cif
#   From: 2010.06.25/outbox.cif.g09.slc.cpg/sg11_16_cif.got.tgz:31961.got - 2010.06.27 23:14:04.
