data_PCOD8071251
_publ_section_title
;
Structure prediction by ZEFSAII (Michael W. Deem and Ramdas Pophale) SiO2 
 PCOD8071251
Probable space group: P 21/M
;
_chemical_formula_sum "Si O2"
_cell_formula_units_Z 32
_cell_length_a 11.499722
_cell_length_b 8.903174
_cell_length_c 16.281616
_cell_angle_alpha 90.000000
_cell_angle_beta 92.902400
_cell_angle_gamma 90.000000
_cell_volume 1664.839058
_symmetry_space_group_name_H-M "P 21/M"
_symmetry_group_IT_number 11
_symmetry_cell_setting 'monoclinic'
loop_
_space_group_symop_operation_xyz
x,y,z
-x,1/2+y,-z
-x,-y,-z
x,1/2-y,z
loop_
_atom_site_type_symbol
_atom_site_label
_atom_site_fract_x
_atom_site_fract_y
_atom_site_fract_z
Si Si1 0.494192 0.571929 0.910353
Si Si2 0.330841 0.073255 0.448296
Si Si3 0.311051 0.572124 0.773219
Si Si4 0.579868 0.427039 0.391517
Si Si5 0.284226 0.573828 0.154026
Si Si6 0.050543 0.578635 0.759191
Si Si7 0.072160 0.078378 0.072421
Si Si8 0.162776 0.574743 0.320278
O O1 0.503438 0.750000 0.919582
O O2 0.374989 0.522588 0.859885
O O3 0.596613 0.513615 0.855728
O O4 0.500000 0.500000 0.000000
O O5 0.316808 0.250000 0.452969
O O6 0.446146 0.025844 0.401726
O O7 0.336760 0.007584 0.539995
O O8 0.218071 0.006029 0.400398
O O9 0.304083 0.750000 0.771353
O O10 0.384130 0.514872 0.697259
O O11 0.180101 0.507098 0.764203
O O12 0.596911 0.250000 0.402352
O O13 0.302169 0.750000 0.140071
O O14 0.191770 0.512831 0.084966
O O15 0.240367 0.535679 0.243611
O O16 0.051412 0.750000 0.727738
O O17 0.003740 0.568413 0.849031
O O18 0.968820 0.483595 0.695590
O O19 0.100785 0.250000 0.050186
O O20 0.000000 0.000000 0.000000
O O21 0.158305 0.750000 0.337162
#
# Coordination Sequence:
#
# PCOD8071251 Si02
#       8
#     4   4   4   4   4   4   4   4
#     4  11  23  38  57  83 113 147 186 228 279 337
#     4  10  19  32  55  85 115 144 179 225 273 329
#     4   9  19  37  59  79 108 147 183 223 276 334
#     4   9  18  34  56  83 111 144 182 223 272 326
#     4  10  21  37  55  77 108 142 183 231 277 326
#     4   9  19  36  56  78 104 143 185 225 275 332
#     4  10  20  33  54  80 106 139 181 230 281 331
#     4  10  20  35  56  82 110 143 182 231 278 322
#
# _framework density 19.221077000000001
#
# number of rings (size 3 to 8) (size 9 to 14) (size 15 to 20)
#    0.000    2.250    0.000    2.625    1.750    3.500 
#    0.000    3.750    0.000    0.000    0.000    0.000 
#    0.000    0.000    0.000    0.000    0.000    0.000 
#
# Total GULP energy -396862.105996 kJ/mol
# GULP energy per Si atom -12401.940812 kJ/mol
# Density = 1.917733 g / cm^3
# Si number density = 19.221077 Si / 1000 Ang^3
#
#
#
# Elastic Constant Matrix: (Units=GPa)
#
#
# Indices 1 2 3 4 5 6 
#
# 1 122.0088 34.1608 52.7121 0.0000 21.3688 0.0000
# 2 34.1608 72.0498 42.3970 0.0000 12.2938 0.0000
# 3 52.7121 42.3970 102.2027 0.0000 28.2132 0.0000
# 4 0.0000 0.0000 0.0000 30.6537 0.0000 5.3701
# 5 21.3688 12.2938 28.2132 0.0000 35.2387 0.0000
# 6 0.0000 0.0000 0.0000 5.3701 0.0000 28.6239
#
#
#
# Elastic Compliance Matrix: (Units=1/GPa)
#
#
# Indices 1 2 3 4 5 6 
#
# 1 0.011060 -0.002467 -0.003937 0.000000 -0.002694 0.000000
# 2 -0.002467 0.018916 -0.006631 0.000000 0.000206 0.000000
# 3 -0.003937 -0.006631 0.017033 0.000000 -0.008936 0.000000
# 4 0.000000 0.000000 0.000000 0.033731 0.000000 -0.006328
# 5 -0.002694 0.000206 -0.008936 0.000000 0.037094 0.000000
# 6 0.000000 0.000000 0.000000 -0.006328 0.000000 0.036123
#
#
# Mechanical properties :
#
#
# Convention : Reuss Voigt Hill
#
# Bulk Modulus (GPa) = 47.76217 61.64456 54.70337
# Shear Modulus (GPa) = 26.73695 30.03603 28.38649
#
# Velocity S-wave (km/s) = 3.73369 3.95734 3.84714
# Velocity P-wave (km/s) = 6.59470 7.28160 6.94664
#
# Compressibility (1/GPa) = 0.02093707
#
# Stress axis : x y z
#
# Youngs Moduli (GPa) = 90.41873 52.86497 58.71051
#
# Poissons Ratio (x) = 0.13044 0.23114
# Poissons Ratio (y) = 0.22310 0.38933
# Poissons Ratio (z) = 0.35598 0.35057
#
# Static dielectric constant tensor:
#      x y z
#    x 3.730020 0.000000 0.081540 
#    y 0.000000 3.460830 0.000000 
#    z 0.081540 0.000000 3.476420 
# 
# 
# High freq. dielectric constant tensor:
#      x y z
#    x 1.749980 0.000000 0.014830 
#    y 0.000000 1.742150 0.000000 
#    z 0.014830 0.000000 1.743690 
# 
# From -- ./inp_files/42807.got.cif
#   From: 2010.06.25/outbox.cif.g09.slc.cpg/sg11_22_cif.got.tgz:42807.got - 2010.06.27 23:14:04.
