data_PCOD8071772
_publ_section_title
;
Structure prediction by ZEFSAII (Michael W. Deem and Ramdas Pophale) SiO2 
 PCOD8071772
Probable space group: P 21/M
;
_chemical_formula_sum "Si O2"
_cell_formula_units_Z 28
_cell_length_a 11.545403
_cell_length_b 17.693577
_cell_length_c 20.207628
_cell_angle_alpha 90.000000
_cell_angle_beta 22.150208
_cell_angle_gamma 90.000000
_cell_volume 1556.406123
_symmetry_space_group_name_H-M "P 21/M"
_symmetry_group_IT_number 11
_symmetry_cell_setting 'monoclinic'
loop_
_space_group_symop_operation_xyz
x,y,z
-x,1/2+y,-z
-x,-y,-z
x,1/2-y,z
loop_
_atom_site_type_symbol
_atom_site_label
_atom_site_fract_x
_atom_site_fract_y
_atom_site_fract_z
Si Si1 0.442514 0.837023 0.553532
Si Si2 0.250927 0.971754 0.317568
Si Si3 0.064549 0.054568 0.219393
Si Si4 0.410916 0.569512 0.959636
Si Si5 0.702678 0.541600 0.184473
Si Si6 0.873053 0.663880 0.200812
Si Si7 0.752403 0.553177 0.485840
O O1 0.385126 0.750000 0.600687
O O2 0.622529 0.847939 0.390050
O O3 0.633132 0.871704 0.513543
O O4 0.113204 0.877337 0.721774
O O5 0.506837 0.926860 0.224843
O O6 0.069573 0.924153 0.356858
O O7 0.406483 0.045389 0.202416
O O8 0.000000 0.000000 0.500000
O O9 0.353473 0.089157 0.106181
O O10 0.828869 0.010333 0.391157
O O11 0.184857 0.999159 0.098641
O O12 0.208884 0.643078 0.051383
O O13 0.789678 0.613136 0.182214
O O14 0.505874 0.480114 0.329141
O O15 0.000000 0.500000 0.000000
O O16 0.882345 0.750000 0.171681
#
# Coordination Sequence:
#
# PCOD8071772 Si02
#       7
#     4   4   4   4   4   4   4
#     4  11  22  36  56  84 118 149 177 228 293 339
#     4   9  20  34  57  82 105 140 188 231 269 321
#     4  10  19  33  59  85 107 139 188 231 283 327
#     4  10  19  34  58  85 106 142 186 239 277 326
#     4  11  20  35  60  81 108 147 194 232 267 325
#     4  11  22  36  55  85 117 146 181 230 291 336
#     4  10  19  36  57  82 109 139 189 231 274 327
#
# _framework density 17.990164
#
# number of rings (size 3 to 8) (size 9 to 14) (size 15 to 20)
#    0.000    1.714    4.286    1.286    0.000    0.571 
#    0.000    1.429    0.000    0.000    0.000    0.000 
#    0.000    0.000    0.000    0.000    0.000    0.000 
#
# Total GULP energy -347137.340985 kJ/mol
# GULP energy per Si atom -12397.762178 kJ/mol
# Density = 1.794922 g / cm^3
# Si number density = 17.990164 Si / 1000 Ang^3
#
#
#
# Elastic Constant Matrix: (Units=GPa)
#
#
# Indices 1 2 3 4 5 6 
#
# 1 121.9006 69.9063 37.0779 0.0000 -26.8458 0.0000
# 2 69.9063 110.6625 45.7662 0.0000 -17.0596 0.0000
# 3 37.0779 45.7662 98.1393 0.0000 -7.1920 0.0000
# 4 0.0000 0.0000 0.0000 20.2107 0.0000 1.5422
# 5 -26.8458 -17.0596 -7.1920 0.0000 38.3835 0.0000
# 6 0.0000 0.0000 0.0000 1.5422 0.0000 22.9743
#
#
#
# Elastic Compliance Matrix: (Units=1/GPa)
#
#
# Indices 1 2 3 4 5 6 
#
# 1 0.014350 -0.007464 -0.001468 0.000000 0.006444 0.000000
# 2 -0.007464 0.015737 -0.004450 0.000000 0.000940 0.000000
# 3 -0.001468 -0.004450 0.012775 0.000000 -0.000611 0.000000
# 4 0.000000 0.000000 0.000000 0.049733 0.000000 -0.003338
# 5 0.006444 0.000940 -0.000611 0.000000 0.030863 0.000000
# 6 0.000000 0.000000 0.000000 -0.003338 0.000000 0.043751
#
#
# Mechanical properties :
#
#
# Convention : Reuss Voigt Hill
#
# Bulk Modulus (GPa) = 62.12530 70.68926 66.40728
# Shear Modulus (GPa) = 25.08298 28.17717 26.63008
#
# Velocity S-wave (km/s) = 3.73803 3.96189 3.85159
# Velocity P-wave (km/s) = 7.29646 7.76578 7.53478
#
# Compressibility (1/GPa) = 0.01609650
#
# Stress axis : x y z
#
# Youngs Moduli (GPa) = 69.68865 63.54528 78.27977
#
# Poissons Ratio (x) = 0.47431 0.11494
# Poissons Ratio (y) = 0.52016 0.34833
# Poissons Ratio (z) = 0.10233 0.28276
#
# Static dielectric constant tensor:
#      x y z
#    x 3.657880 0.000000 -0.067730 
#    y 0.000000 2.996000 0.000000 
#    z -0.067730 0.000000 3.520100 
# 
# 
# High freq. dielectric constant tensor:
#      x y z
#    x 1.714930 0.000000 -0.007520 
#    y 0.000000 1.649460 0.000000 
#    z -0.007520 0.000000 1.714970 
# 
# From -- ./inp_files/22723.got.cif
#   From: 2010.06.25/outbox.cif.g09.slc.cpg/sg11_12_cif.got.tgz:22723.got - 2010.06.27 23:14:04.
