data_PCOD8071183
_publ_section_title
;
Structure prediction by ZEFSAII (Michael W. Deem and Ramdas Pophale) SiO2 
 PCOD8071183
Probable space group: P 21/M
;
_chemical_formula_sum "Si O2"
_cell_formula_units_Z 28
_cell_length_a 18.297182
_cell_length_b 9.030778
_cell_length_c 9.538667
_cell_angle_alpha 90.000000
_cell_angle_beta 85.239764
_cell_angle_gamma 90.000000
_cell_volume 1570.711622
_symmetry_space_group_name_H-M "P 21/M"
_symmetry_group_IT_number 11
_symmetry_cell_setting 'monoclinic'
loop_
_space_group_symop_operation_xyz
x,y,z
-x,1/2+y,-z
-x,-y,-z
x,1/2-y,z
loop_
_atom_site_type_symbol
_atom_site_label
_atom_site_fract_x
_atom_site_fract_y
_atom_site_fract_z
Si Si1 0.512191 0.425011 0.348609
Si Si2 0.195275 0.422858 0.783133
Si Si3 0.642816 0.923318 0.160107
Si Si4 0.094310 0.579692 0.604726
Si Si5 0.562640 0.580057 0.908564
Si Si6 0.924815 0.923374 0.968336
Si Si7 0.946731 0.079952 0.699301
O O1 0.500000 0.500000 0.500000
O O2 0.519767 0.250000 0.371388
O O3 0.585921 0.484501 0.263102
O O4 0.441898 0.464483 0.256563
O O5 0.193355 0.250000 0.746846
O O6 0.276137 0.475639 0.812091
O O7 0.170673 0.515766 0.650913
O O8 0.140433 0.463485 0.916971
O O9 0.630652 0.750000 0.194764
O O10 0.635408 0.952198 0.990969
O O11 0.083096 0.750000 0.650222
O O12 0.097172 0.561750 0.437492
O O13 0.028617 0.484150 0.678953
O O14 0.541959 0.750000 0.918608
O O15 0.500000 0.500000 0.000000
O O16 0.937987 0.750000 0.954410
O O17 0.900929 0.989296 0.821710
O O18 0.000000 0.000000 0.000000
O O19 0.954810 0.250000 0.743358
#
# Coordination Sequence:
#
# PCOD8071183 Si02
#       7
#     4   4   4   4   4   4   4
#     4  10  19  32  53  82 110 139 173 211 251 303
#     4  10  21  35  53  76 104 135 172 217 267 318
#     4   9  18  35  55  76 103 137 173 215 262 309
#     4  10  20  33  52  74  99 134 172 214 265 317
#     4   8  15  29  51  75 101 132 170 207 246 296
#     4  11  21  33  51  76 102 134 175 220 265 313
#     4  10  20  34  51  73  99 129 172 221 266 315
#
# _framework density 17.826314
#
# number of rings (size 3 to 8) (size 9 to 14) (size 15 to 20)
#    0.000    2.286    1.429    1.714    0.000    3.429 
#    0.000    1.429    0.000    3.429    0.000    0.000 
#    0.000    0.000    0.000    0.000    0.000    0.000 
#
# Total GULP energy -346971.968902 kJ/mol
# GULP energy per Si atom -12391.856032 kJ/mol
# Density = 1.778574 g / cm^3
# Si number density = 17.826314 Si / 1000 Ang^3
#
#
#
# Elastic Constant Matrix: (Units=GPa)
#
#
# Indices 1 2 3 4 5 6 
#
# 1 104.7626 44.7684 62.3053 0.0000 22.4023 0.0000
# 2 44.7684 77.5190 59.0318 0.0000 8.1896 0.0000
# 3 62.3053 59.0318 136.6887 0.0000 19.9671 0.0000
# 4 0.0000 0.0000 0.0000 33.5020 0.0000 1.3648
# 5 22.4023 8.1896 19.9671 0.0000 29.0276 0.0000
# 6 0.0000 0.0000 0.0000 1.3648 0.0000 23.4748
#
#
#
# Elastic Compliance Matrix: (Units=1/GPa)
#
#
# Indices 1 2 3 4 5 6 
#
# 1 0.015797 -0.005491 -0.003640 0.000000 -0.008138 0.000000
# 2 -0.005491 0.021133 -0.007084 0.000000 0.003148 0.000000
# 3 -0.003640 -0.007084 0.012598 0.000000 -0.003858 0.000000
# 4 0.000000 0.000000 0.000000 0.029920 0.000000 -0.001739
# 5 -0.008138 0.003148 -0.003858 0.000000 0.042496 0.000000
# 6 0.000000 0.000000 0.000000 -0.001739 0.000000 0.042700
#
#
# Mechanical properties :
#
#
# Convention : Reuss Voigt Hill
#
# Bulk Modulus (GPa) = 58.48673 72.35346 65.42010
# Shear Modulus (GPa) = 24.65801 27.39188 26.02494
#
# Velocity S-wave (km/s) = 3.72322 3.92420 3.82503
# Velocity P-wave (km/s) = 7.16684 7.82359 7.50241
#
# Compressibility (1/GPa) = 0.01709789
#
# Stress axis : x y z
#
# Youngs Moduli (GPa) = 63.30198 47.31948 79.37789
#
# Poissons Ratio (x) = 0.25984 0.28897
# Poissons Ratio (y) = 0.34760 0.56228
# Poissons Ratio (z) = 0.23044 0.33519
#
# Static dielectric constant tensor:
#      x y z
#    x 3.264560 0.000000 0.434220 
#    y 0.000000 3.402710 0.000000 
#    z 0.434220 0.000000 3.825500 
# 
# 
# High freq. dielectric constant tensor:
#      x y z
#    x 1.657590 0.000000 0.025510 
#    y 0.000000 1.700130 0.000000 
#    z 0.025510 0.000000 1.701640 
# 
# From -- ./inp_files/25570.got.cif
#   From: 2010.06.25/outbox.cif.g09.slc.cpg/sg11_13_cif.got.tgz:25570.got - 2010.06.27 23:14:04.
