data_PCOD8071216
_publ_section_title
;
Structure prediction by ZEFSAII (Michael W. Deem and Ramdas Pophale) SiO2 
 PCOD8071216
Probable space group: P 21/M
;
_chemical_formula_sum "Si O2"
_cell_formula_units_Z 32
_cell_length_a 17.267101
_cell_length_b 8.780641
_cell_length_c 22.876480
_cell_angle_alpha 90.000000
_cell_angle_beta 29.391235
_cell_angle_gamma 90.000000
_cell_volume 1702.210539
_symmetry_space_group_name_H-M "P 21/M"
_symmetry_group_IT_number 11
_symmetry_cell_setting 'monoclinic'
loop_
_space_group_symop_operation_xyz
x,y,z
-x,1/2+y,-z
-x,-y,-z
x,1/2-y,z
loop_
_atom_site_type_symbol
_atom_site_label
_atom_site_fract_x
_atom_site_fract_y
_atom_site_fract_z
Si Si1 0.692279 0.572282 0.949013
Si Si2 0.803020 0.072622 0.761489
Si Si3 0.427910 0.430933 0.313905
Si Si4 0.961777 0.427038 0.234249
Si Si5 0.394412 0.430004 0.204370
Si Si6 0.930764 0.929257 0.131936
Si Si7 0.762347 0.069744 0.138904
Si Si8 0.854478 0.927711 0.419735
O O1 0.648600 0.750000 0.979998
O O2 0.702711 0.520733 0.875014
O O3 0.855760 0.535235 0.873805
O O4 0.561206 0.473372 0.066933
O O5 0.763934 0.250000 0.794670
O O6 0.988338 0.039725 0.646195
O O7 0.749535 0.014076 0.733323
O O8 0.431671 0.250000 0.311206
O O9 0.391936 0.489761 0.272484
O O10 0.596586 0.495075 0.224226
O O11 0.292126 0.490834 0.446506
O O12 0.933009 0.250000 0.243757
O O13 0.905228 0.514263 0.214180
O O14 0.856123 0.482787 0.357762
O O15 0.369991 0.250000 0.216409
O O16 0.914438 0.750000 0.140966
O O17 0.793821 0.999617 0.181834
O O18 0.101807 0.982731 0.995665
O O19 0.758558 0.250000 0.147827
O O20 0.837573 0.750000 0.416620
#
# Coordination Sequence:
#
# PCOD8071216 Si02
#       8
#     4   4   4   4   4   4   4   4
#     4  10  20  34  52  76 106 136 169 212 260 307
#     4  10  20  34  52  75 103 135 172 214 259 304
#     4   9  19  36  56  76 100 135 175 213 257 305
#     4  10  20  34  54  79 105 135 172 213 257 303
#     4  11  21  33  52  77 105 136 171 211 258 312
#     4  10  19  32  54  83 111 138 168 202 249 309
#     4   9  18  34  55  79 108 137 167 208 255 302
#     4   9  19  37  57  74  98 135 177 217 255 301
#
# _framework density 18.799085000000002
#
# number of rings (size 3 to 8) (size 9 to 14) (size 15 to 20)
#    0.000    2.250    0.000    3.000    0.000    4.000 
#    0.000    3.750    0.000    0.000    0.000    0.000 
#    0.000    0.000    0.000    0.000    0.000    0.000 
#
# Total GULP energy -396916.797468 kJ/mol
# GULP energy per Si atom -12403.649921 kJ/mol
# Density = 1.875630 g / cm^3
# Si number density = 18.799085 Si / 1000 Ang^3
#
#
#
# Elastic Constant Matrix: (Units=GPa)
#
#
# Indices 1 2 3 4 5 6 
#
# 1 144.2142 24.0487 51.4704 0.0000 13.1861 0.0000
# 2 24.0487 35.2095 10.3495 0.0000 -0.9802 0.0000
# 3 51.4704 10.3495 91.3874 0.0000 4.4480 0.0000
# 4 0.0000 0.0000 0.0000 19.2657 0.0000 1.6488
# 5 13.1861 -0.9802 4.4480 0.0000 14.7236 0.0000
# 6 0.0000 0.0000 0.0000 1.6488 0.0000 30.5395
#
#
#
# Elastic Compliance Matrix: (Units=1/GPa)
#
#
# Indices 1 2 3 4 5 6 
#
# 1 0.010378 -0.005915 -0.004774 0.000000 -0.008246 0.000000
# 2 -0.005915 0.032882 -0.000768 0.000000 0.007718 0.000000
# 3 -0.004774 -0.000768 0.013714 0.000000 0.000081 0.000000
# 4 0.000000 0.000000 0.000000 0.052147 0.000000 -0.002815
# 5 -0.008246 0.007718 0.000081 0.000000 0.075792 0.000000
# 6 0.000000 0.000000 0.000000 -0.002815 0.000000 0.032896
#
#
# Mechanical properties :
#
#
# Convention : Reuss Voigt Hill
#
# Bulk Modulus (GPa) = 29.35948 49.17203 39.26575
# Shear Modulus (GPa) = 19.83515 25.23526 22.53521
#
# Velocity S-wave (km/s) = 3.25177 3.66781 3.46604
# Velocity P-wave (km/s) = 5.45437 6.64458 6.07868
#
# Compressibility (1/GPa) = 0.03406055
#
# Stress axis : x y z
#
# Youngs Moduli (GPa) = 96.35494 30.41169 72.91695
#
# Poissons Ratio (x) = 0.17988 0.34810
# Poissons Ratio (y) = 0.56993 0.05601
# Poissons Ratio (z) = 0.46000 0.02336
#
# Static dielectric constant tensor:
#      x y z
#    x 3.574130 0.000000 -0.001700 
#    y 0.000000 3.314790 0.000000 
#    z -0.001700 0.000000 3.436510 
# 
# 
# High freq. dielectric constant tensor:
#      x y z
#    x 1.738790 0.000000 0.002490 
#    y 0.000000 1.724110 0.000000 
#    z 0.002490 0.000000 1.717880 
# 
# From -- ./inp_files/69425.got.cif
#   From: 2010.06.25/outbox.cif.g09.slc.cpg/sg11_35_cif.got.tgz:69425.got - 2010.06.27 23:14:04.
