data_PCOD8071337
_publ_section_title
;
Structure prediction by ZEFSAII (Michael W. Deem and Ramdas Pophale) SiO2 
 PCOD8071337
Probable space group: P 21/M
;
_chemical_formula_sum "Si O2"
_cell_formula_units_Z 32
_cell_length_a 15.028951
_cell_length_b 14.693388
_cell_length_c 8.539086
_cell_angle_alpha 90.000000
_cell_angle_beta 105.923676
_cell_angle_gamma 90.000000
_cell_volume 1813.297708
_symmetry_space_group_name_H-M "P 21/M"
_symmetry_group_IT_number 11
_symmetry_cell_setting 'monoclinic'
loop_
_space_group_symop_operation_xyz
x,y,z
-x,1/2+y,-z
-x,-y,-z
x,1/2-y,z
loop_
_atom_site_type_symbol
_atom_site_label
_atom_site_fract_x
_atom_site_fract_y
_atom_site_fract_z
Si Si1 0.166448 0.351460 0.307575
Si Si2 0.098838 0.996650 0.469700
Si Si3 0.450967 0.424173 0.379132
Si Si4 0.658934 0.653325 0.398088
Si Si5 0.212439 0.857983 0.336552
Si Si6 0.633664 0.147990 0.335600
Si Si7 0.266513 0.015433 0.139016
Si Si8 0.270906 0.494851 0.776953
O O1 0.127481 0.250000 0.247653
O O2 0.090619 0.420306 0.341295
O O3 0.239563 0.344217 0.481432
O O4 0.209578 0.398089 0.175256
O O5 0.126150 0.902415 0.391620
O O6 0.173742 0.011233 0.641652
O O7 0.000000 0.000000 0.500000
O O8 0.500000 0.500000 0.500000
O O9 0.409829 0.357694 0.489633
O O10 0.525538 0.371900 0.309264
O O11 0.373963 0.469803 0.231429
O O12 0.635554 0.750000 0.306165
O O13 0.655748 0.576939 0.262392
O O14 0.193118 0.750000 0.291852
O O15 0.307483 0.871095 0.478562
O O16 0.228704 0.918552 0.188014
O O17 0.645200 0.250000 0.283898
O O18 0.677403 0.090731 0.215723
O O19 0.251472 0.020704 0.947953
#
# Coordination Sequence:
#
# PCOD8071337 Si02
#       8
#     4   4   4   4   4   4   4   4
#     4   8  16  32  52  72  97 131 167 196 241 298
#     4   9  18  34  56  78  97 127 168 206 245 296
#     4  11  17  32  52  71  94 130 174 205 234 282
#     4   9  17  31  50  70  95 130 168 206 242 289
#     4   9  18  34  53  74  99 135 170 199 242 300
#     4  10  19  33  52  71  98 135 174 207 241 291
#     4  10  20  32  52  73 103 135 161 206 251 293
#     4  10  20  34  50  74 104 130 160 207 259 298
#
# _framework density 17.647407000000001
#
# number of rings (size 3 to 8) (size 9 to 14) (size 15 to 20)
#    0.000    2.500    2.500    1.875    0.000    2.500 
#    0.000    2.500    0.000    1.500    0.000    0.000 
#    0.000    0.000    0.000    0.000    0.000    0.000 
#
# Total GULP energy -396483.277185 kJ/mol
# GULP energy per Si atom -12390.102412 kJ/mol
# Density = 1.760724 g / cm^3
# Si number density = 17.647407 Si / 1000 Ang^3
#
#
#
# Elastic Constant Matrix: (Units=GPa)
#
#
# Indices 1 2 3 4 5 6 
#
# 1 104.8130 41.3433 23.8651 0.0000 -14.8917 0.0000
# 2 41.3433 143.2028 42.6037 0.0000 -13.1447 0.0000
# 3 23.8651 42.6037 84.8920 0.0000 -18.7105 0.0000
# 4 0.0000 0.0000 0.0000 9.0549 0.0000 -0.3164
# 5 -14.8917 -13.1447 -18.7105 0.0000 16.2286 0.0000
# 6 0.0000 0.0000 0.0000 -0.3164 0.0000 16.1205
#
#
#
# Elastic Compliance Matrix: (Units=1/GPa)
#
#
# Indices 1 2 3 4 5 6 
#
# 1 0.011810 -0.002582 -0.000130 0.000000 0.008596 0.000000
# 2 -0.002582 0.008852 -0.003564 0.000000 0.000691 0.000000
# 3 -0.000130 -0.003564 0.017352 0.000000 0.016999 0.000000
# 4 0.000000 0.000000 0.000000 0.110513 0.000000 0.002169
# 5 0.008596 0.000691 0.016999 0.000000 0.089667 0.000000
# 6 0.000000 0.000000 0.000000 0.002169 0.000000 0.062075
#
#
# Mechanical properties :
#
#
# Convention : Reuss Voigt Hill
#
# Bulk Modulus (GPa) = 39.27408 60.94801 50.11104
# Shear Modulus (GPa) = 15.56138 23.28720 19.42429
#
# Velocity S-wave (km/s) = 2.97272 3.63655 3.32126
# Velocity P-wave (km/s) = 5.83832 7.22801 6.57001
#
# Compressibility (1/GPa) = 0.02546209
#
# Stress axis : x y z
#
# Youngs Moduli (GPa) = 84.67294 112.96312 57.63151
#
# Poissons Ratio (x) = 0.29167 0.00747
# Poissons Ratio (y) = 0.21863 0.20542
# Poissons Ratio (z) = 0.01098 0.40265
#
# Static dielectric constant tensor:
#      x y z
#    x 0.323980 0.000000 -0.444070 
#    y 0.000000 3.452230 0.000000 
#    z -0.444070 0.000000 2.837510 
# 
# 
# High freq. dielectric constant tensor:
#      x y z
#    x 1.670840 0.000000 -0.018840 
#    y 0.000000 1.697190 0.000000 
#    z -0.018840 0.000000 1.648530 
# 
# From -- ./inp_files/21878.got.cif
#   From: 2010.06.25/outbox.cif.g09.slc.cpg/sg11_11_cif.got.tgz:21878.got - 2010.06.27 23:14:04.
