data_PCOD8071462
_publ_section_title
;
Structure prediction by ZEFSAII (Michael W. Deem and Ramdas Pophale) SiO2 
 PCOD8071462
Probable space group: P 21/M
;
_chemical_formula_sum "Si O2"
_cell_formula_units_Z 32
_cell_length_a 18.849813
_cell_length_b 13.866171
_cell_length_c 13.072367
_cell_angle_alpha 90.000000
_cell_angle_beta 151.180879
_cell_angle_gamma 90.000000
_cell_volume 1647.048532
_symmetry_space_group_name_H-M "P 21/M"
_symmetry_group_IT_number 11
_symmetry_cell_setting 'monoclinic'
loop_
_space_group_symop_operation_xyz
x,y,z
-x,1/2+y,-z
-x,-y,-z
x,1/2-y,z
loop_
_atom_site_type_symbol
_atom_site_label
_atom_site_fract_x
_atom_site_fract_y
_atom_site_fract_z
Si Si1 0.818208 0.641964 0.236844
Si Si2 0.363596 0.975758 0.899237
Si Si3 0.327416 0.360201 0.350436
Si Si4 0.886830 0.021889 0.703944
Si Si5 0.995741 0.861513 0.972121
Si Si6 0.397313 0.358410 0.216751
Si Si7 0.104601 0.637672 0.486077
Si Si8 0.434806 0.020816 0.664824
O O1 0.800450 0.750000 0.260433
O O2 0.743384 0.568539 0.221924
O O3 0.990144 0.617709 0.434069
O O4 0.747506 0.636456 0.035422
O O5 0.267574 0.889281 0.731370
O O6 0.434918 0.942202 0.096540
O O7 0.500000 0.000000 0.000000
O O8 0.372377 0.250000 0.407094
O O9 0.157908 0.374717 0.163627
O O10 0.355753 0.404515 0.274039
O O11 0.433053 0.408608 0.566484
O O12 0.942425 0.074198 0.671862
O O13 0.988788 0.928231 0.860813
O O14 0.721019 0.984566 0.473798
O O15 0.884045 0.096276 0.796884
O O16 0.029259 0.750000 0.985722
O O17 0.454294 0.250000 0.301288
O O18 0.530143 0.414091 0.331073
O O19 0.103665 0.750000 0.452843
#
# Coordination Sequence:
#
# PCOD8071462 Si02
#       8
#     4   4   4   4   4   4   4   4
#     4   9  20  38  60  84 109 143 188 238 287 340
#     4  11  22  39  56  82 117 149 191 240 290 338
#     4   9  17  31  51  74 103 140 181 223 275 339
#     4  10  19  33  53  79 111 144 187 238 285 342
#     4   9  18  32  52  78 109 144 184 232 285 342
#     4   9  17  30  51  78 106 136 176 225 278 338
#     4  11  22  37  60  84 109 149 198 241 287 338
#     4  10  20  33  50  75 112 143 184 227 285 335
#
# _framework density 19.428691000000001
#
# number of rings (size 3 to 8) (size 9 to 14) (size 15 to 20)
#    0.000    2.250    1.250    1.875    0.000    4.000 
#    0.000    0.625    0.000    0.750    0.000    0.000 
#    0.000    0.000    0.000    0.000    0.000    0.000 
#
# Total GULP energy -396717.379558 kJ/mol
# GULP energy per Si atom -12397.418111 kJ/mol
# Density = 1.938447 g / cm^3
# Si number density = 19.428691 Si / 1000 Ang^3
#
#
#
# Elastic Constant Matrix: (Units=GPa)
#
#
# Indices 1 2 3 4 5 6 
#
# 1 71.9850 28.7360 15.3855 0.0000 -0.5494 0.0000
# 2 28.7360 92.4750 28.0507 0.0000 -5.7326 0.0000
# 3 15.3855 28.0507 75.5925 0.0000 -0.3753 0.0000
# 4 0.0000 0.0000 0.0000 30.3094 0.0000 -2.9475
# 5 -0.5494 -5.7326 -0.3753 0.0000 25.3025 0.0000
# 6 0.0000 0.0000 0.0000 -2.9475 0.0000 29.8272
#
#
#
# Elastic Compliance Matrix: (Units=1/GPa)
#
#
# Indices 1 2 3 4 5 6 
#
# 1 0.016040 -0.004549 -0.001580 0.000000 -0.000706 0.000000
# 2 -0.004549 0.013662 -0.004129 0.000000 0.002935 0.000000
# 3 -0.001580 -0.004129 0.015079 0.000000 -0.000746 0.000000
# 4 0.000000 0.000000 0.000000 0.033313 0.000000 0.003292
# 5 -0.000706 0.002935 -0.000746 0.000000 0.040160 0.000000
# 6 0.000000 0.000000 0.000000 0.003292 0.000000 0.033852
#
#
# Mechanical properties :
#
#
# Convention : Reuss Voigt Hill
#
# Bulk Modulus (GPa) = 41.21258 42.71074 41.96166
# Shear Modulus (GPa) = 27.66858 28.27984 27.97421
#
# Velocity S-wave (km/s) = 3.77783 3.81933 3.79864
# Velocity P-wave (km/s) = 6.34725 6.44056 6.39408
#
# Compressibility (1/GPa) = 0.02426443
#
# Stress axis : x y z
#
# Youngs Moduli (GPa) = 62.34426 73.19746 66.31744
#
# Poissons Ratio (x) = 0.33296 0.10480
# Poissons Ratio (y) = 0.28359 0.27384
# Poissons Ratio (z) = 0.09852 0.30224
#
# Static dielectric constant tensor:
#      x y z
#    x 3.391020 0.000000 -0.091540 
#    y 0.000000 3.607830 0.000000 
#    z -0.091540 0.000000 3.625810 
# 
# 
# High freq. dielectric constant tensor:
#      x y z
#    x 1.739800 0.000000 -0.003150 
#    y 0.000000 1.750790 0.000000 
#    z -0.003150 0.000000 1.757780 
# 
# From -- ./inp_files/41734.got.cif
#   From: 2010.06.25/outbox.cif.g09.slc.cpg/sg11_21_cif.got.tgz:41734.got - 2010.06.27 23:14:04.
