data_PCOD8071274
_publ_section_title
;
Structure prediction by ZEFSAII (Michael W. Deem and Ramdas Pophale) SiO2 
 PCOD8071274
Probable space group: P 21/M
;
_chemical_formula_sum "Si O2"
_cell_formula_units_Z 32
_cell_length_a 19.255859
_cell_length_b 16.775722
_cell_length_c 12.029255
_cell_angle_alpha 90.000000
_cell_angle_beta 153.274931
_cell_angle_gamma 90.000000
_cell_volume 1747.492167
_symmetry_space_group_name_H-M "P 21/M"
_symmetry_group_IT_number 11
_symmetry_cell_setting 'monoclinic'
loop_
_space_group_symop_operation_xyz
x,y,z
-x,1/2+y,-z
-x,-y,-z
x,1/2-y,z
loop_
_atom_site_type_symbol
_atom_site_label
_atom_site_fract_x
_atom_site_fract_y
_atom_site_fract_z
Si Si1 0.166058 0.842308 0.880574
Si Si2 0.424390 0.935357 0.664463
Si Si3 0.596108 0.158585 0.590788
Si Si4 0.398099 0.910950 0.057754
Si Si5 0.355185 0.159813 0.430623
Si Si6 0.852685 0.546568 0.748767
Si Si7 0.856335 0.657723 0.549204
Si Si8 0.508028 0.842742 0.994804
O O1 0.195976 0.750000 0.896854
O O2 0.985065 0.860958 0.639224
O O3 0.260249 0.866285 0.126299
O O4 0.228060 0.892193 0.863350
O O5 0.406224 0.898340 0.517473
O O6 0.568473 0.996128 0.871896
O O7 0.270451 0.983833 0.474818
O O8 0.449571 0.865938 0.789388
O O9 0.612157 0.250000 0.575058
O O10 0.436250 0.145360 0.428377
O O11 0.523232 0.853872 0.295970
O O12 0.408226 0.892605 0.941210
O O13 0.293045 0.250000 0.351250
O O14 0.215330 0.097506 0.244692
O O15 0.898196 0.607105 0.716975
O O16 0.000000 0.500000 0.000000
O O17 0.865304 0.750000 0.597271
O O18 0.688987 0.635587 0.262233
O O19 0.477411 0.750000 0.969777
#
# Coordination Sequence:
#
# PCOD8071274 Si02
#       8
#     4   4   4   4   4   4   4   4
#     4   9  18  33  55  82 106 135 181 229 266 312
#     4  11  22  34  53  81 112 141 179 223 274 326
#     4   9  18  33  53  77 108 142 177 220 273 327
#     4  10  19  32  57  83 105 136 182 229 271 314
#     4   9  17  33  56  79 104 142 188 223 259 324
#     4  11  22  33  53  82 113 143 175 227 285 325
#     4  10  20  35  56  79 106 143 185 224 263 323
#     4  11  21  37  59  77 104 149 190 220 259 322
#
# _framework density 18.311955999999999
#
# number of rings (size 3 to 8) (size 9 to 14) (size 15 to 20)
#    0.000    2.000    2.500    3.750    0.000    5.500 
#    0.000    2.500    2.750    0.000    0.000    0.000 
#    0.000    0.000    0.000    0.000    0.000    0.000 
#
# Total GULP energy -396848.554070 kJ/mol
# GULP energy per Si atom -12401.517315 kJ/mol
# Density = 1.827028 g / cm^3
# Si number density = 18.311956 Si / 1000 Ang^3
#
#
#
# Elastic Constant Matrix: (Units=GPa)
#
#
# Indices 1 2 3 4 5 6 
#
# 1 92.7736 27.2716 34.0811 0.0000 9.6957 0.0000
# 2 27.2716 63.5536 24.9146 0.0000 5.9410 0.0000
# 3 34.0811 24.9146 52.4798 0.0000 8.5544 0.0000
# 4 0.0000 0.0000 0.0000 26.3063 0.0000 -2.2124
# 5 9.6957 5.9410 8.5544 0.0000 25.6331 0.0000
# 6 0.0000 0.0000 0.0000 -2.2124 0.0000 32.6269
#
#
#
# Elastic Compliance Matrix: (Units=1/GPa)
#
#
# Indices 1 2 3 4 5 6 
#
# 1 0.014774 -0.003085 -0.007758 0.000000 -0.002284 0.000000
# 2 -0.003085 0.020032 -0.007339 0.000000 -0.001027 0.000000
# 3 -0.007758 -0.007339 0.028365 0.000000 -0.004831 0.000000
# 4 0.000000 0.000000 0.000000 0.038232 0.000000 0.002593
# 5 -0.002284 -0.001027 -0.004831 0.000000 0.041726 0.000000
# 6 0.000000 0.000000 0.000000 0.002593 0.000000 0.030825
#
#
# Mechanical properties :
#
#
# Convention : Reuss Voigt Hill
#
# Bulk Modulus (GPa) = 37.30402 42.37130 39.83766
# Shear Modulus (GPa) = 22.80466 25.08257 23.94362
#
# Velocity S-wave (km/s) = 3.53277 3.70501 3.61992
# Velocity P-wave (km/s) = 6.08738 6.44140 6.26689
#
# Compressibility (1/GPa) = 0.02680676
#
# Stress axis : x y z
#
# Youngs Moduli (GPa) = 67.68454 49.92089 35.25527
#
# Poissons Ratio (x) = 0.15401 0.27350
# Poissons Ratio (y) = 0.20881 0.25874
# Poissons Ratio (z) = 0.52508 0.36638
#
# Static dielectric constant tensor:
#      x y z
#    x 3.469700 0.000000 0.222870 
#    y 0.000000 3.417790 0.000000 
#    z 0.222870 0.000000 3.149000 
# 
# 
# High freq. dielectric constant tensor:
#      x y z
#    x 1.713110 0.000000 0.012960 
#    y 0.000000 1.717160 0.000000 
#    z 0.012960 0.000000 1.676290 
# 
# From -- ./inp_files/41711.got.cif
#   From: 2010.06.25/outbox.cif.g09.slc.cpg/sg11_21_cif.got.tgz:41711.got - 2010.06.27 23:14:04.
