data_PCOD8071215
_publ_section_title
;
Structure prediction by ZEFSAII (Michael W. Deem and Ramdas Pophale) SiO2 
 PCOD8071215
Probable space group: P 21/M
;
_chemical_formula_sum "Si O2"
_cell_formula_units_Z 32
_cell_length_a 19.836557
_cell_length_b 9.311313
_cell_length_c 19.559549
_cell_angle_alpha 90.000000
_cell_angle_beta 29.619296
_cell_angle_gamma 90.000000
_cell_volume 1785.538672
_symmetry_space_group_name_H-M "P 21/M"
_symmetry_group_IT_number 11
_symmetry_cell_setting 'monoclinic'
loop_
_space_group_symop_operation_xyz
x,y,z
-x,1/2+y,-z
-x,-y,-z
x,1/2-y,z
loop_
_atom_site_type_symbol
_atom_site_label
_atom_site_fract_x
_atom_site_fract_y
_atom_site_fract_z
Si Si1 0.886643 0.584885 0.683925
Si Si2 0.371132 0.584992 0.852644
Si Si3 0.678086 0.584416 0.625337
Si Si4 0.312597 0.082404 0.623910
Si Si5 0.149061 0.080775 0.128389
Si Si6 0.193307 0.583156 0.371666
Si Si7 0.612817 0.416585 0.316555
Si Si8 0.882337 0.918733 0.325609
O O1 0.853599 0.750000 0.696523
O O2 0.845692 0.541977 0.796351
O O3 0.798451 0.486882 0.710681
O O4 0.046356 0.553243 0.534270
O O5 0.332599 0.750000 0.902913
O O6 0.529878 0.557658 0.725304
O O7 0.338219 0.547752 0.803016
O O8 0.287316 0.478474 0.974219
O O9 0.700524 0.750000 0.625351
O O10 0.694602 0.489395 0.678631
O O11 0.787302 0.535342 0.472548
O O12 0.309956 0.250000 0.641480
O O13 0.455363 0.036202 0.463543
O O14 0.191800 0.038487 0.679390
O O15 0.292012 0.001921 0.714129
O O16 0.137512 0.250000 0.126836
O O17 0.021727 0.006033 0.204369
O O18 0.227358 0.750000 0.334607
O O19 0.629461 0.250000 0.318210
O O20 0.914236 0.750000 0.300110
#
# Coordination Sequence:
#
# PCOD8071215 Si02
#       8
#     4   4   4   4   4   4   4   4
#     4   9  19  35  52  76 110 143 175 219 271 320
#     4  10  21  38  57  79 110 148 185 218 265 329
#     4  10  19  34  57  82 109 141 180 224 268 318
#     4   9  17  31  53  82 110 137 176 223 269 319
#     4  11  23  38  55  80 113 144 179 225 273 319
#     4  10  19  32  54  83 110 137 176 225 271 317
#     4   9  17  32  53  79 110 141 176 221 269 317
#     4  10  19  34  57  82 108 142 182 222 267 323
#
# _framework density 17.921762000000001
#
# number of rings (size 3 to 8) (size 9 to 14) (size 15 to 20)
#    0.000    2.250    2.500    0.750    0.000    3.000 
#    0.000    1.250    0.000    0.000    0.000    0.000 
#    0.000    0.000    0.000    0.000    0.000    0.000 
#
# Total GULP energy -396892.139018 kJ/mol
# GULP energy per Si atom -12402.879344 kJ/mol
# Density = 1.788097 g / cm^3
# Si number density = 17.921762 Si / 1000 Ang^3
#
#
#
# Elastic Constant Matrix: (Units=GPa)
#
#
# Indices 1 2 3 4 5 6 
#
# 1 122.1255 56.7446 18.1813 0.0000 12.3011 0.0000
# 2 56.7446 65.5591 18.9467 0.0000 5.8953 0.0000
# 3 18.1813 18.9467 43.8159 0.0000 8.1813 0.0000
# 4 0.0000 0.0000 0.0000 27.4899 0.0000 1.5396
# 5 12.3011 5.8953 8.1813 0.0000 22.2317 0.0000
# 6 0.0000 0.0000 0.0000 1.5396 0.0000 35.2232
#
#
#
# Elastic Compliance Matrix: (Units=1/GPa)
#
#
# Indices 1 2 3 4 5 6 
#
# 1 0.014161 -0.011872 0.000143 0.000000 -0.004740 0.000000
# 2 -0.011872 0.027467 -0.007320 0.000000 0.001979 0.000000
# 3 0.000143 -0.007320 0.027469 0.000000 -0.008246 0.000000
# 4 0.000000 0.000000 0.000000 0.036466 0.000000 -0.001594
# 5 -0.004740 0.001979 -0.008246 0.000000 0.050113 0.000000
# 6 0.000000 0.000000 0.000000 -0.001594 0.000000 0.028460
#
#
# Mechanical properties :
#
#
# Convention : Reuss Voigt Hill
#
# Bulk Modulus (GPa) = 32.26126 46.58286 39.42206
# Shear Modulus (GPa) = 21.49922 26.16415 23.83169
#
# Velocity S-wave (km/s) = 3.46730 3.82502 3.65055
# Velocity P-wave (km/s) = 5.83694 6.74955 6.30977
#
# Compressibility (1/GPa) = 0.03099693
#
# Stress axis : x y z
#
# Youngs Moduli (GPa) = 70.61875 36.40789 36.40496
#
# Poissons Ratio (x) = 0.43222 -0.00519
# Poissons Ratio (y) = 0.83836 0.26650
# Poissons Ratio (z) = -0.01007 0.26652
#
# Static dielectric constant tensor:
#      x y z
#    x 3.419710 0.000000 0.094830 
#    y 0.000000 3.291750 0.000000 
#    z 0.094830 0.000000 3.054890 
# 
# 
# High freq. dielectric constant tensor:
#      x y z
#    x 1.705370 0.000000 0.006650 
#    y 0.000000 1.692050 0.000000 
#    z 0.006650 0.000000 1.666580 
# 
# From -- ./inp_files/66402.got.cif
#   From: 2010.06.25/outbox.cif.g09.slc.cpg/sg11_34_cif.got.tgz:66402.got - 2010.06.27 23:14:04.
