data_PCOD8071776
_publ_section_title
;
Structure prediction by ZEFSAII (Michael W. Deem and Ramdas Pophale) SiO2 
 PCOD8071776
Probable space group: P 21/M
;
_chemical_formula_sum "Si O2"
_cell_formula_units_Z 28
_cell_length_a 19.707635
_cell_length_b 14.471217
_cell_length_c 9.593902
_cell_angle_alpha 90.000000
_cell_angle_beta 29.875148
_cell_angle_gamma 90.000000
_cell_volume 1362.892391
_symmetry_space_group_name_H-M "P 21/M"
_symmetry_group_IT_number 11
_symmetry_cell_setting 'monoclinic'
loop_
_space_group_symop_operation_xyz
x,y,z
-x,1/2+y,-z
-x,-y,-z
x,1/2-y,z
loop_
_atom_site_type_symbol
_atom_site_label
_atom_site_fract_x
_atom_site_fract_y
_atom_site_fract_z
Si Si1 0.541251 0.857621 0.771347
Si Si2 0.664546 0.468116 0.437630
Si Si3 0.861619 0.017217 0.323698
Si Si4 0.772901 0.144616 0.714935
Si Si5 0.156544 0.642162 0.093427
Si Si6 0.571192 0.646968 0.040616
Si Si7 0.134528 0.352310 0.504014
O O1 0.572875 0.750000 0.682591
O O2 0.635510 0.921109 0.500077
O O3 0.384624 0.883100 0.018783
O O4 0.569719 0.884271 0.881087
O O5 0.752061 0.437899 0.415778
O O6 0.519333 0.418301 0.702181
O O7 0.745600 0.431478 0.158460
O O8 0.869813 0.083625 0.443231
O O9 0.827230 0.914228 0.432458
O O10 0.000000 0.000000 0.000000
O O11 0.795478 0.250000 0.630615
O O12 0.821618 0.125560 0.783731
O O13 0.188187 0.750000 0.996900
O O14 0.998725 0.616038 0.343798
O O15 0.510405 0.750000 0.157189
O O16 0.723889 0.644207 0.835906
O O17 0.109862 0.250000 0.607389
#
# Coordination Sequence:
#
# PCOD8071776 Si02
#       7
#     4   4   4   4   4   4   4
#     4  10  20  35  60  90 123 162 204 255 313 365
#     4  12  21  36  63  96 123 157 207 264 304 364
#     4  12  23  37  61  96 120 155 206 257 305 357
#     4  10  23  43  64  87 124 168 206 247 306 377
#     4  10  23  42  63  88 124 168 207 249 308 372
#     4  10  19  33  59  93 122 154 202 260 313 358
#     4  10  21  38  59  87 125 162 201 251 308 368
#
# _framework density 20.544543000000001
#
# number of rings (size 3 to 8) (size 9 to 14) (size 15 to 20)
#    0.000    1.429    4.286    1.714    0.000    2.286 
#    0.000    0.000    0.000    0.857    0.000    0.000 
#    0.000    0.000    0.000    0.000    0.000    0.000 
#
# Total GULP energy -346970.567331 kJ/mol
# GULP energy per Si atom -12391.805976 kJ/mol
# Density = 2.049778 g / cm^3
# Si number density = 20.544543 Si / 1000 Ang^3
#
#
#
# Elastic Constant Matrix: (Units=GPa)
#
#
# Indices 1 2 3 4 5 6 
#
# 1 76.3781 30.5567 52.5107 0.0000 -6.8277 0.0000
# 2 30.5567 100.3373 68.8203 0.0000 1.9927 0.0000
# 3 52.5107 68.8203 120.9428 0.0000 -10.1513 0.0000
# 4 0.0000 0.0000 0.0000 25.5644 0.0000 -4.3592
# 5 -6.8277 1.9927 -10.1513 0.0000 27.8286 0.0000
# 6 0.0000 0.0000 0.0000 -4.3592 0.0000 22.9921
#
#
#
# Elastic Compliance Matrix: (Units=1/GPa)
#
#
# Indices 1 2 3 4 5 6 
#
# 1 0.018751 -0.000437 -0.007741 0.000000 0.001808 0.000000
# 2 -0.000437 0.016977 -0.009884 0.000000 -0.004928 0.000000
# 3 -0.007741 -0.009884 0.017696 0.000000 0.005264 0.000000
# 4 0.000000 0.000000 0.000000 0.040424 0.000000 0.007664
# 5 0.001808 -0.004928 0.005264 0.000000 0.038651 0.000000
# 6 0.000000 0.000000 0.000000 0.007664 0.000000 0.044946
#
#
# Mechanical properties :
#
#
# Convention : Reuss Voigt Hill
#
# Bulk Modulus (GPa) = 57.80613 66.82597 62.31605
# Shear Modulus (GPa) = 22.79613 24.99505 23.89559
#
# Velocity S-wave (km/s) = 3.33467 3.49180 3.41414
# Velocity P-wave (km/s) = 6.55933 6.98963 6.77789
#
# Compressibility (1/GPa) = 0.01729920
#
# Stress axis : x y z
#
# Youngs Moduli (GPa) = 53.32991 58.90362 56.51116
#
# Poissons Ratio (x) = 0.02574 0.43745
# Poissons Ratio (y) = 0.02330 0.55858
# Poissons Ratio (z) = 0.41282 0.58222
#
# Static dielectric constant tensor:
#      x y z
#    x 3.794190 0.000000 -0.389340 
#    y 0.000000 3.852060 0.000000 
#    z -0.389340 0.000000 3.599140 
# 
# 
# High freq. dielectric constant tensor:
#      x y z
#    x 1.794000 0.000000 -0.028790 
#    y 0.000000 1.814880 0.000000 
#    z -0.028790 0.000000 1.786650 
# 
# From -- ./inp_files/26906.got.cif
#   From: 2010.06.25/outbox.cif.g09.slc.cpg/sg11_14_cif.got.tgz:26906.got - 2010.06.27 23:14:04.
