data_PCOD8071435
_publ_section_title
;
Structure prediction by ZEFSAII (Michael W. Deem and Ramdas Pophale) SiO2 
 PCOD8071435
Probable space group: P 21/M
;
_chemical_formula_sum "Si O2"
_cell_formula_units_Z 28
_cell_length_a 9.435458
_cell_length_b 9.015758
_cell_length_c 29.892436
_cell_angle_alpha 90.000000
_cell_angle_beta 37.315978
_cell_angle_gamma 90.000000
_cell_volume 1541.522209
_symmetry_space_group_name_H-M "P 21/M"
_symmetry_group_IT_number 11
_symmetry_cell_setting 'monoclinic'
loop_
_space_group_symop_operation_xyz
x,y,z
-x,1/2+y,-z
-x,-y,-z
x,1/2-y,z
loop_
_atom_site_type_symbol
_atom_site_label
_atom_site_fract_x
_atom_site_fract_y
_atom_site_fract_z
Si Si1 0.919137 0.416146 0.783757
Si Si2 0.460658 0.920210 0.056046
Si Si3 0.641830 0.581034 0.376135
Si Si4 0.006252 0.423610 0.632932
Si Si5 0.248155 0.575532 0.939995
Si Si6 0.653277 0.580372 0.776954
Si Si7 0.840874 0.574233 0.502641
O O1 0.853210 0.250000 0.781927
O O2 0.814739 0.432354 0.860157
O O3 0.804559 0.542127 0.782453
O O4 0.199831 0.433242 0.708907
O O5 0.538852 0.750000 0.031834
O O6 0.616252 0.998572 0.053947
O O7 0.500000 0.000000 0.000000
O O8 0.552653 0.750000 0.404596
O O9 0.427092 0.471554 0.423462
O O10 0.795534 0.531334 0.380653
O O11 0.976592 0.250000 0.638658
O O12 0.750895 0.488144 0.710246
O O13 0.077777 0.484477 0.566379
O O14 0.225599 0.750000 0.955627
O O15 0.383414 0.548391 0.858614
O O16 0.000000 0.500000 0.000000
O O17 0.690835 0.750000 0.754995
O O18 0.862115 0.750000 0.501489
O O19 0.000000 0.500000 0.500000
#
# Coordination Sequence:
#
# PCOD8071435 Si02
#       7
#     4   4   4   4   4   4   4
#     4   8  16  31  51  74 102 134 167 205 254 304
#     4  10  19  33  53  77 106 140 175 213 256 305
#     4   9  17  33  56  79 100 126 165 210 250 297
#     4   9  19  35  55  77 101 131 168 206 250 303
#     4  10  20  34  52  77 106 137 173 214 260 309
#     4   9  17  29  50  78 103 127 165 214 255 292
#     4  11  23  37  52  74 104 137 168 202 249 302
#
# _framework density 18.163862999999999
#
# number of rings (size 3 to 8) (size 9 to 14) (size 15 to 20)
#    0.000    2.571    0.000    3.000    0.000    5.714 
#    0.000    1.429    0.000    1.714    0.000    0.000 
#    0.000    0.000    0.000    0.000    0.000    0.000 
#
# Total GULP energy -346973.607583 kJ/mol
# GULP energy per Si atom -12391.914557 kJ/mol
# Density = 1.812252 g / cm^3
# Si number density = 18.163863 Si / 1000 Ang^3
#
#
#
# Elastic Constant Matrix: (Units=GPa)
#
#
# Indices 1 2 3 4 5 6 
#
# 1 73.7582 41.1006 65.6552 0.0000 3.1431 0.0000
# 2 41.1006 80.7472 63.6161 0.0000 -3.7881 0.0000
# 3 65.6552 63.6161 167.9627 0.0000 3.2782 0.0000
# 4 0.0000 0.0000 0.0000 34.6735 0.0000 -0.8749
# 5 3.1431 -3.7881 3.2782 0.0000 24.0081 0.0000
# 6 0.0000 0.0000 0.0000 -0.8749 0.0000 28.5157
#
#
#
# Elastic Compliance Matrix: (Units=1/GPa)
#
#
# Indices 1 2 3 4 5 6 
#
# 1 0.023268 -0.006958 -0.006396 0.000000 -0.003271 0.000000
# 2 -0.006958 0.020067 -0.004974 0.000000 0.004756 0.000000
# 3 -0.006396 -0.004974 0.010364 0.000000 -0.001363 0.000000
# 4 0.000000 0.000000 0.000000 0.028863 0.000000 0.000886
# 5 -0.003271 0.004756 -0.001363 0.000000 0.043017 0.000000
# 6 0.000000 0.000000 0.000000 0.000886 0.000000 0.035096
#
#
# Mechanical properties :
#
#
# Convention : Reuss Voigt Hill
#
# Bulk Modulus (GPa) = 58.67005 73.69022 66.18013
# Shear Modulus (GPa) = 24.62918 27.57923 26.10421
#
# Velocity S-wave (km/s) = 3.68631 3.90084 3.79509
# Velocity P-wave (km/s) = 7.10556 7.80682 7.46443
#
# Compressibility (1/GPa) = 0.01704447
#
# Stress axis : x y z
#
# Youngs Moduli (GPa) = 42.97815 49.83203 96.48536
#
# Poissons Ratio (x) = 0.34671 0.61713
# Poissons Ratio (y) = 0.29903 0.47989
# Poissons Ratio (z) = 0.27489 0.24785
#
# Static dielectric constant tensor:
#      x y z
#    x 3.003460 0.000000 0.116340 
#    y 0.000000 3.414730 0.000000 
#    z 0.116340 0.000000 3.919200 
# 
# 
# High freq. dielectric constant tensor:
#      x y z
#    x 1.652320 0.000000 0.003980 
#    y 0.000000 1.712620 0.000000 
#    z 0.003980 0.000000 1.728750 
# 
# From -- ./inp_files/29013.got.cif
#   From: 2010.06.25/outbox.cif.g09.slc.cpg/sg11_15_cif.got.tgz:29013.got - 2010.06.27 23:14:04.
