data_PCOD8071046
_publ_section_title
;
Structure prediction by ZEFSAII (Michael W. Deem and Ramdas Pophale) SiO2 
 PCOD8071046
Probable space group: P 21/M
;
_chemical_formula_sum "Si O2"
_cell_formula_units_Z 28
_cell_length_a 14.878142
_cell_length_b 9.160578
_cell_length_c 16.652915
_cell_angle_alpha 90.000000
_cell_angle_beta 133.888798
_cell_angle_gamma 90.000000
_cell_volume 1635.717608
_symmetry_space_group_name_H-M "P 21/M"
_symmetry_group_IT_number 11
_symmetry_cell_setting 'monoclinic'
loop_
_space_group_symop_operation_xyz
x,y,z
-x,1/2+y,-z
-x,-y,-z
x,1/2-y,z
loop_
_atom_site_type_symbol
_atom_site_label
_atom_site_fract_x
_atom_site_fract_y
_atom_site_fract_z
Si Si1 0.609375 0.418416 0.522841
Si Si2 0.137677 0.579754 0.238833
Si Si3 0.884992 0.423599 0.107619
Si Si4 0.496767 0.918139 0.710461
Si Si5 0.307558 0.080488 0.904571
Si Si6 0.436128 0.918436 0.848229
Si Si7 0.246577 0.919543 0.136075
O O1 0.500000 0.500000 0.500000
O O2 0.593531 0.250000 0.535739
O O3 0.743219 0.473468 0.636112
O O4 0.600528 0.445337 0.421808
O O5 0.108322 0.750000 0.235420
O O6 0.159877 0.547580 0.158709
O O7 0.024679 0.482154 0.199550
O O8 0.884893 0.250000 0.114840
O O9 0.809557 0.491805 0.134682
O O10 0.823988 0.478052 0.986394
O O11 0.536058 0.750000 0.742197
O O12 0.430126 0.967360 0.751606
O O13 0.622066 0.004152 0.770257
O O14 0.272869 0.250000 0.876120
O O15 0.339462 0.019426 0.836101
O O16 0.423433 0.053141 0.035276
O O17 0.398370 0.750000 0.837717
O O18 0.275915 0.750000 0.145889
#
# Coordination Sequence:
#
# PCOD8071046 Si02
#       7
#     4   4   4   4   4   4   4
#     4  10  20  34  54  77 103 137 175 215 254 298
#     4  10  21  36  51  72 105 142 177 212 253 300
#     4  11  22  34  51  76 105 139 176 213 256 307
#     4  10  19  32  53  79 106 136 170 209 257 305
#     4  10  19  32  52  76 103 136 169 207 259 312
#     4   9  18  32  50  76 106 134 166 208 257 308
#     4  10  20  33  50  75 106 139 172 210 255 304
#
# _framework density 17.117867
#
# number of rings (size 3 to 8) (size 9 to 14) (size 15 to 20)
#    0.000    2.000    2.857    1.286    0.000    2.857 
#    0.000    0.000    0.000    0.857    0.000    0.000 
#    0.000    0.000    0.000    0.000    0.000    0.000 
#
# Total GULP energy -347288.657614 kJ/mol
# GULP energy per Si atom -12403.166343 kJ/mol
# Density = 1.707891 g / cm^3
# Si number density = 17.117867 Si / 1000 Ang^3
#
#
#
# Elastic Constant Matrix: (Units=GPa)
#
#
# Indices 1 2 3 4 5 6 
#
# 1 120.4917 52.2793 46.4106 0.0000 1.9934 0.0000
# 2 52.2793 64.2885 31.2104 0.0000 7.9407 0.0000
# 3 46.4106 31.2104 77.6584 0.0000 5.1605 0.0000
# 4 0.0000 0.0000 0.0000 21.3110 0.0000 6.3409
# 5 1.9934 7.9407 5.1605 0.0000 27.5383 0.0000
# 6 0.0000 0.0000 0.0000 6.3409 0.0000 31.5837
#
#
#
# Elastic Compliance Matrix: (Units=1/GPa)
#
#
# Indices 1 2 3 4 5 6 
#
# 1 0.014286 -0.009584 -0.004862 0.000000 0.002640 0.000000
# 2 -0.009584 0.026239 -0.004416 0.000000 -0.006045 0.000000
# 3 -0.004862 -0.004416 0.017669 0.000000 -0.001686 0.000000
# 4 0.000000 0.000000 0.000000 0.049905 0.000000 -0.010019
# 5 0.002640 -0.006045 -0.001686 0.000000 0.038181 0.000000
# 6 0.000000 0.000000 0.000000 -0.010019 0.000000 0.033673
#
#
# Mechanical properties :
#
#
# Convention : Reuss Voigt Hill
#
# Bulk Modulus (GPa) = 48.84848 58.02659 53.43753
# Shear Modulus (GPa) = 22.27164 24.92250 23.59707
#
# Velocity S-wave (km/s) = 3.61096 3.81981 3.71685
# Velocity P-wave (km/s) = 6.78114 7.30934 7.05019
#
# Compressibility (1/GPa) = 0.02047147
#
# Stress axis : x y z
#
# Youngs Moduli (GPa) = 69.99644 38.11156 56.59539
#
# Poissons Ratio (x) = 0.36524 0.27516
# Poissons Ratio (y) = 0.67081 0.24993
# Poissons Ratio (z) = 0.34031 0.16831
#
# Static dielectric constant tensor:
#      x y z
#    x 3.203650 0.000000 -0.196490 
#    y 0.000000 3.586390 0.000000 
#    z -0.196490 0.000000 3.234740 
# 
# 
# High freq. dielectric constant tensor:
#      x y z
#    x 1.660990 0.000000 -0.009580 
#    y 0.000000 1.662710 0.000000 
#    z -0.009580 0.000000 1.644000 
# 
# From -- ./inp_files/37034.got.cif
#   From: 2010.06.25/outbox.cif.g09.slc.cpg/sg11_19_cif.got.tgz:37034.got - 2010.06.27 23:14:04.
