data_PCOD8071192
_publ_section_title
;
Structure prediction by ZEFSAII (Michael W. Deem and Ramdas Pophale) SiO2 
 PCOD8071192
Probable space group: P 21/M
;
_chemical_formula_sum "Si O2"
_cell_formula_units_Z 28
_cell_length_a 16.659956
_cell_length_b 8.554131
_cell_length_c 14.969636
_cell_angle_alpha 90.000000
_cell_angle_beta 134.207969
_cell_angle_gamma 90.000000
_cell_volume 1529.210408
_symmetry_space_group_name_H-M "P 21/M"
_symmetry_group_IT_number 11
_symmetry_cell_setting 'monoclinic'
loop_
_space_group_symop_operation_xyz
x,y,z
-x,1/2+y,-z
-x,-y,-z
x,1/2-y,z
loop_
_atom_site_type_symbol
_atom_site_label
_atom_site_fract_x
_atom_site_fract_y
_atom_site_fract_z
Si Si1 0.469363 0.568297 0.880786
Si Si2 0.138268 0.069725 0.039857
Si Si3 0.911790 0.570010 0.804937
Si Si4 0.136760 0.569878 0.738345
Si Si5 0.905564 0.430135 0.617360
Si Si6 0.293239 0.071861 0.003619
Si Si7 0.237811 0.068515 0.644153
O O1 0.437929 0.750000 0.866141
O O2 0.574167 0.541503 0.895980
O O3 0.365963 0.475249 0.760301
O O4 0.500000 0.500000 0.000000
O O5 0.098953 0.250000 0.001903
O O6 0.157743 0.026634 0.159093
O O7 0.252092 0.039510 0.072888
O O8 0.042682 0.962481 0.923129
O O9 0.896630 0.750000 0.767294
O O10 0.865803 0.466983 0.687448
O O11 0.142409 0.750000 0.714711
O O12 0.161000 0.467398 0.669943
O O13 0.014392 0.532239 0.680081
O O14 0.229993 0.539563 0.885550
O O15 0.937984 0.250000 0.633716
O O16 0.804426 0.470784 0.473194
O O17 0.266120 0.250000 0.953826
O O18 0.228294 0.250000 0.614247
#
# Coordination Sequence:
#
# PCOD8071192 Si02
#       7
#     4   4   4   4   4   4   4
#     4  11  22  37  58  83 113 148 191 234 278 325
#     4   9  18  33  54  81 114 148 184 227 278 329
#     4  10  19  32  53  83 114 146 184 228 277 333
#     4  12  23  36  56  84 115 148 186 227 277 335
#     4  12  24  39  57  80 114 151 187 229 282 339
#     4  10  20  35  57  83 114 151 186 228 277 327
#     4  12  25  41  58  79 111 150 192 233 279 334
#
# _framework density 18.310103000000002
#
# number of rings (size 3 to 8) (size 9 to 14) (size 15 to 20)
#    0.000    1.143    2.857    5.143    0.000    1.143 
#    0.000    0.000    0.000    0.857    0.000    0.000 
#    0.000    0.000    0.000    0.000    0.000    0.000 
#
# Total GULP energy -347317.184799 kJ/mol
# GULP energy per Si atom -12404.185171 kJ/mol
# Density = 1.826843 g / cm^3
# Si number density = 18.310103 Si / 1000 Ang^3
#
#
#
# Elastic Constant Matrix: (Units=GPa)
#
#
# Indices 1 2 3 4 5 6 
#
# 1 109.3035 26.1539 40.6056 0.0000 -19.2645 0.0000
# 2 26.1539 68.6715 17.6377 0.0000 -0.4114 0.0000
# 3 40.6056 17.6377 93.9726 0.0000 -12.5585 0.0000
# 4 0.0000 0.0000 0.0000 29.6247 0.0000 -2.8062
# 5 -19.2645 -0.4114 -12.5585 0.0000 25.5902 0.0000
# 6 0.0000 0.0000 0.0000 -2.8062 0.0000 22.0373
#
#
#
# Elastic Compliance Matrix: (Units=1/GPa)
#
#
# Indices 1 2 3 4 5 6 
#
# 1 0.012850 -0.003874 -0.003789 0.000000 0.007751 0.000000
# 2 -0.003874 0.016505 -0.001903 0.000000 -0.003585 0.000000
# 3 -0.003789 -0.001903 0.013110 0.000000 0.003551 0.000000
# 4 0.000000 0.000000 0.000000 0.034168 0.000000 0.004351
# 5 0.007751 -0.003585 0.003551 0.000000 0.046598 0.000000
# 6 0.000000 0.000000 0.000000 0.004351 0.000000 0.045932
#
#
# Mechanical properties :
#
#
# Convention : Reuss Voigt Hill
#
# Bulk Modulus (GPa) = 42.85909 48.97135 45.91522
# Shear Modulus (GPa) = 25.50081 27.95380 26.72731
#
# Velocity S-wave (km/s) = 3.73596 3.91152 3.82475
# Velocity P-wave (km/s) = 6.48599 6.87049 6.68101
#
# Compressibility (1/GPa) = 0.02333227
#
# Stress axis : x y z
#
# Youngs Moduli (GPa) = 77.82265 60.58826 76.27510
#
# Poissons Ratio (x) = 0.23473 0.28903
# Poissons Ratio (y) = 0.30150 0.14514
# Poissons Ratio (z) = 0.29489 0.11529
#
# Static dielectric constant tensor:
#      x y z
#    x 3.477470 0.000000 -0.071170 
#    y 0.000000 3.470930 0.000000 
#    z -0.071170 0.000000 3.229960 
# 
# 
# High freq. dielectric constant tensor:
#      x y z
#    x 1.709910 0.000000 -0.013140 
#    y 0.000000 1.722070 0.000000 
#    z -0.013140 0.000000 1.687490 
# 
# From -- ./inp_files/48903.got.cif
#   From: 2010.06.25/outbox.cif.g09.slc.cpg/sg11_25_cif.got.tgz:48903.got - 2010.06.27 23:14:04.
