data_PCOD8071148
_publ_section_title
;
Structure prediction by ZEFSAII (Michael W. Deem and Ramdas Pophale) SiO2 
 PCOD8071148
Probable space group: P 21/M
;
_chemical_formula_sum "Si O2"
_cell_formula_units_Z 32
_cell_length_a 16.625329
_cell_length_b 9.106251
_cell_length_c 25.446794
_cell_angle_alpha 90.000000
_cell_angle_beta 25.987923
_cell_angle_gamma 90.000000
_cell_volume 1688.096080
_symmetry_space_group_name_H-M "P 21/M"
_symmetry_group_IT_number 11
_symmetry_cell_setting 'monoclinic'
loop_
_space_group_symop_operation_xyz
x,y,z
-x,1/2+y,-z
-x,-y,-z
x,1/2-y,z
loop_
_atom_site_type_symbol
_atom_site_label
_atom_site_fract_x
_atom_site_fract_y
_atom_site_fract_z
Si Si1 0.998712 0.425113 0.124576
Si Si2 0.187753 0.077995 0.403423
Si Si3 0.151209 0.918414 0.944381
Si Si4 0.864455 0.422894 0.750117
Si Si5 0.804050 0.078032 0.904719
Si Si6 0.399870 0.079117 0.175692
Si Si7 0.747612 0.925045 0.517751
Si Si8 0.637946 0.082825 0.279179
O O1 0.009637 0.250000 0.115686
O O2 0.033838 0.485397 0.162400
O O3 0.802020 0.487696 0.218006
O O4 0.163626 0.494974 0.992256
O O5 0.146551 0.250000 0.429556
O O6 0.343071 0.041139 0.268817
O O7 0.253537 0.019229 0.421376
O O8 0.000000 0.000000 0.500000
O O9 0.097539 0.750000 0.987434
O O10 0.331672 0.926366 0.802071
O O11 0.000000 0.000000 0.000000
O O12 0.856065 0.250000 0.746269
O O13 0.804824 0.467903 0.843478
O O14 0.726668 0.493244 0.790220
O O15 0.070779 0.481797 0.618489
O O16 0.845248 0.250000 0.887698
O O17 0.609665 0.031717 0.043679
O O18 0.374835 0.250000 0.178068
O O19 0.736391 0.750000 0.523557
O O20 0.565587 0.987785 0.594105
O O21 0.634928 0.250000 0.299641
#
# Coordination Sequence:
#
# PCOD8071148 Si02
#       8
#     4   4   4   4   4   4   4   4
#     4  10  20  34  51  76 105 137 179 224 267 306
#     4  10  19  32  53  78 106 137 170 209 256 309
#     4   9  16  28  49  73 103 139 172 211 257 308
#     4  10  20  36  57  78 102 135 176 219 260 307
#     4  10  22  37  54  77 103 138 179 216 262 316
#     4  10  21  35  54  79 107 138 172 209 261 324
#     4   9  17  31  53  78 104 137 175 209 251 311
#     4   8  16  30  51  76 103 138 176 209 252 313
#
# _framework density 18.956268000000001
#
# number of rings (size 3 to 8) (size 9 to 14) (size 15 to 20)
#    0.000    2.500    1.250    1.875    1.750    1.000 
#    0.000    0.625    0.000    6.000    0.000    0.000 
#    0.000    0.000    0.000    0.000    0.000    0.000 
#
# Total GULP energy -396548.673263 kJ/mol
# GULP energy per Si atom -12392.146039 kJ/mol
# Density = 1.891312 g / cm^3
# Si number density = 18.956268 Si / 1000 Ang^3
#
#
#
# Elastic Constant Matrix: (Units=GPa)
#
#
# Indices 1 2 3 4 5 6 
#
# 1 74.2284 23.8890 62.1623 0.0000 -7.2596 0.0000
# 2 23.8890 42.5815 25.4675 0.0000 -0.7544 0.0000
# 3 62.1623 25.4675 119.4928 0.0000 -1.9213 0.0000
# 4 0.0000 0.0000 0.0000 16.6855 0.0000 -0.4791
# 5 -7.2596 -0.7544 -1.9213 0.0000 31.9747 0.0000
# 6 0.0000 0.0000 0.0000 -0.4791 0.0000 31.1363
#
#
#
# Elastic Compliance Matrix: (Units=1/GPa)
#
#
# Indices 1 2 3 4 5 6 
#
# 1 0.026557 -0.007558 -0.012122 0.000000 0.005123 0.000000
# 2 -0.007558 0.029069 -0.002282 0.000000 -0.001167 0.000000
# 3 -0.012122 -0.002282 0.015131 0.000000 -0.001897 0.000000
# 4 0.000000 0.000000 0.000000 0.059959 0.000000 0.000923
# 5 0.005123 -0.001167 -0.001897 0.000000 0.032296 0.000000
# 6 0.000000 0.000000 0.000000 0.000923 0.000000 0.032131
#
#
# Mechanical properties :
#
#
# Convention : Reuss Voigt Hill
#
# Bulk Modulus (GPa) = 37.26963 51.03782 44.15373
# Shear Modulus (GPa) = 20.16030 24.27824 22.21927
#
# Velocity S-wave (km/s) = 3.26470 3.58264 3.42736
# Velocity P-wave (km/s) = 5.82362 6.64049 6.24543
#
# Compressibility (1/GPa) = 0.02683150
#
# Stress axis : x y z
#
# Youngs Moduli (GPa) = 37.65470 34.40092 66.09005
#
# Poissons Ratio (x) = 0.26000 0.80116
# Poissons Ratio (y) = 0.28460 0.15084
# Poissons Ratio (z) = 0.45646 0.07852
#
# Static dielectric constant tensor:
#      x y z
#    x 3.567490 0.000000 0.069480 
#    y 0.000000 3.253380 0.000000 
#    z 0.069480 0.000000 3.862400 
# 
# 
# High freq. dielectric constant tensor:
#      x y z
#    x 1.737850 0.000000 -0.004010 
#    y 0.000000 1.706190 0.000000 
#    z -0.004010 0.000000 1.735710 
# 
# From -- ./inp_files/69062.got.cif
#   From: 2010.06.25/outbox.cif.g09.slc.cpg/sg11_35_cif.got.tgz:69062.got - 2010.06.27 23:14:04.
