data_PCOD8071737
_publ_section_title
;
Structure prediction by ZEFSAII (Michael W. Deem and Ramdas Pophale) SiO2 
 PCOD8071737
Probable space group: P 21/M
;
_chemical_formula_sum "Si O2"
_cell_formula_units_Z 28
_cell_length_a 14.817557
_cell_length_b 9.087269
_cell_length_c 12.149882
_cell_angle_alpha 90.000000
_cell_angle_beta 120.500436
_cell_angle_gamma 90.000000
_cell_volume 1409.614935
_symmetry_space_group_name_H-M "P 21/M"
_symmetry_group_IT_number 11
_symmetry_cell_setting 'monoclinic'
loop_
_space_group_symop_operation_xyz
x,y,z
-x,1/2+y,-z
-x,-y,-z
x,1/2-y,z
loop_
_atom_site_type_symbol
_atom_site_label
_atom_site_fract_x
_atom_site_fract_y
_atom_site_fract_z
Si Si1 0.804408 0.922353 0.120632
Si Si2 0.431514 0.588020 0.243073
Si Si3 0.004473 0.577168 0.385321
Si Si4 0.185172 0.578084 0.333489
Si Si5 0.421928 0.923276 0.538048
Si Si6 0.773831 0.923680 0.850926
Si Si7 0.398653 0.911325 0.969905
O O1 0.782551 0.750000 0.116280
O O2 0.907529 0.971888 0.249069
O O3 0.707825 0.001766 0.122247
O O4 0.816338 0.966431 0.998892
O O5 0.436283 0.750000 0.304138
O O6 0.540974 0.498763 0.324055
O O7 0.339637 0.494239 0.242888
O O8 0.404523 0.612116 0.101914
O O9 0.002600 0.750000 0.405802
O O10 0.108589 0.528702 0.384508
O O11 0.000000 0.500000 0.500000
O O12 0.171609 0.750000 0.299526
O O13 0.301523 0.536636 0.444619
O O14 0.153890 0.491580 0.201507
O O15 0.440004 0.750000 0.554524
O O16 0.500000 0.000000 0.500000
O O17 0.766330 0.750000 0.832372
O O18 0.396500 0.750000 0.910831
O O19 0.500000 0.000000 0.000000
#
# Coordination Sequence:
#
# PCOD8071737 Si02
#       7
#     4   4   4   4   4   4   4
#     4   9  20  39  61  85 117 153 190 242 300 348
#     4  10  20  34  52  78 114 152 187 232 287 342
#     4  10  23  44  64  84 115 155 199 248 296 348
#     4  10  22  38  57  83 118 156 193 240 296 349
#     4  11  21  33  53  82 117 155 190 231 285 345
#     4  10  19  33  57  87 115 146 187 233 289 354
#     4  10  21  36  57  85 116 151 194 241 290 347
#
# _framework density 19.863579999999999
#
# number of rings (size 3 to 8) (size 9 to 14) (size 15 to 20)
#    0.000    2.000    1.429    1.714    0.000    5.714 
#    0.000    2.857    0.000    0.000    0.000    0.000 
#    0.000    0.000    0.000    0.000    0.000    0.000 
#
# Total GULP energy -347076.552883 kJ/mol
# GULP energy per Si atom -12395.591174 kJ/mol
# Density = 1.981837 g / cm^3
# Si number density = 19.863580 Si / 1000 Ang^3
#
#
#
# Elastic Constant Matrix: (Units=GPa)
#
#
# Indices 1 2 3 4 5 6 
#
# 1 147.5035 62.5549 65.4531 0.0000 6.5821 0.0000
# 2 62.5549 98.5167 54.1929 0.0000 4.7393 0.0000
# 3 65.4531 54.1929 112.8394 0.0000 14.1662 0.0000
# 4 0.0000 0.0000 0.0000 31.7101 0.0000 -3.4760
# 5 6.5821 4.7393 14.1662 0.0000 29.2523 0.0000
# 6 0.0000 0.0000 0.0000 -3.4760 0.0000 30.3467
#
#
#
# Elastic Compliance Matrix: (Units=1/GPa)
#
#
# Indices 1 2 3 4 5 6 
#
# 1 0.010400 -0.004457 -0.003928 0.000000 0.000284 0.000000
# 2 -0.004457 0.015734 -0.005087 0.000000 0.000917 0.000000
# 3 -0.003928 -0.005087 0.014234 0.000000 -0.005186 0.000000
# 4 0.000000 0.000000 0.000000 0.031937 0.000000 0.003658
# 5 0.000284 0.000917 -0.005186 0.000000 0.036484 0.000000
# 6 0.000000 0.000000 0.000000 0.003658 0.000000 0.033372
#
#
# Mechanical properties :
#
#
# Convention : Reuss Voigt Hill
#
# Bulk Modulus (GPa) = 74.47986 80.36238 77.42112
# Shear Modulus (GPa) = 28.80544 30.03908 29.42226
#
# Velocity S-wave (km/s) = 3.81223 3.89301 3.85283
# Velocity P-wave (km/s) = 7.54683 7.79438 7.67160
#
# Compressibility (1/GPa) = 0.01342645
#
# Stress axis : x y z
#
# Youngs Moduli (GPa) = 96.15673 63.55520 70.25205
#
# Poissons Ratio (x) = 0.28323 0.27593
# Poissons Ratio (y) = 0.42852 0.35736
# Poissons Ratio (z) = 0.37768 0.32329
#
# Static dielectric constant tensor:
#      x y z
#    x 4.043170 0.000000 -0.090750 
#    y 0.000000 3.956570 0.000000 
#    z -0.090750 0.000000 4.034380 
# 
# 
# High freq. dielectric constant tensor:
#      x y z
#    x 1.762880 0.000000 -0.000190 
#    y 0.000000 1.780860 0.000000 
#    z -0.000190 0.000000 1.778290 
# 
# From -- ./inp_files/38399.got.cif
#   From: 2010.06.25/outbox.cif.g09.slc.cpg/sg11_20_cif.got.tgz:38399.got - 2010.06.27 23:14:04.
