data_PCOD8071475
_publ_section_title
;
Structure prediction by ZEFSAII (Michael W. Deem and Ramdas Pophale) SiO2 
 PCOD8071475
Probable space group: P 21/M
;
_chemical_formula_sum "Si O2"
_cell_formula_units_Z 32
_cell_length_a 25.649251
_cell_length_b 13.969007
_cell_length_c 9.970077
_cell_angle_alpha 90.000000
_cell_angle_beta 27.320071
_cell_angle_gamma 90.000000
_cell_volume 1639.511025
_symmetry_space_group_name_H-M "P 21/M"
_symmetry_group_IT_number 11
_symmetry_cell_setting 'monoclinic'
loop_
_space_group_symop_operation_xyz
x,y,z
-x,1/2+y,-z
-x,-y,-z
x,1/2-y,z
loop_
_atom_site_type_symbol
_atom_site_label
_atom_site_fract_x
_atom_site_fract_y
_atom_site_fract_z
Si Si1 0.693911 0.137955 0.725869
Si Si2 0.861132 0.641478 0.055434
Si Si3 0.961524 0.360937 0.861773
Si Si4 0.897313 0.565326 0.691454
Si Si5 0.470152 0.638034 0.658059
Si Si6 0.944653 0.362517 0.198411
Si Si7 0.343419 0.516819 0.740308
Si Si8 0.728837 0.036215 0.379887
O O1 0.700986 0.250000 0.675445
O O2 0.814592 0.101183 0.509763
O O3 0.667313 0.082101 0.648605
O O4 0.594815 0.114569 0.055618
O O5 0.836849 0.750000 0.157404
O O6 0.875676 0.639837 0.861757
O O7 0.973759 0.596472 0.871149
O O8 0.753768 0.576996 0.345651
O O9 0.928603 0.250000 0.936805
O O10 0.069579 0.379071 0.519928
O O11 0.993042 0.393192 0.941648
O O12 0.849701 0.415884 0.066542
O O13 0.000000 0.500000 0.500000
O O14 0.785564 0.502385 0.919670
O O15 0.497013 0.750000 0.581958
O O16 0.391772 0.605603 0.713722
O O17 0.587233 0.580446 0.390177
O O18 0.945313 0.250000 0.215597
O O19 0.352029 0.547325 0.564591
#
# Coordination Sequence:
#
# PCOD8071475 Si02
#       8
#     4   4   4   4   4   4   4   4
#     4   9  19  35  57  84 109 144 193 240 287 334
#     4  10  20  33  50  79 118 157 192 228 282 347
#     4  10  19  33  53  81 117 154 187 228 288 344
#     4  11  21  37  54  86 118 150 188 229 291 347
#     4  10  23  42  63  84 110 153 198 244 291 334
#     4   8  17  31  49  77 110 143 186 229 272 334
#     4  10  23  40  59  84 118 148 196 242 285 349
#     4  10  20  35  56  83 117 147 187 239 290 341
#
# _framework density 19.518013
#
# number of rings (size 3 to 8) (size 9 to 14) (size 15 to 20)
#    0.000    2.250    2.500    1.500    1.750    7.000 
#    0.000    0.000    0.000    3.000    0.000    0.000 
#    0.000    0.000    0.000    0.000    0.000    0.000 
#
# Total GULP energy -396758.546240 kJ/mol
# GULP energy per Si atom -12398.704570 kJ/mol
# Density = 1.947359 g / cm^3
# Si number density = 19.518013 Si / 1000 Ang^3
#
#
#
# Elastic Constant Matrix: (Units=GPa)
#
#
# Indices 1 2 3 4 5 6 
#
# 1 94.2505 21.9782 22.1593 0.0000 -2.3612 0.0000
# 2 21.9782 63.1497 24.8054 0.0000 7.4931 0.0000
# 3 22.1593 24.8054 70.1668 0.0000 0.8437 0.0000
# 4 0.0000 0.0000 0.0000 24.1394 0.0000 5.6255
# 5 -2.3612 7.4931 0.8437 0.0000 21.4426 0.0000
# 6 0.0000 0.0000 0.0000 5.6255 0.0000 25.4807
#
#
#
# Elastic Compliance Matrix: (Units=1/GPa)
#
#
# Indices 1 2 3 4 5 6 
#
# 1 0.012109 -0.003501 -0.002618 0.000000 0.002660 0.000000
# 2 -0.003501 0.020256 -0.005968 0.000000 -0.007229 0.000000
# 3 -0.002618 -0.005968 0.017175 0.000000 0.001122 0.000000
# 4 0.000000 0.000000 0.000000 0.043673 0.000000 -0.009642
# 5 0.002660 -0.007229 0.001122 0.000000 0.049411 0.000000
# 6 0.000000 0.000000 0.000000 -0.009642 0.000000 0.041374
#
#
# Mechanical properties :
#
#
# Convention : Reuss Voigt Hill
#
# Bulk Modulus (GPa) = 39.42575 40.60585 40.01580
# Shear Modulus (GPa) = 23.08098 24.78749 23.93424
#
# Velocity S-wave (km/s) = 3.44255 3.56754 3.50560
# Velocity P-wave (km/s) = 6.00375 6.14974 6.07718
#
# Compressibility (1/GPa) = 0.02536414
#
# Stress axis : x y z
#
# Youngs Moduli (GPa) = 82.58509 49.36775 58.22409
#
# Poissons Ratio (x) = 0.17286 0.15244
# Poissons Ratio (y) = 0.28916 0.34750
# Poissons Ratio (z) = 0.21622 0.29464
#
# Static dielectric constant tensor:
#      x y z
#    x 3.811370 0.000000 0.152070 
#    y 0.000000 3.468990 0.000000 
#    z 0.152070 0.000000 3.480460 
# 
# 
# High freq. dielectric constant tensor:
#      x y z
#    x 1.765600 0.000000 0.009310 
#    y 0.000000 1.759120 0.000000 
#    z 0.009310 0.000000 1.737970 
# 
# From -- ./inp_files/27788.got.cif
#   From: 2010.06.25/outbox.cif.g09.slc.cpg/sg11_14_cif.got.tgz:27788.got - 2010.06.27 23:14:04.
