data_PCOD8071107
_publ_section_title
;
Structure prediction by ZEFSAII (Michael W. Deem and Ramdas Pophale) SiO2 
 PCOD8071107
Probable space group: P 21/M
;
_chemical_formula_sum "Si O2"
_cell_formula_units_Z 28
_cell_length_a 20.460339
_cell_length_b 8.760057
_cell_length_c 14.704073
_cell_angle_alpha 90.000000
_cell_angle_beta 147.134968
_cell_angle_gamma 90.000000
_cell_volume 1430.167014
_symmetry_space_group_name_H-M "P 21/M"
_symmetry_group_IT_number 11
_symmetry_cell_setting 'monoclinic'
loop_
_space_group_symop_operation_xyz
x,y,z
-x,1/2+y,-z
-x,-y,-z
x,1/2-y,z
loop_
_atom_site_type_symbol
_atom_site_label
_atom_site_fract_x
_atom_site_fract_y
_atom_site_fract_z
Si Si1 0.069318 0.572552 0.750707
Si Si2 0.568356 0.569940 0.804043
Si Si3 0.132175 0.569366 0.156100
Si Si4 0.790295 0.925581 0.416786
Si Si5 0.303467 0.930077 0.514761
Si Si6 0.250152 0.428543 0.832996
Si Si7 0.223398 0.069763 0.082673
O O1 0.092454 0.750000 0.797987
O O2 0.136890 0.523456 0.737823
O O3 0.930341 0.535234 0.573743
O O4 0.113856 0.474073 0.888433
O O5 0.559246 0.750000 0.789342
O O6 0.434493 0.498427 0.642254
O O7 0.650816 0.514788 0.815930
O O8 0.630726 0.521616 0.972197
O O9 0.119603 0.750000 0.141930
O O10 0.202126 0.507564 0.327113
O O11 0.210635 0.517915 0.162064
O O12 0.000000 0.500000 0.000000
O O13 0.769939 0.750000 0.419263
O O14 0.729281 0.965795 0.248814
O O15 0.727573 0.028152 0.418821
O O16 0.310389 0.750000 0.514320
O O17 0.220906 0.250000 0.813426
O O18 0.219432 0.250000 0.095287
#
# Coordination Sequence:
#
# PCOD8071107 Si02
#       7
#     4   4   4   4   4   4   4
#     4  10  19  32  52  80 112 140 175 221 263 311
#     4   8  17  36  57  77 104 138 176 216 261 311
#     4  11  23  38  57  82 110 138 174 217 263 317
#     4  10  21  34  50  77 110 143 177 218 266 310
#     4  10  22  38  55  76 104 140 179 219 261 312
#     4   9  18  34  55  77 106 142 177 216 264 315
#     4  10  20  36  59  81 106 141 175 214 267 318
#
# _framework density 19.578133000000001
#
# number of rings (size 3 to 8) (size 9 to 14) (size 15 to 20)
#    0.000    2.286    0.000    3.429    0.000    6.286 
#    0.000    3.571    0.000    0.000    0.000    0.000 
#    0.000    0.000    0.000    0.000    0.000    0.000 
#
# Total GULP energy -347209.791783 kJ/mol
# GULP energy per Si atom -12400.349707 kJ/mol
# Density = 1.953357 g / cm^3
# Si number density = 19.578133 Si / 1000 Ang^3
#
#
#
# Elastic Constant Matrix: (Units=GPa)
#
#
# Indices 1 2 3 4 5 6 
#
# 1 132.5322 25.6670 82.1560 0.0000 -5.7904 0.0000
# 2 25.6670 37.5448 29.5824 0.0000 3.9209 0.0000
# 3 82.1560 29.5824 123.4276 0.0000 13.9015 0.0000
# 4 0.0000 0.0000 0.0000 21.2454 0.0000 -3.2203
# 5 -5.7904 3.9209 13.9015 0.0000 30.4077 0.0000
# 6 0.0000 0.0000 0.0000 -3.2203 0.0000 35.1134
#
#
#
# Elastic Compliance Matrix: (Units=1/GPa)
#
#
# Indices 1 2 3 4 5 6 
#
# 1 0.014555 -0.003004 -0.009830 0.000000 0.007653 0.000000
# 2 -0.003004 0.033469 -0.005768 0.000000 -0.002251 0.000000
# 3 -0.009830 -0.005768 0.017032 0.000000 -0.008914 0.000000
# 4 0.000000 0.000000 0.000000 0.047733 0.000000 0.004378
# 5 0.007653 -0.002251 -0.008914 0.000000 0.038709 0.000000
# 6 0.000000 0.000000 0.000000 0.004378 0.000000 0.028881
#
#
# Mechanical properties :
#
#
# Convention : Reuss Voigt Hill
#
# Bulk Modulus (GPa) = 35.90674 63.14613 49.52643
# Shear Modulus (GPa) = 22.03935 27.75993 24.89964
#
# Velocity S-wave (km/s) = 3.35880 3.76959 3.57011
# Velocity P-wave (km/s) = 5.78119 7.16030 6.50738
#
# Compressibility (1/GPa) = 0.02784992
#
# Stress axis : x y z
#
# Youngs Moduli (GPa) = 68.70406 29.87859 58.71436
#
# Poissons Ratio (x) = 0.08976 0.57717
# Poissons Ratio (y) = 0.20641 0.33869
# Poissons Ratio (z) = 0.67537 0.17235
#
# Static dielectric constant tensor:
#      x y z
#    x 3.639540 0.000000 0.032090 
#    y 0.000000 3.397880 0.000000 
#    z 0.032090 0.000000 3.885330 
# 
# 
# High freq. dielectric constant tensor:
#      x y z
#    x 1.767490 0.000000 -0.002690 
#    y 0.000000 1.746150 0.000000 
#    z -0.002690 0.000000 1.766510 
# 
# From -- ./inp_files/37799.got.cif
#   From: 2010.06.25/outbox.cif.g09.slc.cpg/sg11_19_cif.got.tgz:37799.got - 2010.06.27 23:14:04.
