data_PCOD8071169
_publ_section_title
;
Structure prediction by ZEFSAII (Michael W. Deem and Ramdas Pophale) SiO2 
 PCOD8071169
Probable space group: P 21/M
;
_chemical_formula_sum "Si O2"
_cell_formula_units_Z 32
_cell_length_a 28.184306
_cell_length_b 8.938052
_cell_length_c 22.249831
_cell_angle_alpha 90.000000
_cell_angle_beta 18.445117
_cell_angle_gamma 90.000000
_cell_volume 1773.405663
_symmetry_space_group_name_H-M "P 21/M"
_symmetry_group_IT_number 11
_symmetry_cell_setting 'monoclinic'
loop_
_space_group_symop_operation_xyz
x,y,z
-x,1/2+y,-z
-x,-y,-z
x,1/2-y,z
loop_
_atom_site_type_symbol
_atom_site_label
_atom_site_fract_x
_atom_site_fract_y
_atom_site_fract_z
Si Si1 0.776953 0.576613 0.770339
Si Si2 0.704267 0.923676 0.204957
Si Si3 0.977959 0.075541 0.435247
Si Si4 0.852203 0.074178 0.462515
Si Si5 0.537265 0.076413 0.892838
Si Si6 0.101857 0.923650 0.827743
Si Si7 0.627783 0.420774 0.417036
Si Si8 0.005451 0.426915 0.821383
O O1 0.809082 0.750000 0.722159
O O2 0.838658 0.497779 0.636716
O O3 0.863806 0.520311 0.726149
O O4 0.599660 0.544659 0.989115
O O5 0.746380 0.750000 0.150857
O O6 0.546891 0.958570 0.360341
O O7 0.693716 0.970037 0.287279
O O8 0.835757 0.016106 0.014972
O O9 0.955234 0.250000 0.471473
O O10 0.970766 0.036870 0.373266
O O11 0.852862 0.250000 0.445107
O O12 0.688522 0.017576 0.680197
O O13 0.894651 0.976473 0.354480
O O14 0.556234 0.250000 0.884369
O O15 0.500000 0.000000 0.000000
O O16 0.057245 0.750000 0.875650
O O17 0.276395 0.941866 0.637379
O O18 0.079228 0.003408 0.791852
O O19 0.000000 0.000000 0.000000
O O20 0.641451 0.250000 0.376709
O O21 0.005136 0.250000 0.828114
#
# Coordination Sequence:
#
# PCOD8071169 Si02
#       8
#     4   4   4   4   4   4   4   4
#     4   9  17  29  50  80 108 133 169 219 270 319
#     4  10  19  34  57  83 111 144 180 226 278 330
#     4   9  17  31  51  76 105 137 173 216 267 323
#     4  10  21  37  54  74 106 148 188 228 279 336
#     4  10  19  32  53  80 109 140 178 225 274 326
#     4  11  21  36  59  87 116 147 185 231 280 334
#     4   9  19  34  56  86 114 139 178 227 277 329
#     4  12  25  39  55  79 113 153 193 234 282 338
#
# _framework density 18.044376
#
# number of rings (size 3 to 8) (size 9 to 14) (size 15 to 20)
#    0.000    2.000    2.500    1.875    0.000    2.000 
#    0.000    1.250    0.000    4.500    0.000    0.000 
#    0.000    0.000    0.000    0.000    0.000    0.000 
#
# Total GULP energy -396740.426799 kJ/mol
# GULP energy per Si atom -12398.138337 kJ/mol
# Density = 1.800331 g / cm^3
# Si number density = 18.044376 Si / 1000 Ang^3
#
#
#
# Elastic Constant Matrix: (Units=GPa)
#
#
# Indices 1 2 3 4 5 6 
#
# 1 116.1006 50.6017 69.1334 0.0000 -3.2109 0.0000
# 2 50.6017 88.1896 50.9808 0.0000 2.2581 0.0000
# 3 69.1334 50.9808 125.0196 0.0000 -4.6190 0.0000
# 4 0.0000 0.0000 0.0000 27.9498 0.0000 3.6953
# 5 -3.2109 2.2581 -4.6190 0.0000 27.7957 0.0000
# 6 0.0000 0.0000 0.0000 3.6953 0.0000 25.7090
#
#
#
# Elastic Compliance Matrix: (Units=1/GPa)
#
#
# Indices 1 2 3 4 5 6 
#
# 1 0.014231 -0.004797 -0.005874 0.000000 0.001057 0.000000
# 2 -0.004797 0.016591 -0.004209 0.000000 -0.002602 0.000000
# 3 -0.005874 -0.004209 0.013031 0.000000 0.001829 0.000000
# 4 0.000000 0.000000 0.000000 0.036471 0.000000 -0.005242
# 5 0.001057 -0.002602 0.001829 0.000000 0.036614 0.000000
# 6 0.000000 0.000000 0.000000 -0.005242 0.000000 0.039650
#
#
# Mechanical properties :
#
#
# Convention : Reuss Voigt Hill
#
# Bulk Modulus (GPa) = 70.95812 74.52686 72.74249
# Shear Modulus (GPa) = 26.17140 26.86384 26.51762
#
# Velocity S-wave (km/s) = 3.81253 3.86264 3.83767
# Velocity P-wave (km/s) = 7.66747 7.82847 7.74839
#
# Compressibility (1/GPa) = 0.01409282
#
# Stress axis : x y z
#
# Youngs Moduli (GPa) = 70.26872 60.27207 76.73866
#
# Poissons Ratio (x) = 0.28911 0.45080
# Poissons Ratio (y) = 0.33706 0.32302
# Poissons Ratio (z) = 0.41279 0.25370
#
# Static dielectric constant tensor:
#      x y z
#    x 1.471840 0.000000 -0.156260 
#    y 0.000000 3.380470 0.000000 
#    z -0.156260 0.000000 3.488610 
# 
# 
# High freq. dielectric constant tensor:
#      x y z
#    x 1.694090 0.000000 -0.028360 
#    y 0.000000 1.700090 0.000000 
#    z -0.028360 0.000000 1.690230 
# 
# From -- ./inp_files/67018.got.cif
#   From: 2010.06.25/outbox.cif.g09.slc.cpg/sg11_34_cif.got.tgz:67018.got - 2010.06.27 23:14:04.
