data_PCOD8071159
_publ_section_title
;
Structure prediction by ZEFSAII (Michael W. Deem and Ramdas Pophale) SiO2 
 PCOD8071159
Probable space group: P 21/M
;
_chemical_formula_sum "Si O2"
_cell_formula_units_Z 28
_cell_length_a 10.193437
_cell_length_b 11.763551
_cell_length_c 21.471180
_cell_angle_alpha 90.000000
_cell_angle_beta 144.745193
_cell_angle_gamma 90.000000
_cell_volume 1486.112297
_symmetry_space_group_name_H-M "P 21/M"
_symmetry_group_IT_number 11
_symmetry_cell_setting 'monoclinic'
loop_
_space_group_symop_operation_xyz
x,y,z
-x,1/2+y,-z
-x,-y,-z
x,1/2-y,z
loop_
_atom_site_type_symbol
_atom_site_label
_atom_site_fract_x
_atom_site_fract_y
_atom_site_fract_z
Si Si1 0.028290 0.622153 0.298777
Si Si2 0.655502 0.039210 0.905015
Si Si3 0.651017 0.386118 0.681643
Si Si4 0.554909 0.621350 0.055580
Si Si5 0.816977 0.976993 0.335577
Si Si6 0.825022 0.624264 0.463766
Si Si7 0.953175 0.379459 0.910314
O O1 0.069538 0.750000 0.338062
O O2 0.823511 0.617950 0.170083
O O3 0.981075 0.547587 0.341095
O O4 0.248603 0.575950 0.346551
O O5 0.573636 0.122411 0.928042
O O6 0.433617 0.987717 0.784381
O O7 0.811952 0.111060 0.919292
O O8 0.800414 0.936778 0.989838
O O9 0.648366 0.250000 0.686858
O O10 0.396987 0.437175 0.591744
O O11 0.808956 0.435602 0.798331
O O12 0.497405 0.750000 0.003431
O O13 0.500000 0.500000 0.000000
O O14 0.799815 0.873944 0.378555
O O15 0.933969 0.075600 0.421027
O O16 0.825044 0.750000 0.489441
O O17 0.007411 0.250000 0.916714
#
# Coordination Sequence:
#
# PCOD8071159 Si02
#       7
#     4   4   4   4   4   4   4
#     4   9  18  32  52  77 104 136 178 221 264 319
#     4  10  20  33  52  79 108 141 182 225 276 329
#     4   9  17  31  52  76 101 134 175 219 264 316
#     4  10  20  34  53  79 112 148 187 229 277 331
#     4  10  20  34  52  76 102 137 174 218 273 320
#     4  10  20  34  53  74 101 135 176 224 271 319
#     4  10  19  32  53  79 108 141 179 224 275 332
#
# _framework density 18.841107000000001
#
# number of rings (size 3 to 8) (size 9 to 14) (size 15 to 20)
#    0.000    2.286    1.429    1.714    0.000    4.000 
#    0.000    2.143    0.000    0.000    0.000    1.000 
#    0.000    0.000    0.000    0.000    0.000    0.000 
#
# Total GULP energy -346868.739543 kJ/mol
# GULP energy per Si atom -12388.169269 kJ/mol
# Density = 1.879822 g / cm^3
# Si number density = 18.841107 Si / 1000 Ang^3
#
#
#
# Elastic Constant Matrix: (Units=GPa)
#
#
# Indices 1 2 3 4 5 6 
#
# 1 79.5037 12.8540 17.3163 0.0000 9.9256 0.0000
# 2 12.8540 65.7036 30.9976 0.0000 3.3411 0.0000
# 3 17.3163 30.9976 96.7896 0.0000 12.4888 0.0000
# 4 0.0000 0.0000 0.0000 12.2063 0.0000 0.7273
# 5 9.9256 3.3411 12.4888 0.0000 25.1433 0.0000
# 6 0.0000 0.0000 0.0000 0.7273 0.0000 19.3817
#
#
#
# Elastic Compliance Matrix: (Units=1/GPa)
#
#
# Indices 1 2 3 4 5 6 
#
# 1 0.013722 -0.001852 -0.001277 0.000000 -0.004537 0.000000
# 2 -0.001852 0.018185 -0.005636 0.000000 0.001114 0.000000
# 3 -0.001277 -0.005636 0.013039 0.000000 -0.005224 0.000000
# 4 0.000000 0.000000 0.000000 0.082109 0.000000 -0.003081
# 5 -0.004537 0.001114 -0.005224 0.000000 0.044010 0.000000
# 6 0.000000 0.000000 0.000000 -0.003081 0.000000 0.051711
#
#
# Mechanical properties :
#
#
# Convention : Reuss Voigt Hill
#
# Bulk Modulus (GPa) = 36.47401 40.48142 38.47771
# Shear Modulus (GPa) = 20.04472 23.40151 21.72311
#
# Velocity S-wave (km/s) = 3.26526 3.52809 3.39922
# Velocity P-wave (km/s) = 5.79799 6.17486 5.98939
#
# Compressibility (1/GPa) = 0.02741679
#
# Stress axis : x y z
#
# Youngs Moduli (GPa) = 72.87671 54.99186 76.69214
#
# Poissons Ratio (x) = 0.10182 0.09790
# Poissons Ratio (y) = 0.13493 0.43225
# Poissons Ratio (z) = 0.09303 0.30995
#
# Static dielectric constant tensor:
#      x y z
#    x 3.716470 0.000000 0.129130 
#    y 0.000000 3.185430 0.000000 
#    z 0.129130 0.000000 3.416270 
# 
# 
# High freq. dielectric constant tensor:
#      x y z
#    x 1.754310 0.000000 0.008050 
#    y 0.000000 1.694650 0.000000 
#    z 0.008050 0.000000 1.721240 
# 
# From -- ./inp_files/68537.got.cif
#   From: 2010.06.25/outbox.cif.g09.slc.cpg/sg11_35_cif.got.tgz:68537.got - 2010.06.27 23:14:04.
