data_PCOD8071011
_publ_section_title
;
Structure prediction by ZEFSAII (Michael W. Deem and Ramdas Pophale) SiO2 
 PCOD8071011
Probable space group: P 21/M
;
_chemical_formula_sum "Si O2"
_cell_formula_units_Z 32
_cell_length_a 17.062508
_cell_length_b 17.139127
_cell_length_c 10.568441
_cell_angle_alpha 90.000000
_cell_angle_beta 34.468640
_cell_angle_gamma 90.000000
_cell_volume 1749.139525
_symmetry_space_group_name_H-M "P 21/M"
_symmetry_group_IT_number 11
_symmetry_cell_setting 'monoclinic'
loop_
_space_group_symop_operation_xyz
x,y,z
-x,1/2+y,-z
-x,-y,-z
x,1/2-y,z
loop_
_atom_site_type_symbol
_atom_site_label
_atom_site_fract_x
_atom_site_fract_y
_atom_site_fract_z
Si Si1 0.097763 0.403659 0.378134
Si Si2 0.631908 0.163589 0.823009
Si Si3 0.620802 0.335641 0.135657
Si Si4 0.146262 0.957627 0.143153
Si Si5 0.073962 0.658003 0.628481
Si Si6 0.337140 0.159449 0.216376
Si Si7 0.305245 0.341766 0.541630
Si Si8 0.084305 0.444595 0.980557
O O1 0.163518 0.485015 0.241452
O O2 0.226365 0.352761 0.254121
O O3 0.996833 0.412591 0.634172
O O4 0.019169 0.361221 0.369232
O O5 0.636176 0.250000 0.757402
O O6 0.771900 0.120235 0.591528
O O7 0.638856 0.168703 0.963301
O O8 0.486757 0.121001 0.977596
O O9 0.657928 0.250000 0.143528
O O10 0.462122 0.356288 0.380791
O O11 0.725483 0.400007 0.049619
O O12 0.139444 0.004172 0.022503
O O13 0.079293 0.750000 0.635095
O O14 0.016509 0.622212 0.833388
O O15 0.370439 0.250000 0.190089
O O16 0.286888 0.129911 0.420486
O O17 0.264949 0.250000 0.612576
O O18 0.210185 0.399562 0.748052
O O19 0.000000 0.500000 0.000000
#
# Coordination Sequence:
#
# PCOD8071011 Si02
#       8
#     4   4   4   4   4   4   4   4
#     4  10  19  32  51  83 118 135 169 219 280 328
#     4   8  15  30  52  80 108 131 169 218 268 320
#     4   9  17  34  58  80 102 137 181 225 271 321
#     4  10  21  34  52  78 112 141 174 221 271 324
#     4  10  19  34  59  80 103 146 183 218 267 321
#     4   9  17  31  54  83 109 136 174 224 269 312
#     4   9  19  37  58  76 103 145 188 220 258 320
#     4  11  23  38  52  75 110 147 184 224 263 320
#
# _framework density 18.294709999999998
#
# number of rings (size 3 to 8) (size 9 to 14) (size 15 to 20)
#    0.000    2.500    1.250    3.000    0.000    1.000 
#    2.250    2.500    0.000    0.000    0.000    0.000 
#    0.000    0.000    0.000    0.000    0.000    0.000 
#
# Total GULP energy -396508.711278 kJ/mol
# GULP energy per Si atom -12390.897227 kJ/mol
# Density = 1.825307 g / cm^3
# Si number density = 18.294710 Si / 1000 Ang^3
#
#
#
# Elastic Constant Matrix: (Units=GPa)
#
#
# Indices 1 2 3 4 5 6 
#
# 1 80.4865 33.8803 61.3648 0.0000 -11.5087 0.0000
# 2 33.8803 76.7560 61.3273 0.0000 -5.8405 0.0000
# 3 61.3648 61.3273 156.0252 0.0000 -11.5266 0.0000
# 4 0.0000 0.0000 0.0000 28.3858 0.0000 -0.3653
# 5 -11.5087 -5.8405 -11.5266 0.0000 20.5767 0.0000
# 6 0.0000 0.0000 0.0000 -0.3653 0.0000 24.0716
#
#
#
# Elastic Compliance Matrix: (Units=1/GPa)
#
#
# Indices 1 2 3 4 5 6 
#
# 1 0.019142 -0.003386 -0.005714 0.000000 0.006544 0.000000
# 2 -0.003386 0.019623 -0.006374 0.000000 0.000106 0.000000
# 3 -0.005714 -0.006374 0.011258 0.000000 0.001301 0.000000
# 4 0.000000 0.000000 0.000000 0.035236 0.000000 0.000535
# 5 0.006544 0.000106 0.001301 0.000000 0.053018 0.000000
# 6 0.000000 0.000000 0.000000 0.000535 0.000000 0.041551
#
#
# Mechanical properties :
#
#
# Convention : Reuss Voigt Hill
#
# Bulk Modulus (GPa) = 52.42199 69.60140 61.01169
# Shear Modulus (GPa) = 23.02722 25.05318 24.04020
#
# Velocity S-wave (km/s) = 3.55164 3.70459 3.62892
# Velocity P-wave (km/s) = 6.74798 7.51171 7.14006
#
# Compressibility (1/GPa) = 0.01907596
#
# Stress axis : x y z
#
# Youngs Moduli (GPa) = 52.24070 50.95963 88.82511
#
# Poissons Ratio (x) = 0.17254 0.50758
# Poissons Ratio (y) = 0.17687 0.56615
# Poissons Ratio (z) = 0.29852 0.32480
#
# Static dielectric constant tensor:
#      x y z
#    x 3.148180 0.000000 -0.184590 
#    y 0.000000 3.516320 0.000000 
#    z -0.184590 0.000000 3.738250 
# 
# 
# High freq. dielectric constant tensor:
#      x y z
#    x 1.685760 0.000000 -0.013740 
#    y 0.000000 1.701400 0.000000 
#    z -0.013740 0.000000 1.719410 
# 
# From -- ./inp_files/41834.got.cif
#   From: 2010.06.25/outbox.cif.g09.slc.cpg/sg11_21_cif.got.tgz:41834.got - 2010.06.27 23:14:04.
