data_PCOD8071340
_publ_section_title
;
Structure prediction by ZEFSAII (Michael W. Deem and Ramdas Pophale) SiO2 
 PCOD8071340
Probable space group: P 21/M
;
_chemical_formula_sum "Si O2"
_cell_formula_units_Z 32
_cell_length_a 22.770922
_cell_length_b 9.152983
_cell_length_c 16.729090
_cell_angle_alpha 90.000000
_cell_angle_beta 31.826972
_cell_angle_gamma 90.000000
_cell_volume 1838.735817
_symmetry_space_group_name_H-M "P 21/M"
_symmetry_group_IT_number 11
_symmetry_cell_setting 'monoclinic'
loop_
_space_group_symop_operation_xyz
x,y,z
-x,1/2+y,-z
-x,-y,-z
x,1/2-y,z
loop_
_atom_site_type_symbol
_atom_site_label
_atom_site_fract_x
_atom_site_fract_y
_atom_site_fract_z
Si Si1 0.164041 0.080516 0.660875
Si Si2 0.397797 0.412798 0.650778
Si Si3 0.350504 0.422352 0.326066
Si Si4 0.829096 0.583330 0.169998
Si Si5 0.391609 0.916183 0.950111
Si Si6 0.384878 0.582137 0.135693
Si Si7 0.270460 0.076291 0.952176
Si Si8 0.082239 0.579655 0.083205
O O1 0.188593 0.250000 0.645888
O O2 0.267451 0.016388 0.490473
O O3 0.156030 0.012496 0.759175
O O4 0.048546 0.055096 0.747188
O O5 0.500000 0.500000 0.500000
O O6 0.440458 0.250000 0.616217
O O7 0.301791 0.418536 0.696088
O O8 0.353398 0.476816 0.786102
O O9 0.336952 0.250000 0.328030
O O10 0.477971 0.462375 0.201098
O O11 0.312106 0.502548 0.288218
O O12 0.874806 0.750000 0.110985
O O13 0.894506 0.483237 0.031805
O O14 0.381310 0.750000 0.930608
O O15 0.320576 0.024210 0.977630
O O16 0.335623 0.929163 0.102951
O O17 0.403180 0.750000 0.138769
O O18 0.500000 0.500000 0.000000
O O19 0.254382 0.250000 0.970340
O O20 0.150474 0.003615 0.073532
O O21 0.113988 0.750000 0.047411
#
# Coordination Sequence:
#
# PCOD8071340 Si02
#       8
#     4   4   4   4   4   4   4   4
#     4   9  18  32  52  75 100 131 166 206 251 297
#     4   9  19  31  45  65  94 130 160 195 242 288
#     4   9  18  32  51  77 106 133 161 197 249 301
#     4   9  18  33  50  69  96 131 168 207 250 291
#     4   9  18  31  52  77 100 129 163 197 238 296
#     4   9  17  31  50  74 104 134 163 197 242 295
#     4  10  21  35  50  70  97 129 166 207 248 290
#     4  10  19  33  52  72  96 130 172 211 246 291
#
# _framework density 17.40326
#
# number of rings (size 3 to 8) (size 9 to 14) (size 15 to 20)
#    0.000    2.750    0.000    3.000    1.750    5.000 
#    0.000    2.500    0.000    0.750    0.000    0.000 
#    0.000    0.000    0.000    0.000    0.000    0.000 
#
# Total GULP energy -396646.020908 kJ/mol
# GULP energy per Si atom -12395.188153 kJ/mol
# Density = 1.736365 g / cm^3
# Si number density = 17.403260 Si / 1000 Ang^3
#
#
#
# Elastic Constant Matrix: (Units=GPa)
#
#
# Indices 1 2 3 4 5 6 
#
# 1 106.5195 44.1120 44.4004 0.0000 7.7576 0.0000
# 2 44.1120 71.1614 27.9611 0.0000 2.8090 0.0000
# 3 44.4004 27.9611 68.4754 0.0000 3.2898 0.0000
# 4 0.0000 0.0000 0.0000 22.4745 0.0000 4.2915
# 5 7.7576 2.8090 3.2898 0.0000 15.9426 0.0000
# 6 0.0000 0.0000 0.0000 4.2915 0.0000 29.6029
#
#
#
# Elastic Compliance Matrix: (Units=1/GPa)
#
#
# Indices 1 2 3 4 5 6 
#
# 1 0.015420 -0.006586 -0.007075 0.000000 -0.004883 0.000000
# 2 -0.006586 0.019589 -0.003754 0.000000 0.000528 0.000000
# 3 -0.007075 -0.003754 0.020732 0.000000 -0.000174 0.000000
# 4 0.000000 0.000000 0.000000 0.045762 0.000000 -0.006634
# 5 -0.004883 0.000528 -0.000174 0.000000 0.065044 0.000000
# 6 0.000000 0.000000 0.000000 -0.006634 0.000000 0.034742
#
#
# Mechanical properties :
#
#
# Convention : Reuss Voigt Hill
#
# Bulk Modulus (GPa) = 47.81847 53.23370 50.52608
# Shear Modulus (GPa) = 20.56861 22.24954 21.40907
#
# Velocity S-wave (km/s) = 3.44158 3.57945 3.51119
# Velocity P-wave (km/s) = 6.58248 6.90927 6.74785
#
# Compressibility (1/GPa) = 0.02091242
#
# Stress axis : x y z
#
# Youngs Moduli (GPa) = 64.85148 51.04818 48.23402
#
# Poissons Ratio (x) = 0.33621 0.34123
# Poissons Ratio (y) = 0.42711 0.18107
# Poissons Ratio (z) = 0.45879 0.19163
#
# Static dielectric constant tensor:
#      x y z
#    x 3.286500 0.000000 0.102690 
#    y 0.000000 3.267010 0.000000 
#    z 0.102690 0.000000 3.160440 
# 
# 
# High freq. dielectric constant tensor:
#      x y z
#    x 1.668000 0.000000 0.006880 
#    y 0.000000 1.666690 0.000000 
#    z 0.006880 0.000000 1.653350 
# 
# From -- ./inp_files/61738.got.cif
#   From: 2010.06.25/outbox.cif.g09.slc.cpg/sg11_31_cif.got.tgz:61738.got - 2010.06.27 23:14:04.
