data_PCOD8071129
_publ_section_title
;
Structure prediction by ZEFSAII (Michael W. Deem and Ramdas Pophale) SiO2 
 PCOD8071129
Probable space group: P 21/M
;
_chemical_formula_sum "Si O2"
_cell_formula_units_Z 24
_cell_length_a 7.812075
_cell_length_b 18.016619
_cell_length_c 9.371850
_cell_angle_alpha 90.000000
_cell_angle_beta 89.992052
_cell_angle_gamma 90.000000
_cell_volume 1319.061436
_symmetry_space_group_name_H-M "P 21/M"
_symmetry_group_IT_number 11
_symmetry_cell_setting 'monoclinic'
loop_
_space_group_symop_operation_xyz
x,y,z
-x,1/2+y,-z
-x,-y,-z
x,1/2-y,z
loop_
_atom_site_type_symbol
_atom_site_label
_atom_site_fract_x
_atom_site_fract_y
_atom_site_fract_z
Si Si1 0.000184 0.661873 0.680335
Si Si2 0.190195 0.578898 0.458453
Si Si3 0.690920 0.664625 0.194836
Si Si4 0.809913 0.921027 0.458549
Si Si5 0.000116 0.661977 0.001649
Si Si6 0.309301 0.664623 0.194813
O O1 0.000397 0.750000 0.674730
O O2 0.169988 0.630847 0.599536
O O3 0.830272 0.630969 0.599551
O O4 0.000113 0.630384 0.841352
O O5 0.275480 0.499942 0.499873
O O6 0.305437 0.619296 0.341789
O O7 0.000026 0.564180 0.392562
O O8 0.733945 0.750000 0.231252
O O9 0.694680 0.619352 0.341879
O O10 0.829280 0.633429 0.082156
O O11 0.500127 0.656731 0.129300
O O12 0.000042 0.750000 0.994310
O O13 0.171005 0.633464 0.082079
O O14 0.266308 0.750000 0.231295
#
# Coordination Sequence:
#
# PCOD8071129 Si02
#       6
#     4   4   4   4   4   4
#     4   9  16  29  53  76  97 129 162 203 248 288
#     4   9  18  32  50  76  98 130 166 200 247 290
#     4  10  19  32  53  75  96 129 168 203 241 291
#     4   9  18  32  50  76  98 130 166 200 247 290
#     4   9  17  31  50  72 100 127 158 203 248 290
#     4  10  19  32  53  75  96 129 168 203 241 291
#
# _framework density 18.194755000000001
#
# number of rings (size 3 to 8) (size 9 to 14) (size 15 to 20)
#    1.000    1.667    1.667    1.000    0.000    0.667 
#    0.000    5.000    0.000    8.000    0.000    0.000 
#    0.000    0.000    0.000    0.000    0.000    0.000 
#
# Total GULP energy -297413.193547 kJ/mol
# GULP energy per Si atom -12392.216398 kJ/mol
# Density = 1.815334 g / cm^3
# Si number density = 18.194755 Si / 1000 Ang^3
#
#
#
# Elastic Constant Matrix: (Units=GPa)
#
#
# Indices 1 2 3 4 5 6 
#
# 1 89.6413 17.9556 47.7753 0.0000 1.7396 0.0000
# 2 17.9556 81.2588 43.3133 0.0000 -1.9922 0.0000
# 3 47.7753 43.3133 138.6743 0.0000 -5.5610 0.0000
# 4 0.0000 0.0000 0.0000 6.8126 0.0000 0.4232
# 5 1.7396 -1.9922 -5.5610 0.0000 10.9730 0.0000
# 6 0.0000 0.0000 0.0000 0.4232 0.0000 12.1251
#
#
#
# Elastic Compliance Matrix: (Units=1/GPa)
#
#
# Indices 1 2 3 4 5 6 
#
# 1 0.013929 -0.000642 -0.004789 0.000000 -0.004751 0.000000
# 2 -0.000642 0.014795 -0.004377 0.000000 0.000570 0.000000
# 3 -0.004789 -0.004377 0.010439 0.000000 0.005255 0.000000
# 4 0.000000 0.000000 0.000000 0.147107 0.000000 -0.005134
# 5 -0.004751 0.000570 0.005255 0.000000 0.094652 0.000000
# 6 0.000000 0.000000 0.000000 -0.005134 0.000000 0.082653
#
#
# Mechanical properties :
#
#
# Convention : Reuss Voigt Hill
#
# Bulk Modulus (GPa) = 51.15781 58.62920 54.89350
# Shear Modulus (GPa) = 12.83020 19.35081 16.09051
#
# Velocity S-wave (km/s) = 2.65836 3.26473 2.97703
# Velocity P-wave (km/s) = 6.13191 6.81941 6.48478
#
# Compressibility (1/GPa) = 0.01954736
#
# Stress axis : x y z
#
# Youngs Moduli (GPa) = 71.79521 67.58902 95.79645
#
# Poissons Ratio (x) = 0.04338 0.45874
# Poissons Ratio (y) = 0.04607 0.41932
# Poissons Ratio (z) = 0.34380 0.29585
#
# Static dielectric constant tensor:
#      x y z
#    x 3.120290 0.000000 -0.015100 
#    y 0.000000 3.206990 0.000000 
#    z -0.015100 0.000000 3.310120 
# 
# 
# High freq. dielectric constant tensor:
#      x y z
#    x 1.680990 0.000000 -0.000950 
#    y 0.000000 1.691830 0.000000 
#    z -0.000950 0.000000 1.693070 
# 
# From -- ./inp_files/13843.got.cif
#   From: 2010.06.25/outbox.cif.g09.slc.cpg/sg11_7_cif.got.tgz:13843.got - 2010.06.27 23:14:04.
