data_PCOD8071821
_publ_section_title
;
Structure prediction by ZEFSAII (Michael W. Deem and Ramdas Pophale) SiO2 
 PCOD8071821
Probable space group: P 21/M
;
_chemical_formula_sum "Si O2"
_cell_formula_units_Z 32
_cell_length_a 25.066460
_cell_length_b 8.867524
_cell_length_c 11.897275
_cell_angle_alpha 90.000000
_cell_angle_beta 133.270363
_cell_angle_gamma 90.000000
_cell_volume 1925.529859
_symmetry_space_group_name_H-M "P 21/M"
_symmetry_group_IT_number 11
_symmetry_cell_setting 'monoclinic'
loop_
_space_group_symop_operation_xyz
x,y,z
-x,1/2+y,-z
-x,-y,-z
x,1/2-y,z
loop_
_atom_site_type_symbol
_atom_site_label
_atom_site_fract_x
_atom_site_fract_y
_atom_site_fract_z
Si Si1 0.223947 0.422297 0.392013
Si Si2 0.429749 0.071327 0.455871
Si Si3 0.352705 0.427699 0.727919
Si Si4 0.632366 0.924963 0.994176
Si Si5 0.802490 0.580141 0.891685
Si Si6 0.922407 0.925721 0.902891
Si Si7 0.692170 0.074320 0.870064
Si Si8 0.462744 0.927615 0.731965
O O1 0.221739 0.250000 0.427341
O O2 0.282965 0.500007 0.559717
O O3 0.247775 0.434697 0.294712
O O4 0.139298 0.485288 0.277054
O O5 0.437767 0.250000 0.468365
O O6 0.500000 0.000000 0.500000
O O7 0.360000 0.025736 0.282659
O O8 0.422161 0.010292 0.570986
O O9 0.363322 0.250000 0.720688
O O10 0.425693 0.512966 0.792686
O O11 0.341049 0.461050 0.841927
O O12 0.643386 0.750000 0.980125
O O13 0.547928 0.971515 0.857030
O O14 0.682312 0.026283 0.985002
O O15 0.796567 0.750000 0.930822
O O16 0.887140 0.545102 0.976678
O O17 0.774679 0.464148 0.946856
O O18 0.933869 0.750000 0.900864
O O19 0.000000 0.000000 0.000000
O O20 0.675488 0.250000 0.831874
O O21 0.451923 0.750000 0.705150
#
# Coordination Sequence:
#
# PCOD8071821 Si02
#       8
#     4   4   4   4   4   4   4   4
#     4   7  14  29  49  73  98 126 160 193 238 291
#     4  12  23  36  53  71  94 126 165 209 258 307
#     4  10  19  34  54  72  93 132 176 211 251 295
#     4  10  22  36  50  67  95 134 174 215 255 299
#     4   8  16  31  50  72 102 134 158 191 241 294
#     4   8  15  28  48  76 107 135 156 187 236 291
#     4  12  23  34  50  72  97 129 166 208 256 300
#     4  11  22  35  50  72  98 128 167 213 262 303
#
# _framework density 16.618801999999999
#
# number of rings (size 3 to 8) (size 9 to 14) (size 15 to 20)
#    0.750    1.500    1.250    3.750    0.000    2.500 
#    0.000    0.625    0.000    0.000    0.000    0.875 
#    0.000    0.000    0.000    0.000    0.000    0.000 
#
# Total GULP energy -396472.524346 kJ/mol
# GULP energy per Si atom -12389.766386 kJ/mol
# Density = 1.658098 g / cm^3
# Si number density = 16.618802 Si / 1000 Ang^3
#
#
#
# Elastic Constant Matrix: (Units=GPa)
#
#
# Indices 1 2 3 4 5 6 
#
# 1 109.8598 48.2268 46.8408 0.0000 1.5136 0.0000
# 2 48.2268 77.9374 26.5612 0.0000 -0.4535 0.0000
# 3 46.8408 26.5612 51.9650 0.0000 -6.3804 0.0000
# 4 0.0000 0.0000 0.0000 18.9857 0.0000 0.2100
# 5 1.5136 -0.4535 -6.3804 0.0000 17.8154 0.0000
# 6 0.0000 0.0000 0.0000 0.2100 0.0000 31.3359
#
#
#
# Elastic Compliance Matrix: (Units=1/GPa)
#
#
# Indices 1 2 3 4 5 6 
#
# 1 0.017794 -0.006429 -0.013555 0.000000 -0.006530 0.000000
# 2 -0.006429 0.017973 -0.003418 0.000000 -0.000220 0.000000
# 3 -0.013555 -0.003418 0.034874 0.000000 0.013554 0.000000
# 4 0.000000 0.000000 0.000000 0.052675 0.000000 -0.000353
# 5 -0.006530 -0.000220 0.013554 0.000000 0.061535 0.000000
# 6 0.000000 0.000000 0.000000 -0.000353 0.000000 0.031915
#
#
# Mechanical properties :
#
#
# Convention : Reuss Voigt Hill
#
# Bulk Modulus (GPa) = 41.95467 53.66887 47.81177
# Shear Modulus (GPa) = 18.41509 21.50295 19.95902
#
# Velocity S-wave (km/s) = 3.33241 3.60097 3.46929
# Velocity P-wave (km/s) = 6.33298 7.04653 6.69926
#
# Compressibility (1/GPa) = 0.02383525
#
# Stress axis : x y z
#
# Youngs Moduli (GPa) = 56.19751 55.63936 28.67488
#
# Poissons Ratio (x) = 0.35772 0.38869
# Poissons Ratio (y) = 0.36131 0.09802
# Poissons Ratio (z) = 0.76177 0.19019
#
# Static dielectric constant tensor:
#      x y z
#    x 3.248140 0.000000 0.043350 
#    y 0.000000 3.014650 0.000000 
#    z 0.043350 0.000000 3.115260 
# 
# 
# High freq. dielectric constant tensor:
#      x y z
#    x 1.634330 0.000000 -0.004850 
#    y 0.000000 1.631290 0.000000 
#    z -0.004850 0.000000 1.611650 
# 
# From -- ./inp_files/44398.got.cif
#   From: 2010.06.25/outbox.cif.g09.slc.cpg/sg11_23_cif.got.tgz:44398.got - 2010.06.27 23:14:04.
