data_PCOD8071981
_publ_section_title
;
Structure prediction by ZEFSAII (Michael W. Deem and Ramdas Pophale) SiO2 
 PCOD8071981
Probable space group: P 21/M
;
_chemical_formula_sum "Si O2"
_cell_formula_units_Z 32
_cell_length_a 20.900047
_cell_length_b 9.303873
_cell_length_c 25.510637
_cell_angle_alpha 90.000000
_cell_angle_beta 20.374942
_cell_angle_gamma 90.000000
_cell_volume 1727.085472
_symmetry_space_group_name_H-M "P 21/M"
_symmetry_group_IT_number 11
_symmetry_cell_setting 'monoclinic'
loop_
_space_group_symop_operation_xyz
x,y,z
-x,1/2+y,-z
-x,-y,-z
x,1/2-y,z
loop_
_atom_site_type_symbol
_atom_site_label
_atom_site_fract_x
_atom_site_fract_y
_atom_site_fract_z
Si Si1 0.320532 0.591313 0.640251
Si Si2 0.814466 0.411820 0.139150
Si Si3 0.965329 0.915931 0.855440
Si Si4 0.013158 0.081912 0.544204
Si Si5 0.413004 0.417122 0.278070
Si Si6 0.262219 0.916822 0.048557
Si Si7 0.636759 0.917191 0.187220
Si Si8 0.683897 0.080664 0.873991
O O1 0.500000 0.500000 0.500000
O O2 0.365292 0.750000 0.584640
O O3 0.260213 0.600626 0.745816
O O4 0.159766 0.524386 0.727298
O O5 0.848502 0.250000 0.090591
O O6 0.664262 0.496494 0.219933
O O7 0.000000 0.500000 0.000000
O O8 0.977974 0.750000 0.830137
O O9 0.906777 0.002180 0.848936
O O10 0.820843 0.939038 0.012755
O O11 0.002402 0.250000 0.540187
O O12 0.848971 0.033679 0.708829
O O13 0.205555 0.041771 0.423272
O O14 0.000000 0.000000 0.500000
O O15 0.432184 0.250000 0.278659
O O16 0.466096 0.514051 0.287087
O O17 0.543775 0.454578 0.128148
O O18 0.218051 0.750000 0.077872
O O19 0.266573 0.967073 0.105211
O O20 0.595861 0.750000 0.230172
O O21 0.647028 0.250000 0.899275
O O22 0.500000 0.000000 0.000000
#
# Coordination Sequence:
#
# PCOD8071981 Si02
#       8
#     4   4   4   4   4   4   4   4
#     4  10  22  39  55  78 111 146 184 230 280 331
#     4  11  21  36  58  83 111 144 187 234 279 328
#     4   9  18  35  55  77 109 142 179 226 273 323
#     4  10  21  37  58  83 115 149 183 225 275 327
#     4   9  18  34  54  78 109 146 184 226 276 328
#     4   9  18  33  54  79 105 140 185 224 266 323
#     4  10  19  34  56  83 111 142 184 232 277 329
#     4  10  21  37  57  83 113 146 185 226 269 322
#
# _framework density 18.528324999999999
#
# number of rings (size 3 to 8) (size 9 to 14) (size 15 to 20)
#    0.000    2.250    1.250    1.500    0.000    4.500 
#    2.250    2.500    0.000    0.000    0.000    0.000 
#    0.000    0.000    0.000    0.000    0.000    0.000 
#
# Total GULP energy -396820.655567 kJ/mol
# GULP energy per Si atom -12400.645486 kJ/mol
# Density = 1.848615 g / cm^3
# Si number density = 18.528325 Si / 1000 Ang^3
#
#
#
# Elastic Constant Matrix: (Units=GPa)
#
#
# Indices 1 2 3 4 5 6 
#
# 1 147.2554 64.6055 67.7496 0.0000 -23.9974 0.0000
# 2 64.6055 86.7048 50.6071 0.0000 -17.8670 0.0000
# 3 67.7496 50.6071 122.2112 0.0000 -25.6014 0.0000
# 4 0.0000 0.0000 0.0000 29.4746 0.0000 -6.2625
# 5 -23.9974 -17.8670 -25.6014 0.0000 31.4503 0.0000
# 6 0.0000 0.0000 0.0000 -6.2625 0.0000 38.4554
#
#
#
# Elastic Compliance Matrix: (Units=1/GPa)
#
#
# Indices 1 2 3 4 5 6 
#
# 1 0.011355 -0.006027 -0.003257 0.000000 0.002589 0.000000
# 2 -0.006027 0.018891 -0.003854 0.000000 0.002996 0.000000
# 3 -0.003257 -0.003854 0.012785 0.000000 0.005733 0.000000
# 4 0.000000 0.000000 0.000000 0.035143 0.000000 0.005723
# 5 0.002589 0.002996 0.005733 0.000000 0.040141 0.000000
# 6 0.000000 0.000000 0.000000 0.005723 0.000000 0.026936
#
#
# Mechanical properties :
#
#
# Convention : Reuss Voigt Hill
#
# Bulk Modulus (GPa) = 59.68002 80.23288 69.95645
# Shear Modulus (GPa) = 28.23070 31.42335 29.82702
#
# Velocity S-wave (km/s) = 3.90763 4.12267 4.01659
# Velocity P-wave (km/s) = 7.25531 8.12765 7.70384
#
# Compressibility (1/GPa) = 0.01675603
#
# Stress axis : x y z
#
# Youngs Moduli (GPa) = 88.06346 52.93588 78.21671
#
# Poissons Ratio (x) = 0.31902 0.25476
# Poissons Ratio (y) = 0.53072 0.30145
# Poissons Ratio (z) = 0.28683 0.20402
#
# Static dielectric constant tensor:
#      x y z
#    x 3.559050 0.000000 -0.121040 
#    y 0.000000 3.665250 0.000000 
#    z -0.121040 0.000000 3.291310 
# 
# 
# High freq. dielectric constant tensor:
#      x y z
#    x 1.727830 0.000000 -0.011530 
#    y 0.000000 1.719120 0.000000 
#    z -0.011530 0.000000 1.708290 
# 
# From -- ./inp_files/71990.got.cif
#   From: 2010.06.25/outbox.cif.g09.slc.cpg/sg11_36_cif.got.tgz:71990.got - 2010.06.27 23:14:04.
