data_PCOD8071189
_publ_section_title
;
Structure prediction by ZEFSAII (Michael W. Deem and Ramdas Pophale) SiO2 
 PCOD8071189
Probable space group: P 21/M
;
_chemical_formula_sum "Si O2"
_cell_formula_units_Z 32
_cell_length_a 12.028580
_cell_length_b 8.947363
_cell_length_c 22.849747
_cell_angle_alpha 90.000000
_cell_angle_beta 136.430618
_cell_angle_gamma 90.000000
_cell_volume 1694.948613
_symmetry_space_group_name_H-M "P 21/M"
_symmetry_group_IT_number 11
_symmetry_cell_setting 'monoclinic'
loop_
_space_group_symop_operation_xyz
x,y,z
-x,1/2+y,-z
-x,-y,-z
x,1/2-y,z
loop_
_atom_site_type_symbol
_atom_site_label
_atom_site_fract_x
_atom_site_fract_y
_atom_site_fract_z
Si Si1 0.950924 0.923903 0.268459
Si Si2 0.232277 0.580375 0.585064
Si Si3 0.117144 0.424064 0.092372
Si Si4 0.955645 0.424912 0.152256
Si Si5 0.485930 0.422078 0.230329
Si Si6 0.028633 0.423481 0.417919
Si Si7 0.410411 0.421295 0.836176
Si Si8 0.620501 0.925143 0.001562
O O1 0.994043 0.750000 0.280981
O O2 0.757762 0.949400 0.194870
O O3 0.023710 0.007410 0.239138
O O4 0.027081 0.988535 0.356339
O O5 0.189657 0.750000 0.550687
O O6 0.423847 0.564388 0.672301
O O7 0.188346 0.473036 0.514406
O O8 0.127838 0.537445 0.602893
O O9 0.104947 0.250000 0.073930
O O10 0.301896 0.480416 0.159233
O O11 0.073135 0.457872 0.142871
O O12 0.000000 0.500000 0.000000
O O13 0.923700 0.250000 0.148858
O O14 0.794923 0.508973 0.074139
O O15 0.495061 0.250000 0.212629
O O16 0.598528 0.530617 0.234419
O O17 0.039240 0.250000 0.406715
O O18 0.463726 0.250000 0.863676
O O19 0.551401 0.532072 0.912045
O O20 0.627313 0.750000 0.014805
O O21 0.500000 0.000000 0.000000
#
# Coordination Sequence:
#
# PCOD8071189 Si02
#       8
#     4   4   4   4   4   4   4   4
#     4  11  22  35  54  80 114 150 185 226 279 338
#     4   9  18  32  53  81 114 150 185 225 277 339
#     4  10  23  41  61  84 111 149 193 240 282 327
#     4  11  23  39  58  81 111 146 190 235 284 338
#     4  10  20  37  59  82 111 149 192 233 281 335
#     4  10  19  32  53  82 117 151 183 225 282 340
#     4  11  22  34  51  80 113 144 183 229 278 332
#     4  12  23  35  52  75 106 143 181 225 277 334
#
# _framework density 18.879629000000001
#
# number of rings (size 3 to 8) (size 9 to 14) (size 15 to 20)
#    0.000    1.500    2.500    3.375    0.000    5.500 
#    0.000    0.000    0.000    0.750    0.000    0.000 
#    0.000    0.000    0.000    0.000    0.000    0.000 
#
# Total GULP energy -396701.498080 kJ/mol
# GULP energy per Si atom -12396.921815 kJ/mol
# Density = 1.883666 g / cm^3
# Si number density = 18.879629 Si / 1000 Ang^3
#
#
#
# Elastic Constant Matrix: (Units=GPa)
#
#
# Indices 1 2 3 4 5 6 
#
# 1 60.6429 46.0506 34.2533 0.0000 -6.0373 0.0000
# 2 46.0506 103.0652 50.2669 0.0000 -13.2622 0.0000
# 3 34.2533 50.2669 120.2133 0.0000 -6.4375 0.0000
# 4 0.0000 0.0000 0.0000 36.0235 0.0000 -4.6434
# 5 -6.0373 -13.2622 -6.4375 0.0000 29.6828 0.0000
# 6 0.0000 0.0000 0.0000 -4.6434 0.0000 21.4947
#
#
#
# Elastic Compliance Matrix: (Units=1/GPa)
#
#
# Indices 1 2 3 4 5 6 
#
# 1 0.025898 -0.010001 -0.003192 0.000000 0.000107 0.000000
# 2 -0.010001 0.016644 -0.003865 0.000000 0.004564 0.000000
# 3 -0.003192 -0.003865 0.010843 0.000000 -0.000025 0.000000
# 4 0.000000 0.000000 0.000000 0.028555 0.000000 0.006169
# 5 0.000107 0.004564 -0.000025 0.000000 0.035745 0.000000
# 6 0.000000 0.000000 0.000000 0.006169 0.000000 0.047856
#
#
# Mechanical properties :
#
#
# Convention : Reuss Voigt Hill
#
# Bulk Modulus (GPa) = 51.89884 60.56255 56.23069
# Shear Modulus (GPa) = 24.26254 27.66359 25.96307
#
# Velocity S-wave (km/s) = 3.58874 3.83203 3.71238
# Velocity P-wave (km/s) = 6.68738 7.19216 6.94436
#
# Compressibility (1/GPa) = 0.01926825
#
# Stress axis : x y z
#
# Youngs Moduli (GPa) = 38.61318 60.08282 92.22571
#
# Poissons Ratio (x) = 0.60089 0.29435
# Poissons Ratio (y) = 0.38617 0.35649
# Poissons Ratio (z) = 0.12324 0.23225
#
# Static dielectric constant tensor:
#      x y z
#    x 3.070140 0.000000 -0.323220 
#    y 0.000000 3.874850 0.000000 
#    z -0.323220 0.000000 3.513340 
# 
# 
# High freq. dielectric constant tensor:
#      x y z
#    x 1.701130 0.000000 -0.011870 
#    y 0.000000 1.740890 0.000000 
#    z -0.011870 0.000000 1.742380 
# 
# From -- ./inp_files/64443.got.cif
#   From: 2010.06.25/outbox.cif.g09.slc.cpg/sg11_33_cif.got.tgz:64443.got - 2010.06.27 23:14:04.
