data_PCOD8071987
_publ_section_title
;
Structure prediction by ZEFSAII (Michael W. Deem and Ramdas Pophale) SiO2 
 PCOD8071987
Probable space group: P 21/M
;
_chemical_formula_sum "Si O2"
_cell_formula_units_Z 32
_cell_length_a 12.132235
_cell_length_b 9.028450
_cell_length_c 16.095598
_cell_angle_alpha 90.000000
_cell_angle_beta 88.338396
_cell_angle_gamma 90.000000
_cell_volume 1762.294459
_symmetry_space_group_name_H-M "P 21/M"
_symmetry_group_IT_number 11
_symmetry_cell_setting 'monoclinic'
loop_
_space_group_symop_operation_xyz
x,y,z
-x,1/2+y,-z
-x,-y,-z
x,1/2-y,z
loop_
_atom_site_type_symbol
_atom_site_label
_atom_site_fract_x
_atom_site_fract_y
_atom_site_fract_z
Si Si1 0.849742 0.578556 0.278341
Si Si2 0.327246 0.923132 0.481140
Si Si3 0.995429 0.578620 0.123850
Si Si4 0.636859 0.078749 0.216098
Si Si5 0.599749 0.574526 0.044800
Si Si6 0.108001 0.076272 0.532339
Si Si7 0.495453 0.580883 0.619841
Si Si8 0.836307 0.923419 0.981119
O O1 0.813611 0.750000 0.268647
O O2 0.955016 0.543421 0.217746
O O3 0.749926 0.474725 0.254260
O O4 0.885094 0.540266 0.370394
O O5 0.302634 0.750000 0.473129
O O6 0.391710 0.963360 0.564356
O O7 0.212768 0.010121 0.482360
O O8 0.400468 0.976310 0.401370
O O9 0.019057 0.750000 0.110320
O O10 0.110254 0.495796 0.102237
O O11 0.900898 0.523252 0.062216
O O12 0.649785 0.250000 0.190149
O O13 0.538424 0.058362 0.284238
O O14 0.604336 0.981066 0.138574
O O15 0.585102 0.750000 0.046222
O O16 0.500000 0.500000 0.000000
O O17 0.710131 0.526515 0.993556
O O18 0.102506 0.250000 0.515069
O O19 0.000000 0.000000 0.500000
O O20 0.529221 0.750000 0.600147
O O21 0.844934 0.750000 0.969833
#
# Coordination Sequence:
#
# PCOD8071987 Si02
#       8
#     4   4   4   4   4   4   4   4
#     4  10  20  36  57  83 112 146 186 232 279 330
#     4  10  19  34  56  83 114 147 187 232 282 337
#     4   9  17  32  54  81 110 138 178 228 274 325
#     4  11  21  35  58  87 115 145 186 235 281 332
#     4  11  23  40  58  81 115 152 191 231 281 338
#     4  11  23  38  58  81 114 154 191 232 285 342
#     4   9  19  34  54  84 116 144 182 233 283 334
#     4   9  18  33  53  79 111 143 177 224 275 325
#
# _framework density 18.158147
#
# number of rings (size 3 to 8) (size 9 to 14) (size 15 to 20)
#    0.000    2.000    2.500    1.500    0.000    3.500 
#    0.000    1.250    0.000    3.000    0.000    0.000 
#    0.000    0.000    0.000    0.000    0.000    0.000 
#
# Total GULP energy -396883.653532 kJ/mol
# GULP energy per Si atom -12402.614173 kJ/mol
# Density = 1.811682 g / cm^3
# Si number density = 18.158147 Si / 1000 Ang^3
#
#
#
# Elastic Constant Matrix: (Units=GPa)
#
#
# Indices 1 2 3 4 5 6 
#
# 1 143.6042 68.4266 62.6611 0.0000 -8.6194 0.0000
# 2 68.4266 82.3560 46.1307 0.0000 -3.6283 0.0000
# 3 62.6611 46.1307 84.3921 0.0000 -9.4532 0.0000
# 4 0.0000 0.0000 0.0000 28.9986 0.0000 -2.8156
# 5 -8.6194 -3.6283 -9.4532 0.0000 27.5990 0.0000
# 6 0.0000 0.0000 0.0000 -2.8156 0.0000 36.8288
#
#
#
# Elastic Compliance Matrix: (Units=1/GPa)
#
#
# Indices 1 2 3 4 5 6 
#
# 1 0.013089 -0.007862 -0.005282 0.000000 0.001245 0.000000
# 2 -0.007862 0.022251 -0.006523 0.000000 -0.001764 0.000000
# 3 -0.005282 -0.006523 0.019816 0.000000 0.004280 0.000000
# 4 0.000000 0.000000 0.000000 0.034742 0.000000 0.002656
# 5 0.001245 -0.001764 0.004280 0.000000 0.037856 0.000000
# 6 0.000000 0.000000 0.000000 0.002656 0.000000 0.027356
#
#
# Mechanical properties :
#
#
# Convention : Reuss Voigt Hill
#
# Bulk Modulus (GPa) = 63.19959 73.86547 68.53253
# Shear Modulus (GPa) = 25.03541 27.56088 26.29815
#
# Velocity S-wave (km/s) = 3.71717 3.90015 3.80976
# Velocity P-wave (km/s) = 7.30094 7.81338 7.56150
#
# Compressibility (1/GPa) = 0.01582289
#
# Stress axis : x y z
#
# Youngs Moduli (GPa) = 76.39918 44.94264 50.46412
#
# Poissons Ratio (x) = 0.35334 0.26653
# Poissons Ratio (y) = 0.60065 0.32917
# Poissons Ratio (z) = 0.40351 0.29315
#
# Static dielectric constant tensor:
#      x y z
#    x 3.297870 0.000000 -0.278800 
#    y 0.000000 3.388680 0.000000 
#    z -0.278800 0.000000 3.178550 
# 
# 
# High freq. dielectric constant tensor:
#      x y z
#    x 1.697380 0.000000 -0.022370 
#    y 0.000000 1.710550 0.000000 
#    z -0.022370 0.000000 1.694400 
# 
# From -- ./inp_files/38066.got.cif
#   From: 2010.06.25/outbox.cif.g09.slc.cpg/sg11_20_cif.got.tgz:38066.got - 2010.06.27 23:14:04.
