data_PCOD8071400
_publ_section_title
;
Structure prediction by ZEFSAII (Michael W. Deem and Ramdas Pophale) SiO2 
 PCOD8071400
Probable space group: P 21/M
;
_chemical_formula_sum "Si O2"
_cell_formula_units_Z 32
_cell_length_a 15.059524
_cell_length_b 8.853241
_cell_length_c 14.839925
_cell_angle_alpha 90.000000
_cell_angle_beta 59.816950
_cell_angle_gamma 90.000000
_cell_volume 1710.298205
_symmetry_space_group_name_H-M "P 21/M"
_symmetry_group_IT_number 11
_symmetry_cell_setting 'monoclinic'
loop_
_space_group_symop_operation_xyz
x,y,z
-x,1/2+y,-z
-x,-y,-z
x,1/2-y,z
loop_
_atom_site_type_symbol
_atom_site_label
_atom_site_fract_x
_atom_site_fract_y
_atom_site_fract_z
Si Si1 0.576602 0.928849 0.227172
Si Si2 0.341393 0.928457 0.324385
Si Si3 0.791530 0.071268 0.441217
Si Si4 0.890868 0.575153 0.064133
Si Si5 0.772149 0.570034 0.781757
Si Si6 0.268704 0.929546 0.723636
Si Si7 0.008349 0.428474 0.398483
Si Si8 0.272483 0.423533 0.999708
O O1 0.594096 0.750000 0.226600
O O2 0.458534 0.974704 0.282685
O O3 0.625366 0.004674 0.290944
O O4 0.635053 0.992717 0.108029
O O5 0.328900 0.750000 0.319455
O O6 0.274029 0.992912 0.441412
O O7 0.306546 0.007032 0.250839
O O8 0.784219 0.250000 0.446820
O O9 0.743270 0.011515 0.372769
O O10 0.910182 0.019246 0.389489
O O11 0.900953 0.750000 0.085580
O O12 0.828929 0.489876 0.172843
O O13 0.835025 0.555802 0.996817
O O14 0.000000 0.500000 0.000000
O O15 0.768536 0.750000 0.782919
O O16 0.888118 0.513983 0.702737
O O17 0.737631 0.501510 0.896338
O O18 0.270613 0.750000 0.728252
O O19 0.009174 0.250000 0.410406
O O20 0.000000 0.500000 0.500000
O O21 0.298757 0.250000 0.001799
#
# Coordination Sequence:
#
# PCOD8071400 Si02
#       8
#     4   4   4   4   4   4   4   4
#     4   9  19  37  57  76 104 141 177 220 273 321
#     4  10  20  36  56  76 104 142 179 219 269 323
#     4   9  19  34  53  77 106 141 177 212 266 330
#     4  10  20  35  55  79 109 144 181 220 264 317
#     4  10  20  33  53  79 104 136 177 216 260 318
#     4  10  20  35  56  79 106 140 179 222 267 317
#     4  10  19  33  53  74 103 139 174 214 263 316
#     4   8  17  34  53  73 103 138 172 211 263 321
#
# _framework density 18.710187000000001
#
# number of rings (size 3 to 8) (size 9 to 14) (size 15 to 20)
#    0.000    2.500    1.250    1.500    1.750    1.500 
#    0.000    5.625    0.000    0.000    0.000    0.000 
#    0.000    0.000    0.000    0.000    0.000    0.000 
#
# Total GULP energy -396748.631572 kJ/mol
# GULP energy per Si atom -12398.394737 kJ/mol
# Density = 1.866760 g / cm^3
# Si number density = 18.710187 Si / 1000 Ang^3
#
#
#
# Elastic Constant Matrix: (Units=GPa)
#
#
# Indices 1 2 3 4 5 6 
#
# 1 135.2456 30.7679 62.1912 0.0000 3.3108 0.0000
# 2 30.7679 33.5755 19.4375 0.0000 1.6616 0.0000
# 3 62.1912 19.4375 93.0698 0.0000 22.3480 0.0000
# 4 0.0000 0.0000 0.0000 23.0296 0.0000 2.4616
# 5 3.3108 1.6616 22.3480 0.0000 38.8707 0.0000
# 6 0.0000 0.0000 0.0000 2.4616 0.0000 28.0855
#
#
#
# Elastic Compliance Matrix: (Units=1/GPa)
#
#
# Indices 1 2 3 4 5 6 
#
# 1 0.012488 -0.007146 -0.007738 0.000000 0.003691 0.000000
# 2 -0.007146 0.038282 -0.003449 0.000000 0.000955 0.000000
# 3 -0.007738 -0.003449 0.019076 0.000000 -0.010161 0.000000
# 4 0.000000 0.000000 0.000000 0.043833 0.000000 -0.003842
# 5 0.003691 0.000955 -0.010161 0.000000 0.031213 0.000000
# 6 0.000000 0.000000 0.000000 -0.003842 0.000000 0.035942
#
#
# Mechanical properties :
#
#
# Convention : Reuss Voigt Hill
#
# Bulk Modulus (GPa) = 30.14079 54.07601 42.10840
# Shear Modulus (GPa) = 21.87608 27.96345 24.91976
#
# Velocity S-wave (km/s) = 3.42308 3.87014 3.65346
# Velocity P-wave (km/s) = 5.63627 6.99538 6.35228
#
# Compressibility (1/GPa) = 0.03317763
#
# Stress axis : x y z
#
# Youngs Moduli (GPa) = 80.07843 26.12205 52.42277
#
# Poissons Ratio (x) = 0.18668 0.40567
# Poissons Ratio (y) = 0.57226 0.18082
# Poissons Ratio (z) = 0.61967 0.09010
#
# Static dielectric constant tensor:
#      x y z
#    x 3.672700 0.000000 0.024460 
#    y 0.000000 3.178930 0.000000 
#    z 0.024460 0.000000 3.789500 
# 
# 
# High freq. dielectric constant tensor:
#      x y z
#    x 1.734640 0.000000 0.000060 
#    y 0.000000 1.698020 0.000000 
#    z 0.000060 0.000000 1.734440 
# 
# From -- ./inp_files/51688.got.cif
#   From: 2010.06.25/outbox.cif.g09.slc.cpg/sg11_26_cif.got.tgz:51688.got - 2010.06.27 23:14:04.
