data_PCOD8071428
_publ_section_title
;
Structure prediction by ZEFSAII (Michael W. Deem and Ramdas Pophale) SiO2 
 PCOD8071428
Probable space group: P 21/M
;
_chemical_formula_sum "Si O2"
_cell_formula_units_Z 24
_cell_length_a 9.218517
_cell_length_b 8.764868
_cell_length_c 19.274357
_cell_angle_alpha 90.000000
_cell_angle_beta 58.344517
_cell_angle_gamma 90.000000
_cell_volume 1325.646451
_symmetry_space_group_name_H-M "P 21/M"
_symmetry_group_IT_number 11
_symmetry_cell_setting 'monoclinic'
loop_
_space_group_symop_operation_xyz
x,y,z
-x,1/2+y,-z
-x,-y,-z
x,1/2-y,z
loop_
_atom_site_type_symbol
_atom_site_label
_atom_site_fract_x
_atom_site_fract_y
_atom_site_fract_z
Si Si1 0.865477 0.072963 0.584581
Si Si2 0.151441 0.430657 0.918195
Si Si3 0.512087 0.072315 0.169549
Si Si4 0.845146 0.069459 0.235408
Si Si5 0.862176 0.572985 0.735275
Si Si6 0.489663 0.428137 0.680151
O O1 0.903370 0.250000 0.579028
O O2 0.675884 0.042449 0.599824
O O3 0.886128 0.011801 0.656932
O O4 0.000000 0.000000 0.500000
O O5 0.142718 0.250000 0.923163
O O6 0.330306 0.488102 0.908334
O O7 0.137132 0.488012 0.842995
O O8 0.000000 0.500000 0.000000
O O9 0.557278 0.250000 0.164904
O O10 0.325236 0.046891 0.182429
O O11 0.496788 0.996360 0.247507
O O12 0.847479 0.250000 0.224275
O O13 0.999802 0.012791 0.244561
O O14 0.667700 0.016322 0.317383
O O15 0.890302 0.750000 0.711819
O O16 0.445646 0.250000 0.694413
#
# Coordination Sequence:
#
# PCOD8071428 Si02
#       6
#     4   4   4   4   4   4
#     4  10  20  33  52  75 101 131 168 208 249 294
#     4  11  21  34  52  75 101 131 167 206 245 292
#     4   9  16  30  51  73  97 129 164 200 242 292
#     4  10  19  33  53  77 102 131 164 202 246 295
#     4   9  19  34  53  76 103 131 164 203 246 295
#     4   9  17  30  48  72  98 129 166 203 241 292
#
# _framework density 18.104375000000001
#
# number of rings (size 3 to 8) (size 9 to 14) (size 15 to 20)
#    0.000    2.333    0.000    5.500    0.000    4.000 
#    0.000    1.667    0.000    0.000    0.000    0.000 
#    0.000    0.000    0.000    0.000    0.000    0.000 
#
# Total GULP energy -297364.820606 kJ/mol
# GULP energy per Si atom -12390.200859 kJ/mol
# Density = 1.806317 g / cm^3
# Si number density = 18.104375 Si / 1000 Ang^3
#
#
#
# Elastic Constant Matrix: (Units=GPa)
#
#
# Indices 1 2 3 4 5 6 
#
# 1 138.7963 56.7706 58.4081 0.0000 -34.0821 0.0000
# 2 56.7706 128.3699 57.0102 0.0000 -18.4046 0.0000
# 3 58.4081 57.0102 113.9898 0.0000 -32.3879 0.0000
# 4 0.0000 0.0000 0.0000 32.0547 0.0000 -7.1407
# 5 -34.0821 -18.4046 -32.3879 0.0000 29.7046 0.0000
# 6 0.0000 0.0000 0.0000 -7.1407 0.0000 23.9541
#
#
#
# Elastic Compliance Matrix: (Units=1/GPa)
#
#
# Indices 1 2 3 4 5 6 
#
# 1 0.011450 -0.002951 -0.001706 0.000000 0.009448 0.000000
# 2 -0.002951 0.010799 -0.004274 0.000000 -0.001355 0.000000
# 3 -0.001706 -0.004274 0.015178 0.000000 0.011943 0.000000
# 4 0.000000 0.000000 0.000000 0.033416 0.000000 0.009961
# 5 0.009448 -0.001355 0.011943 0.000000 0.056688 0.000000
# 6 0.000000 0.000000 0.000000 0.009961 0.000000 0.044716
#
#
# Mechanical properties :
#
#
# Convention : Reuss Voigt Hill
#
# Bulk Modulus (GPa) = 51.11396 80.61488 65.86442
# Shear Modulus (GPa) = 25.42839 31.07382 28.25111
#
# Velocity S-wave (km/s) = 3.75179 4.14741 3.95455
# Velocity P-wave (km/s) = 6.86018 8.21944 7.57038
#
# Compressibility (1/GPa) = 0.01956413
#
# Stress axis : x y z
#
# Youngs Moduli (GPa) = 87.33532 92.60239 65.88535
#
# Poissons Ratio (x) = 0.27329 0.11243
# Poissons Ratio (y) = 0.25775 0.28157
# Poissons Ratio (z) = 0.14903 0.39575
#
# Static dielectric constant tensor:
#      x y z
#    x 4.058270 0.000000 -0.909130 
#    y 0.000000 3.457230 0.000000 
#    z -0.909130 0.000000 3.630140 
# 
# 
# High freq. dielectric constant tensor:
#      x y z
#    x 1.695220 0.000000 -0.042610 
#    y 0.000000 1.717970 0.000000 
#    z -0.042610 0.000000 1.683340 
# 
# From -- ./inp_files/27244.got.cif
#   From: 2010.06.25/outbox.cif.g09.slc.cpg/sg11_14_cif.got.tgz:27244.got - 2010.06.27 23:14:04.
