data_PCOD8071912
_publ_section_title
;
Structure prediction by ZEFSAII (Michael W. Deem and Ramdas Pophale) SiO2 
 PCOD8071912
Probable space group: P 21/M
;
_chemical_formula_sum "Si O2"
_cell_formula_units_Z 32
_cell_length_a 24.015901
_cell_length_b 8.710925
_cell_length_c 11.703908
_cell_angle_alpha 90.000000
_cell_angle_beta 44.298018
_cell_angle_gamma 90.000000
_cell_volume 1709.985386
_symmetry_space_group_name_H-M "P 21/M"
_symmetry_group_IT_number 11
_symmetry_cell_setting 'monoclinic'
loop_
_space_group_symop_operation_xyz
x,y,z
-x,1/2+y,-z
-x,-y,-z
x,1/2-y,z
loop_
_atom_site_type_symbol
_atom_site_label
_atom_site_fract_x
_atom_site_fract_y
_atom_site_fract_z
Si Si1 0.353723 0.572088 0.517091
Si Si2 0.288649 0.430503 0.394187
Si Si3 0.182447 0.431426 0.151686
Si Si4 0.463570 0.431732 0.754714
Si Si5 0.143795 0.070326 0.460122
Si Si6 0.024858 0.930755 0.343728
Si Si7 0.574710 0.068840 0.954572
Si Si8 0.332100 0.572005 0.808151
O O1 0.350475 0.750000 0.486324
O O2 0.299253 0.474258 0.510942
O O3 0.444879 0.512913 0.377493
O O4 0.317842 0.544912 0.694953
O O5 0.304663 0.250000 0.353406
O O6 0.200141 0.480064 0.482358
O O7 0.347731 0.529985 0.231281
O O8 0.182031 0.250000 0.148813
O O9 0.173138 0.498716 0.294617
O O10 0.108131 0.492177 0.182995
O O11 0.264503 0.488327 0.978912
O O12 0.458239 0.250000 0.754862
O O13 0.417340 0.491608 0.933848
O O14 0.418781 0.503790 0.711736
O O15 0.150266 0.250000 0.432239
O O16 0.051301 0.028003 0.625972
O O17 0.038165 0.750000 0.332983
O O18 0.000000 0.000000 0.500000
O O19 0.564506 0.250000 0.982095
O O20 0.500000 0.000000 0.000000
O O21 0.331230 0.750000 0.840540
#
# Coordination Sequence:
#
# PCOD8071912 Si02
#       8
#     4   4   4   4   4   4   4   4
#     4  10  23  40  55  74 106 145 184 229 276 323
#     4  11  21  35  57  81 108 145 185 224 270 326
#     4  10  19  34  55  81 113 143 176 221 274 326
#     4  11  22  38  58  79 107 141 180 229 280 326
#     4   8  17  32  52  81 112 140 171 212 265 320
#     4   9  16  30  52  79 113 145 174 213 266 326
#     4  12  23  36  54  79 109 143 181 222 270 323
#     4  11  23  38  56  79 106 141 186 229 273 325
#
# _framework density 18.713611
#
# number of rings (size 3 to 8) (size 9 to 14) (size 15 to 20)
#    0.000    1.750    1.250    4.875    0.000    2.500 
#    0.000    6.875    0.000    0.750    0.000    0.000 
#    0.000    0.000    0.000    0.000    0.000    0.000 
#
# Total GULP energy -396727.072697 kJ/mol
# GULP energy per Si atom -12397.721022 kJ/mol
# Density = 1.867102 g / cm^3
# Si number density = 18.713611 Si / 1000 Ang^3
#
#
#
# Elastic Constant Matrix: (Units=GPa)
#
#
# Indices 1 2 3 4 5 6 
#
# 1 147.2180 41.6231 42.8077 0.0000 -18.3651 0.0000
# 2 41.6231 71.5427 17.6278 0.0000 -5.9248 0.0000
# 3 42.8077 17.6278 47.4430 0.0000 -3.7247 0.0000
# 4 0.0000 0.0000 0.0000 26.3237 0.0000 -1.6932
# 5 -18.3651 -5.9248 -3.7247 0.0000 25.3986 0.0000
# 6 0.0000 0.0000 0.0000 -1.6932 0.0000 30.4864
#
#
#
# Elastic Compliance Matrix: (Units=1/GPa)
#
#
# Indices 1 2 3 4 5 6 
#
# 1 0.010943 -0.003923 -0.007959 0.000000 0.005831 0.000000
# 2 -0.003923 0.016989 -0.002716 0.000000 0.000728 0.000000
# 3 -0.007959 -0.002716 0.029102 0.000000 -0.002121 0.000000
# 4 0.000000 0.000000 0.000000 0.038125 0.000000 0.002117
# 5 0.005831 0.000728 -0.002121 0.000000 0.043447 0.000000
# 6 0.000000 0.000000 0.000000 0.002117 0.000000 0.032919
#
#
# Mechanical properties :
#
#
# Convention : Reuss Voigt Hill
#
# Bulk Modulus (GPa) = 35.92006 52.25785 44.08895
# Shear Modulus (GPa) = 23.80947 27.38474 25.59711
#
# Velocity S-wave (km/s) = 3.57081 3.82954 3.70244
# Velocity P-wave (km/s) = 6.01974 6.89489 6.47212
#
# Compressibility (1/GPa) = 0.02783960
#
# Stress axis : x y z
#
# Youngs Moduli (GPa) = 91.37942 58.86001 34.36224
#
# Poissons Ratio (x) = 0.23090 0.27348
# Poissons Ratio (y) = 0.35847 0.09332
# Poissons Ratio (z) = 0.72727 0.15985
#
# Static dielectric constant tensor:
#      x y z
#    x 4.402630 0.000000 -0.474740 
#    y 0.000000 3.536470 0.000000 
#    z -0.474740 0.000000 3.470410 
# 
# 
# High freq. dielectric constant tensor:
#      x y z
#    x 1.734370 0.000000 -0.013710 
#    y 0.000000 1.729000 0.000000 
#    z -0.013710 0.000000 1.700490 
# 
# From -- ./inp_files/43786.got.cif
#   From: 2010.06.25/outbox.cif.g09.slc.cpg/sg11_22_cif.got.tgz:43786.got - 2010.06.27 23:14:04.
