data_PCOD8071976
_publ_section_title
;
Structure prediction by ZEFSAII (Michael W. Deem and Ramdas Pophale) SiO2 
 PCOD8071976
Probable space group: P 21/M
;
_chemical_formula_sum "Si O2"
_cell_formula_units_Z 24
_cell_length_a 9.154504
_cell_length_b 16.412409
_cell_length_c 15.782066
_cell_angle_alpha 90.000000
_cell_angle_beta 30.297472
_cell_angle_gamma 90.000000
_cell_volume 1196.253335
_symmetry_space_group_name_H-M "P 21/M"
_symmetry_group_IT_number 11
_symmetry_cell_setting 'monoclinic'
loop_
_space_group_symop_operation_xyz
x,y,z
-x,1/2+y,-z
-x,-y,-z
x,1/2-y,z
loop_
_atom_site_type_symbol
_atom_site_label
_atom_site_fract_x
_atom_site_fract_y
_atom_site_fract_z
Si Si1 0.601533 0.407569 0.449324
Si Si2 0.334289 0.655247 0.409177
Si Si3 0.702190 0.596307 0.729282
Si Si4 0.234601 0.343680 0.126907
Si Si5 0.747106 0.656700 0.530435
Si Si6 0.624588 0.410558 0.783347
O O1 0.500000 0.500000 0.500000
O O2 0.489459 0.367356 0.593986
O O3 0.469231 0.358629 0.437815
O O4 0.948365 0.399847 0.268258
O O5 0.246691 0.750000 0.454513
O O6 0.502540 0.632628 0.238392
O O7 0.050704 0.598208 0.548563
O O8 0.609637 0.647087 0.859238
O O9 0.583329 0.634347 0.700768
O O10 0.573159 0.506461 0.803347
O O11 0.147932 0.250000 0.155379
O O12 0.455226 0.373545 0.946435
O O13 0.842949 0.750000 0.484928
O O14 0.035581 0.604305 0.372943
#
# Coordination Sequence:
#
# PCOD8071976 Si02
#       6
#     4   4   4   4   4   4
#     4  11  22  38  58  81 110 147 189 232 276 331
#     4  10  19  36  58  82 113 155 191 223 273 342
#     4  10  19  34  56  82 111 147 187 228 272 329
#     4  11  22  39  58  82 115 153 185 224 283 344
#     4  11  20  35  58  85 110 143 189 237 274 320
#     4  11  21  36  59  86 113 145 186 234 279 328
#
# _framework density 20.062640999999999
#
# number of rings (size 3 to 8) (size 9 to 14) (size 15 to 20)
#    0.000    1.333    0.000   12.000    0.000    0.000 
#    0.000    5.000    0.000    0.000    0.000    0.000 
#    0.000    0.000    0.000    0.000    0.000    0.000 
#
# Total GULP energy -297550.810694 kJ/mol
# GULP energy per Si atom -12397.950446 kJ/mol
# Density = 2.001698 g / cm^3
# Si number density = 20.062641 Si / 1000 Ang^3
#
#
#
# Elastic Constant Matrix: (Units=GPa)
#
#
# Indices 1 2 3 4 5 6 
#
# 1 138.0549 25.8317 45.5852 0.0000 38.7516 0.0000
# 2 25.8317 123.0296 28.0475 0.0000 7.9030 0.0000
# 3 45.5852 28.0475 102.5998 0.0000 37.8778 0.0000
# 4 0.0000 0.0000 0.0000 29.0159 0.0000 7.3543
# 5 38.7516 7.9030 37.8778 0.0000 29.6356 0.0000
# 6 0.0000 0.0000 0.0000 7.3543 0.0000 33.3160
#
#
#
# Elastic Compliance Matrix: (Units=1/GPa)
#
#
# Indices 1 2 3 4 5 6 
#
# 1 0.011815 -0.001727 0.001432 0.000000 -0.016818 0.000000
# 2 -0.001727 0.008950 -0.003090 0.000000 0.003820 0.000000
# 3 0.001432 -0.003090 0.019582 0.000000 -0.026076 0.000000
# 4 0.000000 0.000000 0.000000 0.036506 0.000000 -0.008059
# 5 -0.016818 0.003820 -0.026076 0.000000 0.088045 0.000000
# 6 0.000000 0.000000 0.000000 -0.008059 0.000000 0.031794
#
#
# Mechanical properties :
#
#
# Convention : Reuss Voigt Hill
#
# Bulk Modulus (GPa) = 29.78229 62.51259 46.14744
# Shear Modulus (GPa) = 23.29334 36.00816 29.65075
#
# Velocity S-wave (km/s) = 3.41109 4.24109 3.84853
# Velocity P-wave (km/s) = 5.51279 7.43026 6.54216
#
# Compressibility (1/GPa) = 0.03357700
#
# Stress axis : x y z
#
# Youngs Moduli (GPa) = 84.64030 111.73632 51.06743
#
# Poissons Ratio (x) = 0.19293 -0.07312
# Poissons Ratio (y) = 0.14615 0.15778
# Poissons Ratio (z) = -0.12119 0.34523
#
# Static dielectric constant tensor:
#      x y z
#    x 4.026830 0.000000 0.630600 
#    y 0.000000 3.699390 0.000000 
#    z 0.630600 0.000000 3.545300 
# 
# 
# High freq. dielectric constant tensor:
#      x y z
#    x 1.785820 0.000000 0.045650 
#    y 0.000000 1.798130 0.000000 
#    z 0.045650 0.000000 1.755700 
# 
# From -- ./inp_files/22329.got.cif
#   From: 2010.06.25/outbox.cif.g09.slc.cpg/sg11_12_cif.got.tgz:22329.got - 2010.06.27 23:14:04.
