data_PCOD8071131
_publ_section_title
;
Structure prediction by ZEFSAII (Michael W. Deem and Ramdas Pophale) SiO2 
 PCOD8071131
Probable space group: P 21/M
;
_chemical_formula_sum "Si O2"
_cell_formula_units_Z 32
_cell_length_a 20.878252
_cell_length_b 9.392934
_cell_length_c 12.078532
_cell_angle_alpha 90.000000
_cell_angle_beta 133.161853
_cell_angle_gamma 90.000000
_cell_volume 1727.785187
_symmetry_space_group_name_H-M "P 21/M"
_symmetry_group_IT_number 11
_symmetry_cell_setting 'monoclinic'
loop_
_space_group_symop_operation_xyz
x,y,z
-x,1/2+y,-z
-x,-y,-z
x,1/2-y,z
loop_
_atom_site_type_symbol
_atom_site_label
_atom_site_fract_x
_atom_site_fract_y
_atom_site_fract_z
Si Si1 0.712140 0.085557 0.499388
Si Si2 0.511213 0.093501 0.220815
Si Si3 0.360397 0.915649 0.955854
Si Si4 0.569452 0.595500 0.640302
Si Si5 0.273758 0.909235 0.233939
Si Si6 0.800743 0.408833 0.079855
Si Si7 0.244437 0.415012 0.652165
Si Si8 0.086721 0.085715 0.629513
O O1 0.725750 0.250000 0.481975
O O2 0.608962 0.042772 0.370473
O O3 0.751929 0.057734 0.669436
O O4 0.766565 0.983089 0.482490
O O5 0.515481 0.250000 0.167572
O O6 0.451698 0.110130 0.257342
O O7 0.459165 0.977597 0.086235
O O8 0.369639 0.750000 0.937431
O O9 0.297721 0.939099 0.988940
O O10 0.320209 0.996949 0.803273
O O11 0.500000 0.500000 0.500000
O O12 0.569307 0.750000 0.582885
O O13 0.663541 0.529157 0.736660
O O14 0.316527 0.750000 0.281729
O O15 0.195533 0.916076 0.050443
O O16 0.829006 0.250000 0.151900
O O17 0.869163 0.522744 0.207682
O O18 0.272059 0.250000 0.677558
O O19 0.151865 0.432549 0.603506
O O20 0.064013 0.250000 0.625077
O O21 0.000000 0.000000 0.500000
#
# Coordination Sequence:
#
# PCOD8071131 Si02
#       8
#     4   4   4   4   4   4   4   4
#     4  10  21  36  52  72 105 149 190 224 263 313
#     4  10  20  32  47  70 103 142 186 235 276 309
#     4  10  19  32  53  76 101 139 184 228 274 321
#     4  11  20  30  46  69 101 141 187 237 278 313
#     4  10  19  34  52  76 108 143 183 226 268 314
#     4   9  18  32  54  83 113 139 170 215 268 318
#     4  10  22  39  56  78 108 138 173 218 266 319
#     4  10  21  38  63  90 113 133 162 208 262 320
#
# _framework density 18.520821999999999
#
# number of rings (size 3 to 8) (size 9 to 14) (size 15 to 20)
#    0.000    2.000    2.500    1.500    0.000    4.500 
#    0.000    0.000    0.000    0.750    0.000    0.000 
#    0.000    0.000    0.000    0.000    0.000    0.000 
#
# Total GULP energy -396627.579107 kJ/mol
# GULP energy per Si atom -12394.611847 kJ/mol
# Density = 1.847867 g / cm^3
# Si number density = 18.520822 Si / 1000 Ang^3
#
#
#
# Elastic Constant Matrix: (Units=GPa)
#
#
# Indices 1 2 3 4 5 6 
#
# 1 50.2831 44.4603 44.4806 0.0000 -13.7464 0.0000
# 2 44.4603 138.1108 65.2361 0.0000 -3.1855 0.0000
# 3 44.4806 65.2361 101.5909 0.0000 -11.3085 0.0000
# 4 0.0000 0.0000 0.0000 32.3417 0.0000 0.6734
# 5 -13.7464 -3.1855 -11.3085 0.0000 28.5185 0.0000
# 6 0.0000 0.0000 0.0000 0.6734 0.0000 27.0566
#
#
#
# Elastic Compliance Matrix: (Units=1/GPa)
#
#
# Indices 1 2 3 4 5 6 
#
# 1 0.040207 -0.007238 -0.011392 0.000000 0.014055 0.000000
# 2 -0.007238 0.011762 -0.004840 0.000000 -0.004094 0.000000
# 3 -0.011392 -0.004840 0.018065 0.000000 0.001132 0.000000
# 4 0.000000 0.000000 0.000000 0.030936 0.000000 -0.000770
# 5 0.014055 -0.004094 0.001132 0.000000 0.041831 0.000000
# 6 0.000000 0.000000 0.000000 -0.000770 0.000000 0.036979
#
#
# Mechanical properties :
#
#
# Convention : Reuss Voigt Hill
#
# Bulk Modulus (GPa) = 43.29976 66.48208 54.89092
# Shear Modulus (GPa) = 21.32953 26.63721 23.98337
#
# Velocity S-wave (km/s) = 3.39728 3.79651 3.60243
# Velocity P-wave (km/s) = 6.23044 7.42912 6.85603
#
# Compressibility (1/GPa) = 0.02309482
#
# Stress axis : x y z
#
# Youngs Moduli (GPa) = 24.87139 85.01795 55.35631
#
# Poissons Ratio (x) = 0.61539 0.63060
# Poissons Ratio (y) = 0.18003 0.26790
# Poissons Ratio (z) = 0.28333 0.41145
#
# Static dielectric constant tensor:
#      x y z
#    x 3.423260 0.000000 -0.125090 
#    y 0.000000 3.656900 0.000000 
#    z -0.125090 0.000000 3.367310 
# 
# 
# High freq. dielectric constant tensor:
#      x y z
#    x 1.683430 0.000000 -0.020740 
#    y 0.000000 1.733330 0.000000 
#    z -0.020740 0.000000 1.708130 
# 
# From -- ./inp_files/38280.got.cif
#   From: 2010.06.25/outbox.cif.g09.slc.cpg/sg11_20_cif.got.tgz:38280.got - 2010.06.27 23:14:04.
