data_PCOD8071485
_publ_section_title
;
Structure prediction by ZEFSAII (Michael W. Deem and Ramdas Pophale) SiO2 
 PCOD8071485
Probable space group: P 21/M
;
_chemical_formula_sum "Si O2"
_cell_formula_units_Z 32
_cell_length_a 21.847003
_cell_length_b 9.088580
_cell_length_c 26.707119
_cell_angle_alpha 90.000000
_cell_angle_beta 18.715458
_cell_angle_gamma 90.000000
_cell_volume 1701.539629
_symmetry_space_group_name_H-M "P 21/M"
_symmetry_group_IT_number 11
_symmetry_cell_setting 'monoclinic'
loop_
_space_group_symop_operation_xyz
x,y,z
-x,1/2+y,-z
-x,-y,-z
x,1/2-y,z
loop_
_atom_site_type_symbol
_atom_site_label
_atom_site_fract_x
_atom_site_fract_y
_atom_site_fract_z
Si Si1 0.735630 0.580991 0.065170
Si Si2 0.716200 0.420648 0.717717
Si Si3 0.709807 0.416180 0.235579
Si Si4 0.043151 0.076033 0.656727
Si Si5 0.569718 0.423592 0.616123
Si Si6 0.980075 0.915349 0.091753
Si Si7 0.708217 0.580997 0.970429
Si Si8 0.025056 0.077432 0.557017
O O1 0.786837 0.750000 0.036200
O O2 0.551947 0.535057 0.240272
O O3 0.921663 0.487242 0.935828
O O4 0.685113 0.550613 0.047122
O O5 0.747411 0.250000 0.681923
O O6 0.832004 0.470369 0.677495
O O7 0.791226 0.505117 0.610851
O O8 0.494233 0.455479 0.898553
O O9 0.645936 0.250000 0.297819
O O10 0.529351 0.509315 0.356392
O O11 0.792883 0.492414 0.221220
O O12 0.871140 0.415993 0.068590
O O13 0.073043 0.250000 0.637281
O O14 0.009335 0.022922 0.626072
O O15 0.859861 0.030201 0.830385
O O16 0.224243 0.995085 0.539228
O O17 0.590529 0.250000 0.592742
O O18 0.916932 0.750000 0.154154
O O19 0.769028 0.750000 0.913336
O O20 0.056062 0.250000 0.530548
#
# Coordination Sequence:
#
# PCOD8071485 Si02
#       8
#     4   4   4   4   4   4   4   4
#     4   9  18  32  51  75 101 131 170 216 261 304
#     4   9  18  35  58  81 104 133 171 213 257 306
#     4   9  16  27  45  72 105 135 165 208 258 303
#     4  11  23  36  50  73 106 140 173 211 257 307
#     4  10  19  33  54  77 101 133 174 216 258 306
#     4   9  16  26  44  72 103 134 168 207 253 305
#     4  10  21  36  53  74 102 137 176 215 255 303
#     4   9  19  35  55  80 108 135 167 211 259 307
#
# _framework density 18.806498000000001
#
# number of rings (size 3 to 8) (size 9 to 14) (size 15 to 20)
#    0.000    2.500    0.000    2.250    0.000    7.000 
#    0.000    0.000    0.000    0.750    0.000    0.000 
#    0.000    0.000    0.000    0.000    0.000    0.000 
#
# Total GULP energy -396857.384919 kJ/mol
# GULP energy per Si atom -12401.793279 kJ/mol
# Density = 1.876369 g / cm^3
# Si number density = 18.806498 Si / 1000 Ang^3
#
#
#
# Elastic Constant Matrix: (Units=GPa)
#
#
# Indices 1 2 3 4 5 6 
#
# 1 49.2833 26.9594 39.3187 0.0000 -26.4721 0.0000
# 2 26.9594 81.1861 40.3149 0.0000 -16.0226 0.0000
# 3 39.3187 40.3149 92.9571 0.0000 -20.1861 0.0000
# 4 0.0000 0.0000 0.0000 30.2855 0.0000 -3.2534
# 5 -26.4721 -16.0226 -20.1861 0.0000 24.6443 0.0000
# 6 0.0000 0.0000 0.0000 -3.2534 0.0000 25.5203
#
#
#
# Elastic Compliance Matrix: (Units=1/GPa)
#
#
# Indices 1 2 3 4 5 6 
#
# 1 0.060311 -0.003429 -0.012697 0.000000 0.052154 0.000000
# 2 -0.003429 0.016563 -0.005102 0.000000 0.002906 0.000000
# 3 -0.012697 -0.005102 0.017830 0.000000 -0.002351 0.000000
# 4 0.000000 0.000000 0.000000 0.033478 0.000000 0.004268
# 5 0.052154 0.002906 -0.002351 0.000000 0.096564 0.000000
# 6 0.000000 0.000000 0.000000 0.004268 0.000000 0.039729
#
#
# Mechanical properties :
#
#
# Convention : Reuss Voigt Hill
#
# Bulk Modulus (GPa) = 19.13955 48.51247 33.82601
# Shear Modulus (GPa) = 15.41561 23.87891 19.64726
#
# Velocity S-wave (km/s) = 2.86614 3.56717 3.23570
# Velocity P-wave (km/s) = 4.59915 6.54354 5.65553
#
# Compressibility (1/GPa) = 0.05224783
#
# Stress axis : x y z
#
# Youngs Moduli (GPa) = 16.58072 60.37533 56.08421
#
# Poissons Ratio (x) = 0.20704 0.71212
# Poissons Ratio (y) = 0.05686 0.28613
# Poissons Ratio (z) = 0.21053 0.30802
#
# Static dielectric constant tensor:
#      x y z
#    x 3.526400 0.000000 -0.265510 
#    y 0.000000 3.508770 0.000000 
#    z -0.265510 0.000000 3.230650 
# 
# 
# High freq. dielectric constant tensor:
#      x y z
#    x 1.728730 0.000000 -0.026170 
#    y 0.000000 1.735250 0.000000 
#    z -0.026170 0.000000 1.707620 
# 
# From -- ./inp_files/71993.got.cif
#   From: 2010.06.25/outbox.cif.g09.slc.cpg/sg11_36_cif.got.tgz:71993.got - 2010.06.27 23:14:04.
