data_PCOD8071351
_publ_section_title
;
Structure prediction by ZEFSAII (Michael W. Deem and Ramdas Pophale) SiO2 
 PCOD8071351
Probable space group: P 21/M
;
_chemical_formula_sum "Si O2"
_cell_formula_units_Z 24
_cell_length_a 9.147218
_cell_length_b 8.910631
_cell_length_c 19.272535
_cell_angle_alpha 90.000000
_cell_angle_beta 121.647256
_cell_angle_gamma 90.000000
_cell_volume 1337.260901
_symmetry_space_group_name_H-M "P 21/M"
_symmetry_group_IT_number 11
_symmetry_cell_setting 'monoclinic'
loop_
_space_group_symop_operation_xyz
x,y,z
-x,1/2+y,-z
-x,-y,-z
x,1/2-y,z
loop_
_atom_site_type_symbol
_atom_site_label
_atom_site_fract_x
_atom_site_fract_y
_atom_site_fract_z
Si Si1 0.513915 0.915479 0.171948
Si Si2 0.151133 0.928247 0.581110
Si Si3 0.862943 0.070831 0.915061
Si Si4 0.155678 0.428947 0.238637
Si Si5 0.496739 0.080959 0.665867
Si Si6 0.150051 0.925657 0.739403
O O1 0.549093 0.750000 0.151229
O O2 0.325567 0.971986 0.100994
O O3 0.508694 0.914069 0.253215
O O4 0.669123 0.017899 0.183516
O O5 0.150364 0.750000 0.572982
O O6 0.125044 0.980266 0.654212
O O7 0.330479 0.992674 0.596144
O O8 0.000000 0.000000 0.500000
O O9 0.882907 0.250000 0.914332
O O10 0.889790 0.999224 0.846594
O O11 0.000000 0.000000 0.000000
O O12 0.167426 0.250000 0.234944
O O13 0.332907 0.491770 0.314731
O O14 0.007447 0.484015 0.253985
O O15 0.499533 0.250000 0.635927
O O16 0.160181 0.750000 0.744839
#
# Coordination Sequence:
#
# PCOD8071351 Si02
#       6
#     4   4   4   4   4   4
#     4   8  16  30  49  71  96 125 162 201 240 288
#     4  10  19  33  52  75 101 131 166 207 250 295
#     4  10  20  34  52  76 101 130 166 205 246 293
#     4  10  19  33  52  75 101 130 163 203 246 293
#     4   9  17  31  50  73  98 129 167 204 242 293
#     4   9  19  33  51  74 100 129 164 202 245 294
#
# _framework density 17.947133000000001
#
# number of rings (size 3 to 8) (size 9 to 14) (size 15 to 20)
#    0.000    2.667    0.000    3.000    0.000    6.667 
#    0.000    1.667    0.000    0.000    0.000    0.000 
#    0.000    0.000    0.000    0.000    0.000    0.000 
#
# Total GULP energy -297513.283131 kJ/mol
# GULP energy per Si atom -12396.386797 kJ/mol
# Density = 1.790628 g / cm^3
# Si number density = 17.947133 Si / 1000 Ang^3
#
#
#
# Elastic Constant Matrix: (Units=GPa)
#
#
# Indices 1 2 3 4 5 6 
#
# 1 143.6650 54.7636 63.9967 0.0000 32.9371 0.0000
# 2 54.7636 79.0165 45.4677 0.0000 14.3988 0.0000
# 3 63.9967 45.4677 110.7445 0.0000 36.4888 0.0000
# 4 0.0000 0.0000 0.0000 31.3116 0.0000 9.9909
# 5 32.9371 14.3988 36.4888 0.0000 30.7301 0.0000
# 6 0.0000 0.0000 0.0000 9.9909 0.0000 29.4995
#
#
#
# Elastic Compliance Matrix: (Units=1/GPa)
#
#
# Indices 1 2 3 4 5 6 
#
# 1 0.011713 -0.005603 -0.001966 0.000000 -0.007595 0.000000
# 2 -0.005603 0.019255 -0.006035 0.000000 0.004149 0.000000
# 3 -0.001966 -0.006035 0.018098 0.000000 -0.016555 0.000000
# 4 0.000000 0.000000 0.000000 0.035806 0.000000 -0.012127
# 5 -0.007595 0.004149 -0.016555 0.000000 0.058395 0.000000
# 6 0.000000 0.000000 0.000000 -0.012127 0.000000 0.038006
#
#
# Mechanical properties :
#
#
# Convention : Reuss Voigt Hill
#
# Bulk Modulus (GPa) = 45.74693 73.54246 59.64469
# Shear Modulus (GPa) = 23.17303 29.58811 26.38057
#
# Velocity S-wave (km/s) = 3.59720 4.06473 3.83809
# Velocity P-wave (km/s) = 6.54204 7.94328 7.27647
#
# Compressibility (1/GPa) = 0.02185939
#
# Stress axis : x y z
#
# Youngs Moduli (GPa) = 85.37189 51.93401 55.25406
#
# Poissons Ratio (x) = 0.29098 0.10864
# Poissons Ratio (y) = 0.47832 0.33344
# Poissons Ratio (z) = 0.16786 0.31340
#
# Static dielectric constant tensor:
#      x y z
#    x 3.592080 0.000000 0.319600 
#    y 0.000000 3.505970 0.000000 
#    z 0.319600 0.000000 3.272980 
# 
# 
# High freq. dielectric constant tensor:
#      x y z
#    x 1.688680 0.000000 0.031700 
#    y 0.000000 1.704980 0.000000 
#    z 0.031700 0.000000 1.676450 
# 
# From -- ./inp_files/20504.got.cif
#   From: 2010.06.25/outbox.cif.g09.slc.cpg/sg11_11_cif.got.tgz:20504.got - 2010.06.27 23:14:04.
