data_PCOD8071334
_publ_section_title
;
Structure prediction by ZEFSAII (Michael W. Deem and Ramdas Pophale) SiO2 
 PCOD8071334
Probable space group: P 21/M
;
_chemical_formula_sum "Si O2"
_cell_formula_units_Z 32
_cell_length_a 11.788298
_cell_length_b 13.888705
_cell_length_c 14.747066
_cell_angle_alpha 90.000000
_cell_angle_beta 138.472882
_cell_angle_gamma 90.000000
_cell_volume 1600.719654
_symmetry_space_group_name_H-M "P 21/M"
_symmetry_group_IT_number 11
_symmetry_cell_setting 'monoclinic'
loop_
_space_group_symop_operation_xyz
x,y,z
-x,1/2+y,-z
-x,-y,-z
x,1/2-y,z
loop_
_atom_site_type_symbol
_atom_site_label
_atom_site_fract_x
_atom_site_fract_y
_atom_site_fract_z
Si Si1 0.696319 0.637343 0.774802
Si Si2 0.589459 0.140474 0.067320
Si Si3 0.606513 0.361904 0.278206
Si Si4 0.174617 0.958079 0.937580
Si Si5 0.914341 0.137323 0.938391
Si Si6 0.787917 0.643372 0.130212
Si Si7 0.847208 0.139616 0.578826
Si Si8 0.810040 0.005964 0.712216
O O1 0.670775 0.750000 0.734590
O O2 0.556420 0.599574 0.762767
O O3 0.671961 0.569947 0.669856
O O4 0.886284 0.614974 0.925030
O O5 0.652871 0.250000 0.104181
O O6 0.617094 0.092330 0.183911
O O7 0.698587 0.085040 0.059827
O O8 0.388932 0.131672 0.920183
O O9 0.574281 0.250000 0.242909
O O10 0.781628 0.383046 0.438017
O O11 0.207944 0.073570 0.954686
O O12 0.202108 0.911341 0.052469
O O13 0.978191 0.941957 0.788788
O O14 0.874544 0.250000 0.911928
O O15 0.860526 0.089721 0.812935
O O16 0.799138 0.750000 0.093603
O O17 0.947556 0.624526 0.293518
O O18 0.797418 0.250000 0.574347
O O19 0.748577 0.065046 0.586817
#
# Coordination Sequence:
#
# PCOD8071334 Si02
#       8
#     4   4   4   4   4   4   4   4
#     4   9  18  31  49  74 105 135 174 218 259 304
#     4  10  20  33  53  80 104 133 173 219 264 308
#     4   9  19  33  52  78 104 134 175 217 259 305
#     4  10  19  33  51  79 108 134 169 216 263 309
#     4  10  20  33  52  79 110 139 168 214 264 310
#     4   9  19  33  52  76 104 137 175 214 256 306
#     4   9  18  34  53  76 105 136 173 217 259 308
#     4  10  20  32  51  76 105 139 177 206 262 316
#
# _framework density 19.991008999999998
#
# number of rings (size 3 to 8) (size 9 to 14) (size 15 to 20)
#    0.000    2.500    0.000    2.625    5.250    1.500 
#    0.000    2.500    0.000    0.000    3.250    0.875 
#    0.000    0.000    0.000    0.000    0.000    0.000 
#
# Total GULP energy -396519.284209 kJ/mol
# GULP energy per Si atom -12391.227632 kJ/mol
# Density = 1.994551 g / cm^3
# Si number density = 19.991009 Si / 1000 Ang^3
#
#
#
# Elastic Constant Matrix: (Units=GPa)
#
#
# Indices 1 2 3 4 5 6 
#
# 1 115.2779 36.9747 37.3527 0.0000 1.0392 0.0000
# 2 36.9747 69.9773 20.5321 0.0000 3.7852 0.0000
# 3 37.3527 20.5321 79.9095 0.0000 -0.6376 0.0000
# 4 0.0000 0.0000 0.0000 12.3523 0.0000 -0.8385
# 5 1.0392 3.7852 -0.6376 0.0000 15.3969 0.0000
# 6 0.0000 0.0000 0.0000 -0.8385 0.0000 24.1727
#
#
#
# Elastic Compliance Matrix: (Units=1/GPa)
#
#
# Indices 1 2 3 4 5 6 
#
# 1 0.011597 -0.004923 -0.004154 0.000000 0.000256 0.000000
# 2 -0.004923 0.017791 -0.002303 0.000000 -0.004137 0.000000
# 3 -0.004154 -0.002303 0.015059 0.000000 0.001470 0.000000
# 4 0.000000 0.000000 0.000000 0.081148 0.000000 0.002815
# 5 0.000256 -0.004137 0.001470 0.000000 0.066009 0.000000
# 6 0.000000 0.000000 0.000000 0.002815 0.000000 0.041467
#
#
# Mechanical properties :
#
#
# Convention : Reuss Voigt Hill
#
# Bulk Modulus (GPa) = 46.10918 50.54264 48.32591
# Shear Modulus (GPa) = 19.00704 21.73805 20.37254
#
# Velocity S-wave (km/s) = 3.08682 3.30114 3.19577
# Velocity P-wave (km/s) = 5.98495 6.31408 6.15172
#
# Compressibility (1/GPa) = 0.02168766
#
# Stress axis : x y z
#
# Youngs Moduli (GPa) = 86.22641 56.20817 66.40335
#
# Poissons Ratio (x) = 0.27670 0.27585
# Poissons Ratio (y) = 0.42447 0.15294
# Poissons Ratio (z) = 0.35820 0.12946
#
# Static dielectric constant tensor:
#      x y z
#    x 3.686390 0.000000 0.074850 
#    y 0.000000 3.838050 0.000000 
#    z 0.074850 0.000000 3.462550 
# 
# 
# High freq. dielectric constant tensor:
#      x y z
#    x 1.775240 0.000000 0.004710 
#    y 0.000000 1.780150 0.000000 
#    z 0.004710 0.000000 1.750630 
# 
# From -- ./inp_files/50399.got.cif
#   From: 2010.06.25/outbox.cif.g09.slc.cpg/sg11_26_cif.got.tgz:50399.got - 2010.06.27 23:14:04.
