data_PCOD8071651
_publ_section_title
;
Structure prediction by ZEFSAII (Michael W. Deem and Ramdas Pophale) SiO2 
 PCOD8071651
Probable space group: P 21/M
;
_chemical_formula_sum "Si O2"
_cell_formula_units_Z 32
_cell_length_a 23.199956
_cell_length_b 13.583738
_cell_length_c 7.821316
_cell_angle_alpha 90.000000
_cell_angle_beta 37.020785
_cell_angle_gamma 90.000000
_cell_volume 1484.083406
_symmetry_space_group_name_H-M "P 21/M"
_symmetry_group_IT_number 11
_symmetry_cell_setting 'monoclinic'
loop_
_space_group_symop_operation_xyz
x,y,z
-x,1/2+y,-z
-x,-y,-z
x,1/2-y,z
loop_
_atom_site_type_symbol
_atom_site_label
_atom_site_fract_x
_atom_site_fract_y
_atom_site_fract_z
Si Si1 0.249961 0.861725 0.668409
Si Si2 0.725714 0.478503 0.039535
Si Si3 0.481656 0.137969 0.770653
Si Si4 0.310783 0.041088 0.321291
Si Si5 0.939709 0.140855 0.077286
Si Si6 0.419562 0.451763 0.384632
Si Si7 0.126844 0.460565 0.563032
Si Si8 0.412877 0.858363 0.835476
O O1 0.290059 0.750000 0.573030
O O2 0.256151 0.905124 0.845059
O O3 0.306790 0.925163 0.387965
O O4 0.137733 0.865426 0.889955
O O5 0.648808 0.559112 0.287206
O O6 0.683242 0.422455 0.970914
O O7 0.822253 0.529829 0.743134
O O8 0.473054 0.250000 0.863064
O O9 0.520632 0.140381 0.487635
O O10 0.556026 0.069681 0.704462
O O11 0.380969 0.077041 0.001872
O O12 0.360083 0.095330 0.368215
O O13 0.203754 0.075263 0.525550
O O14 0.941438 0.250000 0.153402
O O15 0.918345 0.066055 0.281811
O O16 0.043190 0.119063 0.747860
O O17 0.521258 0.398452 0.166619
O O18 0.377230 0.750000 0.966971
#
# Coordination Sequence:
#
# PCOD8071651 Si02
#       8
#     4   4   4   4   4   4   4   4
#     4   9  19  36  57  82 110 136 170 219 273 322
#     4  10  19  33  56  80 106 139 178 220 263 315
#     4  10  20  34  52  74 104 146 188 223 262 308
#     4  10  20  34  54  80 108 143 181 221 260 309
#     4   9  20  38  57  78 106 137 168 213 273 329
#     4  10  20  35  51  75 111 144 180 222 264 307
#     4  10  20  36  57  81 107 136 176 219 265 320
#     4  10  20  34  52  75 108 146 182 223 267 306
#
# _framework density 21.562131000000001
#
# number of rings (size 3 to 8) (size 9 to 14) (size 15 to 20)
#    0.000    2.250    0.000    3.750    0.000    5.500 
#    0.000    3.750    0.000    1.500    0.000    0.000 
#    0.000    0.000    0.000    0.000    0.000    0.000 
#
# Total GULP energy -396447.301476 kJ/mol
# GULP energy per Si atom -12388.978171 kJ/mol
# Density = 2.151305 g / cm^3
# Si number density = 21.562131 Si / 1000 Ang^3
#
#
#
# Elastic Constant Matrix: (Units=GPa)
#
#
# Indices 1 2 3 4 5 6 
#
# 1 62.8256 18.1346 1.6885 0.0000 -8.7516 0.0000
# 2 18.1346 54.5569 15.4428 0.0000 -5.7634 0.0000
# 3 1.6885 15.4428 91.1929 0.0000 -19.9765 0.0000
# 4 0.0000 0.0000 0.0000 27.4256 0.0000 -2.9693
# 5 -8.7516 -5.7634 -19.9765 0.0000 25.6949 0.0000
# 6 0.0000 0.0000 0.0000 -2.9693 0.0000 23.2481
#
#
#
# Elastic Compliance Matrix: (Units=1/GPa)
#
#
# Indices 1 2 3 4 5 6 
#
# 1 0.018531 -0.006065 0.002132 0.000000 0.006608 0.000000
# 2 -0.006065 0.021336 -0.003501 0.000000 -0.000002 0.000000
# 3 0.002132 -0.003501 0.013868 0.000000 0.010722 0.000000
# 4 0.000000 0.000000 0.000000 0.036973 0.000000 0.004722
# 5 0.006608 -0.000002 0.010722 0.000000 0.049505 0.000000
# 6 0.000000 0.000000 0.000000 0.004722 0.000000 0.043617
#
#
# Mechanical properties :
#
#
# Convention : Reuss Voigt Hill
#
# Bulk Modulus (GPa) = 25.72941 31.01191 28.37066
# Shear Modulus (GPa) = 23.62329 26.82769 25.22549
#
# Velocity S-wave (km/s) = 3.31356 3.53115 3.42409
# Velocity P-wave (km/s) = 5.15734 5.57128 5.36830
#
# Compressibility (1/GPa) = 0.03886603
#
# Stress axis : x y z
#
# Youngs Moduli (GPa) = 53.96370 46.86845 72.10836
#
# Poissons Ratio (x) = 0.28425 -0.15370
# Poissons Ratio (y) = 0.32728 0.25247
# Poissons Ratio (z) = -0.11503 0.16410
#
# Static dielectric constant tensor:
#      x y z
#    x 3.940150 0.000000 -0.188440 
#    y 0.000000 3.987110 0.000000 
#    z -0.188440 0.000000 3.992130 
# 
# 
# High freq. dielectric constant tensor:
#      x y z
#    x 1.847620 0.000000 -0.005050 
#    y 0.000000 1.823050 0.000000 
#    z -0.005050 0.000000 1.847720 
# 
# From -- ./inp_files/28860.got.cif
#   From: 2010.06.25/outbox.cif.g09.slc.cpg/sg11_15_cif.got.tgz:28860.got - 2010.06.27 23:14:04.
