data_PCOD8071559
_publ_section_title
;
Structure prediction by ZEFSAII (Michael W. Deem and Ramdas Pophale) SiO2 
 PCOD8071559
Probable space group: P 21/M
;
_chemical_formula_sum "Si O2"
_cell_formula_units_Z 28
_cell_length_a 12.396663
_cell_length_b 9.038501
_cell_length_c 14.851143
_cell_angle_alpha 90.000000
_cell_angle_beta 121.773384
_cell_angle_gamma 90.000000
_cell_volume 1414.653908
_symmetry_space_group_name_H-M "P 21/M"
_symmetry_group_IT_number 11
_symmetry_cell_setting 'monoclinic'
loop_
_space_group_symop_operation_xyz
x,y,z
-x,1/2+y,-z
-x,-y,-z
x,1/2-y,z
loop_
_atom_site_type_symbol
_atom_site_label
_atom_site_fract_x
_atom_site_fract_y
_atom_site_fract_z
Si Si1 0.785057 0.089339 0.073301
Si Si2 0.996320 0.582950 0.090583
Si Si3 0.380041 0.074103 0.496533
Si Si4 0.881700 0.426563 0.673585
Si Si5 0.874794 0.420027 0.303834
Si Si6 0.508091 0.086915 0.912387
Si Si7 0.671524 0.576250 0.321992
O O1 0.854027 0.250000 0.088430
O O2 0.773553 0.067960 0.176573
O O3 0.858936 0.947543 0.071045
O O4 0.657443 0.093680 0.959156
O O5 0.014729 0.750000 0.072767
O O6 0.096849 0.535788 0.211312
O O7 0.000000 0.500000 0.000000
O O8 0.381236 0.250000 0.479076
O O9 0.383299 0.037173 0.604122
O O10 0.500000 0.000000 0.500000
O O11 0.251513 0.002039 0.404284
O O12 0.878627 0.250000 0.655381
O O13 0.993531 0.496641 0.661520
O O14 0.907238 0.250000 0.341410
O O15 0.804994 0.493960 0.359267
O O16 0.451703 0.250000 0.904630
O O17 0.435688 0.017986 0.795092
O O18 0.500000 0.000000 0.000000
O O19 0.697467 0.750000 0.325183
#
# Coordination Sequence:
#
# PCOD8071559 Si02
#       7
#     4   4   4   4   4   4   4
#     4   9  18  32  51  80 118 155 189 233 288 346
#     4  10  21  36  57  85 115 150 194 242 294 354
#     4  11  25  45  65  88 119 158 206 256 303 356
#     4  10  22  41  64  88 118 158 199 247 305 359
#     4  10  19  34  59  91 122 152 194 244 297 358
#     4  10  19  33  54  83 119 156 190 231 286 347
#     4  10  22  38  59  87 122 161 201 247 303 361
#
# _framework density 19.792828
#
# number of rings (size 3 to 8) (size 9 to 14) (size 15 to 20)
#    0.000    2.000    1.429    1.714    0.000    5.714 
#    0.000    2.857    0.000    0.000    0.000    0.000 
#    0.000    0.000    0.000    0.000    0.000    0.000 
#
# Total GULP energy -346931.132793 kJ/mol
# GULP energy per Si atom -12390.397600 kJ/mol
# Density = 1.974778 g / cm^3
# Si number density = 19.792828 Si / 1000 Ang^3
#
#
#
# Elastic Constant Matrix: (Units=GPa)
#
#
# Indices 1 2 3 4 5 6 
#
# 1 132.9584 66.8588 77.6008 0.0000 -2.7430 0.0000
# 2 66.8588 90.9418 70.2028 0.0000 -3.4992 0.0000
# 3 77.6008 70.2028 127.4900 0.0000 -2.2795 0.0000
# 4 0.0000 0.0000 0.0000 29.0563 0.0000 -1.6211
# 5 -2.7430 -3.4992 -2.2795 0.0000 33.6537 0.0000
# 6 0.0000 0.0000 0.0000 -1.6211 0.0000 38.9672
#
#
#
# Elastic Compliance Matrix: (Units=1/GPa)
#
#
# Indices 1 2 3 4 5 6 
#
# 1 0.013407 -0.006182 -0.004755 0.000000 0.000128 0.000000
# 2 -0.006182 0.022031 -0.008347 0.000000 0.001221 0.000000
# 3 -0.004755 -0.008347 0.015330 0.000000 -0.000217 0.000000
# 4 0.000000 0.000000 0.000000 0.034496 0.000000 0.001435
# 5 0.000128 0.001221 -0.000217 0.000000 0.029837 0.000000
# 6 0.000000 0.000000 0.000000 0.001435 0.000000 0.025722
#
#
# Mechanical properties :
#
#
# Convention : Reuss Voigt Hill
#
# Bulk Modulus (GPa) = 81.95220 86.74610 84.34915
# Shear Modulus (GPa) = 27.25423 29.45063 28.35243
#
# Velocity S-wave (km/s) = 3.71479 3.86157 3.78889
# Velocity P-wave (km/s) = 7.73915 7.98777 7.86444
#
# Compressibility (1/GPa) = 0.01220223
#
# Stress axis : x y z
#
# Youngs Moduli (GPa) = 74.58698 45.39024 65.23055
#
# Poissons Ratio (x) = 0.28058 0.31014
# Poissons Ratio (y) = 0.46106 0.54449
# Poissons Ratio (z) = 0.35463 0.37888
#
# Static dielectric constant tensor:
#      x y z
#    x 3.441910 0.000000 0.272630 
#    y 0.000000 3.765730 0.000000 
#    z 0.272630 0.000000 3.861240 
# 
# 
# High freq. dielectric constant tensor:
#      x y z
#    x 1.759680 0.000000 0.001770 
#    y 0.000000 1.779190 0.000000 
#    z 0.001770 0.000000 1.776660 
# 
# From -- ./inp_files/49475.got.cif
#   From: 2010.06.25/outbox.cif.g09.slc.cpg/sg11_25_cif.got.tgz:49475.got - 2010.06.27 23:14:04.
