data_PCOD8071339
_publ_section_title
;
Structure prediction by ZEFSAII (Michael W. Deem and Ramdas Pophale) SiO2 
 PCOD8071339
Probable space group: P 21/M
;
_chemical_formula_sum "Si O2"
_cell_formula_units_Z 32
_cell_length_a 9.836413
_cell_length_b 10.570686
_cell_length_c 21.587227
_cell_angle_alpha 90.000000
_cell_angle_beta 51.647552
_cell_angle_gamma 90.000000
_cell_volume 1760.226047
_symmetry_space_group_name_H-M "P 21/M"
_symmetry_group_IT_number 11
_symmetry_cell_setting 'monoclinic'
loop_
_space_group_symop_operation_xyz
x,y,z
-x,1/2+y,-z
-x,-y,-z
x,1/2-y,z
loop_
_atom_site_type_symbol
_atom_site_label
_atom_site_fract_x
_atom_site_fract_y
_atom_site_fract_z
Si Si1 0.193766 0.614770 0.975159
Si Si2 0.372849 0.106347 0.723037
Si Si3 0.075082 0.111473 0.203191
Si Si4 0.536394 0.605389 0.939472
Si Si5 0.755816 0.103725 0.587369
Si Si6 0.880433 0.893053 0.459678
Si Si7 0.909868 0.044743 0.124961
Si Si8 0.136592 0.107027 0.677697
O O1 0.159388 0.750000 0.015368
O O2 0.395144 0.578503 0.926073
O O3 0.160311 0.628107 0.911338
O O4 0.069869 0.528277 0.050033
O O5 0.355985 0.250000 0.747835
O O6 0.574061 0.064402 0.670608
O O7 0.308306 0.084649 0.670460
O O8 0.253351 0.036172 0.806106
O O9 0.043473 0.250000 0.243198
O O10 0.276995 0.082339 0.142319
O O11 0.986544 0.121821 0.160665
O O12 0.003721 0.997525 0.264342
O O13 0.523750 0.750000 0.969453
O O14 0.500000 0.500000 0.000000
O O15 0.745813 0.250000 0.565230
O O16 0.911049 0.090664 0.593210
O O17 0.785018 0.003313 0.524206
O O18 0.829798 0.750000 0.496802
O O19 0.818974 0.910923 0.406672
O O20 0.064067 0.250000 0.709895
#
# Coordination Sequence:
#
# PCOD8071339 Si02
#       8
#     4   4   4   4   4   4   4   4
#     4  10  20  33  51  73  99 134 173 215 260 306
#     4   9  18  33  51  74 100 132 169 208 251 299
#     4  10  20  34  52  74 104 135 170 215 257 301
#     4  10  20  35  51  73 101 132 170 213 258 303
#     4   9  18  33  54  76 103 133 164 205 249 296
#     4   9  18  34  53  76 103 133 167 204 245 298
#     4  10  19  33  52  72 101 133 171 210 259 309
#     4   9  19  34  53  74 102 136 170 205 248 302
#
# _framework density 18.179483999999999
#
# number of rings (size 3 to 8) (size 9 to 14) (size 15 to 20)
#    0.000    2.500    1.250    0.750    0.000    3.000 
#    0.000    3.750    0.000    0.000    0.000    0.000 
#    0.000    0.000    0.000    0.000    0.000    0.000 
#
# Total GULP energy -396447.152025 kJ/mol
# GULP energy per Si atom -12388.973501 kJ/mol
# Density = 1.813811 g / cm^3
# Si number density = 18.179484 Si / 1000 Ang^3
#
#
#
# Elastic Constant Matrix: (Units=GPa)
#
#
# Indices 1 2 3 4 5 6 
#
# 1 55.0737 17.7500 16.7734 0.0000 -15.6031 0.0000
# 2 17.7500 87.6865 37.0666 0.0000 -11.2107 0.0000
# 3 16.7734 37.0666 62.3779 0.0000 -16.8498 0.0000
# 4 0.0000 0.0000 0.0000 31.0904 0.0000 -1.9378
# 5 -15.6031 -11.2107 -16.8498 0.0000 33.7260 0.0000
# 6 0.0000 0.0000 0.0000 -1.9378 0.0000 21.0972
#
#
#
# Elastic Compliance Matrix: (Units=1/GPa)
#
#
# Indices 1 2 3 4 5 6 
#
# 1 0.021957 -0.002452 -0.002223 0.000000 0.008233 0.000000
# 2 -0.002452 0.015515 -0.008639 0.000000 -0.000294 0.000000
# 3 -0.002223 -0.008639 0.023940 0.000000 0.008060 0.000000
# 4 0.000000 0.000000 0.000000 0.032349 0.000000 0.002971
# 5 0.008233 -0.000294 0.008060 0.000000 0.037389 0.000000
# 6 0.000000 0.000000 0.000000 0.002971 0.000000 0.047673
#
#
# Mechanical properties :
#
#
# Convention : Reuss Voigt Hill
#
# Bulk Modulus (GPa) = 28.74992 38.70201 33.72596
# Shear Modulus (GPa) = 23.03639 26.08593 24.56116
#
# Velocity S-wave (km/s) = 3.56359 3.79213 3.67963
# Velocity P-wave (km/s) = 5.72547 6.36465 6.05350
#
# Compressibility (1/GPa) = 0.03478271
#
# Stress axis : x y z
#
# Youngs Moduli (GPa) = 45.54272 64.45307 41.77079
#
# Poissons Ratio (x) = 0.15807 0.09287
# Poissons Ratio (y) = 0.11169 0.36087
# Poissons Ratio (z) = 0.10125 0.55683
#
# Static dielectric constant tensor:
#      x y z
#    x 3.708190 0.000000 -0.147600 
#    y 0.000000 3.482390 0.000000 
#    z -0.147600 0.000000 3.119610 
# 
# 
# High freq. dielectric constant tensor:
#      x y z
#    x 1.714560 0.000000 -0.009870 
#    y 0.000000 1.714590 0.000000 
#    z -0.009870 0.000000 1.677250 
# 
# From -- ./inp_files/63647.got.cif
#   From: 2010.06.25/outbox.cif.g09.slc.cpg/sg11_32_cif.got.tgz:63647.got - 2010.06.27 23:14:04.
