data_PCOD8071096
_publ_section_title
;
Structure prediction by ZEFSAII (Michael W. Deem and Ramdas Pophale) SiO2 
 PCOD8071096
Probable space group: P 21/M
;
_chemical_formula_sum "Si O2"
_cell_formula_units_Z 32
_cell_length_a 24.902831
_cell_length_b 8.826265
_cell_length_c 10.240000
_cell_angle_alpha 90.000000
_cell_angle_beta 129.510594
_cell_angle_gamma 90.000000
_cell_volume 1736.462818
_symmetry_space_group_name_H-M "P 21/M"
_symmetry_group_IT_number 11
_symmetry_cell_setting 'monoclinic'
loop_
_space_group_symop_operation_xyz
x,y,z
-x,1/2+y,-z
-x,-y,-z
x,1/2-y,z
loop_
_atom_site_type_symbol
_atom_site_label
_atom_site_fract_x
_atom_site_fract_y
_atom_site_fract_z
Si Si1 0.344648 0.929412 0.512548
Si Si2 0.143738 0.923365 0.562737
Si Si3 0.492559 0.928212 0.848185
Si Si4 0.729108 0.928343 0.362304
Si Si5 0.712851 0.930183 0.835006
Si Si6 0.639117 0.571087 0.980213
Si Si7 0.009712 0.074604 0.653636
Si Si8 0.146778 0.927324 0.873442
O O1 0.339327 0.750000 0.489784
O O2 0.422161 0.983854 0.670700
O O3 0.289917 0.984963 0.535256
O O4 0.328751 0.007542 0.351793
O O5 0.167727 0.750000 0.580714
O O6 0.150177 0.967607 0.725250
O O7 0.064412 0.944761 0.387425
O O8 0.191476 0.033851 0.551394
O O9 0.492080 0.750000 0.867819
O O10 0.558352 0.978832 0.861500
O O11 0.500000 0.000000 0.000000
O O12 0.720667 0.750000 0.371864
O O13 0.679428 0.990890 0.169941
O O14 0.713745 0.750000 0.832543
O O15 0.673670 0.995154 0.902785
O O16 0.791219 0.991190 0.954293
O O17 0.647042 0.750000 0.990805
O O18 0.028508 0.250000 0.665153
O O19 0.074435 0.990596 0.823785
O O20 0.000000 0.000000 0.500000
O O21 0.150874 0.750000 0.906119
#
# Coordination Sequence:
#
# PCOD8071096 Si02
#       8
#     4   4   4   4   4   4   4   4
#     4  11  24  39  56  82 114 148 184 231 283 337
#     4   9  18  31  50  80 115 145 181 231 278 324
#     4  10  20  37  59  82 111 143 182 230 281 332
#     4  11  20  34  58  83 110 146 188 233 277 330
#     4  11  22  38  58  81 112 151 189 231 278 334
#     4   9  19  35  57  84 110 140 184 233 278 326
#     4   9  17  29  47  76 112 148 185 228 278 328
#     4  10  19  32  52  79 113 149 185 229 279 332
#
# _framework density 18.428266000000001
#
# number of rings (size 3 to 8) (size 9 to 14) (size 15 to 20)
#    0.000    2.000    2.500    2.625    0.000    3.500 
#    0.000    1.250    0.000    0.750    0.000    0.000 
#    0.000    0.000    0.000    0.000    0.000    0.000 
#
# Total GULP energy -396787.965574 kJ/mol
# GULP energy per Si atom -12399.623924 kJ/mol
# Density = 1.838632 g / cm^3
# Si number density = 18.428266 Si / 1000 Ang^3
#
#
#
# Elastic Constant Matrix: (Units=GPa)
#
#
# Indices 1 2 3 4 5 6 
#
# 1 85.6064 31.0017 49.6154 0.0000 14.6721 0.0000
# 2 31.0017 71.1103 37.2058 0.0000 6.9538 0.0000
# 3 49.6154 37.2058 108.4262 0.0000 12.6335 0.0000
# 4 0.0000 0.0000 0.0000 29.6560 0.0000 1.1954
# 5 14.6721 6.9538 12.6335 0.0000 34.7036 0.0000
# 6 0.0000 0.0000 0.0000 1.1954 0.0000 25.4337
#
#
#
# Elastic Compliance Matrix: (Units=1/GPa)
#
#
# Indices 1 2 3 4 5 6 
#
# 1 0.017394 -0.003972 -0.006091 0.000000 -0.004341 0.000000
# 2 -0.003972 0.018108 -0.004354 0.000000 -0.000364 0.000000
# 3 -0.006091 -0.004354 0.013682 0.000000 -0.001534 0.000000
# 4 0.000000 0.000000 0.000000 0.033784 0.000000 -0.001588
# 5 -0.004341 -0.000364 -0.001534 0.000000 0.031282 0.000000
# 6 0.000000 0.000000 0.000000 -0.001588 0.000000 0.039393
#
#
# Mechanical properties :
#
#
# Convention : Reuss Voigt Hill
#
# Bulk Modulus (GPa) = 49.13584 55.64318 52.38951
# Shear Modulus (GPa) = 26.41889 27.77998 27.09943
#
# Velocity S-wave (km/s) = 3.79041 3.88682 3.83892
# Velocity P-wave (km/s) = 6.77329 7.09952 6.93832
#
# Compressibility (1/GPa) = 0.02035174
#
# Stress axis : x y z
#
# Youngs Moduli (GPa) = 57.49214 55.22495 73.08608
#
# Poissons Ratio (x) = 0.21935 0.44514
# Poissons Ratio (y) = 0.22835 0.31819
# Poissons Ratio (z) = 0.35016 0.24043
#
# Static dielectric constant tensor:
#      x y z
#    x 3.550690 0.000000 0.397460 
#    y 0.000000 3.385020 0.000000 
#    z 0.397460 0.000000 3.456550 
# 
# 
# High freq. dielectric constant tensor:
#      x y z
#    x 1.710770 0.000000 0.027280 
#    y 0.000000 1.713900 0.000000 
#    z 0.027280 0.000000 1.702190 
# 
# From -- ./inp_files/43817.got.cif
#   From: 2010.06.25/outbox.cif.g09.slc.cpg/sg11_22_cif.got.tgz:43817.got - 2010.06.27 23:14:04.
