data_PCOD8071627
_publ_section_title
;
Structure prediction by ZEFSAII (Michael W. Deem and Ramdas Pophale) SiO2 
 PCOD8071627
Probable space group: P 21/M
;
_chemical_formula_sum "Si O2"
_cell_formula_units_Z 32
_cell_length_a 21.018284
_cell_length_b 14.655798
_cell_length_c 15.051566
_cell_angle_alpha 90.000000
_cell_angle_beta 19.046617
_cell_angle_gamma 90.000000
_cell_volume 1513.056628
_symmetry_space_group_name_H-M "P 21/M"
_symmetry_group_IT_number 11
_symmetry_cell_setting 'monoclinic'
loop_
_space_group_symop_operation_xyz
x,y,z
-x,1/2+y,-z
-x,-y,-z
x,1/2-y,z
loop_
_atom_site_type_symbol
_atom_site_label
_atom_site_fract_x
_atom_site_fract_y
_atom_site_fract_z
Si Si1 0.415200 0.150859 0.100631
Si Si2 0.010967 0.350534 0.328867
Si Si3 0.060650 0.392428 0.659909
Si Si4 0.016442 0.353774 0.915568
Si Si5 0.283403 0.517172 0.611057
Si Si6 0.687562 0.353530 0.899409
Si Si7 0.276752 0.571577 0.418975
Si Si8 0.288216 0.979507 0.964766
O O1 0.492608 0.250000 0.969486
O O2 0.178843 0.157835 0.423976
O O3 0.500411 0.126164 0.085277
O O4 0.501139 0.084448 0.910780
O O5 0.107105 0.250000 0.203735
O O6 0.882606 0.366551 0.585772
O O7 0.873172 0.353005 0.422485
O O8 0.183534 0.423236 0.106975
O O9 0.188067 0.482548 0.492996
O O10 0.063137 0.340655 0.750019
O O11 0.836569 0.409699 0.930223
O O12 0.011831 0.250000 0.961923
O O13 0.177262 0.418094 0.751093
O O14 0.814285 0.409878 0.193021
O O15 0.276751 0.567696 0.524782
O O16 0.501503 0.497961 0.356761
O O17 0.675904 0.250000 0.954304
O O18 0.678066 0.431614 0.985670
#
# Coordination Sequence:
#
# PCOD8071627 Si02
#       8
#     4   4   4   4   4   4   4   4
#     4  10  19  33  55  83 116 153 195 236 275 329
#     4   9  19  35  53  79 119 161 194 228 280 340
#     4  10  21  35  55  81 112 151 189 228 283 341
#     4  10  22  43  65  83 110 147 192 243 284 330
#     4  10  23  40  62  90 112 143 192 238 287 343
#     4   9  18  32  52  80 116 160 202 235 273 326
#     4   9  18  35  57  81 111 148 191 237 279 329
#     4  11  22  35  55  83 119 150 183 236 290 341
#
# _framework density 21.149242000000001
#
# number of rings (size 3 to 8) (size 9 to 14) (size 15 to 20)
#    0.000    2.250    0.000    3.750    0.000    7.500 
#    0.000    1.250    0.000    0.000    0.000    0.000 
#    0.000    0.000    0.000    0.000    0.000    0.000 
#
# Total GULP energy -396508.105553 kJ/mol
# GULP energy per Si atom -12390.878299 kJ/mol
# Density = 2.110111 g / cm^3
# Si number density = 21.149242 Si / 1000 Ang^3
#
#
#
# Elastic Constant Matrix: (Units=GPa)
#
#
# Indices 1 2 3 4 5 6 
#
# 1 24.7685 17.8650 20.4697 0.0000 1.4805 0.0000
# 2 17.8650 107.3239 43.0514 0.0000 -7.2554 0.0000
# 3 20.4697 43.0514 135.7818 0.0000 -16.9126 0.0000
# 4 0.0000 0.0000 0.0000 18.6407 0.0000 -1.9273
# 5 1.4805 -7.2554 -16.9126 0.0000 26.1866 0.0000
# 6 0.0000 0.0000 0.0000 -1.9273 0.0000 20.9276
#
#
#
# Elastic Compliance Matrix: (Units=1/GPa)
#
#
# Indices 1 2 3 4 5 6 
#
# 1 0.051160 -0.006396 -0.006814 0.000000 -0.009065 0.000000
# 2 -0.006396 0.011492 -0.002434 0.000000 0.001974 0.000000
# 3 -0.006814 -0.002434 0.009926 0.000000 0.006122 0.000000
# 4 0.000000 0.000000 0.000000 0.054162 0.000000 0.004988
# 5 -0.009065 0.001974 0.006122 0.000000 0.043200 0.000000
# 6 0.000000 0.000000 0.000000 0.004988 0.000000 0.048243
#
#
# Mechanical properties :
#
#
# Convention : Reuss Voigt Hill
#
# Bulk Modulus (GPa) = 24.21796 47.84962 36.03379
# Shear Modulus (GPa) = 18.99457 25.58354 22.28906
#
# Velocity S-wave (km/s) = 3.00012 3.48180 3.24990
# Velocity P-wave (km/s) = 4.84528 6.23200 5.58187
#
# Compressibility (1/GPa) = 0.04129167
#
# Stress axis : x y z
#
# Youngs Moduli (GPa) = 19.54655 87.01833 100.74444
#
# Poissons Ratio (x) = 0.55653 0.68647
# Poissons Ratio (y) = 0.12501 0.24517
# Poissons Ratio (z) = 0.13319 0.21177
#
# Static dielectric constant tensor:
#      x y z
#    x 3.560090 0.000000 -0.119960 
#    y 0.000000 4.146080 0.000000 
#    z -0.119960 0.000000 3.898590 
# 
# 
# High freq. dielectric constant tensor:
#      x y z
#    x 1.792330 0.000000 -0.003720 
#    y 0.000000 1.842380 0.000000 
#    z -0.003720 0.000000 1.827070 
# 
# From -- ./inp_files/31878.got.cif
#   From: 2010.06.25/outbox.cif.g09.slc.cpg/sg11_16_cif.got.tgz:31878.got - 2010.06.27 23:14:04.
