data_PCOD8071747
_publ_section_title
;
Structure prediction by ZEFSAII (Michael W. Deem and Ramdas Pophale) SiO2 
 PCOD8071747
Probable space group: P 21/M
;
_chemical_formula_sum "Si O2"
_cell_formula_units_Z 32
_cell_length_a 21.640477
_cell_length_b 9.043726
_cell_length_c 14.903728
_cell_angle_alpha 90.000000
_cell_angle_beta 146.721540
_cell_angle_gamma 90.000000
_cell_volume 1600.482311
_symmetry_space_group_name_H-M "P 21/M"
_symmetry_group_IT_number 11
_symmetry_cell_setting 'monoclinic'
loop_
_space_group_symop_operation_xyz
x,y,z
-x,1/2+y,-z
-x,-y,-z
x,1/2-y,z
loop_
_atom_site_type_symbol
_atom_site_label
_atom_site_fract_x
_atom_site_fract_y
_atom_site_fract_z
Si Si1 0.389705 0.076485 0.193502
Si Si2 0.810216 0.079367 0.388343
Si Si3 0.271992 0.922363 0.897151
Si Si4 0.777248 0.074253 0.548936
Si Si5 0.030924 0.917478 0.667723
Si Si6 0.223539 0.420819 0.149948
Si Si7 0.380916 0.423821 0.507899
Si Si8 0.003657 0.581007 0.844856
O O1 0.415766 0.250000 0.222368
O O2 0.285075 0.039114 0.131340
O O3 0.496974 0.991320 0.362614
O O4 0.363893 0.018416 0.061669
O O5 0.839258 0.250000 0.432113
O O6 0.717043 0.051007 0.197263
O O7 0.767097 0.021978 0.432470
O O8 0.927132 0.005927 0.499479
O O9 0.288495 0.750000 0.941995
O O10 0.148919 0.980440 0.776168
O O11 0.774739 0.250000 0.556615
O O12 0.670554 0.002598 0.467488
O O13 0.891532 0.011238 0.732158
O O14 0.016643 0.750000 0.618693
O O15 0.030267 0.933789 0.773224
O O16 0.188593 0.250000 0.108577
O O17 0.306488 0.460571 0.331246
O O18 0.110615 0.515577 0.027363
O O19 0.390555 0.250000 0.537569
O O20 0.984215 0.750000 0.851323
#
# Coordination Sequence:
#
# PCOD8071747 Si02
#       8
#     4   4   4   4   4   4   4   4
#     4  11  23  39  60  87 116 146 184 234 287 339
#     4   9  19  33  54  81 113 151 188 228 277 330
#     4  10  19  34  54  82 116 150 186 227 278 335
#     4  10  21  39  59  83 117 153 193 238 279 328
#     4   9  17  29  49  80 117 150 183 224 274 332
#     4  10  22  39  60  87 116 145 184 232 287 344
#     4  11  24  42  62  82 108 149 194 237 285 339
#     4  10  19  33  57  88 119 153 187 228 281 336
#
# _framework density 19.993973
#
# number of rings (size 3 to 8) (size 9 to 14) (size 15 to 20)
#    0.000    2.000    1.250    2.250    0.000    4.000 
#    0.000    0.625    0.000    0.000    0.000    0.000 
#    0.000    0.000    0.000    0.000    0.000    0.000 
#
# Total GULP energy -396862.174136 kJ/mol
# GULP energy per Si atom -12401.942942 kJ/mol
# Density = 1.994847 g / cm^3
# Si number density = 19.993973 Si / 1000 Ang^3
#
#
#
# Elastic Constant Matrix: (Units=GPa)
#
#
# Indices 1 2 3 4 5 6 
#
# 1 45.7941 21.7835 15.2182 0.0000 -3.6699 0.0000
# 2 21.7835 75.3349 30.0290 0.0000 -4.6519 0.0000
# 3 15.2182 30.0290 71.8248 0.0000 -12.2418 0.0000
# 4 0.0000 0.0000 0.0000 38.3273 0.0000 4.6386
# 5 -3.6699 -4.6519 -12.2418 0.0000 21.0676 0.0000
# 6 0.0000 0.0000 0.0000 4.6386 0.0000 27.9947
#
#
#
# Elastic Compliance Matrix: (Units=1/GPa)
#
#
# Indices 1 2 3 4 5 6 
#
# 1 0.025835 -0.006358 -0.002539 0.000000 0.001621 0.000000
# 2 -0.006358 0.017496 -0.006102 0.000000 -0.000790 0.000000
# 3 -0.002539 -0.006102 0.018544 0.000000 0.008985 0.000000
# 4 0.000000 0.000000 0.000000 0.026625 0.000000 -0.004412
# 5 0.001621 -0.000790 0.008985 0.000000 0.052795 0.000000
# 6 0.000000 0.000000 0.000000 -0.004412 0.000000 0.036452
#
#
# Mechanical properties :
#
#
# Convention : Reuss Voigt Hill
#
# Bulk Modulus (GPa) = 31.37251 36.33502 33.85376
# Shear Modulus (GPa) = 22.89667 25.87278 24.38472
#
# Velocity S-wave (km/s) = 3.38772 3.60116 3.49607
# Velocity P-wave (km/s) = 5.57021 5.95849 5.76762
#
# Compressibility (1/GPa) = 0.03187504
#
# Stress axis : x y z
#
# Youngs Moduli (GPa) = 38.70700 57.15524 53.92677
#
# Poissons Ratio (x) = 0.36339 0.13694
# Poissons Ratio (y) = 0.24610 0.32909
# Poissons Ratio (z) = 0.09829 0.34879
#
# Static dielectric constant tensor:
#      x y z
#    x 3.614500 0.000000 -0.132790 
#    y 0.000000 3.598060 0.000000 
#    z -0.132790 0.000000 3.593590 
# 
# 
# High freq. dielectric constant tensor:
#      x y z
#    x 1.771820 0.000000 -0.011180 
#    y 0.000000 1.779750 0.000000 
#    z -0.011180 0.000000 1.778010 
# 
# From -- ./inp_files/55746.got.cif
#   From: 2010.06.25/outbox.cif.g09.slc.cpg/sg11_28_cif.got.tgz:55746.got - 2010.06.27 23:14:04.
