data_PCOD8071165
_publ_section_title
;
Structure prediction by ZEFSAII (Michael W. Deem and Ramdas Pophale) SiO2 
 PCOD8071165
Probable space group: P 21/M
;
_chemical_formula_sum "Si O2"
_cell_formula_units_Z 32
_cell_length_a 25.462766
_cell_length_b 8.941183
_cell_length_c 20.731134
_cell_angle_alpha 90.000000
_cell_angle_beta 157.936433
_cell_angle_gamma 90.000000
_cell_volume 1772.922319
_symmetry_space_group_name_H-M "P 21/M"
_symmetry_group_IT_number 11
_symmetry_cell_setting 'monoclinic'
loop_
_space_group_symop_operation_xyz
x,y,z
-x,1/2+y,-z
-x,-y,-z
x,1/2-y,z
loop_
_atom_site_type_symbol
_atom_site_label
_atom_site_fract_x
_atom_site_fract_y
_atom_site_fract_z
Si Si1 0.943775 0.425421 0.629276
Si Si2 0.667787 0.576512 0.758567
Si Si3 0.926246 0.423500 0.855861
Si Si4 0.925569 0.923646 0.355581
Si Si5 0.645464 0.420672 0.600484
Si Si6 0.660407 0.424001 0.246816
Si Si7 0.064527 0.573304 0.891504
Si Si8 0.352341 0.076564 0.899821
O O1 0.972185 0.250000 0.675223
O O2 0.778100 0.459866 0.434025
O O3 0.021087 0.482086 0.652518
O O4 0.999775 0.525978 0.750291
O O5 0.705923 0.750000 0.808714
O O6 0.684879 0.530478 0.703516
O O7 0.509748 0.542495 0.602936
O O8 0.775315 0.482564 0.924074
O O9 0.969387 0.250000 0.902676
O O10 0.758232 0.442060 0.671918
O O11 0.972241 0.501317 0.842733
O O12 0.000000 0.500000 0.000000
O O13 0.960876 0.750000 0.401396
O O14 0.758590 0.956145 0.169606
O O15 0.000000 0.000000 0.500000
O O16 0.649066 0.250000 0.630947
O O17 0.659360 0.250000 0.230820
O O18 0.701249 0.498938 0.226026
O O19 0.507540 0.479861 0.097368
O O20 0.060892 0.750000 0.895241
O O21 0.358235 0.250000 0.890090
#
# Coordination Sequence:
#
# PCOD8071165 Si02
#       8
#     4   4   4   4   4   4   4   4
#     4  10  21  37  54  74 106 147 185 224 274 329
#     4  10  19  34  57  83 112 146 181 225 277 328
#     4  11  21  36  59  87 115 144 183 229 275 327
#     4  10  19  32  53  80 108 137 176 223 268 319
#     4   9  19  34  56  86 114 140 179 227 276 328
#     4   9  17  31  51  76 106 139 174 215 267 321
#     4  12  25  39  55  79 113 152 190 230 277 331
#     4   9  17  29  50  80 108 134 170 219 269 318
#
# _framework density 18.049295000000001
#
# number of rings (size 3 to 8) (size 9 to 14) (size 15 to 20)
#    0.000    2.000    2.500    1.875    0.000    2.000 
#    0.000    1.250    0.000    4.500    0.000    0.000 
#    0.000    0.000    0.000    0.000    0.000    0.000 
#
# Total GULP energy -396737.572627 kJ/mol
# GULP energy per Si atom -12398.049145 kJ/mol
# Density = 1.800821 g / cm^3
# Si number density = 18.049295 Si / 1000 Ang^3
#
#
#
# Elastic Constant Matrix: (Units=GPa)
#
#
# Indices 1 2 3 4 5 6 
#
# 1 110.4821 46.6751 65.5307 0.0000 2.8371 0.0000
# 2 46.6751 87.7902 52.0649 0.0000 -1.3659 0.0000
# 3 65.5307 52.0649 125.3975 0.0000 6.4950 0.0000
# 4 0.0000 0.0000 0.0000 27.6294 0.0000 -4.0349
# 5 2.8371 -1.3659 6.4950 0.0000 26.9573 0.0000
# 6 0.0000 0.0000 0.0000 -4.0349 0.0000 26.1633
#
#
#
# Elastic Compliance Matrix: (Units=1/GPa)
#
#
# Indices 1 2 3 4 5 6 
#
# 1 0.014185 -0.004194 -0.005654 0.000000 -0.000343 0.000000
# 2 -0.004194 0.016495 -0.004783 0.000000 0.002430 0.000000
# 3 -0.005654 -0.004783 0.013060 0.000000 -0.002794 0.000000
# 4 0.000000 0.000000 0.000000 0.037027 0.000000 0.005710
# 5 -0.000343 0.002430 -0.002794 0.000000 0.037928 0.000000
# 6 0.000000 0.000000 0.000000 0.005710 0.000000 0.039102
#
#
# Mechanical properties :
#
#
# Convention : Reuss Voigt Hill
#
# Bulk Modulus (GPa) = 69.06748 72.46792 70.76770
# Shear Modulus (GPa) = 26.05720 26.77659 26.41690
#
# Velocity S-wave (km/s) = 3.80369 3.85583 3.82985
# Velocity P-wave (km/s) = 7.59209 7.74987 7.67138
#
# Compressibility (1/GPa) = 0.01447859
#
# Stress axis : x y z
#
# Youngs Moduli (GPa) = 70.49465 60.62465 76.57109
#
# Poissons Ratio (x) = 0.25427 0.43293
# Poissons Ratio (y) = 0.29567 0.36622
# Poissons Ratio (z) = 0.39857 0.28995
#
# Static dielectric constant tensor:
#      x y z
#    x 4.159860 0.000000 0.719060 
#    y 0.000000 3.361500 0.000000 
#    z 0.719060 0.000000 3.806900 
# 
# 
# High freq. dielectric constant tensor:
#      x y z
#    x 1.679750 0.000000 0.027780 
#    y 0.000000 1.700510 0.000000 
#    z 0.027780 0.000000 1.705320 
# 
# From -- ./inp_files/67274.got.cif
#   From: 2010.06.25/outbox.cif.g09.slc.cpg/sg11_34_cif.got.tgz:67274.got - 2010.06.27 23:14:04.
