data_PCOD8071710
_publ_section_title
;
Structure prediction by ZEFSAII (Michael W. Deem and Ramdas Pophale) SiO2 
 PCOD8071710
Probable space group: P 21/M
;
_chemical_formula_sum "Si O2"
_cell_formula_units_Z 28
_cell_length_a 30.670554
_cell_length_b 8.999656
_cell_length_c 10.162436
_cell_angle_alpha 90.000000
_cell_angle_beta 32.441909
_cell_angle_gamma 90.000000
_cell_volume 1504.769349
_symmetry_space_group_name_H-M "P 21/M"
_symmetry_group_IT_number 11
_symmetry_cell_setting 'monoclinic'
loop_
_space_group_symop_operation_xyz
x,y,z
-x,1/2+y,-z
-x,-y,-z
x,1/2-y,z
loop_
_atom_site_type_symbol
_atom_site_label
_atom_site_fract_x
_atom_site_fract_y
_atom_site_fract_z
Si Si1 0.589241 0.424209 0.627500
Si Si2 0.011828 0.578854 0.831465
Si Si3 0.166489 0.079877 0.795869
Si Si4 0.169313 0.424291 0.329299
Si Si5 0.251057 0.077456 0.848152
Si Si6 0.259336 0.924321 0.329496
Si Si7 0.426814 0.577143 0.031312
O O1 0.588899 0.250000 0.608540
O O2 0.664651 0.489738 0.355450
O O3 0.597602 0.471775 0.758842
O O4 0.505484 0.487998 0.781436
O O5 0.034721 0.750000 0.798859
O O6 0.083012 0.501443 0.569131
O O7 0.000000 0.500000 0.000000
O O8 0.930628 0.564179 0.951706
O O9 0.191627 0.250000 0.701013
O O10 0.200797 0.026150 0.848349
O O11 0.200898 0.973933 0.595864
O O12 0.160076 0.250000 0.379712
O O13 0.237119 0.488742 0.254299
O O14 0.196602 0.460660 0.112394
O O15 0.272692 0.250000 0.786539
O O16 0.246801 0.750000 0.340048
O O17 0.352522 0.962999 0.125202
O O18 0.448380 0.750000 0.973594
#
# Coordination Sequence:
#
# PCOD8071710 Si02
#       7
#     4   4   4   4   4   4   4
#     4  10  19  33  56  86 116 148 188 235 285 337
#     4  11  22  37  59  87 116 148 192 240 287 338
#     4  10  21  37  60  85 112 149 192 236 285 340
#     4  11  24  40  58  83 117 156 193 233 287 344
#     4  10  22  40  59  82 117 156 191 234 288 341
#     4  11  21  36  59  87 115 148 192 239 284 336
#     4   9  19  34  54  85 117 146 186 235 286 338
#
# _framework density 18.607503999999999
#
# number of rings (size 3 to 8) (size 9 to 14) (size 15 to 20)
#    0.000    1.714    2.857    1.714    0.000    4.000 
#    0.000    0.714    0.000    0.000    0.000    0.000 
#    0.000    0.000    0.000    0.000    0.000    0.000 
#
# Total GULP energy -347332.354000 kJ/mol
# GULP energy per Si atom -12404.726929 kJ/mol
# Density = 1.856515 g / cm^3
# Si number density = 18.607504 Si / 1000 Ang^3
#
#
#
# Elastic Constant Matrix: (Units=GPa)
#
#
# Indices 1 2 3 4 5 6 
#
# 1 86.0190 33.1225 33.8791 0.0000 -11.2741 0.0000
# 2 33.1225 83.7089 48.9663 0.0000 -9.3868 0.0000
# 3 33.8791 48.9663 93.5814 0.0000 -19.4519 0.0000
# 4 0.0000 0.0000 0.0000 33.0666 0.0000 -6.6066
# 5 -11.2741 -9.3868 -19.4519 0.0000 29.9004 0.0000
# 6 0.0000 0.0000 0.0000 -6.6066 0.0000 24.9401
#
#
#
# Elastic Compliance Matrix: (Units=1/GPa)
#
#
# Indices 1 2 3 4 5 6 
#
# 1 0.014512 -0.003880 -0.002705 0.000000 0.002494 0.000000
# 2 -0.003880 0.018260 -0.008398 0.000000 -0.001194 0.000000
# 3 -0.002705 -0.008398 0.017692 0.000000 0.007853 0.000000
# 4 0.000000 0.000000 0.000000 0.031932 0.000000 0.008459
# 5 0.002494 -0.001194 0.007853 0.000000 0.039119 0.000000
# 6 0.000000 0.000000 0.000000 0.008459 0.000000 0.042337
#
#
# Mechanical properties :
#
#
# Convention : Reuss Voigt Hill
#
# Bulk Modulus (GPa) = 48.78698 55.02724 51.90711
# Shear Modulus (GPa) = 24.91905 27.40418 26.16161
#
# Velocity S-wave (km/s) = 3.66347 3.84180 3.75370
# Velocity P-wave (km/s) = 6.64609 7.02254 6.83691
#
# Compressibility (1/GPa) = 0.02049727
#
# Stress axis : x y z
#
# Youngs Moduli (GPa) = 68.91021 54.76424 56.52342
#
# Poissons Ratio (x) = 0.21249 0.15290
# Poissons Ratio (y) = 0.26738 0.47468
# Poissons Ratio (z) = 0.18640 0.45991
#
# Static dielectric constant tensor:
#      x y z
#    x 3.573270 0.000000 -0.193680 
#    y 0.000000 3.494610 0.000000 
#    z -0.193680 0.000000 3.392370 
# 
# 
# High freq. dielectric constant tensor:
#      x y z
#    x 1.722210 0.000000 -0.017860 
#    y 0.000000 1.730820 0.000000 
#    z -0.017860 0.000000 1.716540 
# 
# From -- ./inp_files/28391.got.cif
#   From: 2010.06.25/outbox.cif.g09.slc.cpg/sg11_15_cif.got.tgz:28391.got - 2010.06.27 23:14:04.
