data_PCOD8071716
_publ_section_title
;
Structure prediction by ZEFSAII (Michael W. Deem and Ramdas Pophale) SiO2 
 PCOD8071716
Probable space group: P 21/M
;
_chemical_formula_sum "Si O2"
_cell_formula_units_Z 32
_cell_length_a 16.194683
_cell_length_b 8.829436
_cell_length_c 12.118173
_cell_angle_alpha 90.000000
_cell_angle_beta 92.202183
_cell_angle_gamma 90.000000
_cell_volume 1731.496816
_symmetry_space_group_name_H-M "P 21/M"
_symmetry_group_IT_number 11
_symmetry_cell_setting 'monoclinic'
loop_
_space_group_symop_operation_xyz
x,y,z
-x,1/2+y,-z
-x,-y,-z
x,1/2-y,z
loop_
_atom_site_type_symbol
_atom_site_label
_atom_site_fract_x
_atom_site_fract_y
_atom_site_fract_z
Si Si1 0.619999 0.423591 0.004207
Si Si2 0.955779 0.927345 0.100599
Si Si3 0.718711 0.428781 0.370332
Si Si4 0.215742 0.575069 0.864176
Si Si5 0.458740 0.070688 0.604613
Si Si6 0.017821 0.926319 0.339347
Si Si7 0.484188 0.426205 0.174939
Si Si8 0.132035 0.073532 0.509949
O O1 0.603068 0.250000 0.970957
O O2 0.597152 0.527152 0.898366
O O3 0.714876 0.451907 0.039496
O O4 0.565032 0.466802 0.107543
O O5 0.956792 0.750000 0.085281
O O6 0.006185 0.974684 0.212337
O O7 0.861583 0.977676 0.103099
O O8 0.000000 0.000000 0.000000
O O9 0.702956 0.250000 0.374284
O O10 0.751056 0.480408 0.252249
O O11 0.634281 0.513101 0.390679
O O12 0.785210 0.478188 0.465231
O O13 0.189678 0.750000 0.856218
O O14 0.459442 0.250000 0.594813
O O15 0.500000 0.000000 0.500000
O O16 0.512417 0.020882 0.712828
O O17 0.038804 0.750000 0.354929
O O18 0.933037 0.966751 0.397553
O O19 0.093679 0.023492 0.390921
O O20 0.480205 0.250000 0.204730
O O21 0.154073 0.250000 0.508269
#
# Coordination Sequence:
#
# PCOD8071716 Si02
#       8
#     4   4   4   4   4   4   4   4
#     4   9  18  34  56  86 118 150 191 239 287 338
#     4  11  23  39  58  83 117 153 194 236 287 346
#     4  11  21  37  60  88 119 151 191 239 288 342
#     4  10  20  36  59  86 117 151 192 238 285 337
#     4  12  25  41  61  85 118 157 195 238 290 348
#     4   9  19  35  54  81 115 151 190 237 288 340
#     4  10  19  35  57  86 119 152 192 237 288 342
#     4  10  19  33  56  87 116 146 190 240 287 340
#
# _framework density 18.481120000000001
#
# number of rings (size 3 to 8) (size 9 to 14) (size 15 to 20)
#    0.000    1.750    2.500    2.625    0.000    3.000 
#    0.000    1.250    0.000    4.500    0.000    0.000 
#    0.000    0.000    0.000    0.000    0.000    0.000 
#
# Total GULP energy -396939.375766 kJ/mol
# GULP energy per Si atom -12404.355493 kJ/mol
# Density = 1.843906 g / cm^3
# Si number density = 18.481120 Si / 1000 Ang^3
#
#
#
# Elastic Constant Matrix: (Units=GPa)
#
#
# Indices 1 2 3 4 5 6 
#
# 1 95.2379 51.2097 70.4091 0.0000 6.0046 0.0000
# 2 51.2097 95.2028 64.5239 0.0000 3.9810 0.0000
# 3 70.4091 64.5239 135.8501 0.0000 2.9645 0.0000
# 4 0.0000 0.0000 0.0000 32.2521 0.0000 3.1634
# 5 6.0046 3.9810 2.9645 0.0000 26.6287 0.0000
# 6 0.0000 0.0000 0.0000 3.1634 0.0000 35.0311
#
#
#
# Elastic Compliance Matrix: (Units=1/GPa)
#
#
# Indices 1 2 3 4 5 6 
#
# 1 0.018754 -0.005056 -0.007261 0.000000 -0.002665 0.000000
# 2 -0.005056 0.016913 -0.005396 0.000000 -0.000788 0.000000
# 3 -0.007261 -0.005396 0.013667 0.000000 0.000922 0.000000
# 4 0.000000 0.000000 0.000000 0.031283 0.000000 -0.002825
# 5 -0.002665 -0.000788 0.000922 0.000000 0.038169 0.000000
# 6 0.000000 0.000000 0.000000 -0.002825 0.000000 0.028801
#
#
# Mechanical properties :
#
#
# Convention : Reuss Voigt Hill
#
# Bulk Modulus (GPa) = 71.88927 77.61957 74.75442
# Shear Modulus (GPa) = 26.64558 28.12558 27.38558
#
# Velocity S-wave (km/s) = 3.80119 3.90533 3.85361
# Velocity P-wave (km/s) = 7.63208 7.90101 7.76771
#
# Compressibility (1/GPa) = 0.01391028
#
# Stress axis : x y z
#
# Youngs Moduli (GPa) = 53.32142 59.12537 73.16985
#
# Poissons Ratio (x) = 0.29891 0.53126
# Poissons Ratio (y) = 0.26957 0.39481
# Poissons Ratio (z) = 0.38715 0.31903
#
# Static dielectric constant tensor:
#      x y z
#    x 3.427380 0.000000 0.063550 
#    y 0.000000 3.439920 0.000000 
#    z 0.063550 0.000000 3.549140 
# 
# 
# High freq. dielectric constant tensor:
#      x y z
#    x 1.709480 0.000000 0.021240 
#    y 0.000000 1.724480 0.000000 
#    z 0.021240 0.000000 1.712720 
# 
# From -- ./inp_files/38251.got.cif
#   From: 2010.06.25/outbox.cif.g09.slc.cpg/sg11_20_cif.got.tgz:38251.got - 2010.06.27 23:14:04.
