data_PCOD8071349
_publ_section_title
;
Structure prediction by ZEFSAII (Michael W. Deem and Ramdas Pophale) SiO2 
 PCOD8071349
Probable space group: P 21/M
;
_chemical_formula_sum "Si O2"
_cell_formula_units_Z 28
_cell_length_a 21.480129
_cell_length_b 8.889438
_cell_length_c 18.237622
_cell_angle_alpha 90.000000
_cell_angle_beta 25.057770
_cell_angle_gamma 90.000000
_cell_volume 1474.909870
_symmetry_space_group_name_H-M "P 21/M"
_symmetry_group_IT_number 11
_symmetry_cell_setting 'monoclinic'
loop_
_space_group_symop_operation_xyz
x,y,z
-x,1/2+y,-z
-x,-y,-z
x,1/2-y,z
loop_
_atom_site_type_symbol
_atom_site_label
_atom_site_fract_x
_atom_site_fract_y
_atom_site_fract_z
Si Si1 0.150076 0.070176 0.866652
Si Si2 0.382529 0.077028 0.503381
Si Si3 0.682146 0.580248 0.868286
Si Si4 0.715446 0.071340 0.138184
Si Si5 0.382114 0.076137 0.343004
Si Si6 0.308230 0.073772 0.982327
Si Si7 0.666529 0.419619 0.743267
O O1 0.140267 0.250000 0.875575
O O2 0.277746 0.004561 0.676668
O O3 0.180120 0.011161 0.915902
O O4 0.000000 0.000000 0.000000
O O5 0.399203 0.250000 0.505311
O O6 0.548256 0.010886 0.328693
O O7 0.306949 0.057360 0.503390
O O8 0.722316 0.750000 0.804503
O O9 0.741901 0.477209 0.738222
O O10 0.757397 0.536307 0.866295
O O11 0.507519 0.562952 0.062933
O O12 0.729685 0.250000 0.130138
O O13 0.770208 0.021447 0.998413
O O14 0.427565 0.250000 0.281733
O O15 0.522078 0.969491 0.196191
O O16 0.280605 0.018166 0.383861
O O17 0.293514 0.250000 0.980969
O O18 0.718002 0.250000 0.675180
#
# Coordination Sequence:
#
# PCOD8071349 Si02
#       7
#     4   4   4   4   4   4   4
#     4  11  22  37  53  72  98 126 157 196 240 286
#     4   8  17  32  51  72  95 124 160 199 238 283
#     4   8  14  22  32  49  78 116 153 185 223 271
#     4  10  19  33  52  74  96 124 160 196 239 287
#     4   9  15  25  40  59  84 116 153 192 233 277
#     4   9  16  26  40  61  87 117 153 193 233 273
#     4   9  15  21  31  51  80 115 152 188 228 272
#
# _framework density 18.984210999999998
#
# number of rings (size 3 to 8) (size 9 to 14) (size 15 to 20)
#    0.000    2.857    0.000    4.286    0.000    4.000 
#    0.000    7.857    0.000    0.000    0.000    0.000 
#    0.000    1.143    0.000    3.429    0.000   10.000 
#
# Total GULP energy -346900.683092 kJ/mol
# GULP energy per Si atom -12389.310110 kJ/mol
# Density = 1.894100 g / cm^3
# Si number density = 18.984211 Si / 1000 Ang^3
#
#
#
# Elastic Constant Matrix: (Units=GPa)
#
#
# Indices 1 2 3 4 5 6 
#
# 1 163.5632 54.7738 39.7193 0.0000 26.3220 0.0000
# 2 54.7738 78.8989 17.9252 0.0000 7.7407 0.0000
# 3 39.7193 17.9252 17.3400 0.0000 0.5696 0.0000
# 4 0.0000 0.0000 0.0000 12.9511 0.0000 5.2260
# 5 26.3220 7.7407 0.5696 0.0000 19.2289 0.0000
# 6 0.0000 0.0000 0.0000 5.2260 0.0000 36.2632
#
#
#
# Elastic Compliance Matrix: (Units=1/GPa)
#
#
# Indices 1 2 3 4 5 6 
#
# 1 0.025210 -0.001922 -0.054705 0.000000 -0.032116 0.000000
# 2 -0.001922 0.017476 -0.013531 0.000000 -0.004003 0.000000
# 3 -0.054705 -0.013531 0.194516 0.000000 0.074569 0.000000
# 4 0.000000 0.000000 0.000000 0.081981 0.000000 -0.011814
# 5 -0.032116 -0.004003 0.074569 0.000000 0.095370 0.000000
# 6 0.000000 0.000000 0.000000 -0.011814 0.000000 0.029279
#
#
# Mechanical properties :
#
#
# Convention : Reuss Voigt Hill
#
# Bulk Modulus (GPa) = 10.32138 53.84873 32.08506
# Shear Modulus (GPa) = 8.11105 23.51424 15.81264
#
# Velocity S-wave (km/s) = 2.06925 3.52322 2.88919
# Velocity P-wave (km/s) = 3.34031 6.70652 5.29788
#
# Compressibility (1/GPa) = 0.09688630
#
# Stress axis : x y z
#
# Youngs Moduli (GPa) = 39.66621 57.22215 5.14096
#
# Poissons Ratio (x) = 0.11000 0.28124
# Poissons Ratio (y) = 0.07625 0.06956
# Poissons Ratio (z) = 2.16994 0.77425
#
# Static dielectric constant tensor:
#      x y z
#    x 4.040990 0.000000 0.572930 
#    y 0.000000 3.412230 0.000000 
#    z 0.572930 0.000000 3.092700 
# 
# 
# High freq. dielectric constant tensor:
#      x y z
#    x 1.753190 0.000000 0.042410 
#    y 0.000000 1.735830 0.000000 
#    z 0.042410 0.000000 1.666150 
# 
# From -- ./inp_files/61258.got.cif
#   From: 2010.06.25/outbox.cif.g09.slc.cpg/sg11_31_cif.got.tgz:61258.got - 2010.06.27 23:14:04.
