data_PCOD8071360
_publ_section_title
;
Structure prediction by ZEFSAII (Michael W. Deem and Ramdas Pophale) SiO2 
 PCOD8071360
Probable space group: P 21/M
;
_chemical_formula_sum "Si O2"
_cell_formula_units_Z 32
_cell_length_a 12.098539
_cell_length_b 8.918497
_cell_length_c 31.412990
_cell_angle_alpha 90.000000
_cell_angle_beta 29.572202
_cell_angle_gamma 90.000000
_cell_volume 1672.779110
_symmetry_space_group_name_H-M "P 21/M"
_symmetry_group_IT_number 11
_symmetry_cell_setting 'monoclinic'
loop_
_space_group_symop_operation_xyz
x,y,z
-x,1/2+y,-z
-x,-y,-z
x,1/2-y,z
loop_
_atom_site_type_symbol
_atom_site_label
_atom_site_fract_x
_atom_site_fract_y
_atom_site_fract_z
Si Si1 0.042257 0.426696 0.369629
Si Si2 0.668036 0.576302 0.087899
Si Si3 0.846270 0.423320 0.108762
Si Si4 0.455864 0.573983 0.470271
Si Si5 0.220828 0.428270 0.219913
Si Si6 0.129366 0.427270 0.724380
Si Si7 0.197540 0.073157 0.407233
Si Si8 0.700528 0.073913 0.251408
O O1 0.058223 0.250000 0.359555
O O2 0.787674 0.477799 0.464302
O O3 0.130495 0.494048 0.295404
O O4 0.187390 0.481946 0.361326
O O5 0.602156 0.750000 0.110775
O O6 0.698380 0.520499 0.126032
O O7 0.475091 0.482439 0.129127
O O8 0.891633 0.546570 0.985998
O O9 0.784026 0.250000 0.121582
O O10 0.784406 0.473462 0.176806
O O11 0.500000 0.500000 0.500000
O O12 0.467804 0.750000 0.472992
O O13 0.641006 0.519512 0.374870
O O14 0.206989 0.250000 0.222021
O O15 0.079033 0.496185 0.228891
O O16 0.096277 0.250000 0.734409
O O17 0.144941 0.483680 0.767528
O O18 0.160443 0.250000 0.421373
O O19 0.439865 0.027160 0.344221
O O20 0.000000 0.000000 0.500000
O O21 0.732629 0.250000 0.248324
#
# Coordination Sequence:
#
# PCOD8071360 Si02
#       8
#     4   4   4   4   4   4   4   4
#     4   9  18  33  54  77 104 141 181 222 268 323
#     4  10  20  35  59  90 119 140 174 232 286 330
#     4   9  19  38  62  86 112 147 186 224 274 336
#     4  10  19  33  52  75 106 143 184 228 273 323
#     4  11  21  36  58  81 110 148 187 226 276 338
#     4  11  23  37  55  81 113 146 186 239 285 325
#     4  10  20  35  54  78 109 142 180 224 269 321
#     4  10  21  38  59  80 108 150 194 227 269 338
#
# _framework density 19.129842
#
# number of rings (size 3 to 8) (size 9 to 14) (size 15 to 20)
#    0.000    2.000    1.250    2.625    0.000    5.000 
#    0.000    3.750    0.000    0.000    0.000    0.000 
#    0.000    0.000    0.000    0.000    0.000    0.000 
#
# Total GULP energy -396860.024460 kJ/mol
# GULP energy per Si atom -12401.875764 kJ/mol
# Density = 1.908630 g / cm^3
# Si number density = 19.129842 Si / 1000 Ang^3
#
#
#
# Elastic Constant Matrix: (Units=GPa)
#
#
# Indices 1 2 3 4 5 6 
#
# 1 143.5878 48.9521 55.7578 0.0000 -5.7665 0.0000
# 2 48.9521 59.8069 37.9688 0.0000 -3.5999 0.0000
# 3 55.7578 37.9688 94.3490 0.0000 -0.1985 0.0000
# 4 0.0000 0.0000 0.0000 26.7772 0.0000 -1.8806
# 5 -5.7665 -3.5999 -0.1985 0.0000 32.6002 0.0000
# 6 0.0000 0.0000 0.0000 -1.8806 0.0000 32.6138
#
#
#
# Elastic Compliance Matrix: (Units=1/GPa)
#
#
# Indices 1 2 3 4 5 6 
#
# 1 0.010587 -0.006212 -0.003754 0.000000 0.001164 0.000000
# 2 -0.006212 0.026296 -0.006908 0.000000 0.001763 0.000000
# 3 -0.003754 -0.006908 0.015595 0.000000 -0.001332 0.000000
# 4 0.000000 0.000000 0.000000 0.037497 0.000000 0.002162
# 5 0.001164 0.001763 -0.001332 0.000000 0.031067 0.000000
# 6 0.000000 0.000000 0.000000 0.002162 0.000000 0.030787
#
#
# Mechanical properties :
#
#
# Convention : Reuss Voigt Hill
#
# Bulk Modulus (GPa) = 53.38945 64.78902 59.08924
# Shear Modulus (GPa) = 26.06620 28.73590 27.40105
#
# Velocity S-wave (km/s) = 3.69534 3.87996 3.78878
# Velocity P-wave (km/s) = 6.79536 7.34940 7.07781
#
# Compressibility (1/GPa) = 0.01873029
#
# Stress axis : x y z
#
# Youngs Moduli (GPa) = 94.45831 38.02802 64.12464
#
# Poissons Ratio (x) = 0.23622 0.24074
# Poissons Ratio (y) = 0.58676 0.44295
# Poissons Ratio (z) = 0.35461 0.26269
#
# Static dielectric constant tensor:
#      x y z
#    x 3.533920 0.000000 -0.024090 
#    y 0.000000 3.147410 0.000000 
#    z -0.024090 0.000000 3.543630 
# 
# 
# High freq. dielectric constant tensor:
#      x y z
#    x 1.750250 0.000000 -0.005880 
#    y 0.000000 1.729780 0.000000 
#    z -0.005880 0.000000 1.743020 
# 
# From -- ./inp_files/45293.got.cif
#   From: 2010.06.25/outbox.cif.g09.slc.cpg/sg11_23_cif.got.tgz:45293.got - 2010.06.27 23:14:04.
