data_PCOD8071647
_publ_section_title
;
Structure prediction by ZEFSAII (Michael W. Deem and Ramdas Pophale) SiO2 
 PCOD8071647
Probable space group: P 21/M
;
_chemical_formula_sum "Si O2"
_cell_formula_units_Z 32
_cell_length_a 26.206774
_cell_length_b 8.883723
_cell_length_c 20.372087
_cell_angle_alpha 90.000000
_cell_angle_beta 20.465597
_cell_angle_gamma 90.000000
_cell_volume 1658.331266
_symmetry_space_group_name_H-M "P 21/M"
_symmetry_group_IT_number 11
_symmetry_cell_setting 'monoclinic'
loop_
_space_group_symop_operation_xyz
x,y,z
-x,1/2+y,-z
-x,-y,-z
x,1/2-y,z
loop_
_atom_site_type_symbol
_atom_site_label
_atom_site_fract_x
_atom_site_fract_y
_atom_site_fract_z
Si Si1 0.583788 0.422381 0.841757
Si Si2 0.678416 0.572710 0.920800
Si Si3 0.853387 0.427735 0.590135
Si Si4 0.228267 0.425657 0.706714
Si Si5 0.176451 0.425203 0.014824
Si Si6 0.859832 0.427474 0.805179
Si Si7 0.491421 0.427245 0.581362
Si Si8 0.990835 0.924171 0.913977
O O1 0.565909 0.250000 0.880024
O O2 0.755756 0.462811 0.641514
O O3 0.500000 0.500000 0.000000
O O4 0.496876 0.458653 0.878787
O O5 0.713401 0.750000 0.877141
O O6 0.773165 0.488948 0.751267
O O7 0.716486 0.503312 0.945700
O O8 0.883605 0.250000 0.561698
O O9 0.003176 0.515623 0.401808
O O10 0.260759 0.250000 0.661534
O O11 0.381408 0.512507 0.524480
O O12 0.135144 0.479403 0.755982
O O13 0.139920 0.466298 0.879099
O O14 0.169366 0.250000 0.042130
O O15 0.338595 0.471975 0.798293
O O16 0.126531 0.523455 0.136237
O O17 0.062474 0.463101 0.094546
O O18 0.847946 0.250000 0.814653
O O19 0.500000 0.500000 0.500000
O O20 0.505416 0.250000 0.555580
O O21 0.031969 0.750000 0.872281
#
# Coordination Sequence:
#
# PCOD8071647 Si02
#       8
#     4   4   4   4   4   4   4   4
#     4   8  16  30  53  82 108 136 175 220 271 322
#     4  10  19  35  58  84 113 146 185 231 277 327
#     4  10  19  35  58  84 112 145 185 231 279 329
#     4  10  19  33  55  87 116 142 180 224 271 326
#     4  10  22  41  59  78 109 147 188 230 279 335
#     4  12  25  38  53  79 111 148 190 231 281 333
#     4  11  21  36  59  86 113 144 182 226 278 333
#     4   9  18  35  56  81 111 144 180 223 273 327
#
# _framework density 19.296506000000001
#
# number of rings (size 3 to 8) (size 9 to 14) (size 15 to 20)
#    0.000    2.000    1.250    3.000    0.000    3.000 
#    0.000    1.250    0.000    3.000    0.000    0.000 
#    0.000    0.000    0.000    0.000    0.000    0.000 
#
# Total GULP energy -396673.093323 kJ/mol
# GULP energy per Si atom -12396.034166 kJ/mol
# Density = 1.925259 g / cm^3
# Si number density = 19.296506 Si / 1000 Ang^3
#
#
#
# Elastic Constant Matrix: (Units=GPa)
#
#
# Indices 1 2 3 4 5 6 
#
# 1 106.3357 31.0705 23.1869 0.0000 -18.3090 0.0000
# 2 31.0705 66.1614 22.1515 0.0000 -10.0104 0.0000
# 3 23.1869 22.1515 36.2570 0.0000 -12.2980 0.0000
# 4 0.0000 0.0000 0.0000 26.3415 0.0000 -1.8133
# 5 -18.3090 -10.0104 -12.2980 0.0000 29.0218 0.0000
# 6 0.0000 0.0000 0.0000 -1.8133 0.0000 34.9536
#
#
#
# Elastic Compliance Matrix: (Units=1/GPa)
#
#
# Indices 1 2 3 4 5 6 
#
# 1 0.012148 -0.003677 -0.003916 0.000000 0.004736 0.000000
# 2 -0.003677 0.020206 -0.009829 0.000000 0.000485 0.000000
# 3 -0.003916 -0.009829 0.039826 0.000000 0.011016 0.000000
# 4 0.000000 0.000000 0.000000 0.038099 0.000000 0.001977
# 5 0.004736 0.000485 0.011016 0.000000 0.042280 0.000000
# 6 0.000000 0.000000 0.000000 0.001977 0.000000 0.028712
#
#
# Mechanical properties :
#
#
# Convention : Reuss Voigt Hill
#
# Bulk Modulus (GPa) = 26.78332 40.17465 33.47898
# Shear Modulus (GPa) = 21.87614 26.88639 24.38127
#
# Velocity S-wave (km/s) = 3.37068 3.73678 3.55844
# Velocity P-wave (km/s) = 5.39060 6.28354 5.85412
#
# Compressibility (1/GPa) = 0.03733667
#
# Stress axis : x y z
#
# Youngs Moduli (GPa) = 82.31834 49.49138 25.10897
#
# Poissons Ratio (x) = 0.18199 0.09832
# Poissons Ratio (y) = 0.30271 0.24679
# Poissons Ratio (z) = 0.32233 0.48643
#
# Static dielectric constant tensor:
#      x y z
#    x 3.887850 0.000000 -0.577270 
#    y 0.000000 3.538890 0.000000 
#    z -0.577270 0.000000 3.562040 
# 
# 
# High freq. dielectric constant tensor:
#      x y z
#    x 1.756430 0.000000 -0.034390 
#    y 0.000000 1.757590 0.000000 
#    z -0.034390 0.000000 1.728940 
# 
# From -- ./inp_files/67097.got.cif
#   From: 2010.06.25/outbox.cif.g09.slc.cpg/sg11_34_cif.got.tgz:67097.got - 2010.06.27 23:14:04.
