data_PCOD8071083
_publ_section_title
;
Structure prediction by ZEFSAII (Michael W. Deem and Ramdas Pophale) SiO2 
 PCOD8071083
Probable space group: P 21/M
;
_chemical_formula_sum "Si O2"
_cell_formula_units_Z 32
_cell_length_a 13.868870
_cell_length_b 17.965151
_cell_length_c 14.559231
_cell_angle_alpha 90.000000
_cell_angle_beta 148.864693
_cell_angle_gamma 90.000000
_cell_volume 1875.651156
_symmetry_space_group_name_H-M "P 21/M"
_symmetry_group_IT_number 11
_symmetry_cell_setting 'monoclinic'
loop_
_space_group_symop_operation_xyz
x,y,z
-x,1/2+y,-z
-x,-y,-z
x,1/2-y,z
loop_
_atom_site_type_symbol
_atom_site_label
_atom_site_fract_x
_atom_site_fract_y
_atom_site_fract_z
Si Si1 0.736100 0.978763 0.537207
Si Si2 0.890111 0.556314 0.472168
Si Si3 0.656094 0.027109 0.851570
Si Si4 0.108270 0.169695 0.289439
Si Si5 0.505241 0.061476 0.925579
Si Si6 0.141157 0.835587 0.076773
Si Si7 0.830587 0.334271 0.220394
Si Si8 0.984225 0.049175 0.895975
O O1 0.846707 0.987763 0.531581
O O2 0.521203 0.002709 0.351271
O O3 0.736445 0.890689 0.560547
O O4 0.831038 0.023182 0.697231
O O5 0.703710 0.586124 0.270637
O O6 0.000000 0.500000 0.500000
O O7 0.021599 0.627318 0.591697
O O8 0.606199 0.032345 0.917157
O O9 0.716608 0.106747 0.856744
O O10 0.810487 0.961356 0.978891
O O11 0.196053 0.250000 0.385961
O O12 0.913106 0.157788 0.184866
O O13 0.051283 0.165581 0.136925
O O14 0.624825 0.130764 0.060138
O O15 0.500000 0.000000 0.000000
O O16 0.220268 0.750000 0.149789
O O17 0.078735 0.867493 0.126062
O O18 0.809972 0.250000 0.235913
O O19 0.000000 0.000000 0.000000
#
# Coordination Sequence:
#
# PCOD8071083 Si02
#       8
#     4   4   4   4   4   4   4   4
#     4  10  19  32  52  79 107 137 175 215 263 313
#     4  10  20  33  53  82 108 142 183 226 269 315
#     4  10  20  33  54  80 106 139 174 223 265 313
#     4   9  16  30  49  73 108 138 162 209 269 314
#     4  11  20  32  56  85 107 142 186 220 271 330
#     4  10  19  33  53  75 103 137 174 216 268 318
#     4  10  19  33  52  76 113 142 167 223 279 320
#     4  10  19  34  52  74 104 138 175 213 261 315
#
# _framework density 17.060741
#
# number of rings (size 3 to 8) (size 9 to 14) (size 15 to 20)
#    0.000    2.000    5.000    0.750    0.000    3.000 
#    0.000    2.500    0.000    1.500    0.000    0.000 
#    0.000    0.000    0.000    0.000    0.000    0.000 
#
# Total GULP energy -396483.886488 kJ/mol
# GULP energy per Si atom -12390.121453 kJ/mol
# Density = 1.702191 g / cm^3
# Si number density = 17.060741 Si / 1000 Ang^3
#
#
#
# Elastic Constant Matrix: (Units=GPa)
#
#
# Indices 1 2 3 4 5 6 
#
# 1 78.1985 54.4742 47.9502 0.0000 0.4819 0.0000
# 2 54.4742 92.2800 47.2825 0.0000 -6.1905 0.0000
# 3 47.9502 47.2825 127.4454 0.0000 0.5200 0.0000
# 4 0.0000 0.0000 0.0000 19.2800 0.0000 1.5527
# 5 0.4819 -6.1905 0.5200 0.0000 23.1843 0.0000
# 6 0.0000 0.0000 0.0000 1.5527 0.0000 23.2880
#
#
#
# Elastic Compliance Matrix: (Units=1/GPa)
#
#
# Indices 1 2 3 4 5 6 
#
# 1 0.024018 -0.012099 -0.004533 0.000000 -0.003628 0.000000
# 2 -0.012099 0.019797 -0.002815 0.000000 0.005601 0.000000
# 3 -0.004533 -0.002815 0.010600 0.000000 -0.000895 0.000000
# 4 0.000000 0.000000 0.000000 0.052147 0.000000 -0.003477
# 5 -0.003628 0.005601 -0.000895 0.000000 0.044724 0.000000
# 6 0.000000 0.000000 0.000000 -0.003477 0.000000 0.043172
#
#
# Mechanical properties :
#
#
# Convention : Reuss Voigt Hill
#
# Bulk Modulus (GPa) = 64.43121 66.37087 65.40104
# Shear Modulus (GPa) = 20.96191 23.03159 21.99675
#
# Velocity S-wave (km/s) = 3.50903 3.67819 3.59460
# Velocity P-wave (km/s) = 7.36651 7.55155 7.45960
#
# Compressibility (1/GPa) = 0.01552043
#
# Stress axis : x y z
#
# Youngs Moduli (GPa) = 41.63479 50.51225 94.33752
#
# Poissons Ratio (x) = 0.61115 0.42764
# Poissons Ratio (y) = 0.50374 0.26560
# Poissons Ratio (z) = 0.18873 0.14222
#
# Static dielectric constant tensor:
#      x y z
#    x 3.336210 0.000000 0.069790 
#    y 0.000000 3.196720 0.000000 
#    z 0.069790 0.000000 3.313070 
# 
# 
# High freq. dielectric constant tensor:
#      x y z
#    x 1.645820 0.000000 -0.002390 
#    y 0.000000 1.632910 0.000000 
#    z -0.002390 0.000000 1.667400 
# 
# From -- ./inp_files/52597.got.cif
#   From: 2010.06.25/outbox.cif.g09.slc.cpg/sg11_27_cif.got.tgz:52597.got - 2010.06.27 23:14:04.
