data_PCOD8071038
_publ_section_title
;
Structure prediction by ZEFSAII (Michael W. Deem and Ramdas Pophale) SiO2 
 PCOD8071038
Probable space group: P 21/M
;
_chemical_formula_sum "Si O2"
_cell_formula_units_Z 32
_cell_length_a 11.309162
_cell_length_b 17.409484
_cell_length_c 9.361650
_cell_angle_alpha 90.000000
_cell_angle_beta 114.552314
_cell_angle_gamma 90.000000
_cell_volume 1676.527587
_symmetry_space_group_name_H-M "P 21/M"
_symmetry_group_IT_number 11
_symmetry_cell_setting 'monoclinic'
loop_
_space_group_symop_operation_xyz
x,y,z
-x,1/2+y,-z
-x,-y,-z
x,1/2-y,z
loop_
_atom_site_type_symbol
_atom_site_label
_atom_site_fract_x
_atom_site_fract_y
_atom_site_fract_z
Si Si1 0.782928 0.160228 0.124115
Si Si2 0.970491 0.658510 0.926747
Si Si3 0.795018 0.160430 0.455016
Si Si4 0.283244 0.158709 0.703742
Si Si5 0.966434 0.658299 0.247061
Si Si6 0.508016 0.090394 0.997046
Si Si7 0.271660 0.341274 0.374210
Si Si8 0.507044 0.341420 0.300895
O O1 0.752924 0.250000 0.087609
O O2 0.831860 0.144139 0.309380
O O3 0.894588 0.130222 0.074226
O O4 0.652856 0.114069 0.024139
O O5 0.965365 0.750000 0.922754
O O6 0.850335 0.625022 0.775214
O O7 0.961353 0.626741 0.083210
O O8 0.793072 0.250000 0.485954
O O9 0.650657 0.127594 0.416440
O O10 0.904965 0.123238 0.611730
O O11 0.296774 0.250000 0.717302
O O12 0.160426 0.128973 0.732980
O O13 0.413241 0.121064 0.827730
O O14 0.265081 0.129025 0.532780
O O15 0.970002 0.750000 0.251952
O O16 0.465496 0.126041 0.126701
O O17 0.500000 0.000000 0.000000
O O18 0.266260 0.250000 0.368529
O O19 0.405173 0.370053 0.368149
O O20 0.507942 0.250000 0.285500
#
# Coordination Sequence:
#
# PCOD8071038 Si02
#       8
#     4   4   4   4   4   4   4   4
#     4   9  17  31  51  72  98 131 165 203 248 296
#     4   9  16  26  45  75 105 129 157 199 249 296
#     4   8  14  25  43  69  97 125 156 193 238 286
#     4  10  19  32  52  76 101 130 167 208 249 297
#     4   9  16  26  46  77 107 129 156 201 250 295
#     4  11  22  35  51  72 101 135 172 212 255 302
#     4   9  17  29  50  80 106 130 164 207 251 295
#     4   9  17  32  54  76 101 133 168 206 250 300
#
# _framework density 19.087069
#
# number of rings (size 3 to 8) (size 9 to 14) (size 15 to 20)
#    0.000    2.750    0.000    3.375    0.000    6.000 
#    0.000    4.375    0.000    9.750    0.000    0.000 
#    0.000    0.000    0.000    0.000    0.000    0.000 
#
# Total GULP energy -396752.010665 kJ/mol
# GULP energy per Si atom -12398.500333 kJ/mol
# Density = 1.904363 g / cm^3
# Si number density = 19.087069 Si / 1000 Ang^3
#
#
#
# Elastic Constant Matrix: (Units=GPa)
#
#
# Indices 1 2 3 4 5 6 
#
# 1 150.8112 18.7887 82.2057 0.0000 -17.0344 0.0000
# 2 18.7887 25.7612 20.6103 0.0000 1.2245 0.0000
# 3 82.2057 20.6103 161.8723 0.0000 2.3888 0.0000
# 4 0.0000 0.0000 0.0000 3.5144 0.0000 -0.9495
# 5 -17.0344 1.2245 2.3888 0.0000 35.4484 0.0000
# 6 0.0000 0.0000 0.0000 -0.9495 0.0000 5.0317
#
#
#
# Elastic Compliance Matrix: (Units=1/GPa)
#
#
# Indices 1 2 3 4 5 6 
#
# 1 0.010383 -0.003951 -0.004850 0.000000 0.005453 0.000000
# 2 -0.003951 0.044769 -0.003646 0.000000 -0.003199 0.000000
# 3 -0.004850 -0.003646 0.009147 0.000000 -0.002821 0.000000
# 4 0.000000 0.000000 0.000000 0.299831 0.000000 0.056580
# 5 0.005453 -0.003199 -0.002821 0.000000 0.031131 0.000000
# 6 0.000000 0.000000 0.000000 0.056580 0.000000 0.209416
#
#
# Mechanical properties :
#
#
# Convention : Reuss Voigt Hill
#
# Bulk Modulus (GPa) = 25.37876 64.62823 45.00350
# Shear Modulus (GPa) = 7.77960 23.25491 15.51726
#
# Velocity S-wave (km/s) = 2.02106 3.49429 2.85436
# Velocity P-wave (km/s) = 4.33260 7.08613 5.87302
#
# Compressibility (1/GPa) = 0.03940302
#
# Stress axis : x y z
#
# Youngs Moduli (GPa) = 96.31354 22.33676 109.32859
#
# Poissons Ratio (x) = 0.08826 0.53026
# Poissons Ratio (y) = 0.38057 0.39865
# Poissons Ratio (z) = 0.46714 0.08145
#
# Static dielectric constant tensor:
#      x y z
#    x 3.785010 0.000000 0.061550 
#    y 0.000000 2.778250 0.000000 
#    z 0.061550 0.000000 3.685770 
# 
# 
# High freq. dielectric constant tensor:
#      x y z
#    x 1.757530 0.000000 0.005210 
#    y 0.000000 1.672640 0.000000 
#    z 0.005210 0.000000 1.751090 
# 
# From -- ./inp_files/19217.got.cif
#   From: 2010.06.25/outbox.cif.g09.slc.cpg/sg11_10_cif.got.tgz:19217.got - 2010.06.27 23:14:04.
