data_PCOD8071584
_publ_section_title
;
Structure prediction by ZEFSAII (Michael W. Deem and Ramdas Pophale) SiO2 
 PCOD8071584
Probable space group: P 21/M
;
_chemical_formula_sum "Si O2"
_cell_formula_units_Z 32
_cell_length_a 20.970403
_cell_length_b 8.945645
_cell_length_c 26.458227
_cell_angle_alpha 90.000000
_cell_angle_beta 160.136301
_cell_angle_gamma 90.000000
_cell_volume 1686.482228
_symmetry_space_group_name_H-M "P 21/M"
_symmetry_group_IT_number 11
_symmetry_cell_setting 'monoclinic'
loop_
_space_group_symop_operation_xyz
x,y,z
-x,1/2+y,-z
-x,-y,-z
x,1/2-y,z
loop_
_atom_site_type_symbol
_atom_site_label
_atom_site_fract_x
_atom_site_fract_y
_atom_site_fract_z
Si Si1 0.087848 0.084525 0.139060
Si Si2 0.879299 0.573578 0.180792
Si Si3 0.120638 0.423734 0.632745
Si Si4 0.520117 0.072682 0.747169
Si Si5 0.493306 0.928360 0.940385
Si Si6 0.283029 0.584803 0.203941
Si Si7 0.131109 0.073146 0.940996
Si Si8 0.867763 0.077267 0.541197
O O1 0.141416 0.250000 0.197971
O O2 0.265448 0.019213 0.240287
O O3 0.039506 0.982414 0.151141
O O4 0.911988 0.091068 0.971052
O O5 0.877974 0.750000 0.184904
O O6 0.919969 0.522610 0.153932
O O7 0.042311 0.513761 0.339716
O O8 0.675852 0.515447 0.046177
O O9 0.151697 0.250000 0.643378
O O10 0.317363 0.509041 0.778588
O O11 0.000000 0.500000 0.500000
O O12 0.022790 0.444403 0.613799
O O13 0.539706 0.250000 0.767487
O O14 0.561569 0.023835 0.719774
O O15 0.313929 0.019146 0.608523
O O16 0.670183 0.998549 0.896333
O O17 0.481965 0.750000 0.936439
O O18 0.500000 0.000000 0.000000
O O19 0.337244 0.750000 0.263431
O O20 0.150708 0.250000 0.960821
O O21 0.806969 0.250000 0.500489
#
# Coordination Sequence:
#
# PCOD8071584 Si02
#       8
#     4   4   4   4   4   4   4   4
#     4   9  16  27  46  75 109 137 173 224 268 314
#     4   9  20  38  58  79 106 143 185 223 266 327
#     4  11  24  41  60  85 114 147 185 232 283 334
#     4  10  21  35  52  81 114 140 178 229 272 318
#     4  11  21  39  62  85 112 145 188 233 277 331
#     4   8  15  28  46  70 104 142 175 214 267 321
#     4  10  19  33  55  80 107 144 182 220 271 325
#     4  10  21  40  59  76 107 148 183 219 271 332
#
# _framework density 18.974408
#
# number of rings (size 3 to 8) (size 9 to 14) (size 15 to 20)
#    0.000    2.250    1.250    2.625    1.750    4.500 
#    0.000    3.125    0.000    0.750    0.000    0.000 
#    0.000    0.000    0.000    0.000    0.000    0.000 
#
# Total GULP energy -396767.319952 kJ/mol
# GULP energy per Si atom -12398.978749 kJ/mol
# Density = 1.893122 g / cm^3
# Si number density = 18.974408 Si / 1000 Ang^3
#
#
#
# Elastic Constant Matrix: (Units=GPa)
#
#
# Indices 1 2 3 4 5 6 
#
# 1 87.0483 35.2118 12.3332 0.0000 -17.1487 0.0000
# 2 35.2118 88.0264 19.3002 0.0000 -7.9571 0.0000
# 3 12.3332 19.3002 47.3124 0.0000 -18.3977 0.0000
# 4 0.0000 0.0000 0.0000 22.6439 0.0000 2.9373
# 5 -17.1487 -7.9571 -18.3977 0.0000 26.8146 0.0000
# 6 0.0000 0.0000 0.0000 2.9373 0.0000 30.7124
#
#
#
# Elastic Compliance Matrix: (Units=1/GPa)
#
#
# Indices 1 2 3 4 5 6 
#
# 1 0.015404 -0.005746 0.002041 0.000000 0.009546 0.000000
# 2 -0.005746 0.014621 -0.005740 0.000000 -0.003274 0.000000
# 3 0.002041 -0.005740 0.031084 0.000000 0.020929 0.000000
# 4 0.000000 0.000000 0.000000 0.044717 0.000000 -0.004277
# 5 0.009546 -0.003274 0.020929 0.000000 0.056786 0.000000
# 6 0.000000 0.000000 0.000000 -0.004277 0.000000 0.032969
#
#
# Mechanical properties :
#
#
# Convention : Reuss Voigt Hill
#
# Bulk Modulus (GPa) = 23.68641 39.56417 31.62529
# Shear Modulus (GPa) = 21.87764 26.40364 24.14064
#
# Velocity S-wave (km/s) = 3.39928 3.73438 3.57076
# Velocity P-wave (km/s) = 5.28368 6.28417 5.80551
#
# Compressibility (1/GPa) = 0.04221830
#
# Stress axis : x y z
#
# Youngs Moduli (GPa) = 64.91924 68.39337 32.17113
#
# Poissons Ratio (x) = 0.39301 -0.06565
# Poissons Ratio (y) = 0.37304 0.18465
# Poissons Ratio (z) = -0.13248 0.39256
#
# Static dielectric constant tensor:
#      x y z
#    x 3.730690 0.000000 0.135570 
#    y 0.000000 3.763810 0.000000 
#    z 0.135570 0.000000 3.380900 
# 
# 
# High freq. dielectric constant tensor:
#      x y z
#    x 1.745980 0.000000 0.007520 
#    y 0.000000 1.735480 0.000000 
#    z 0.007520 0.000000 1.710730 
# 
# From -- ./inp_files/72178.got.cif
#   From: 2010.06.25/outbox.cif.g09.slc.cpg/sg11_37_cif.got.tgz:72178.got - 2010.06.27 23:14:04.
