data_PCOD8071553
_publ_section_title
;
Structure prediction by ZEFSAII (Michael W. Deem and Ramdas Pophale) SiO2 
 PCOD8071553
Probable space group: P 21/M
;
_chemical_formula_sum "Si O2"
_cell_formula_units_Z 28
_cell_length_a 11.640011
_cell_length_b 8.755428
_cell_length_c 15.405841
_cell_angle_alpha 90.000000
_cell_angle_beta 115.225482
_cell_angle_gamma 90.000000
_cell_volume 1420.335093
_symmetry_space_group_name_H-M "P 21/M"
_symmetry_group_IT_number 11
_symmetry_cell_setting 'monoclinic'
loop_
_space_group_symop_operation_xyz
x,y,z
-x,1/2+y,-z
-x,-y,-z
x,1/2-y,z
loop_
_atom_site_type_symbol
_atom_site_label
_atom_site_fract_x
_atom_site_fract_y
_atom_site_fract_z
Si Si1 0.065695 0.930890 0.265545
Si Si2 0.778454 0.930907 0.178277
Si Si3 0.672397 0.428016 0.970309
Si Si4 0.308043 0.572217 0.440346
Si Si5 0.478800 0.426223 0.630947
Si Si6 0.890014 0.073050 0.909794
Si Si7 0.552867 0.429771 0.196907
O O1 0.074091 0.750000 0.262754
O O2 0.166070 0.985522 0.370907
O O3 0.108779 0.998968 0.186234
O O4 0.923388 0.984085 0.242494
O O5 0.763895 0.750000 0.181083
O O6 0.695649 0.012111 0.225837
O O7 0.736884 0.982538 0.069504
O O8 0.662607 0.250000 0.991751
O O9 0.754246 0.456258 0.909925
O O10 0.533386 0.493477 0.905492
O O11 0.312475 0.750000 0.467532
O O12 0.353894 0.474827 0.537201
O O13 0.396567 0.541341 0.385580
O O14 0.467223 0.250000 0.653625
O O15 0.491284 0.524245 0.721715
O O16 0.922248 0.250000 0.915030
O O17 0.000000 0.000000 0.000000
O O18 0.544667 0.250000 0.183419
#
# Coordination Sequence:
#
# PCOD8071553 Si02
#       7
#     4   4   4   4   4   4   4
#     4   9  18  34  57  83 114 151 186 225 279 334
#     4  11  22  38  58  80 113 152 194 236 280 336
#     4  11  22  37  58  84 115 150 190 236 286 335
#     4   9  18  36  62  89 117 147 180 224 281 341
#     4  10  20  37  61  89 118 144 181 231 283 336
#     4  10  19  33  54  82 115 148 183 226 275 328
#     4  12  25  40  58  80 110 149 196 239 283 336
#
# _framework density 19.713659
#
# number of rings (size 3 to 8) (size 9 to 14) (size 15 to 20)
#    0.000    1.714    1.429    3.857    0.000    3.429 
#    0.000    2.857    0.000    0.000    0.000    0.000 
#    0.000    0.000    0.000    0.000    0.000    0.000 
#
# Total GULP energy -347265.748898 kJ/mol
# GULP energy per Si atom -12402.348175 kJ/mol
# Density = 1.966879 g / cm^3
# Si number density = 19.713659 Si / 1000 Ang^3
#
#
#
# Elastic Constant Matrix: (Units=GPa)
#
#
# Indices 1 2 3 4 5 6 
#
# 1 76.8588 29.7171 31.1833 0.0000 21.1611 0.0000
# 2 29.7171 48.2500 14.2350 0.0000 -1.6542 0.0000
# 3 31.1833 14.2350 86.3585 0.0000 24.3697 0.0000
# 4 0.0000 0.0000 0.0000 33.0263 0.0000 -1.7688
# 5 21.1611 -1.6542 24.3697 0.0000 33.0323 0.0000
# 6 0.0000 0.0000 0.0000 -1.7688 0.0000 26.4632
#
#
#
# Elastic Compliance Matrix: (Units=1/GPa)
#
#
# Indices 1 2 3 4 5 6 
#
# 1 0.023188 -0.014148 -0.002083 0.000000 -0.014027 0.000000
# 2 -0.014148 0.031017 -0.003789 0.000000 0.013412 0.000000
# 3 -0.002083 -0.003789 0.015955 0.000000 -0.010626 0.000000
# 4 0.000000 0.000000 0.000000 0.030388 0.000000 0.002031
# 5 -0.014027 0.013412 -0.010626 0.000000 0.047770 0.000000
# 6 0.000000 0.000000 0.000000 0.002031 0.000000 0.037924
#
#
# Mechanical properties :
#
#
# Convention : Reuss Voigt Hill
#
# Bulk Modulus (GPa) = 33.19951 40.19313 36.69632
# Shear Modulus (GPa) = 21.15776 27.59314 24.37545
#
# Velocity S-wave (km/s) = 3.27961 3.74531 3.52017
# Velocity P-wave (km/s) = 5.58736 6.25587 5.93104
#
# Compressibility (1/GPa) = 0.03012093
#
# Stress axis : x y z
#
# Youngs Moduli (GPa) = 43.12593 32.24087 62.67697
#
# Poissons Ratio (x) = 0.45614 0.13054
# Poissons Ratio (y) = 0.61014 0.23746
# Poissons Ratio (z) = 0.08982 0.12215
#
# Static dielectric constant tensor:
#      x y z
#    x 3.719330 0.000000 0.119680 
#    y 0.000000 3.498990 0.000000 
#    z 0.119680 0.000000 3.635180 
# 
# 
# High freq. dielectric constant tensor:
#      x y z
#    x 1.770730 0.000000 0.008080 
#    y 0.000000 1.757480 0.000000 
#    z 0.008080 0.000000 1.767370 
# 
# From -- ./inp_files/49498.got.cif
#   From: 2010.06.25/outbox.cif.g09.slc.cpg/sg11_25_cif.got.tgz:49498.got - 2010.06.27 23:14:04.
