data_PCOD8071181
_publ_section_title
;
Structure prediction by ZEFSAII (Michael W. Deem and Ramdas Pophale) SiO2 
 PCOD8071181
Probable space group: P 21/M
;
_chemical_formula_sum "Si O2"
_cell_formula_units_Z 32
_cell_length_a 17.567076
_cell_length_b 9.273520
_cell_length_c 20.612446
_cell_angle_alpha 90.000000
_cell_angle_beta 32.829962
_cell_angle_gamma 90.000000
_cell_volume 1820.502344
_symmetry_space_group_name_H-M "P 21/M"
_symmetry_group_IT_number 11
_symmetry_cell_setting 'monoclinic'
loop_
_space_group_symop_operation_xyz
x,y,z
-x,1/2+y,-z
-x,-y,-z
x,1/2-y,z
loop_
_atom_site_type_symbol
_atom_site_label
_atom_site_fract_x
_atom_site_fract_y
_atom_site_fract_z
Si Si1 0.671729 0.502878 0.007135
Si Si2 0.804809 0.912034 0.782056
Si Si3 0.319570 0.576523 0.382969
Si Si4 0.039930 0.591727 0.153176
Si Si5 0.361955 0.412414 0.225222
Si Si6 0.078318 0.077230 0.001879
Si Si7 0.623189 0.907271 0.179744
Si Si8 0.928675 0.581237 0.370185
O O1 0.711855 0.589115 0.913791
O O2 0.800332 0.399232 0.935020
O O3 0.530016 0.413553 0.096651
O O4 0.647163 0.610179 0.085103
O O5 0.862716 0.750000 0.730350
O O6 0.706709 0.961290 0.793174
O O7 0.934433 0.021691 0.691249
O O8 0.310710 0.750000 0.389350
O O9 0.300947 0.520262 0.323045
O O10 0.472046 0.518118 0.300169
O O11 0.205729 0.507806 0.511188
O O12 0.002887 0.750000 0.151780
O O13 0.011578 0.473103 0.118002
O O14 0.939454 0.553531 0.285474
O O15 0.317067 0.250000 0.275934
O O16 0.066967 0.250000 0.005139
O O17 0.240636 0.018841 0.884400
O O18 0.000000 0.000000 0.000000
O O19 0.614413 0.750000 0.216969
O O20 0.913013 0.750000 0.397903
#
# Coordination Sequence:
#
# PCOD8071181 Si02
#       8
#     4   4   4   4   4   4   4   4
#     4   9  16  29  49  72  98 127 162 205 251 299
#     4  10  20  32  48  70  97 131 169 210 256 307
#     4  10  20  35  54  72  93 127 171 213 252 296
#     4   9  18  32  51  75 101 129 162 198 241 292
#     4  10  20  32  47  70  99 130 166 210 260 307
#     4  10  19  32  53  81 112 137 157 187 231 284
#     4   8  16  30  49  74 100 127 159 197 239 285
#     4  10  21  36  53  72  96 128 168 214 257 296
#
# _framework density 17.577565
#
# number of rings (size 3 to 8) (size 9 to 14) (size 15 to 20)
#    0.000    2.500    0.000    2.250    0.000    5.500 
#    0.000    1.875    0.000    0.750    0.000    0.000 
#    0.000    0.000    0.000    0.000    0.000    0.000 
#
# Total GULP energy -396536.927477 kJ/mol
# GULP energy per Si atom -12391.778984 kJ/mol
# Density = 1.753756 g / cm^3
# Si number density = 17.577565 Si / 1000 Ang^3
#
#
#
# Elastic Constant Matrix: (Units=GPa)
#
#
# Indices 1 2 3 4 5 6 
#
# 1 120.3213 49.1179 56.1284 0.0000 -8.7614 0.0000
# 2 49.1179 95.8159 45.3250 0.0000 0.2968 0.0000
# 3 56.1284 45.3250 121.6896 0.0000 0.1798 0.0000
# 4 0.0000 0.0000 0.0000 25.6165 0.0000 3.2467
# 5 -8.7614 0.2968 0.1798 0.0000 16.6036 0.0000
# 6 0.0000 0.0000 0.0000 3.2467 0.0000 26.0731
#
#
#
# Elastic Compliance Matrix: (Units=1/GPa)
#
#
# Indices 1 2 3 4 5 6 
#
# 1 0.012571 -0.004513 -0.004127 0.000000 0.006759 0.000000
# 2 -0.004513 0.014289 -0.003237 0.000000 -0.002602 0.000000
# 3 -0.004127 -0.003237 0.011330 0.000000 -0.002243 0.000000
# 4 0.000000 0.000000 0.000000 0.039663 0.000000 -0.004939
# 5 0.006759 -0.002602 -0.002243 0.000000 0.063865 0.000000
# 6 0.000000 0.000000 0.000000 -0.004939 0.000000 0.038969
#
#
# Mechanical properties :
#
#
# Convention : Reuss Voigt Hill
#
# Bulk Modulus (GPa) = 69.26936 70.99660 70.13298
# Shear Modulus (GPa) = 23.89445 26.14233 25.01839
#
# Velocity S-wave (km/s) = 3.69097 3.86068 3.77678
# Velocity P-wave (km/s) = 7.59327 7.76861 7.68144
#
# Compressibility (1/GPa) = 0.01443640
#
# Stress axis : x y z
#
# Youngs Moduli (GPa) = 79.54983 69.98253 88.25883
#
# Poissons Ratio (x) = 0.31581 0.36427
# Poissons Ratio (y) = 0.35898 0.28569
# Poissons Ratio (z) = 0.32833 0.22653
#
# Static dielectric constant tensor:
#      x y z
#    x 3.162410 0.000000 -0.074500 
#    y 0.000000 3.203810 0.000000 
#    z -0.074500 0.000000 3.314620 
# 
# 
# High freq. dielectric constant tensor:
#      x y z
#    x 1.663350 0.000000 -0.003480 
#    y 0.000000 1.677730 0.000000 
#    z -0.003480 0.000000 1.673200 
# 
# From -- ./inp_files/69424.got.cif
#   From: 2010.06.25/outbox.cif.g09.slc.cpg/sg11_35_cif.got.tgz:69424.got - 2010.06.27 23:14:04.
