data_PCOD8071564
_publ_section_title
;
Structure prediction by ZEFSAII (Michael W. Deem and Ramdas Pophale) SiO2 
 PCOD8071564
Probable space group: P 21/M
;
_chemical_formula_sum "Si O2"
_cell_formula_units_Z 32
_cell_length_a 28.043040
_cell_length_b 8.892135
_cell_length_c 21.642273
_cell_angle_alpha 90.000000
_cell_angle_beta 161.176015
_cell_angle_gamma 90.000000
_cell_volume 1741.332738
_symmetry_space_group_name_H-M "P 21/M"
_symmetry_group_IT_number 11
_symmetry_cell_setting 'monoclinic'
loop_
_space_group_symop_operation_xyz
x,y,z
-x,1/2+y,-z
-x,-y,-z
x,1/2-y,z
loop_
_atom_site_type_symbol
_atom_site_label
_atom_site_fract_x
_atom_site_fract_y
_atom_site_fract_z
Si Si1 0.084003 0.425589 0.792118
Si Si2 0.166258 0.924962 0.334667
Si Si3 0.330183 0.574455 0.410387
Si Si4 0.659497 0.927332 0.807265
Si Si5 0.653994 0.428596 0.207454
Si Si6 0.166250 0.427945 0.097470
Si Si7 0.947301 0.424508 0.497816
Si Si8 0.194511 0.427105 0.494351
O O1 0.046797 0.250000 0.758679
O O2 0.066062 0.462769 0.697479
O O3 0.972127 0.523615 0.695191
O O4 0.247872 0.467688 0.017000
O O5 0.165680 0.750000 0.352837
O O6 0.271412 0.957711 0.406294
O O7 0.232190 0.023122 0.471147
O O8 0.001968 0.980445 0.116689
O O9 0.328910 0.750000 0.393170
O O10 0.495334 0.504713 0.610081
O O11 0.226197 0.493224 0.234363
O O12 0.648064 0.750000 0.787328
O O13 0.739856 0.992660 0.845035
O O14 0.640530 0.250000 0.193009
O O15 0.784251 0.478981 0.319631
O O16 0.691378 0.488710 0.321067
O O17 0.500000 0.500000 0.000000
O O18 0.177040 0.250000 0.114076
O O19 0.942756 0.250000 0.478344
O O20 0.000000 0.500000 0.500000
O O21 0.213433 0.250000 0.525620
#
# Coordination Sequence:
#
# PCOD8071564 Si02
#       8
#     4   4   4   4   4   4   4   4
#     4   9  17  35  58  77 105 145 186 221 265 321
#     4  10  20  36  54  75 106 144 183 220 269 326
#     4  10  21  34  51  78 108 137 176 226 272 325
#     4   9  17  33  55  76 103 137 177 221 266 322
#     4  10  21  39  61  86 116 150 187 228 273 326
#     4  10  19  33  55  74 100 143 179 219 273 325
#     4   9  19  34  56  83 114 147 181 225 270 322
#     4  11  21  34  57  85 110 140 184 230 270 319
#
# _framework density 18.376728
#
# number of rings (size 3 to 8) (size 9 to 14) (size 15 to 20)
#    0.000    2.250    1.250    3.000    0.000    3.500 
#    2.250    0.625    0.000    0.000    0.000    0.000 
#    0.000    0.000    0.000    0.000    0.000    0.000 
#
# Total GULP energy -396793.475906 kJ/mol
# GULP energy per Si atom -12399.796122 kJ/mol
# Density = 1.833490 g / cm^3
# Si number density = 18.376728 Si / 1000 Ang^3
#
#
#
# Elastic Constant Matrix: (Units=GPa)
#
#
# Indices 1 2 3 4 5 6 
#
# 1 73.8872 33.1864 28.4634 0.0000 -10.4087 0.0000
# 2 33.1864 53.2002 33.1113 0.0000 -5.2772 0.0000
# 3 28.4634 33.1113 102.9719 0.0000 -7.5388 0.0000
# 4 0.0000 0.0000 0.0000 25.4827 0.0000 -6.5133
# 5 -10.4087 -5.2772 -7.5388 0.0000 30.4851 0.0000
# 6 0.0000 0.0000 0.0000 -6.5133 0.0000 27.3238
#
#
#
# Elastic Compliance Matrix: (Units=1/GPa)
#
#
# Indices 1 2 3 4 5 6 
#
# 1 0.019635 -0.010793 -0.001633 0.000000 0.004432 0.000000
# 2 -0.010793 0.029584 -0.006543 0.000000 -0.000182 0.000000
# 3 -0.001633 -0.006543 0.012367 0.000000 0.001368 0.000000
# 4 0.000000 0.000000 0.000000 0.041788 0.000000 0.009961
# 5 0.004432 -0.000182 0.001368 0.000000 0.034623 0.000000
# 6 0.000000 0.000000 0.000000 0.009961 0.000000 0.038973
#
#
# Mechanical properties :
#
#
# Convention : Reuss Voigt Hill
#
# Bulk Modulus (GPa) = 42.28468 46.62016 44.45242
# Shear Modulus (GPa) = 22.44286 25.67820 24.06053
#
# Velocity S-wave (km/s) = 3.49845 3.74213 3.62234
# Velocity P-wave (km/s) = 6.27525 6.64045 6.46043
#
# Compressibility (1/GPa) = 0.02364923
#
# Stress axis : x y z
#
# Youngs Moduli (GPa) = 50.92980 33.80260 80.86227
#
# Poissons Ratio (x) = 0.36482 0.13201
# Poissons Ratio (y) = 0.54966 0.52907
# Poissons Ratio (z) = 0.08315 0.22116
#
# Static dielectric constant tensor:
#      x y z
#    x 3.457360 0.000000 -0.008560 
#    y 0.000000 3.297050 0.000000 
#    z -0.008560 0.000000 3.589460 
# 
# 
# High freq. dielectric constant tensor:
#      x y z
#    x 1.714200 0.000000 -0.009450 
#    y 0.000000 1.693260 0.000000 
#    z -0.009450 0.000000 1.717760 
# 
# From -- ./inp_files/66948.got.cif
#   From: 2010.06.25/outbox.cif.g09.slc.cpg/sg11_34_cif.got.tgz:66948.got - 2010.06.27 23:14:04.
