data_PCOD8071530
_publ_section_title
;
Structure prediction by ZEFSAII (Michael W. Deem and Ramdas Pophale) SiO2 
 PCOD8071530
Probable space group: P 21/M
;
_chemical_formula_sum "Si O2"
_cell_formula_units_Z 20
_cell_length_a 10.281045
_cell_length_b 8.710773
_cell_length_c 12.544983
_cell_angle_alpha 90.000000
_cell_angle_beta 76.790192
_cell_angle_gamma 90.000000
_cell_volume 1093.749189
_symmetry_space_group_name_H-M "P 21/M"
_symmetry_group_IT_number 11
_symmetry_cell_setting 'monoclinic'
loop_
_space_group_symop_operation_xyz
x,y,z
-x,1/2+y,-z
-x,-y,-z
x,1/2-y,z
loop_
_atom_site_type_symbol
_atom_site_label
_atom_site_fract_x
_atom_site_fract_y
_atom_site_fract_z
Si Si1 0.144279 0.068698 0.954554
Si Si2 0.362526 0.929781 0.066081
Si Si3 0.288632 0.571622 0.732834
Si Si4 0.356131 0.071488 0.514880
Si Si5 0.402938 0.425417 0.274172
O O1 0.138993 0.250000 0.965191
O O2 0.193321 0.022496 0.828268
O O3 0.240759 0.003601 0.026635
O O4 0.000000 0.000000 0.000000
O O5 0.363389 0.750000 0.043543
O O6 0.344741 0.963119 0.194891
O O7 0.500000 0.000000 0.000000
O O8 0.253741 0.750000 0.747886
O O9 0.259136 0.514124 0.617089
O O10 0.441596 0.536988 0.735034
O O11 0.362007 0.250000 0.542937
O O12 0.315515 0.047696 0.398345
O O13 0.500000 0.000000 0.500000
O O14 0.388893 0.250000 0.238263
#
# Coordination Sequence:
#
# PCOD8071530 Si02
#       5
#     4   4   4   4   4
#     4  12  25  41  60  82 113 151 191 234 284 341
#     4  12  23  36  57  84 115 150 190 234 284 335
#     4  10  19  33  54  80 113 147 187 231 278 335
#     4   9  17  29  48  76 111 146 184 229 280 331
#     4   9  18  32  52  80 114 147 185 231 279 331
#
# _framework density 18.285727999999999
#
# number of rings (size 3 to 8) (size 9 to 14) (size 15 to 20)
#    0.000    1.600    2.000    6.000    0.000    4.000 
#    0.000    0.000    0.000    1.200    0.000    0.000 
#    0.000    0.000    0.000    0.000    0.000    0.000 
#
# Total GULP energy -247974.582114 kJ/mol
# GULP energy per Si atom -12398.729106 kJ/mol
# Density = 1.824411 g / cm^3
# Si number density = 18.285728 Si / 1000 Ang^3
#
#
#
# Elastic Constant Matrix: (Units=GPa)
#
#
# Indices 1 2 3 4 5 6 
#
# 1 88.8976 52.6169 51.3927 0.0000 -1.4685 0.0000
# 2 52.6169 151.9820 66.0483 0.0000 0.9254 0.0000
# 3 51.3927 66.0483 150.3224 0.0000 0.7856 0.0000
# 4 0.0000 0.0000 0.0000 38.1472 0.0000 -0.2930
# 5 -1.4685 0.9254 0.7856 0.0000 15.4909 0.0000
# 6 0.0000 0.0000 0.0000 -0.2930 0.0000 24.8189
#
#
#
# Elastic Compliance Matrix: (Units=1/GPa)
#
#
# Indices 1 2 3 4 5 6 
#
# 1 0.015683 -0.003840 -0.003685 0.000000 0.001903 0.000000
# 2 -0.003840 0.009074 -0.002670 0.000000 -0.000771 0.000000
# 3 -0.003685 -0.002670 0.009089 0.000000 -0.000651 0.000000
# 4 0.000000 0.000000 0.000000 0.026217 0.000000 0.000309
# 5 0.001903 -0.000771 -0.000651 0.000000 0.064813 0.000000
# 6 0.000000 0.000000 0.000000 0.000309 0.000000 0.040296
#
#
# Mechanical properties :
#
#
# Convention : Reuss Voigt Hill
#
# Bulk Modulus (GPa) = 74.31230 81.25752 77.78491
# Shear Modulus (GPa) = 26.30932 30.43435 28.37183
#
# Velocity S-wave (km/s) = 3.79725 4.08410 3.94329
# Velocity P-wave (km/s) = 7.74295 8.17154 7.96013
#
# Compressibility (1/GPa) = 0.01345672
#
# Stress axis : x y z
#
# Youngs Moduli (GPa) = 63.76239 110.20223 110.02698
#
# Poissons Ratio (x) = 0.42317 0.40540
# Poissons Ratio (y) = 0.24484 0.29379
# Poissons Ratio (z) = 0.23494 0.29426
#
# Static dielectric constant tensor:
#      x y z
#    x 2.918630 0.000000 -0.064840 
#    y 0.000000 3.641230 0.000000 
#    z -0.064840 0.000000 3.899180 
# 
# 
# High freq. dielectric constant tensor:
#      x y z
#    x 1.652400 0.000000 0.002460 
#    y 0.000000 1.725880 0.000000 
#    z 0.002460 0.000000 1.734710 
# 
# From -- ./inp_files/15964.got.cif
#   From: 2010.06.25/outbox.cif.g09.slc.cpg/sg11_8_cif.got.tgz:15964.got - 2010.06.27 23:14:04.
