data_PCOD8071749
_publ_section_title
;
Structure prediction by ZEFSAII (Michael W. Deem and Ramdas Pophale) SiO2 
 PCOD8071749
Probable space group: P 21/M
;
_chemical_formula_sum "Si O2"
_cell_formula_units_Z 28
_cell_length_a 10.144453
_cell_length_b 8.804922
_cell_length_c 30.685891
_cell_angle_alpha 90.000000
_cell_angle_beta 32.476927
_cell_angle_gamma 90.000000
_cell_volume 1471.752440
_symmetry_space_group_name_H-M "P 21/M"
_symmetry_group_IT_number 11
_symmetry_cell_setting 'monoclinic'
loop_
_space_group_symop_operation_xyz
x,y,z
-x,1/2+y,-z
-x,-y,-z
x,1/2-y,z
loop_
_atom_site_type_symbol
_atom_site_label
_atom_site_fract_x
_atom_site_fract_y
_atom_site_fract_z
Si Si1 0.101183 0.925844 0.259691
Si Si2 0.958641 0.926375 0.080334
Si Si3 0.152356 0.927562 0.346177
Si Si4 0.646532 0.925094 0.083474
Si Si5 0.843995 0.071501 0.504830
Si Si6 0.339036 0.924836 0.665902
Si Si7 0.652103 0.074376 0.235914
O O1 0.028923 0.750000 0.273932
O O2 0.119907 0.969151 0.304950
O O3 0.358989 0.960966 0.164397
O O4 0.901711 0.033001 0.293680
O O5 0.957791 0.750000 0.092538
O O6 0.759878 0.967037 0.098745
O O7 0.888836 0.021395 0.142622
O O8 0.229484 0.974242 0.988812
O O9 0.121513 0.750000 0.363460
O O10 0.420330 0.974490 0.287261
O O11 0.943423 0.016041 0.430716
O O12 0.700724 0.750000 0.057915
O O13 0.875004 0.250000 0.499417
O O14 0.560912 0.027731 0.587327
O O15 0.000000 0.000000 0.500000
O O16 0.407023 0.750000 0.638500
O O17 0.285497 0.955711 0.731326
O O18 0.592924 0.250000 0.243348
#
# Coordination Sequence:
#
# PCOD8071749 Si02
#       7
#     4   4   4   4   4   4   4
#     4  10  22  41  62  88 122 160 198 243 303 359
#     4  10  19  33  57  89 119 152 197 247 297 351
#     4  11  22  39  64  91 120 155 199 249 296 355
#     4   9  18  35  56  85 121 154 193 244 298 354
#     4  12  24  40  63  91 121 157 199 247 300 351
#     4  11  25  42  61  88 121 159 202 247 298 358
#     4  11  22  37  59  88 120 156 200 248 296 353
#
# _framework density 19.024937000000001
#
# number of rings (size 3 to 8) (size 9 to 14) (size 15 to 20)
#    0.000    1.429    2.857    3.000    0.000    4.571 
#    0.000    0.714    0.000    0.000    0.000    0.000 
#    0.000    0.000    0.000    0.000    0.000    0.000 
#
# Total GULP energy -347366.216163 kJ/mol
# GULP energy per Si atom -12405.936292 kJ/mol
# Density = 1.898164 g / cm^3
# Si number density = 19.024937 Si / 1000 Ang^3
#
#
#
# Elastic Constant Matrix: (Units=GPa)
#
#
# Indices 1 2 3 4 5 6 
#
# 1 85.6362 42.3872 29.0859 0.0000 -3.1938 0.0000
# 2 42.3872 98.7097 44.4940 0.0000 6.0254 0.0000
# 3 29.0859 44.4940 105.8194 0.0000 4.5450 0.0000
# 4 0.0000 0.0000 0.0000 39.2290 0.0000 -1.1279
# 5 -3.1938 6.0254 4.5450 0.0000 26.1535 0.0000
# 6 0.0000 0.0000 0.0000 -1.1279 0.0000 29.9803
#
#
#
# Elastic Compliance Matrix: (Units=1/GPa)
#
#
# Indices 1 2 3 4 5 6 
#
# 1 0.015414 -0.005995 -0.001870 0.000000 0.003588 0.000000
# 2 -0.005995 0.014934 -0.004486 0.000000 -0.003393 0.000000
# 3 -0.001870 -0.004486 0.011905 0.000000 -0.001264 0.000000
# 4 0.000000 0.000000 0.000000 0.025519 0.000000 0.000960
# 5 0.003588 -0.003393 -0.001264 0.000000 0.039675 0.000000
# 6 0.000000 0.000000 0.000000 0.000960 0.000000 0.033391
#
#
# Mechanical properties :
#
#
# Convention : Reuss Voigt Hill
#
# Bulk Modulus (GPa) = 56.97810 58.01106 57.49458
# Shear Modulus (GPa) = 29.17327 30.68576 29.92952
#
# Velocity S-wave (km/s) = 3.92014 4.02048 3.97063
# Velocity P-wave (km/s) = 7.10663 7.21877 7.16292
#
# Compressibility (1/GPa) = 0.01755060
#
# Stress axis : x y z
#
# Youngs Moduli (GPa) = 64.87791 66.96059 84.00159
#
# Poissons Ratio (x) = 0.40142 0.15709
# Poissons Ratio (y) = 0.38894 0.37682
# Poissons Ratio (z) = 0.12133 0.30038
#
# Static dielectric constant tensor:
#      x y z
#    x 3.315560 0.000000 0.147180 
#    y 0.000000 3.548760 0.000000 
#    z 0.147180 0.000000 3.825270 
# 
# 
# High freq. dielectric constant tensor:
#      x y z
#    x 1.719600 0.000000 0.005810 
#    y 0.000000 1.749620 0.000000 
#    z 0.005810 0.000000 1.755850 
# 
# From -- ./inp_files/70823.got.cif
#   From: 2010.06.25/outbox.cif.g09.slc.cpg/sg11_36_cif.got.tgz:70823.got - 2010.06.27 23:14:04.
