data_PCOD8071807
_publ_section_title
;
Structure prediction by ZEFSAII (Michael W. Deem and Ramdas Pophale) SiO2 
 PCOD8071807
Probable space group: P 21/M
;
_chemical_formula_sum "Si O2"
_cell_formula_units_Z 32
_cell_length_a 31.710904
_cell_length_b 9.130060
_cell_length_c 12.155163
_cell_angle_alpha 90.000000
_cell_angle_beta 29.564173
_cell_angle_gamma 90.000000
_cell_volume 1736.362880
_symmetry_space_group_name_H-M "P 21/M"
_symmetry_group_IT_number 11
_symmetry_cell_setting 'monoclinic'
loop_
_space_group_symop_operation_xyz
x,y,z
-x,1/2+y,-z
-x,-y,-z
x,1/2-y,z
loop_
_atom_site_type_symbol
_atom_site_label
_atom_site_fract_x
_atom_site_fract_y
_atom_site_fract_z
Si Si1 0.410927 0.082056 0.191509
Si Si2 0.894052 0.920581 0.143899
Si Si3 0.617453 0.582943 0.993849
Si Si4 0.284661 0.077005 0.851331
Si Si5 0.219878 0.076896 0.230848
Si Si6 0.251184 0.075508 0.689090
Si Si7 0.910233 0.420462 0.330025
Si Si8 0.522334 0.922885 0.561707
O O1 0.430622 0.250000 0.174690
O O2 0.340619 0.016842 0.435420
O O3 0.368286 0.066206 0.168261
O O4 0.500000 0.000000 0.000000
O O5 0.878618 0.750000 0.205058
O O6 0.829509 0.981049 0.197697
O O7 0.875438 0.008367 0.297157
O O8 0.989162 0.949458 0.884110
O O9 0.594683 0.750000 0.078174
O O10 0.539619 0.477743 0.201907
O O11 0.702322 0.533478 0.865403
O O12 0.279280 0.250000 0.870668
O O13 0.240258 0.019155 0.839743
O O14 0.382705 0.028133 0.622221
O O15 0.239398 0.015313 0.063847
O O16 0.203641 0.250000 0.268888
O O17 0.134944 0.995414 0.463592
O O18 0.253626 0.250000 0.680370
O O19 0.888144 0.250000 0.377517
O O20 0.513576 0.750000 0.567449
O O21 0.500000 0.000000 0.500000
#
# Coordination Sequence:
#
# PCOD8071807 Si02
#       8
#     4   4   4   4   4   4   4   4
#     4  10  20  33  51  74 104 137 171 215 261 308
#     4   9  18  35  58  80 103 134 169 209 258 311
#     4  10  20  34  51  74 103 137 178 218 261 311
#     4   9  18  32  52  76 101 134 179 218 248 302
#     4  10  19  34  53  74 103 137 173 213 256 306
#     4   9  17  33  56  77  98 135 180 212 248 303
#     4  10  20  33  53  82 109 130 164 214 263 311
#     4  11  20  33  52  75 103 136 175 218 259 304
#
# _framework density 18.429327000000001
#
# number of rings (size 3 to 8) (size 9 to 14) (size 15 to 20)
#    0.000    2.250    1.250    2.250    0.000    4.500 
#    0.000    2.500    0.000    3.000    0.000    0.000 
#    0.000    0.000    0.000    0.000    0.000    0.000 
#
# Total GULP energy -396803.664047 kJ/mol
# GULP energy per Si atom -12400.114501 kJ/mol
# Density = 1.838738 g / cm^3
# Si number density = 18.429327 Si / 1000 Ang^3
#
#
#
# Elastic Constant Matrix: (Units=GPa)
#
#
# Indices 1 2 3 4 5 6 
#
# 1 137.9967 29.5374 63.9192 0.0000 2.0835 0.0000
# 2 29.5374 48.6940 40.3281 0.0000 1.4465 0.0000
# 3 63.9192 40.3281 125.2848 0.0000 11.1732 0.0000
# 4 0.0000 0.0000 0.0000 32.0499 0.0000 1.1551
# 5 2.0835 1.4465 11.1732 0.0000 29.3045 0.0000
# 6 0.0000 0.0000 0.0000 1.1551 0.0000 18.8977
#
#
#
# Elastic Compliance Matrix: (Units=1/GPa)
#
#
# Indices 1 2 3 4 5 6 
#
# 1 0.009728 -0.002377 -0.004292 0.000000 0.001062 0.000000
# 2 -0.002377 0.028711 -0.008196 0.000000 0.001877 0.000000
# 3 -0.004292 -0.008196 0.013196 0.000000 -0.004321 0.000000
# 4 0.000000 0.000000 0.000000 0.031270 0.000000 -0.001911
# 5 0.001062 0.001877 -0.004321 0.000000 0.035604 0.000000
# 6 0.000000 0.000000 0.000000 -0.001911 0.000000 0.053033
#
#
# Mechanical properties :
#
#
# Convention : Reuss Voigt Hill
#
# Bulk Modulus (GPa) = 45.65817 64.39388 55.02602
# Shear Modulus (GPa) = 23.97230 27.92980 25.95105
#
# Velocity S-wave (km/s) = 3.61053 3.89718 3.75659
# Velocity P-wave (km/s) = 6.49690 7.43421 6.98131
#
# Compressibility (1/GPa) = 0.02190189
#
# Stress axis : x y z
#
# Youngs Moduli (GPa) = 102.80049 34.83008 75.78340
#
# Poissons Ratio (x) = 0.08280 0.32530
# Poissons Ratio (y) = 0.24438 0.62114
# Poissons Ratio (z) = 0.44127 0.28548
#
# Static dielectric constant tensor:
#      x y z
#    x 3.590740 0.000000 0.129040 
#    y 0.000000 3.313300 0.000000 
#    z 0.129040 0.000000 3.430870 
# 
# 
# High freq. dielectric constant tensor:
#      x y z
#    x 1.719080 0.000000 0.007290 
#    y 0.000000 1.685710 0.000000 
#    z 0.007290 0.000000 1.718030 
# 
# From -- ./inp_files/45127.got.cif
#   From: 2010.06.25/outbox.cif.g09.slc.cpg/sg11_23_cif.got.tgz:45127.got - 2010.06.27 23:14:04.
