data_PCOD8071212
_publ_section_title
;
Structure prediction by ZEFSAII (Michael W. Deem and Ramdas Pophale) SiO2 
 PCOD8071212
Probable space group: P 21/M
;
_chemical_formula_sum "Si O2"
_cell_formula_units_Z 32
_cell_length_a 16.679366
_cell_length_b 8.704767
_cell_length_c 11.977926
_cell_angle_alpha 90.000000
_cell_angle_beta 85.536349
_cell_angle_gamma 90.000000
_cell_volume 1733.800239
_symmetry_space_group_name_H-M "P 21/M"
_symmetry_group_IT_number 11
_symmetry_cell_setting 'monoclinic'
loop_
_space_group_symop_operation_xyz
x,y,z
-x,1/2+y,-z
-x,-y,-z
x,1/2-y,z
loop_
_atom_site_type_symbol
_atom_site_label
_atom_site_fract_x
_atom_site_fract_y
_atom_site_fract_z
Si Si1 0.467435 0.425545 0.234697
Si Si2 0.324044 0.073312 0.406191
Si Si3 0.267382 0.570540 0.631673
Si Si4 0.101482 0.071867 0.595868
Si Si5 0.338035 0.070103 0.068177
Si Si6 0.937637 0.571690 0.654181
Si Si7 0.786765 0.429682 0.764054
Si Si8 0.634086 0.571115 0.189114
O O1 0.496392 0.250000 0.217586
O O2 0.415027 0.445261 0.352792
O O3 0.414966 0.477940 0.133696
O O4 0.543732 0.535051 0.237553
O O5 0.295584 0.250000 0.399148
O O6 0.319926 0.019450 0.533954
O O7 0.264195 0.971503 0.339672
O O8 0.277024 0.750000 0.609593
O O9 0.174272 0.525157 0.638448
O O10 0.301941 0.526233 0.748274
O O11 0.117155 0.250000 0.617866
O O12 0.096422 0.036323 0.465133
O O13 0.019972 0.020269 0.665770
O O14 0.321396 0.250000 0.085273
O O15 0.259146 0.981303 0.119078
O O16 0.355349 0.021705 0.940244
O O17 0.955789 0.750000 0.669117
O O18 0.872752 0.514217 0.751037
O O19 0.802413 0.250000 0.764814
O O20 0.651215 0.750000 0.205078
#
# Coordination Sequence:
#
# PCOD8071212 Si02
#       8
#     4   4   4   4   4   4   4   4
#     4   9  19  36  58  82 108 136 176 232 283 324
#     4  10  20  36  55  78 110 146 181 222 274 328
#     4  12  24  37  55  78 111 149 185 224 270 328
#     4  10  20  34  54  80 113 147 180 221 266 320
#     4   9  20  38  58  80 108 143 183 229 276 323
#     4  10  19  32  54  82 115 147 178 220 267 319
#     4  11  20  31  54  85 114 143 179 225 273 322
#     4  11  23  38  57  79 106 145 188 227 274 327
#
# _framework density 18.456565999999999
#
# number of rings (size 3 to 8) (size 9 to 14) (size 15 to 20)
#    0.000    1.750    1.250    4.875    0.000    5.000 
#    0.000    0.000    0.000    0.750    0.000    0.000 
#    0.000    0.000    0.000    0.000    0.000    0.000 
#
# Total GULP energy -396965.096190 kJ/mol
# GULP energy per Si atom -12405.159256 kJ/mol
# Density = 1.841456 g / cm^3
# Si number density = 18.456566 Si / 1000 Ang^3
#
#
#
# Elastic Constant Matrix: (Units=GPa)
#
#
# Indices 1 2 3 4 5 6 
#
# 1 106.9565 31.1116 40.2833 0.0000 -10.1068 0.0000
# 2 31.1116 62.2270 17.6538 0.0000 -2.9990 0.0000
# 3 40.2833 17.6538 50.7825 0.0000 4.3184 0.0000
# 4 0.0000 0.0000 0.0000 25.4045 0.0000 -2.1363
# 5 -10.1068 -2.9990 4.3184 0.0000 22.3761 0.0000
# 6 0.0000 0.0000 0.0000 -2.1363 0.0000 36.2878
#
#
#
# Elastic Compliance Matrix: (Units=1/GPa)
#
#
# Indices 1 2 3 4 5 6 
#
# 1 0.015885 -0.004129 -0.011924 0.000000 0.008923 0.000000
# 2 -0.004129 0.019199 -0.003517 0.000000 0.001387 0.000000
# 3 -0.011924 -0.003517 0.031386 0.000000 -0.011914 0.000000
# 4 0.000000 0.000000 0.000000 0.039559 0.000000 0.002329
# 5 0.008923 0.001387 -0.011914 0.000000 0.051206 0.000000
# 6 0.000000 0.000000 0.000000 0.002329 0.000000 0.027695
#
#
# Mechanical properties :
#
#
# Convention : Reuss Voigt Hill
#
# Bulk Modulus (GPa) = 36.58926 44.22927 40.40926
# Shear Modulus (GPa) = 21.44269 25.54150 23.49209
#
# Velocity S-wave (km/s) = 3.41220 3.72408 3.57155
# Velocity P-wave (km/s) = 5.94910 6.51979 6.24097
#
# Compressibility (1/GPa) = 0.02733043
#
# Stress axis : x y z
#
# Youngs Moduli (GPa) = 62.95344 52.08554 31.86101
#
# Poissons Ratio (x) = 0.21506 0.37991
# Poissons Ratio (y) = 0.25994 0.11205
# Poissons Ratio (z) = 0.75066 0.18318
#
# Static dielectric constant tensor:
#      x y z
#    x 3.368710 0.000000 -0.168620 
#    y 0.000000 3.385650 0.000000 
#    z -0.168620 0.000000 3.280870 
# 
# 
# High freq. dielectric constant tensor:
#      x y z
#    x 1.716570 0.000000 -0.017670 
#    y 0.000000 1.725480 0.000000 
#    z -0.017670 0.000000 1.691530 
# 
# From -- ./inp_files/38246.got.cif
#   From: 2010.06.25/outbox.cif.g09.slc.cpg/sg11_20_cif.got.tgz:38246.got - 2010.06.27 23:14:04.
