data_PCOD8071477
_publ_section_title
;
Structure prediction by ZEFSAII (Michael W. Deem and Ramdas Pophale) SiO2 
 PCOD8071477
Probable space group: P 21/M
;
_chemical_formula_sum "Si O2"
_cell_formula_units_Z 32
_cell_length_a 15.508478
_cell_length_b 8.633226
_cell_length_c 22.538389
_cell_angle_alpha 90.000000
_cell_angle_beta 30.969769
_cell_angle_gamma 90.000000
_cell_volume 1552.826386
_symmetry_space_group_name_H-M "P 21/M"
_symmetry_group_IT_number 11
_symmetry_cell_setting 'monoclinic'
loop_
_space_group_symop_operation_xyz
x,y,z
-x,1/2+y,-z
-x,-y,-z
x,1/2-y,z
loop_
_atom_site_type_symbol
_atom_site_label
_atom_site_fract_x
_atom_site_fract_y
_atom_site_fract_z
Si Si1 0.992339 0.567539 0.742757
Si Si2 0.000533 0.568359 0.135626
Si Si3 0.847106 0.431572 0.716639
Si Si4 0.837012 0.073930 0.532173
Si Si5 0.659799 0.074039 0.515752
Si Si6 0.691563 0.432827 0.125248
Si Si7 0.680138 0.068449 0.266219
Si Si8 0.368981 0.431013 0.247095
O O1 0.977772 0.750000 0.741196
O O2 0.947417 0.521268 0.835742
O O3 0.181955 0.512366 0.615609
O O4 0.858891 0.485131 0.778020
O O5 0.008750 0.750000 0.143605
O O6 0.816736 0.521378 0.223749
O O7 0.132103 0.518049 0.007411
O O8 0.874565 0.250000 0.696573
O O9 0.668933 0.481274 0.792783
O O10 0.985637 0.519736 0.596622
O O11 0.852412 0.250000 0.546112
O O12 0.699597 0.061833 0.561714
O O13 0.782104 0.963575 0.618059
O O14 0.616909 0.250000 0.522896
O O15 0.499453 0.966249 0.597817
O O16 0.669115 0.250000 0.141871
O O17 0.685120 0.497958 0.196056
O O18 0.540567 0.499533 0.173936
O O19 0.718586 0.250000 0.246436
O O20 0.383563 0.250000 0.225380
#
# Coordination Sequence:
#
# PCOD8071477 Si02
#       8
#     4   4   4   4   4   4   4   4
#     4  10  22  42  62  85 117 153 197 244 289 341
#     4  11  23  41  62  85 114 154 198 241 293 347
#     4  11  22  36  56  85 117 154 194 235 287 349
#     4  10  19  33  53  83 120 156 192 235 287 346
#     4   9  19  35  57  85 118 151 187 237 291 343
#     4   9  21  39  60  87 119 152 193 244 291 341
#     4  11  21  37  61  90 119 150 191 238 293 350
#     4  11  20  35  57  84 117 154 193 240 291 342
#
# _framework density 20.607583999999999
#
# number of rings (size 3 to 8) (size 9 to 14) (size 15 to 20)
#    0.000    1.750    1.250    4.500    0.000    3.000 
#    0.000    5.000    0.000    0.000    0.000    0.000 
#    0.000    0.000    0.000    0.000    0.000    0.000 
#
# Total GULP energy -396890.403965 kJ/mol
# GULP energy per Si atom -12402.825124 kJ/mol
# Density = 2.056068 g / cm^3
# Si number density = 20.607584 Si / 1000 Ang^3
#
#
#
# Elastic Constant Matrix: (Units=GPa)
#
#
# Indices 1 2 3 4 5 6 
#
# 1 94.5542 16.1237 8.5267 0.0000 -7.9304 0.0000
# 2 16.1237 59.5500 11.6856 0.0000 -4.3379 0.0000
# 3 8.5267 11.6856 18.5564 0.0000 3.1084 0.0000
# 4 0.0000 0.0000 0.0000 21.2405 0.0000 0.7599
# 5 -7.9304 -4.3379 3.1084 0.0000 28.0140 0.0000
# 6 0.0000 0.0000 0.0000 0.7599 0.0000 34.0501
#
#
#
# Elastic Compliance Matrix: (Units=1/GPa)
#
#
# Indices 1 2 3 4 5 6 
#
# 1 0.011629 -0.001973 -0.004689 0.000000 0.003507 0.000000
# 2 -0.001973 0.020039 -0.012369 0.000000 0.003917 0.000000
# 3 -0.004689 -0.012369 0.065596 0.000000 -0.010521 0.000000
# 4 0.000000 0.000000 0.000000 0.047117 0.000000 -0.001051
# 5 0.003507 0.003917 -0.010521 0.000000 0.038463 0.000000
# 6 0.000000 0.000000 0.000000 -0.001051 0.000000 0.029392
#
#
# Mechanical properties :
#
#
# Convention : Reuss Voigt Hill
#
# Bulk Modulus (GPa) = 16.89103 27.25918 22.07511
# Shear Modulus (GPa) = 18.51629 25.74923 22.13276
#
# Velocity S-wave (km/s) = 3.00078 3.53866 3.28076
# Velocity P-wave (km/s) = 4.49673 5.47290 5.00865
#
# Compressibility (1/GPa) = 0.05920303
#
# Stress axis : x y z
#
# Youngs Moduli (GPa) = 85.98931 49.90168 15.24492
#
# Poissons Ratio (x) = 0.09847 0.07148
# Poissons Ratio (y) = 0.16968 0.18856
# Poissons Ratio (z) = 0.40316 0.61723
#
# Static dielectric constant tensor:
#      x y z
#    x 3.982440 0.000000 -0.122510 
#    y 0.000000 3.548540 0.000000 
#    z -0.122510 0.000000 3.551790 
# 
# 
# High freq. dielectric constant tensor:
#      x y z
#    x 1.816500 0.000000 -0.009120 
#    y 0.000000 1.798030 0.000000 
#    z -0.009120 0.000000 1.784390 
# 
# From -- ./inp_files/68982.got.cif
#   From: 2010.06.25/outbox.cif.g09.slc.cpg/sg11_35_cif.got.tgz:68982.got - 2010.06.27 23:14:04.
