data_PCOD8071653
_publ_section_title
;
Structure prediction by ZEFSAII (Michael W. Deem and Ramdas Pophale) SiO2 
 PCOD8071653
Probable space group: P 21/M
;
_chemical_formula_sum "Si O2"
_cell_formula_units_Z 28
_cell_length_a 18.777925
_cell_length_b 9.332724
_cell_length_c 14.859636
_cell_angle_alpha 90.000000
_cell_angle_beta 142.037778
_cell_angle_gamma 90.000000
_cell_volume 1601.914782
_symmetry_space_group_name_H-M "P 21/M"
_symmetry_group_IT_number 11
_symmetry_cell_setting 'monoclinic'
loop_
_space_group_symop_operation_xyz
x,y,z
-x,1/2+y,-z
-x,-y,-z
x,1/2-y,z
loop_
_atom_site_type_symbol
_atom_site_label
_atom_site_fract_x
_atom_site_fract_y
_atom_site_fract_z
Si Si1 0.515390 0.085682 0.606138
Si Si2 0.408673 0.085803 0.041087
Si Si3 0.290331 0.910825 0.072536
Si Si4 0.240173 0.582920 0.765815
Si Si5 0.930163 0.411058 0.239612
Si Si6 0.154816 0.583384 0.490202
Si Si7 0.609527 0.414196 0.363956
O O1 0.478642 0.250000 0.554114
O O2 0.651329 0.075227 0.770839
O O3 0.500000 0.000000 0.500000
O O4 0.434130 0.021458 0.602998
O O5 0.379054 0.250000 0.990933
O O6 0.543990 0.064035 0.201989
O O7 0.342312 0.036033 0.064224
O O8 0.363509 0.992885 0.911422
O O9 0.319371 0.750000 0.062352
O O10 0.150536 0.927841 0.930602
O O11 0.267686 0.750000 0.784070
O O12 0.147277 0.547910 0.750855
O O13 0.189141 0.520425 0.622149
O O14 0.976820 0.250000 0.296108
O O15 0.039246 0.512443 0.337505
O O16 0.128984 0.750000 0.474434
O O17 0.256119 0.552787 0.519634
O O18 0.590824 0.250000 0.377744
#
# Coordination Sequence:
#
# PCOD8071653 Si02
#       7
#     4   4   4   4   4   4   4
#     4  10  19  33  56  81 101 121 147 184 233 288
#     4   9  16  27  45  67  91 121 159 201 237 275
#     4   8  16  31  49  70  96 124 151 186 236 282
#     4   9  18  31  45  64  93 128 165 205 246 280
#     4   9  17  30  47  67  93 125 164 203 233 271
#     4  10  20  32  46  65  94 132 166 199 240 280
#     4   9  19  34  48  68  99 128 156 193 239 287
#
# _framework density 17.479081999999998
#
# number of rings (size 3 to 8) (size 9 to 14) (size 15 to 20)
#    0.000    2.857    0.000    2.143    0.000    5.143 
#    0.000    0.000    0.000    0.857    0.000    0.000 
#    0.000    0.000    0.000    0.000    0.000    0.000 
#
# Total GULP energy -346987.325609 kJ/mol
# GULP energy per Si atom -12392.404486 kJ/mol
# Density = 1.743930 g / cm^3
# Si number density = 17.479082 Si / 1000 Ang^3
#
#
#
# Elastic Constant Matrix: (Units=GPa)
#
#
# Indices 1 2 3 4 5 6 
#
# 1 46.5008 34.1813 43.2527 0.0000 -1.0915 0.0000
# 2 34.1813 79.8932 50.5883 0.0000 0.6558 0.0000
# 3 43.2527 50.5883 115.7232 0.0000 -3.1074 0.0000
# 4 0.0000 0.0000 0.0000 33.1683 0.0000 0.4144
# 5 -1.0915 0.6558 -3.1074 0.0000 23.2888 0.0000
# 6 0.0000 0.0000 0.0000 0.4144 0.0000 21.1184
#
#
#
# Elastic Compliance Matrix: (Units=1/GPa)
#
#
# Indices 1 2 3 4 5 6 
#
# 1 0.038040 -0.010082 -0.009790 0.000000 0.000761 0.000000
# 2 -0.010082 0.020032 -0.005035 0.000000 -0.001708 0.000000
# 3 -0.009790 -0.005035 0.014545 0.000000 0.001624 0.000000
# 4 0.000000 0.000000 0.000000 0.030157 0.000000 -0.000592
# 5 0.000761 -0.001708 0.001624 0.000000 0.043239 0.000000
# 6 0.000000 0.000000 0.000000 -0.000592 0.000000 0.047364
#
#
# Mechanical properties :
#
#
# Convention : Reuss Voigt Hill
#
# Bulk Modulus (GPa) = 43.85278 55.35130 49.60204
# Shear Modulus (GPa) = 19.93685 23.12144 21.52914
#
# Velocity S-wave (km/s) = 3.38096 3.64099 3.51338
# Velocity P-wave (km/s) = 6.35487 7.02934 6.70060
#
# Compressibility (1/GPa) = 0.02280357
#
# Stress axis : x y z
#
# Youngs Moduli (GPa) = 26.28799 49.91967 68.75264
#
# Poissons Ratio (x) = 0.50330 0.67309
# Poissons Ratio (y) = 0.26504 0.34614
# Poissons Ratio (z) = 0.25736 0.25133
#
# Static dielectric constant tensor:
#      x y z
#    x 2.799690 0.000000 0.041500 
#    y 0.000000 3.274650 0.000000 
#    z 0.041500 0.000000 3.547190 
# 
# 
# High freq. dielectric constant tensor:
#      x y z
#    x 1.625770 0.000000 0.006390 
#    y 0.000000 1.679560 0.000000 
#    z 0.006390 0.000000 1.685140 
# 
# From -- ./inp_files/37112.got.cif
#   From: 2010.06.25/outbox.cif.g09.slc.cpg/sg11_19_cif.got.tgz:37112.got - 2010.06.27 23:14:04.
