data_PCOD8071953
_publ_section_title
;
Structure prediction by ZEFSAII (Michael W. Deem and Ramdas Pophale) SiO2 
 PCOD8071953
Probable space group: P 21/M
;
_chemical_formula_sum "Si O2"
_cell_formula_units_Z 32
_cell_length_a 11.858302
_cell_length_b 8.889783
_cell_length_c 28.596023
_cell_angle_alpha 90.000000
_cell_angle_beta 148.557054
_cell_angle_gamma 90.000000
_cell_volume 1572.526246
_symmetry_space_group_name_H-M "P 21/M"
_symmetry_group_IT_number 11
_symmetry_cell_setting 'monoclinic'
loop_
_space_group_symop_operation_xyz
x,y,z
-x,1/2+y,-z
-x,-y,-z
x,1/2-y,z
loop_
_atom_site_type_symbol
_atom_site_label
_atom_site_fract_x
_atom_site_fract_y
_atom_site_fract_z
Si Si1 0.537934 0.928436 0.273895
Si Si2 0.947748 0.921634 0.187391
Si Si3 0.420124 0.928365 0.334856
Si Si4 0.874423 0.077235 0.332992
Si Si5 0.328659 0.578424 0.836647
Si Si6 0.215076 0.076045 0.968608
Si Si7 0.882368 0.928365 0.913973
Si Si8 0.362435 0.427996 0.493050
O O1 0.509695 0.750000 0.260051
O O2 0.519874 0.986310 0.321151
O O3 0.775156 0.977790 0.339706
O O4 0.358228 0.007060 0.177682
O O5 0.982455 0.750000 0.213800
O O6 0.777970 0.939060 0.084963
O O7 0.177422 0.992292 0.253846
O O8 0.862974 0.001261 0.203311
O O9 0.417887 0.750000 0.332344
O O10 0.554989 0.985782 0.427230
O O11 0.887926 0.250000 0.354464
O O12 0.712809 0.057971 0.232493
O O13 0.112271 0.020825 0.401989
O O14 0.330050 0.750000 0.853185
O O15 0.562906 0.509722 0.931808
O O16 0.175223 0.250000 0.969494
O O17 0.019612 0.973578 0.917184
O O18 0.867865 0.750000 0.915160
O O19 0.000000 0.000000 0.000000
O O20 0.500000 0.500000 0.500000
O O21 0.386779 0.250000 0.496546
#
# Coordination Sequence:
#
# PCOD8071953 Si02
#       8
#     4   4   4   4   4   4   4   4
#     4  11  22  40  63  86 117 156 202 248 299 362
#     4  10  19  34  56  80 112 150 195 246 295 353
#     4   9  19  37  60  85 116 156 197 246 305 356
#     4  10  22  39  57  85 122 155 194 249 306 354
#     4  10  21  35  53  79 115 153 191 242 297 350
#     4  10  20  36  55  79 114 155 196 242 296 354
#     4  12  24  38  59  86 118 158 203 249 295 353
#     4  10  21  39  63  89 121 158 198 247 303 363
#
# _framework density 20.349421
#
# number of rings (size 3 to 8) (size 9 to 14) (size 15 to 20)
#    0.000    1.750    1.250    3.375    0.000    3.500 
#    0.000    1.250    0.000    0.000    0.000    0.000 
#    0.000    0.000    0.000    0.000    0.000    0.000 
#
# Total GULP energy -396840.243648 kJ/mol
# GULP energy per Si atom -12401.257614 kJ/mol
# Density = 2.030310 g / cm^3
# Si number density = 20.349421 Si / 1000 Ang^3
#
#
#
# Elastic Constant Matrix: (Units=GPa)
#
#
# Indices 1 2 3 4 5 6 
#
# 1 131.6705 45.3333 43.2032 0.0000 14.9400 0.0000
# 2 45.3333 69.8073 28.7722 0.0000 3.1979 0.0000
# 3 43.2032 28.7722 114.5907 0.0000 5.8307 0.0000
# 4 0.0000 0.0000 0.0000 20.6993 0.0000 8.2035
# 5 14.9400 3.1979 5.8307 0.0000 36.8315 0.0000
# 6 0.0000 0.0000 0.0000 8.2035 0.0000 34.0325
#
#
#
# Elastic Compliance Matrix: (Units=1/GPa)
#
#
# Indices 1 2 3 4 5 6 
#
# 1 0.010802 -0.005856 -0.002425 0.000000 -0.003490 0.000000
# 2 -0.005856 0.019174 -0.002664 0.000000 0.001132 0.000000
# 3 -0.002425 -0.002664 0.010331 0.000000 -0.000421 0.000000
# 4 0.000000 0.000000 0.000000 0.053414 0.000000 -0.012875
# 5 -0.003490 0.001132 -0.000421 0.000000 0.028534 0.000000
# 6 0.000000 0.000000 0.000000 -0.012875 0.000000 0.032487
#
#
# Mechanical properties :
#
#
# Convention : Reuss Voigt Hill
#
# Bulk Modulus (GPa) = 54.29460 61.18733 57.74096
# Shear Modulus (GPa) = 27.35643 31.56330 29.45987
#
# Velocity S-wave (km/s) = 3.67049 3.94263 3.80899
# Velocity P-wave (km/s) = 6.68599 7.13158 6.91237
#
# Compressibility (1/GPa) = 0.01841804
#
# Stress axis : x y z
#
# Youngs Moduli (GPa) = 92.57178 52.15337 96.79335
#
# Poissons Ratio (x) = 0.30540 0.23471
# Poissons Ratio (y) = 0.54209 0.25788
# Poissons Ratio (z) = 0.22447 0.13895
#
# Static dielectric constant tensor:
#      x y z
#    x 3.736260 0.000000 0.009940 
#    y 0.000000 3.501520 0.000000 
#    z 0.009940 0.000000 3.882670 
# 
# 
# High freq. dielectric constant tensor:
#      x y z
#    x 1.805200 0.000000 0.000760 
#    y 0.000000 1.768570 0.000000 
#    z 0.000760 0.000000 1.801480 
# 
# From -- ./inp_files/38210.got.cif
#   From: 2010.06.25/outbox.cif.g09.slc.cpg/sg11_20_cif.got.tgz:38210.got - 2010.06.27 23:14:04.
