data_PCOD8071265
_publ_section_title
;
Structure prediction by ZEFSAII (Michael W. Deem and Ramdas Pophale) SiO2 
 PCOD8071265
Probable space group: P 21/M
;
_chemical_formula_sum "Si O2"
_cell_formula_units_Z 32
_cell_length_a 16.278020
_cell_length_b 8.803048
_cell_length_c 12.113154
_cell_angle_alpha 90.000000
_cell_angle_beta 88.051555
_cell_angle_gamma 90.000000
_cell_volume 1734.765256
_symmetry_space_group_name_H-M "P 21/M"
_symmetry_group_IT_number 11
_symmetry_cell_setting 'monoclinic'
loop_
_space_group_symop_operation_xyz
x,y,z
-x,1/2+y,-z
-x,-y,-z
x,1/2-y,z
loop_
_atom_site_type_symbol
_atom_site_label
_atom_site_fract_x
_atom_site_fract_y
_atom_site_fract_z
Si Si1 0.126583 0.071547 0.990799
Si Si2 0.775651 0.429310 0.369717
Si Si3 0.723349 0.430346 0.130392
Si Si4 0.629366 0.927851 0.492336
Si Si5 0.961464 0.429996 0.393515
Si Si6 0.515696 0.425617 0.660385
Si Si7 0.548073 0.928343 0.098593
Si Si8 0.983642 0.071850 0.829092
O O1 0.131196 0.250000 0.011977
O O2 0.065872 0.031113 0.892907
O O3 0.215759 0.005862 0.960233
O O4 0.095585 0.990350 0.103013
O O5 0.770233 0.250000 0.375579
O O6 0.746726 0.488725 0.251409
O O7 0.717328 0.496551 0.467013
O O8 0.867684 0.487146 0.387586
O O9 0.729814 0.250000 0.120671
O O10 0.633145 0.484732 0.105003
O O11 0.642633 0.750000 0.493479
O O12 0.566834 0.980146 0.398585
O O13 0.594017 0.981363 0.612104
O O14 0.966505 0.250000 0.398246
O O15 0.013476 0.488294 0.287623
O O16 0.000000 0.500000 0.500000
O O17 0.531543 0.250000 0.633720
O O18 0.506343 0.457640 0.790104
O O19 0.563995 0.750000 0.079974
O O20 0.500000 0.000000 0.000000
O O21 0.973766 0.250000 0.810672
#
# Coordination Sequence:
#
# PCOD8071265 Si02
#       8
#     4   4   4   4   4   4   4   4
#     4  10  20  34  57  87 118 150 189 240 288 339
#     4  10  21  36  57  84 116 149 188 235 284 337
#     4  11  21  36  59  87 116 150 192 239 287 339
#     4  10  19  32  56  86 113 143 186 234 280 332
#     4  11  23  40  59  84 117 155 195 237 289 348
#     4   9  19  35  54  80 115 149 183 228 282 334
#     4  11  23  40  59  84 117 154 193 235 286 346
#     4  10  20  35  57  85 117 153 191 235 290 345
#
# _framework density 18.446299
#
# number of rings (size 3 to 8) (size 9 to 14) (size 15 to 20)
#    0.000    1.750    2.500    2.250    0.000    4.000 
#    0.000    1.250    0.000    4.500    0.000    0.000 
#    0.000    0.000    0.000    0.000    0.000    0.000 
#
# Total GULP energy -396959.888121 kJ/mol
# GULP energy per Si atom -12404.996504 kJ/mol
# Density = 1.840431 g / cm^3
# Si number density = 18.446299 Si / 1000 Ang^3
#
#
#
# Elastic Constant Matrix: (Units=GPa)
#
#
# Indices 1 2 3 4 5 6 
#
# 1 104.2926 29.2349 54.9157 0.0000 -7.3974 0.0000
# 2 29.2349 50.5363 31.0993 0.0000 -0.2178 0.0000
# 3 54.9157 31.0993 114.8297 0.0000 -3.8296 0.0000
# 4 0.0000 0.0000 0.0000 33.0896 0.0000 -4.2738
# 5 -7.3974 -0.2178 -3.8296 0.0000 31.9061 0.0000
# 6 0.0000 0.0000 0.0000 -4.2738 0.0000 33.3958
#
#
#
# Elastic Compliance Matrix: (Units=1/GPa)
#
#
# Indices 1 2 3 4 5 6 
#
# 1 0.013878 -0.004783 -0.005257 0.000000 0.002554 0.000000
# 2 -0.004783 0.025405 -0.004643 0.000000 -0.001493 0.000000
# 3 -0.005257 -0.004643 0.012488 0.000000 0.000249 0.000000
# 4 0.000000 0.000000 0.000000 0.030729 0.000000 0.003932
# 5 0.002554 -0.001493 0.000249 0.000000 0.031954 0.000000
# 6 0.000000 0.000000 0.000000 0.003932 0.000000 0.030447
#
#
# Mechanical properties :
#
#
# Convention : Reuss Voigt Hill
#
# Bulk Modulus (GPa) = 44.62866 55.57318 50.10092
# Shear Modulus (GPa) = 27.51262 29.97221 28.74241
#
# Velocity S-wave (km/s) = 3.86618 4.03530 3.95164
# Velocity P-wave (km/s) = 6.64652 7.20444 6.93109
#
# Compressibility (1/GPa) = 0.02240712
#
# Stress axis : x y z
#
# Youngs Moduli (GPa) = 72.05624 39.36187 80.07558
#
# Poissons Ratio (x) = 0.18825 0.42092
# Poissons Ratio (y) = 0.34461 0.37180
# Poissons Ratio (z) = 0.37877 0.18276
#
# Static dielectric constant tensor:
#      x y z
#    x 3.350270 0.000000 -0.150810 
#    y 0.000000 3.418220 0.000000 
#    z -0.150810 0.000000 3.353230 
# 
# 
# High freq. dielectric constant tensor:
#      x y z
#    x 1.709090 0.000000 -0.021640 
#    y 0.000000 1.725990 0.000000 
#    z -0.021640 0.000000 1.709410 
# 
# From -- ./inp_files/38108.got.cif
#   From: 2010.06.25/outbox.cif.g09.slc.cpg/sg11_20_cif.got.tgz:38108.got - 2010.06.27 23:14:04.
