data_PCOD8071974
_publ_section_title
;
Structure prediction by ZEFSAII (Michael W. Deem and Ramdas Pophale) SiO2 
 PCOD8071974
Probable space group: P 21/M
;
_chemical_formula_sum "Si O2"
_cell_formula_units_Z 28
_cell_length_a 31.338583
_cell_length_b 8.516143
_cell_length_c 31.335187
_cell_angle_alpha 90.000000
_cell_angle_beta 170.540788
_cell_angle_gamma 90.000000
_cell_volume 1374.397183
_symmetry_space_group_name_H-M "P 21/M"
_symmetry_group_IT_number 11
_symmetry_cell_setting 'monoclinic'
loop_
_space_group_symop_operation_xyz
x,y,z
-x,1/2+y,-z
-x,-y,-z
x,1/2-y,z
loop_
_atom_site_type_symbol
_atom_site_label
_atom_site_fract_x
_atom_site_fract_y
_atom_site_fract_z
Si Si1 0.373110 0.563425 0.614499
Si Si2 0.052874 0.564022 0.954703
Si Si3 0.761442 0.936246 0.237859
Si Si4 0.527332 0.935396 0.479929
Si Si5 0.129741 0.936078 0.747216
Si Si6 0.897222 0.936169 0.090161
Si Si7 0.604930 0.063483 0.266750
O O1 0.375924 0.750000 0.615604
O O2 0.352776 0.506450 0.643096
O O3 0.130451 0.494704 0.348842
O O4 0.631742 0.494777 0.847667
O O5 0.055577 0.750000 0.952371
O O6 0.069008 0.487647 0.924703
O O7 0.792995 0.502817 0.721238
O O8 0.292140 0.501873 0.218930
O O9 0.762175 0.750000 0.239558
O O10 0.774093 0.995298 0.202304
O O11 0.000000 0.000000 0.500000
O O12 0.500000 0.000000 0.000000
O O13 0.523714 0.750000 0.478886
O O14 0.500000 0.000000 0.500000
O O15 0.112430 0.750000 0.727734
O O16 0.845157 0.003790 0.475896
O O17 0.334948 0.988362 0.985326
O O18 0.897191 0.750000 0.092322
O O19 0.582916 0.250000 0.241129
#
# Coordination Sequence:
#
# PCOD8071974 Si02
#       7
#     4   4   4   4   4   4   4
#     4   9  19  35  57  83 112 144 188 239 283 328
#     4  10  21  36  52  76 108 140 171 216 272 328
#     4  12  25  44  67  94 125 163 206 251 304 362
#     4  10  21  36  54  75 103 136 175 218 267 321
#     4  12  25  42  62  92 129 162 200 253 305 357
#     4  10  19  34  56  82 108 142 185 230 275 330
#     4  11  22  41  66  90 119 163 208 249 300 360
#
# _framework density 20.372567
#
# number of rings (size 3 to 8) (size 9 to 14) (size 15 to 20)
#    0.000    1.429    0.000    6.000    0.000    3.429 
#    0.000    4.286    0.000    0.000    0.000    0.000 
#    0.000    0.000    0.000    0.000    0.000    0.000 
#
# Total GULP energy -347339.854329 kJ/mol
# GULP energy per Si atom -12404.994797 kJ/mol
# Density = 2.032620 g / cm^3
# Si number density = 20.372567 Si / 1000 Ang^3
#
#
#
# Elastic Constant Matrix: (Units=GPa)
#
#
# Indices 1 2 3 4 5 6 
#
# 1 142.1479 51.2953 52.8082 0.0000 -1.8383 0.0000
# 2 51.2953 174.4875 53.7376 0.0000 -7.2513 0.0000
# 3 52.8082 53.7376 159.3540 0.0000 -3.3704 0.0000
# 4 0.0000 0.0000 0.0000 23.3857 0.0000 -2.1419
# 5 -1.8383 -7.2513 -3.3704 0.0000 49.2538 0.0000
# 6 0.0000 0.0000 0.0000 -2.1419 0.0000 30.4506
#
#
#
# Elastic Compliance Matrix: (Units=1/GPa)
#
#
# Indices 1 2 3 4 5 6 
#
# 1 0.008513 -0.001827 -0.002207 0.000000 -0.000102 0.000000
# 2 -0.001827 0.006819 -0.001677 0.000000 0.000821 0.000000
# 3 -0.002207 -0.001677 0.007576 0.000000 0.000189 0.000000
# 4 0.000000 0.000000 0.000000 0.043038 0.000000 0.003027
# 5 -0.000102 0.000821 0.000189 0.000000 0.020433 0.000000
# 6 0.000000 0.000000 0.000000 0.003027 0.000000 0.033053
#
#
# Mechanical properties :
#
#
# Convention : Reuss Voigt Hill
#
# Bulk Modulus (GPa) = 87.06158 87.96353 87.51255
# Shear Modulus (GPa) = 37.12440 41.82790 39.47615
#
# Velocity S-wave (km/s) = 4.27344 4.53608 4.40672
# Velocity P-wave (km/s) = 8.19617 8.40868 8.30311
#
# Compressibility (1/GPa) = 0.01148612
#
# Stress axis : x y z
#
# Youngs Moduli (GPa) = 117.46913 146.65662 131.99373
#
# Poissons Ratio (x) = 0.26796 0.29132
# Poissons Ratio (y) = 0.21463 0.22129
# Poissons Ratio (z) = 0.25927 0.24588
#
# Static dielectric constant tensor:
#      x y z
#    x 3.826520 0.000000 -0.311410 
#    y 0.000000 3.478110 0.000000 
#    z -0.311410 0.000000 -1.188760 
# 
# 
# High freq. dielectric constant tensor:
#      x y z
#    x 1.815400 0.000000 0.000080 
#    y 0.000000 1.781480 0.000000 
#    z 0.000080 0.000000 1.820160 
# 
# From -- ./inp_files/73843.got.cif
#   From: 2010.06.25/outbox.cif.g09.slc.cpg/sg11_37_cif.got.tgz:73843.got - 2010.06.27 23:14:04.
