data_PCOD8071248
_publ_section_title
;
Structure prediction by ZEFSAII (Michael W. Deem and Ramdas Pophale) SiO2 
 PCOD8071248
Probable space group: P 21/M
;
_chemical_formula_sum "Si O2"
_cell_formula_units_Z 32
_cell_length_a 11.272854
_cell_length_b 9.077461
_cell_length_c 31.381196
_cell_angle_alpha 90.000000
_cell_angle_beta 148.056535
_cell_angle_gamma 90.000000
_cell_volume 1698.990426
_symmetry_space_group_name_H-M "P 21/M"
_symmetry_group_IT_number 11
_symmetry_cell_setting 'monoclinic'
loop_
_space_group_symop_operation_xyz
x,y,z
-x,1/2+y,-z
-x,-y,-z
x,1/2-y,z
loop_
_atom_site_type_symbol
_atom_site_label
_atom_site_fract_x
_atom_site_fract_y
_atom_site_fract_z
Si Si1 0.862252 0.924932 0.652267
Si Si2 0.404140 0.917648 0.729324
Si Si3 0.640125 0.078658 0.186386
Si Si4 0.652631 0.077417 0.733748
Si Si5 0.883632 0.920642 0.563791
Si Si6 0.521239 0.425027 0.401298
Si Si7 0.164635 0.078831 0.898613
Si Si8 0.543219 0.077664 0.947613
O O1 0.872932 0.750000 0.654780
O O2 0.809509 0.977908 0.588101
O O3 0.673702 0.985300 0.626734
O O4 0.105800 0.982853 0.741352
O O5 0.471337 0.750000 0.738830
O O6 0.442742 0.948651 0.790905
O O7 0.147247 0.944982 0.638075
O O8 0.561465 0.029850 0.751963
O O9 0.629276 0.250000 0.171087
O O10 0.477206 0.989837 0.105564
O O11 0.614680 0.250000 0.715492
O O12 0.913153 0.034461 0.809717
O O13 0.515701 0.988844 0.656649
O O14 0.818912 0.750000 0.537746
O O15 0.759305 0.018691 0.490819
O O16 0.522635 0.250000 0.399393
O O17 0.185727 0.250000 0.916381
O O18 0.320480 0.035808 0.906238
O O19 0.239023 0.988896 0.962960
O O20 0.579122 0.250000 0.954363
#
# Coordination Sequence:
#
# PCOD8071248 Si02
#       8
#     4   4   4   4   4   4   4   4
#     4   8  16  31  52  78 106 137 170 207 255 309
#     4   9  20  38  57  75  99 136 178 218 257 300
#     4   9  17  33  56  78 104 138 172 208 256 308
#     4  11  23  38  55  74 101 137 175 216 259 301
#     4   9  18  35  55  75 103 136 172 214 259 304
#     4  11  21  32  51  79 107 135 171 212 257 313
#     4   9  20  37  54  77 109 140 168 204 254 305
#     4  10  19  32  55  85 111 134 165 205 250 305
#
# _framework density 18.834714000000002
#
# number of rings (size 3 to 8) (size 9 to 14) (size 15 to 20)
#    0.000    2.500    0.000    3.750    0.000    3.000 
#    0.000    3.750    0.000    0.000    0.000    0.000 
#    0.000    0.000    0.000    0.000    0.000    0.000 
#
# Total GULP energy -396881.321622 kJ/mol
# GULP energy per Si atom -12402.541301 kJ/mol
# Density = 1.879185 g / cm^3
# Si number density = 18.834714 Si / 1000 Ang^3
#
#
#
# Elastic Constant Matrix: (Units=GPa)
#
#
# Indices 1 2 3 4 5 6 
#
# 1 64.8569 31.8542 27.6486 0.0000 -8.8481 0.0000
# 2 31.8542 70.4337 48.6685 0.0000 -10.7251 0.0000
# 3 27.6486 48.6685 102.3414 0.0000 -28.5445 0.0000
# 4 0.0000 0.0000 0.0000 26.8745 0.0000 -2.5358
# 5 -8.8481 -10.7251 -28.5445 0.0000 22.1025 0.0000
# 6 0.0000 0.0000 0.0000 -2.5358 0.0000 29.0000
#
#
#
# Elastic Compliance Matrix: (Units=1/GPa)
#
#
# Indices 1 2 3 4 5 6 
#
# 1 0.020153 -0.008168 -0.000649 0.000000 0.003265 0.000000
# 2 -0.008168 0.024717 -0.011120 0.000000 -0.005637 0.000000
# 3 -0.000649 -0.011120 0.021346 0.000000 0.021912 0.000000
# 4 0.000000 0.000000 0.000000 0.037520 0.000000 0.003281
# 5 0.003265 -0.005637 0.021912 0.000000 0.072114 0.000000
# 6 0.000000 0.000000 0.000000 0.003281 0.000000 0.034770
#
#
# Mechanical properties :
#
#
# Convention : Reuss Voigt Hill
#
# Bulk Modulus (GPa) = 37.96284 50.44162 44.20223
# Shear Modulus (GPa) = 19.28458 24.22612 21.75535
#
# Velocity S-wave (km/s) = 3.20329 3.59032 3.40231
# Velocity P-wave (km/s) = 5.82074 6.63525 6.24129
#
# Compressibility (1/GPa) = 0.02634155
#
# Stress axis : x y z
#
# Youngs Moduli (GPa) = 49.62125 40.45773 46.84675
#
# Poissons Ratio (x) = 0.33047 0.03041
# Poissons Ratio (y) = 0.40533 0.52092
# Poissons Ratio (z) = 0.03221 0.44988
#
# Static dielectric constant tensor:
#      x y z
#    x 3.399970 0.000000 -0.023210 
#    y 0.000000 3.237340 0.000000 
#    z -0.023210 0.000000 3.403450 
# 
# 
# High freq. dielectric constant tensor:
#      x y z
#    x 1.722310 0.000000 -0.008290 
#    y 0.000000 1.719920 0.000000 
#    z -0.008290 0.000000 1.734400 
# 
# From -- ./inp_files/73149.got.cif
#   From: 2010.06.25/outbox.cif.g09.slc.cpg/sg11_37_cif.got.tgz:73149.got - 2010.06.27 23:14:04.
