data_PCOD8071970
_publ_section_title
;
Structure prediction by ZEFSAII (Michael W. Deem and Ramdas Pophale) SiO2 
 PCOD8071970
Probable space group: P 21/M
;
_chemical_formula_sum "Si O2"
_cell_formula_units_Z 28
_cell_length_a 14.446540
_cell_length_b 8.882364
_cell_length_c 16.249735
_cell_angle_alpha 90.000000
_cell_angle_beta 39.822621
_cell_angle_gamma 90.000000
_cell_volume 1335.361396
_symmetry_space_group_name_H-M "P 21/M"
_symmetry_group_IT_number 11
_symmetry_cell_setting 'monoclinic'
loop_
_space_group_symop_operation_xyz
x,y,z
-x,1/2+y,-z
-x,-y,-z
x,1/2-y,z
loop_
_atom_site_type_symbol
_atom_site_label
_atom_site_fract_x
_atom_site_fract_y
_atom_site_fract_z
Si Si1 0.421209 0.571336 0.476994
Si Si2 0.943563 0.084195 0.459929
Si Si3 0.656991 0.927367 0.903307
Si Si4 0.413067 0.073773 0.798893
Si Si5 0.820899 0.428550 0.943710
Si Si6 0.668510 0.083627 0.738502
Si Si7 0.089778 0.929835 0.696824
O O1 0.500000 0.500000 0.500000
O O2 0.427880 0.750000 0.477252
O O3 0.504755 0.513647 0.338273
O O4 0.254822 0.516134 0.593691
O O5 0.011627 0.250000 0.414721
O O6 0.769632 0.088707 0.589041
O O7 0.970589 0.014314 0.351473
O O8 0.000000 0.000000 0.500000
O O9 0.649546 0.750000 0.923170
O O10 0.746259 0.001655 0.914759
O O11 0.731125 0.966875 0.764250
O O12 0.500000 0.000000 0.000000
O O13 0.379059 0.250000 0.813848
O O14 0.509616 0.040139 0.814238
O O15 0.263428 0.984015 0.916525
O O16 0.819958 0.250000 0.940774
O O17 0.986594 0.489407 0.834213
O O18 0.662897 0.250000 0.783216
O O19 0.078029 0.750000 0.712560
#
# Coordination Sequence:
#
# PCOD8071970 Si02
#       7
#     4   4   4   4   4   4   4
#     4  10  22  43  72 101 126 159 204 257 322 385
#     4  10  20  34  54  82 117 159 205 251 299 360
#     4  12  23  35  52  80 120 168 216 259 305 362
#     4  10  20  39  65  89 119 161 203 251 311 371
#     4  12  25  39  58  90 127 166 211 259 310 366
#     4  10  19  34  56  81 113 155 207 258 302 356
#     4  10  21  41  64  89 125 167 206 252 314 378
#
# _framework density 20.968107
#
# number of rings (size 3 to 8) (size 9 to 14) (size 15 to 20)
#    0.000    1.429    2.857    3.429    0.000    4.571 
#    0.000    0.714    0.000    0.000    0.000    0.000 
#    0.000    0.000    0.000    0.000    0.000    0.000 
#
# Total GULP energy -347077.592378 kJ/mol
# GULP energy per Si atom -12395.628299 kJ/mol
# Density = 2.092038 g / cm^3
# Si number density = 20.968107 Si / 1000 Ang^3
#
#
#
# Elastic Constant Matrix: (Units=GPa)
#
#
# Indices 1 2 3 4 5 6 
#
# 1 84.3842 41.2460 44.4509 0.0000 -5.1857 0.0000
# 2 41.2460 94.5147 53.2314 0.0000 -3.4056 0.0000
# 3 44.4509 53.2314 154.9022 0.0000 -10.6920 0.0000
# 4 0.0000 0.0000 0.0000 28.3521 0.0000 1.9405
# 5 -5.1857 -3.4056 -10.6920 0.0000 20.5452 0.0000
# 6 0.0000 0.0000 0.0000 1.9405 0.0000 29.9322
#
#
#
# Elastic Compliance Matrix: (Units=1/GPa)
#
#
# Indices 1 2 3 4 5 6 
#
# 1 0.015991 -0.005455 -0.002591 0.000000 0.001784 0.000000
# 2 -0.005455 0.014981 -0.003637 0.000000 -0.000786 0.000000
# 3 -0.002591 -0.003637 0.008674 0.000000 0.003257 0.000000
# 4 0.000000 0.000000 0.000000 0.035428 0.000000 -0.002297
# 5 0.001784 -0.000786 0.003257 0.000000 0.050688 0.000000
# 6 0.000000 0.000000 0.000000 -0.002297 0.000000 0.033558
#
#
# Mechanical properties :
#
#
# Convention : Reuss Voigt Hill
#
# Bulk Modulus (GPa) = 61.42557 67.96197 64.69377
# Shear Modulus (GPa) = 26.57972 28.75742 27.66857
#
# Velocity S-wave (km/s) = 3.56424 3.70737 3.63651
# Velocity P-wave (km/s) = 6.80417 7.12801 6.96797
#
# Compressibility (1/GPa) = 0.01627987
#
# Stress axis : x y z
#
# Youngs Moduli (GPa) = 62.53334 66.75127 115.28771
#
# Poissons Ratio (x) = 0.36413 0.29874
# Poissons Ratio (y) = 0.34112 0.41931
# Poissons Ratio (z) = 0.16204 0.24278
#
# Static dielectric constant tensor:
#      x y z
#    x 3.582680 0.000000 -0.039510 
#    y 0.000000 3.663920 0.000000 
#    z -0.039510 0.000000 4.750960 
# 
# 
# High freq. dielectric constant tensor:
#      x y z
#    x 1.789290 0.000000 -0.007750 
#    y 0.000000 1.802810 0.000000 
#    z -0.007750 0.000000 1.854440 
# 
# From -- ./inp_files/60094.got.cif
#   From: 2010.06.25/outbox.cif.g09.slc.cpg/sg11_31_cif.got.tgz:60094.got - 2010.06.27 23:14:04.
