data_PCOD8071668
_publ_section_title
;
Structure prediction by ZEFSAII (Michael W. Deem and Ramdas Pophale) SiO2 
 PCOD8071668
Probable space group: P 21/M
;
_chemical_formula_sum "Si O2"
_cell_formula_units_Z 28
_cell_length_a 18.759031
_cell_length_b 8.881920
_cell_length_c 14.454518
_cell_angle_alpha 90.000000
_cell_angle_beta 38.662333
_cell_angle_gamma 90.000000
_cell_volume 1504.571586
_symmetry_space_group_name_H-M "P 21/M"
_symmetry_group_IT_number 11
_symmetry_cell_setting 'monoclinic'
loop_
_space_group_symop_operation_xyz
x,y,z
-x,1/2+y,-z
-x,-y,-z
x,1/2-y,z
loop_
_atom_site_type_symbol
_atom_site_label
_atom_site_fract_x
_atom_site_fract_y
_atom_site_fract_z
Si Si1 0.087664 0.576129 0.135808
Si Si2 0.902266 0.418271 0.220068
Si Si3 0.233095 0.583142 0.452138
Si Si4 0.298038 0.071535 0.666573
Si Si5 0.662725 0.074095 0.179126
Si Si6 0.560764 0.428968 0.640826
Si Si7 0.041071 0.425803 0.551649
O O1 0.055850 0.750000 0.155372
O O2 0.042215 0.519227 0.281369
O O3 0.026658 0.488563 0.113209
O O4 0.222139 0.546409 0.995379
O O5 0.916762 0.250000 0.165310
O O6 0.833585 0.416626 0.384375
O O7 0.832388 0.517236 0.216909
O O8 0.232320 0.750000 0.409034
O O9 0.362107 0.532461 0.346707
O O10 0.171946 0.472016 0.441832
O O11 0.305564 0.250000 0.648445
O O12 0.337522 0.021615 0.727327
O O13 0.383350 0.994444 0.508362
O O14 0.645559 0.250000 0.219089
O O15 0.560340 0.009818 0.219937
O O16 0.547884 0.250000 0.642293
O O17 0.036171 0.250000 0.542291
O O18 0.000000 0.500000 0.500000
#
# Coordination Sequence:
#
# PCOD8071668 Si02
#       7
#     4   4   4   4   4   4   4
#     4   9  20  36  52  73 102 135 168 203 251 308
#     4   9  17  31  51  73  99 131 168 212 257 299
#     4   8  16  31  51  75 101 128 160 201 247 293
#     4  11  21  33  50  72  99 134 177 219 256 294
#     4  11  22  35  50  70 100 137 175 214 253 295
#     4  10  20  35  53  74 101 134 174 215 253 293
#     4  10  19  33  56  83 106 127 156 197 246 301
#
# _framework density 18.609949
#
# number of rings (size 3 to 8) (size 9 to 14) (size 15 to 20)
#    0.000    2.286    0.000    4.286    0.000    6.286 
#    0.000    0.000    0.000    0.857    0.000    0.000 
#    0.000    0.000    0.000    0.000    0.000    0.000 
#
# Total GULP energy -347179.742910 kJ/mol
# GULP energy per Si atom -12399.276533 kJ/mol
# Density = 1.856759 g / cm^3
# Si number density = 18.609949 Si / 1000 Ang^3
#
#
#
# Elastic Constant Matrix: (Units=GPa)
#
#
# Indices 1 2 3 4 5 6 
#
# 1 116.8530 40.9571 42.8797 0.0000 -29.4600 0.0000
# 2 40.9571 82.0058 31.8177 0.0000 -15.1636 0.0000
# 3 42.8797 31.8177 62.1603 0.0000 -26.6084 0.0000
# 4 0.0000 0.0000 0.0000 22.4541 0.0000 -7.1315
# 5 -29.4600 -15.1636 -26.6084 0.0000 23.3306 0.0000
# 6 0.0000 0.0000 0.0000 -7.1315 0.0000 38.0004
#
#
#
# Elastic Compliance Matrix: (Units=1/GPa)
#
#
# Indices 1 2 3 4 5 6 
#
# 1 0.013844 -0.003713 -0.002344 0.000000 0.012395 0.000000
# 2 -0.003713 0.016258 -0.006339 0.000000 -0.001351 0.000000
# 3 -0.002344 -0.006339 0.035011 0.000000 0.032850 0.000000
# 4 0.000000 0.000000 0.000000 0.047358 0.000000 0.008888
# 5 0.012395 -0.001351 0.032850 0.000000 0.095101 0.000000
# 6 0.000000 0.000000 0.000000 0.008888 0.000000 0.027983
#
#
# Mechanical properties :
#
#
# Convention : Reuss Voigt Hill
#
# Bulk Modulus (GPa) = 24.80060 54.70313 39.75186
# Shear Modulus (GPa) = 18.26231 26.44799 22.35515
#
# Velocity S-wave (km/s) = 3.13600 3.77394 3.46966
# Velocity P-wave (km/s) = 5.14472 6.96050 6.12032
#
# Compressibility (1/GPa) = 0.04032161
#
# Stress axis : x y z
#
# Youngs Moduli (GPa) = 72.23273 61.50657 28.56264
#
# Poissons Ratio (x) = 0.22838 0.06694
# Poissons Ratio (y) = 0.26821 0.18107
# Poissons Ratio (z) = 0.16928 0.38990
#
# Static dielectric constant tensor:
#      x y z
#    x 3.618320 0.000000 -0.365260 
#    y 0.000000 3.571770 0.000000 
#    z -0.365260 0.000000 3.251420 
# 
# 
# High freq. dielectric constant tensor:
#      x y z
#    x 1.720920 0.000000 -0.027840 
#    y 0.000000 1.732810 0.000000 
#    z -0.027840 0.000000 1.688370 
# 
# From -- ./inp_files/37148.got.cif
#   From: 2010.06.25/outbox.cif.g09.slc.cpg/sg11_19_cif.got.tgz:37148.got - 2010.06.27 23:14:04.
