data_PCOD8071699
_publ_section_title
;
Structure prediction by ZEFSAII (Michael W. Deem and Ramdas Pophale) SiO2 
 PCOD8071699
Probable space group: P 21/M
;
_chemical_formula_sum "Si O2"
_cell_formula_units_Z 28
_cell_length_a 6.967905
_cell_length_b 13.068275
_cell_length_c 17.105129
_cell_angle_alpha 90.000000
_cell_angle_beta 69.346497
_cell_angle_gamma 90.000000
_cell_volume 1457.463411
_symmetry_space_group_name_H-M "P 21/M"
_symmetry_group_IT_number 11
_symmetry_cell_setting 'monoclinic'
loop_
_space_group_symop_operation_xyz
x,y,z
-x,1/2+y,-z
-x,-y,-z
x,1/2-y,z
loop_
_atom_site_type_symbol
_atom_site_label
_atom_site_fract_x
_atom_site_fract_y
_atom_site_fract_z
Si Si1 0.688212 0.511843 0.736306
Si Si2 0.236495 0.476599 0.449316
Si Si3 0.342263 0.364541 0.820169
Si Si4 0.767387 0.978548 0.014515
Si Si5 0.416203 0.132582 0.563366
Si Si6 0.052281 0.133994 0.728721
Si Si7 0.580693 0.628658 0.901461
O O1 0.744272 0.557802 0.643835
O O2 0.494230 0.438769 0.752129
O O3 0.636364 0.603741 0.803457
O O4 0.868652 0.443594 0.745372
O O5 0.370045 0.576309 0.450779
O O6 0.326274 0.385465 0.489378
O O7 0.000000 0.500000 0.500000
O O8 0.431623 0.250000 0.803484
O O9 0.324412 0.395952 0.912526
O O10 0.121663 0.370425 0.809324
O O11 0.641697 0.084619 0.041348
O O12 0.748674 0.927807 0.931797
O O13 0.000000 0.000000 0.000000
O O14 0.469882 0.250000 0.566948
O O15 0.241802 0.096631 0.648624
O O16 0.986465 0.250000 0.715325
O O17 0.581839 0.750000 0.913344
#
# Coordination Sequence:
#
# PCOD8071699 Si02
#       7
#     4   4   4   4   4   4   4
#     4  11  21  36  58  82 119 155 192 237 293 348
#     4  11  22  38  60  84 116 155 195 244 295 350
#     4  10  20  34  56  86 115 147 190 240 292 342
#     4  10  21  40  63  86 117 156 197 241 286 341
#     4  10  22  38  57  83 113 147 196 247 292 345
#     4  10  19  33  56  85 113 144 190 243 292 343
#     4  10  23  40  59  87 122 158 196 239 286 348
#
# _framework density 19.211461
#
# number of rings (size 3 to 8) (size 9 to 14) (size 15 to 20)
#    0.000    1.714    2.857    1.714    0.000    2.857 
#    0.000    3.571    0.000    0.000    0.000    0.000 
#    0.000    0.000    0.000    0.000    0.000    0.000 
#
# Total GULP energy -347210.780097 kJ/mol
# GULP energy per Si atom -12400.385003 kJ/mol
# Density = 1.916773 g / cm^3
# Si number density = 19.211461 Si / 1000 Ang^3
#
#
#
# Elastic Constant Matrix: (Units=GPa)
#
#
# Indices 1 2 3 4 5 6 
#
# 1 111.5479 37.8728 25.7657 0.0000 -1.8546 0.0000
# 2 37.8728 89.7467 28.9390 0.0000 -2.8884 0.0000
# 3 25.7657 28.9390 99.2022 0.0000 14.0973 0.0000
# 4 0.0000 0.0000 0.0000 16.9892 0.0000 3.2859
# 5 -1.8546 -2.8884 14.0973 0.0000 30.1817 0.0000
# 6 0.0000 0.0000 0.0000 3.2859 0.0000 22.0877
#
#
#
# Elastic Compliance Matrix: (Units=1/GPa)
#
#
# Indices 1 2 3 4 5 6 
#
# 1 0.010728 -0.003908 -0.001807 0.000000 0.001129 0.000000
# 2 -0.003908 0.013992 -0.003452 0.000000 0.002711 0.000000
# 3 -0.001807 -0.003452 0.012445 0.000000 -0.006254 0.000000
# 4 0.000000 0.000000 0.000000 0.060605 0.000000 -0.009016
# 5 0.001129 0.002711 -0.006254 0.000000 0.036383 0.000000
# 6 0.000000 0.000000 0.000000 -0.009016 0.000000 0.046615
#
#
# Mechanical properties :
#
#
# Convention : Reuss Voigt Hill
#
# Bulk Modulus (GPa) = 53.10199 53.96129 53.53164
# Shear Modulus (GPa) = 24.34526 27.71302 26.02914
#
# Velocity S-wave (km/s) = 3.56367 3.80218 3.68486
# Velocity P-wave (km/s) = 6.68085 6.88654 6.78448
#
# Compressibility (1/GPa) = 0.01883169
#
# Stress axis : x y z
#
# Youngs Moduli (GPa) = 93.21622 71.46915 80.35059
#
# Poissons Ratio (x) = 0.27931 0.14517
# Poissons Ratio (y) = 0.36430 0.27737
# Poissons Ratio (z) = 0.16841 0.24671
#
# Static dielectric constant tensor:
#      x y z
#    x 3.592890 0.000000 0.067740 
#    y 0.000000 3.302340 0.000000 
#    z 0.067740 0.000000 3.815360 
# 
# 
# High freq. dielectric constant tensor:
#      x y z
#    x 1.756840 0.000000 0.010800 
#    y 0.000000 1.729690 0.000000 
#    z 0.010800 0.000000 1.755720 
# 
# From -- ./inp_files/56915.got.cif
#   From: 2010.06.25/outbox.cif.g09.slc.cpg/sg11_29_cif.got.tgz:56915.got - 2010.06.27 23:14:04.
