data_PCOD8071992
_publ_section_title
;
Structure prediction by ZEFSAII (Michael W. Deem and Ramdas Pophale) SiO2 
 PCOD8071992
Probable space group: P 21/M
;
_chemical_formula_sum "Si O2"
_cell_formula_units_Z 32
_cell_length_a 8.988420
_cell_length_b 14.301712
_cell_length_c 20.356546
_cell_angle_alpha 90.000000
_cell_angle_beta 36.363990
_cell_angle_gamma 90.000000
_cell_volume 1551.552143
_symmetry_space_group_name_H-M "P 21/M"
_symmetry_group_IT_number 11
_symmetry_cell_setting 'monoclinic'
loop_
_space_group_symop_operation_xyz
x,y,z
-x,1/2+y,-z
-x,-y,-z
x,1/2-y,z
loop_
_atom_site_type_symbol
_atom_site_label
_atom_site_fract_x
_atom_site_fract_y
_atom_site_fract_z
Si Si1 0.674998 0.357594 0.434432
Si Si2 0.241462 0.356461 0.262068
Si Si3 0.479148 0.976070 0.737520
Si Si4 0.641673 0.525658 0.353076
Si Si5 0.578480 0.597036 0.942031
Si Si6 0.728979 0.854644 0.125459
Si Si7 0.969799 0.350941 0.854541
Si Si8 0.990789 0.854360 0.896965
O O1 0.604512 0.250000 0.440981
O O2 0.686811 0.421968 0.365556
O O3 0.469611 0.400793 0.556018
O O4 0.943410 0.361187 0.373386
O O5 0.336752 0.250000 0.224271
O O6 0.334727 0.401719 0.296963
O O7 0.352578 0.410343 0.159513
O O8 0.206887 0.930740 0.821433
O O9 0.554721 0.012533 0.637783
O O10 0.478319 0.067015 0.784859
O O11 0.908895 0.568448 0.234112
O O12 0.819206 0.639400 0.893136
O O13 0.500000 0.500000 0.000000
O O14 0.329912 0.657994 0.041937
O O15 0.613168 0.750000 0.172444
O O16 0.957724 0.868555 0.095131
O O17 0.818872 0.874436 0.020541
O O18 0.077493 0.250000 0.793289
O O19 0.106484 0.750000 0.858830
#
# Coordination Sequence:
#
# PCOD8071992 Si02
#       8
#     4   4   4   4   4   4   4   4
#     4  10  22  42  64  85 113 146 186 235 285 339
#     4  11  23  38  58  85 117 154 191 231 281 335
#     4  11  21  36  57  82 113 147 190 236 280 334
#     4  10  22  39  62  87 110 145 190 235 285 339
#     4  12  22  34  54  83 120 157 193 233 281 335
#     4   9  19  34  52  76 110 153 194 230 273 328
#     4  10  19  34  56  83 116 152 190 233 283 338
#     4  11  21  33  51  79 116 156 193 229 275 331
#
# _framework density 20.624510000000001
#
# number of rings (size 3 to 8) (size 9 to 14) (size 15 to 20)
#    0.000    1.500    0.000    6.750    0.000    4.000 
#    0.000    0.000    0.000    3.000    0.000    0.000 
#    0.000    0.000    0.000    0.000    0.000    0.000 
#
# Total GULP energy -396683.758090 kJ/mol
# GULP energy per Si atom -12396.367440 kJ/mol
# Density = 2.057757 g / cm^3
# Si number density = 20.624510 Si / 1000 Ang^3
#
#
#
# Elastic Constant Matrix: (Units=GPa)
#
#
# Indices 1 2 3 4 5 6 
#
# 1 74.2865 21.0284 14.4985 0.0000 4.3460 0.0000
# 2 21.0284 104.8227 9.5245 0.0000 1.7559 0.0000
# 3 14.4985 9.5245 42.1101 0.0000 -0.9939 0.0000
# 4 0.0000 0.0000 0.0000 23.5895 0.0000 3.0466
# 5 4.3460 1.7559 -0.9939 0.0000 26.0695 0.0000
# 6 0.0000 0.0000 0.0000 3.0466 0.0000 32.0261
#
#
#
# Elastic Compliance Matrix: (Units=1/GPa)
#
#
# Indices 1 2 3 4 5 6 
#
# 1 0.015267 -0.002590 -0.004731 0.000000 -0.002551 0.000000
# 2 -0.002590 0.010194 -0.001421 0.000000 -0.000309 0.000000
# 3 -0.004731 -0.001421 0.025742 0.000000 0.001866 0.000000
# 4 0.000000 0.000000 0.000000 0.042919 0.000000 -0.004083
# 5 -0.002551 -0.000309 0.001866 0.000000 0.038876 0.000000
# 6 0.000000 0.000000 0.000000 -0.004083 0.000000 0.031613
#
#
# Mechanical properties :
#
#
# Convention : Reuss Voigt Hill
#
# Bulk Modulus (GPa) = 29.65751 34.59134 32.12443
# Shear Modulus (GPa) = 25.86192 28.08155 26.97173
#
# Velocity S-wave (km/s) = 3.54494 3.69394 3.62021
# Velocity P-wave (km/s) = 5.58269 5.91624 5.75189
#
# Compressibility (1/GPa) = 0.03371827
#
# Stress axis : x y z
#
# Youngs Moduli (GPa) = 65.50014 98.09859 38.84766
#
# Poissons Ratio (x) = 0.25409 0.18378
# Poissons Ratio (y) = 0.16965 0.05521
# Poissons Ratio (z) = 0.30987 0.13942
#
# Static dielectric constant tensor:
#      x y z
#    x 3.869530 0.000000 0.106130 
#    y 0.000000 4.069160 0.000000 
#    z 0.106130 0.000000 3.540330 
# 
# 
# High freq. dielectric constant tensor:
#      x y z
#    x 1.800210 0.000000 0.017430 
#    y 0.000000 1.832880 0.000000 
#    z 0.017430 0.000000 1.781270 
# 
# From -- ./inp_files/63802.got.cif
#   From: 2010.06.25/outbox.cif.g09.slc.cpg/sg11_32_cif.got.tgz:63802.got - 2010.06.27 23:14:04.
