data_PCOD8071929
_publ_section_title
;
Structure prediction by ZEFSAII (Michael W. Deem and Ramdas Pophale) SiO2 
 PCOD8071929
Probable space group: P 21/M
;
_chemical_formula_sum "Si O2"
_cell_formula_units_Z 32
_cell_length_a 26.112610
_cell_length_b 9.220537
_cell_length_c 20.959317
_cell_angle_alpha 90.000000
_cell_angle_beta 159.019593
_cell_angle_gamma 90.000000
_cell_volume 1806.864976
_symmetry_space_group_name_H-M "P 21/M"
_symmetry_group_IT_number 11
_symmetry_cell_setting 'monoclinic'
loop_
_space_group_symop_operation_xyz
x,y,z
-x,1/2+y,-z
-x,-y,-z
x,1/2-y,z
loop_
_atom_site_type_symbol
_atom_site_label
_atom_site_fract_x
_atom_site_fract_y
_atom_site_fract_z
Si Si1 0.417335 0.582768 0.457836
Si Si2 0.090769 0.579119 0.052771
Si Si3 0.385029 0.919878 0.949315
Si Si4 0.021692 0.080324 0.327940
Si Si5 0.278074 0.580786 0.960812
Si Si6 0.914334 0.580601 0.084297
Si Si7 0.386851 0.083913 0.203299
Si Si8 0.697078 0.581264 0.268764
O O1 0.500000 0.500000 0.500000
O O2 0.452224 0.750000 0.487126
O O3 0.251984 0.547160 0.260835
O O4 0.474436 0.536999 0.594394
O O5 0.057140 0.750000 0.010604
O O6 0.052825 0.507186 0.941381
O O7 0.000000 0.500000 0.000000
O O8 0.357662 0.750000 0.910460
O O9 0.322169 0.979567 0.942791
O O10 0.297835 0.996737 0.791777
O O11 0.553653 0.957528 0.141330
O O12 0.021520 0.250000 0.309432
O O13 0.166373 0.033248 0.531450
O O14 0.887546 0.043375 0.217867
O O15 0.014985 0.984920 0.256386
O O16 0.308103 0.750000 0.999219
O O17 0.382094 0.510220 0.133996
O O18 0.950144 0.750000 0.116397
O O19 0.750006 0.554739 0.911374
O O20 0.393368 0.250000 0.189123
O O21 0.703663 0.750000 0.259843
#
# Coordination Sequence:
#
# PCOD8071929 Si02
#       8
#     4   4   4   4   4   4   4   4
#     4  10  20  35  57  81 105 137 178 221 265 315
#     4  11  23  38  56  78 109 144 179 221 269 317
#     4   9  18  33  51  72 101 131 165 207 251 300
#     4   9  18  33  52  74 101 133 171 208 251 307
#     4   9  18  32  50  73 101 133 167 207 251 298
#     4  10  19  34  56  78 105 138 174 216 264 314
#     4   9  18  33  53  78 105 132 168 215 260 308
#     4   9  18  33  52  72  99 134 169 204 249 305
#
# _framework density 17.710234
#
# number of rings (size 3 to 8) (size 9 to 14) (size 15 to 20)
#    0.000    2.500    1.250    0.750    0.000    3.000 
#    2.250    0.000    0.000    0.000    0.000    0.000 
#    0.000    0.000    0.000    0.000    0.000    0.000 
#
# Total GULP energy -396846.043988 kJ/mol
# GULP energy per Si atom -12401.438875 kJ/mol
# Density = 1.766992 g / cm^3
# Si number density = 17.710234 Si / 1000 Ang^3
#
#
#
# Elastic Constant Matrix: (Units=GPa)
#
#
# Indices 1 2 3 4 5 6 
#
# 1 147.1940 67.8152 75.7935 0.0000 -19.4795 0.0000
# 2 67.8152 72.9927 57.9736 0.0000 -9.1684 0.0000
# 3 75.7935 57.9736 136.4242 0.0000 -21.2821 0.0000
# 4 0.0000 0.0000 0.0000 27.5774 0.0000 -7.3412
# 5 -19.4795 -9.1684 -21.2821 0.0000 20.6603 0.0000
# 6 0.0000 0.0000 0.0000 -7.3412 0.0000 33.2751
#
#
#
# Elastic Compliance Matrix: (Units=1/GPa)
#
#
# Indices 1 2 3 4 5 6 
#
# 1 0.013233 -0.009729 -0.002317 0.000000 0.005773 0.000000
# 2 -0.009729 0.027833 -0.007061 0.000000 -0.004095 0.000000
# 3 -0.002317 -0.007061 0.012854 0.000000 0.007923 0.000000
# 4 0.000000 0.000000 0.000000 0.038524 0.000000 0.008499
# 5 0.005773 -0.004095 0.007923 0.000000 0.060188 0.000000
# 6 0.000000 0.000000 0.000000 0.008499 0.000000 0.031928
#
#
# Mechanical properties :
#
#
# Convention : Reuss Voigt Hill
#
# Bulk Modulus (GPa) = 63.67341 84.41949 74.04645
# Shear Modulus (GPa) = 21.92884 26.63781 24.28332
#
# Velocity S-wave (km/s) = 3.52263 3.88247 3.70692
# Velocity P-wave (km/s) = 7.25094 8.23824 7.76031
#
# Compressibility (1/GPa) = 0.01570514
#
# Stress axis : x y z
#
# Youngs Moduli (GPa) = 75.56732 35.92855 77.79670
#
# Poissons Ratio (x) = 0.34956 0.18026
# Poissons Ratio (y) = 0.73521 0.54935
# Poissons Ratio (z) = 0.17510 0.25370
#
# Static dielectric constant tensor:
#      x y z
#    x 3.295290 0.000000 -0.036700 
#    y 0.000000 3.288140 0.000000 
#    z -0.036700 0.000000 3.385530 
# 
# 
# High freq. dielectric constant tensor:
#      x y z
#    x 1.681140 0.000000 -0.009930 
#    y 0.000000 1.685420 0.000000 
#    z -0.009930 0.000000 1.685650 
# 
# From -- ./inp_files/67171.got.cif
#   From: 2010.06.25/outbox.cif.g09.slc.cpg/sg11_34_cif.got.tgz:67171.got - 2010.06.27 23:14:04.
