data_PCOD8071100
_publ_section_title
;
Structure prediction by ZEFSAII (Michael W. Deem and Ramdas Pophale) SiO2 
 PCOD8071100
Probable space group: P 21/M
;
_chemical_formula_sum "Si O2"
_cell_formula_units_Z 32
_cell_length_a 20.605934
_cell_length_b 9.061552
_cell_length_c 14.213282
_cell_angle_alpha 90.000000
_cell_angle_beta 136.481100
_cell_angle_gamma 90.000000
_cell_volume 1827.478945
_symmetry_space_group_name_H-M "P 21/M"
_symmetry_group_IT_number 11
_symmetry_cell_setting 'monoclinic'
loop_
_space_group_symop_operation_xyz
x,y,z
-x,1/2+y,-z
-x,-y,-z
x,1/2-y,z
loop_
_atom_site_type_symbol
_atom_site_label
_atom_site_fract_x
_atom_site_fract_y
_atom_site_fract_z
Si Si1 0.780319 0.923855 0.917934
Si Si2 0.596497 0.422744 0.072458
Si Si3 0.313436 0.420016 0.365961
Si Si4 0.553935 0.420293 0.366172
Si Si5 0.987821 0.926001 0.088241
Si Si6 0.360333 0.423297 0.073440
Si Si7 0.705594 0.080055 0.371192
Si Si8 0.842449 0.920739 0.640163
O O1 0.777844 0.750000 0.900616
O O2 0.719182 0.991137 0.767409
O O3 0.734441 0.966961 0.969717
O O4 0.887859 0.977753 0.026348
O O5 0.575170 0.250000 0.041037
O O6 0.677165 0.453965 0.234355
O O7 0.500000 0.500000 0.000000
O O8 0.638337 0.484349 0.020125
O O9 0.338829 0.250000 0.381867
O O10 0.408628 0.496442 0.502300
O O11 0.228257 0.446363 0.348310
O O12 0.560257 0.250000 0.397445
O O13 0.447589 0.468116 0.231780
O O14 0.615484 0.461222 0.339704
O O15 0.995177 0.750000 0.084827
O O16 0.064568 0.984707 0.242239
O O17 0.000000 0.000000 0.000000
O O18 0.365124 0.250000 0.053520
O O19 0.734203 0.250000 0.415669
O O20 0.794563 0.979658 0.493817
O O21 0.869357 0.750000 0.656045
#
# Coordination Sequence:
#
# PCOD8071100 Si02
#       8
#     4   4   4   4   4   4   4   4
#     4   9  19  35  53  73 104 143 179 213 263 318
#     4  11  21  35  56  81 108 138 177 220 263 311
#     4   9  17  31  48  71 103 139 177 211 250 308
#     4   9  17  30  47  72 103 137 173 209 254 304
#     4  11  20  34  55  79 105 140 180 222 266 314
#     4  10  20  36  54  74 105 144 179 216 261 315
#     4   9  18  33  51  76 106 136 169 212 263 312
#     4  10  19  32  52  80 107 134 171 220 268 313
#
# _framework density 17.510462
#
# number of rings (size 3 to 8) (size 9 to 14) (size 15 to 20)
#    0.000    2.250    2.500    1.125    0.000    2.500 
#    0.000    1.875    0.000    0.750    0.000    0.000 
#    0.000    0.000    0.000    0.000    0.000    0.000 
#
# Total GULP energy -396794.137907 kJ/mol
# GULP energy per Si atom -12399.816810 kJ/mol
# Density = 1.747061 g / cm^3
# Si number density = 17.510462 Si / 1000 Ang^3
#
#
#
# Elastic Constant Matrix: (Units=GPa)
#
#
# Indices 1 2 3 4 5 6 
#
# 1 98.5271 44.8035 62.0971 0.0000 1.4000 0.0000
# 2 44.8035 73.5058 58.6818 0.0000 -1.5258 0.0000
# 3 62.0971 58.6818 122.1712 0.0000 1.0634 0.0000
# 4 0.0000 0.0000 0.0000 33.4302 0.0000 -3.3221
# 5 1.4000 -1.5258 1.0634 0.0000 24.3339 0.0000
# 6 0.0000 0.0000 0.0000 -3.3221 0.0000 20.2076
#
#
#
# Elastic Compliance Matrix: (Units=1/GPa)
#
#
# Indices 1 2 3 4 5 6 
#
# 1 0.016150 -0.005383 -0.005614 0.000000 -0.001021 0.000000
# 2 -0.005383 0.023943 -0.008783 0.000000 0.002195 0.000000
# 3 -0.005614 -0.008783 0.015266 0.000000 -0.000895 0.000000
# 4 0.000000 0.000000 0.000000 0.030410 0.000000 0.004999
# 5 -0.001021 0.002195 -0.000895 0.000000 0.041330 0.000000
# 6 0.000000 0.000000 0.000000 0.004999 0.000000 0.050308
#
#
# Mechanical properties :
#
#
# Convention : Reuss Voigt Hill
#
# Bulk Modulus (GPa) = 63.30220 69.48542 66.39381
# Shear Modulus (GPa) = 22.49870 24.16913 23.33391
#
# Velocity S-wave (km/s) = 3.58840 3.71923 3.65440
# Velocity P-wave (km/s) = 7.30742 7.62967 7.47028
#
# Compressibility (1/GPa) = 0.01579724
#
# Stress axis : x y z
#
# Youngs Moduli (GPa) = 61.91820 41.76559 65.50677
#
# Poissons Ratio (x) = 0.22483 0.36778
# Poissons Ratio (y) = 0.33331 0.57538
# Poissons Ratio (z) = 0.34763 0.36685
#
# Static dielectric constant tensor:
#      x y z
#    x 3.151950 0.000000 0.025400 
#    y 0.000000 3.202420 0.000000 
#    z 0.025400 0.000000 3.445620 
# 
# 
# High freq. dielectric constant tensor:
#      x y z
#    x 1.652480 0.000000 -0.001080 
#    y 0.000000 1.668400 0.000000 
#    z -0.001080 0.000000 1.683300 
# 
# From -- ./inp_files/54316.got.cif
#   From: 2010.06.25/outbox.cif.g09.slc.cpg/sg11_28_cif.got.tgz:54316.got - 2010.06.27 23:14:04.
