data_PCOD8071655
_publ_section_title
;
Structure prediction by ZEFSAII (Michael W. Deem and Ramdas Pophale) SiO2 
 PCOD8071655
Probable space group: P 21/M
;
_chemical_formula_sum "Si O2"
_cell_formula_units_Z 20
_cell_length_a 11.570288
_cell_length_b 8.891080
_cell_length_c 13.287059
_cell_angle_alpha 90.000000
_cell_angle_beta 127.303204
_cell_angle_gamma 90.000000
_cell_volume 1087.263364
_symmetry_space_group_name_H-M "P 21/M"
_symmetry_group_IT_number 11
_symmetry_cell_setting 'monoclinic'
loop_
_space_group_symop_operation_xyz
x,y,z
-x,1/2+y,-z
-x,-y,-z
x,1/2-y,z
loop_
_atom_site_type_symbol
_atom_site_label
_atom_site_fract_x
_atom_site_fract_y
_atom_site_fract_z
Si Si1 0.000812 0.927342 0.609236
Si Si2 0.546778 0.924296 0.874073
Si Si3 0.411962 0.575203 0.307158
Si Si4 0.711165 0.924580 0.571411
Si Si5 0.717080 0.924242 0.165213
O O1 0.011311 0.750000 0.602265
O O2 0.854713 0.975803 0.589112
O O3 0.000000 0.000000 0.500000
O O4 0.134206 0.985786 0.745673
O O5 0.505798 0.750000 0.842930
O O6 0.620505 0.983848 0.811482
O O7 0.399596 0.016119 0.816110
O O8 0.661835 0.952184 0.023326
O O9 0.386724 0.750000 0.273113
O O10 0.298822 0.520489 0.331805
O O11 0.575589 0.539024 0.428020
O O12 0.714137 0.750000 0.602778
O O13 0.743994 0.750000 0.203264
#
# Coordination Sequence:
#
# PCOD8071655 Si02
#       5
#     4   4   4   4   4
#     4  11  22  36  56  80 109 143 176 216 266 317
#     4  10  20  35  56  79 106 141 177 218 267 316
#     4  10  19  33  56  81 105 136 175 220 265 312
#     4   9  20  36  52  76 108 139 174 215 260 314
#     4  10  21  36  54  79 109 139 178 222 262 313
#
# _framework density 18.394808000000001
#
# number of rings (size 3 to 8) (size 9 to 14) (size 15 to 20)
#    0.000    2.000    0.000    3.600    0.000    6.400 
#    0.000    1.000    0.000    0.000    0.000    0.000 
#    0.000    0.000    0.000    0.000    0.000    0.000 
#
# Total GULP energy -248119.980252 kJ/mol
# GULP energy per Si atom -12405.999013 kJ/mol
# Density = 1.835294 g / cm^3
# Si number density = 18.394808 Si / 1000 Ang^3
#
#
#
# Elastic Constant Matrix: (Units=GPa)
#
#
# Indices 1 2 3 4 5 6 
#
# 1 144.1564 63.0995 65.7396 0.0000 -5.8219 0.0000
# 2 63.0995 83.2258 48.7583 0.0000 -8.4099 0.0000
# 3 65.7396 48.7583 80.4540 0.0000 -12.3451 0.0000
# 4 0.0000 0.0000 0.0000 34.7407 0.0000 -3.0274
# 5 -5.8219 -8.4099 -12.3451 0.0000 33.3671 0.0000
# 6 0.0000 0.0000 0.0000 -3.0274 0.0000 35.3285
#
#
#
# Elastic Compliance Matrix: (Units=1/GPa)
#
#
# Indices 1 2 3 4 5 6 
#
# 1 0.012552 -0.005471 -0.007226 0.000000 -0.001862 0.000000
# 2 -0.005471 0.021024 -0.008062 0.000000 0.001362 0.000000
# 3 -0.007226 -0.008062 0.024082 0.000000 0.005617 0.000000
# 4 0.000000 0.000000 0.000000 0.029001 0.000000 0.002485
# 5 -0.001862 0.001362 0.005617 0.000000 0.032066 0.000000
# 6 0.000000 0.000000 0.000000 0.002485 0.000000 0.028519
#
#
# Mechanical properties :
#
#
# Convention : Reuss Voigt Hill
#
# Bulk Modulus (GPa) = 61.96144 73.67011 67.81578
# Shear Modulus (GPa) = 25.75416 29.36985 27.56201
#
# Velocity S-wave (km/s) = 3.74582 4.00013 3.87506
# Velocity P-wave (km/s) = 7.24331 7.84035 7.54774
#
# Compressibility (1/GPa) = 0.01613907
#
# Stress axis : x y z
#
# Youngs Moduli (GPa) = 79.66921 47.56368 41.52473
#
# Poissons Ratio (x) = 0.26023 0.30007
# Poissons Ratio (y) = 0.43588 0.33478
# Poissons Ratio (z) = 0.57571 0.38347
#
# Static dielectric constant tensor:
#      x y z
#    x 3.374210 0.000000 -0.022020 
#    y 0.000000 3.488230 0.000000 
#    z -0.022020 0.000000 3.353520 
# 
# 
# High freq. dielectric constant tensor:
#      x y z
#    x 1.710490 0.000000 -0.010810 
#    y 0.000000 1.727540 0.000000 
#    z -0.010810 0.000000 1.709860 
# 
# From -- ./inp_files/30657.got.cif
#   From: 2010.06.25/outbox.cif.g09.slc.cpg/sg11_16_cif.got.tgz:30657.got - 2010.06.27 23:14:04.
