data_PCOD8071684
_publ_section_title
;
Structure prediction by ZEFSAII (Michael W. Deem and Ramdas Pophale) SiO2 
 PCOD8071684
Probable space group: P 21/M
;
_chemical_formula_sum "Si O2"
_cell_formula_units_Z 28
_cell_length_a 17.391509
_cell_length_b 8.871633
_cell_length_c 14.226377
_cell_angle_alpha 90.000000
_cell_angle_beta 136.515844
_cell_angle_gamma 90.000000
_cell_volume 1510.500110
_symmetry_space_group_name_H-M "P 21/M"
_symmetry_group_IT_number 11
_symmetry_cell_setting 'monoclinic'
loop_
_space_group_symop_operation_xyz
x,y,z
-x,1/2+y,-z
-x,-y,-z
x,1/2-y,z
loop_
_atom_site_type_symbol
_atom_site_label
_atom_site_fract_x
_atom_site_fract_y
_atom_site_fract_z
Si Si1 0.730201 0.926354 0.078042
Si Si2 0.348006 0.076029 0.630325
Si Si3 0.078573 0.425241 0.890111
Si Si4 0.219087 0.574382 0.170279
Si Si5 0.407626 0.577555 0.198203
Si Si6 0.614158 0.428195 0.138046
Si Si7 0.822245 0.427266 0.658072
O O1 0.724570 0.750000 0.095436
O O2 0.847363 0.974484 0.134121
O O3 0.716074 0.018294 0.161896
O O4 0.629235 0.968277 0.918476
O O5 0.329804 0.250000 0.641101
O O6 0.460634 0.054811 0.668221
O O7 0.356956 0.979497 0.732126
O O8 0.244495 0.018148 0.478949
O O9 0.094101 0.250000 0.923332
O O10 0.951493 0.467572 0.756163
O O11 0.119419 0.505444 0.020776
O O12 0.194626 0.750000 0.151715
O O13 0.340381 0.535622 0.233521
O O14 0.215453 0.512024 0.273044
O O15 0.380740 0.750000 0.144699
O O16 0.601960 0.250000 0.123657
O O17 0.500000 0.500000 0.000000
O O18 0.798810 0.250000 0.625788
#
# Coordination Sequence:
#
# PCOD8071684 Si02
#       7
#     4   4   4   4   4   4   4
#     4  10  19  33  56  84 110 139 180 226 274 322
#     4  11  23  37  54  79 112 147 186 226 270 327
#     4   9  19  35  56  82 111 144 185 231 272 320
#     4   9  18  33  56  82 108 144 187 230 275 323
#     4   9  18  33  52  78 111 143 180 227 275 322
#     4  12  23  37  59  85 111 140 177 220 272 328
#     4  10  21  37  54  77 113 151 186 228 276 321
#
# _framework density 18.536905999999998
#
# number of rings (size 3 to 8) (size 9 to 14) (size 15 to 20)
#    0.000    2.000    1.429    2.571    0.000    2.857 
#    0.000    0.714    0.000    0.000    0.000    0.000 
#    0.000    0.000    0.000    0.000    0.000    0.000 
#
# Total GULP energy -347245.158505 kJ/mol
# GULP energy per Si atom -12401.612804 kJ/mol
# Density = 1.849472 g / cm^3
# Si number density = 18.536906 Si / 1000 Ang^3
#
#
#
# Elastic Constant Matrix: (Units=GPa)
#
#
# Indices 1 2 3 4 5 6 
#
# 1 121.1389 46.1248 63.4503 0.0000 -8.2428 0.0000
# 2 46.1248 84.6831 45.9754 0.0000 -5.3449 0.0000
# 3 63.4503 45.9754 112.3521 0.0000 -2.5585 0.0000
# 4 0.0000 0.0000 0.0000 26.9540 0.0000 -1.6136
# 5 -8.2428 -5.3449 -2.5585 0.0000 21.1385 0.0000
# 6 0.0000 0.0000 0.0000 -1.6136 0.0000 25.6721
#
#
#
# Elastic Compliance Matrix: (Units=1/GPa)
#
#
# Indices 1 2 3 4 5 6 
#
# 1 0.012872 -0.003718 -0.005670 0.000000 0.003393 0.000000
# 2 -0.003718 0.016460 -0.004587 0.000000 0.002157 0.000000
# 3 -0.005670 -0.004587 0.013942 0.000000 -0.001683 0.000000
# 4 0.000000 0.000000 0.000000 0.037240 0.000000 0.002341
# 5 0.003393 0.002157 -0.001683 0.000000 0.048972 0.000000
# 6 0.000000 0.000000 0.000000 0.002341 0.000000 0.039100
#
#
# Mechanical properties :
#
#
# Convention : Reuss Voigt Hill
#
# Bulk Modulus (GPa) = 65.26243 69.91945 67.59094
# Shear Modulus (GPa) = 24.79624 25.59451 25.19537
#
# Velocity S-wave (km/s) = 3.66138 3.71985 3.69073
# Velocity P-wave (km/s) = 7.29092 7.50004 7.39622
#
# Compressibility (1/GPa) = 0.01532275
#
# Stress axis : x y z
#
# Youngs Moduli (GPa) = 77.69024 60.75234 71.72820
#
# Poissons Ratio (x) = 0.22589 0.40673
# Poissons Ratio (y) = 0.28887 0.32900
# Poissons Ratio (z) = 0.44054 0.27865
#
# Static dielectric constant tensor:
#      x y z
#    x 3.878430 0.000000 0.037160 
#    y 0.000000 3.407230 0.000000 
#    z 0.037160 0.000000 3.171600 
# 
# 
# High freq. dielectric constant tensor:
#      x y z
#    x 1.735750 0.000000 0.002720 
#    y 0.000000 1.721270 0.000000 
#    z 0.002720 0.000000 1.694840 
# 
# From -- ./inp_files/53269.got.cif
#   From: 2010.06.25/outbox.cif.g09.slc.cpg/sg11_27_cif.got.tgz:53269.got - 2010.06.27 23:14:04.
