data_PCOD8071735
_publ_section_title
;
Structure prediction by ZEFSAII (Michael W. Deem and Ramdas Pophale) SiO2 
 PCOD8071735
Probable space group: P 21/M
;
_chemical_formula_sum "Si O2"
_cell_formula_units_Z 28
_cell_length_a 14.775734
_cell_length_b 9.244686
_cell_length_c 11.613061
_cell_angle_alpha 90.000000
_cell_angle_beta 60.076690
_cell_angle_gamma 90.000000
_cell_volume 1374.844761
_symmetry_space_group_name_H-M "P 21/M"
_symmetry_group_IT_number 11
_symmetry_cell_setting 'monoclinic'
loop_
_space_group_symop_operation_xyz
x,y,z
-x,1/2+y,-z
-x,-y,-z
x,1/2-y,z
loop_
_atom_site_type_symbol
_atom_site_label
_atom_site_fract_x
_atom_site_fract_y
_atom_site_fract_z
Si Si1 0.007758 0.075656 0.872874
Si Si2 0.368341 0.595187 0.015608
Si Si3 0.830028 0.582022 0.848707
Si Si4 0.580484 0.409603 0.521426
Si Si5 0.572090 0.000778 0.779254
Si Si6 0.201673 0.408044 0.390849
Si Si7 0.182634 0.579154 0.622102
O O1 0.008810 0.250000 0.882229
O O2 0.113865 0.017792 0.749496
O O3 0.910552 0.022597 0.859777
O O4 0.000000 0.000000 0.000000
O O5 0.313109 0.750000 0.028091
O O6 0.287206 0.466115 0.042511
O O7 0.409109 0.600663 0.121357
O O8 0.466007 0.587571 0.867044
O O9 0.844861 0.750000 0.874903
O O10 0.848621 0.558696 0.701182
O O11 0.500000 0.500000 0.500000
O O12 0.566610 0.250000 0.482287
O O13 0.556924 0.408063 0.672532
O O14 0.698626 0.460368 0.421114
O O15 0.672651 0.898471 0.699845
O O16 0.164503 0.250000 0.458129
O O17 0.162101 0.531806 0.502799
O O18 0.157329 0.750000 0.649333
#
# Coordination Sequence:
#
# PCOD8071735 Si02
#       7
#     4   4   4   4   4   4   4
#     4  12  26  45  67  87 113 151 194 239 289 346
#     4  10  19  33  57  86 117 155 197 242 294 349
#     4  10  22  39  59  87 121 154 194 244 293 347
#     4  10  22  38  58  84 116 154 193 235 280 335
#     4   9  19  33  54  83 120 156 194 241 292 344
#     4   9  18  35  60  89 119 152 193 240 291 344
#     4  10  22  41  63  88 118 152 192 239 293 346
#
# _framework density 20.365935
#
# number of rings (size 3 to 8) (size 9 to 14) (size 15 to 20)
#    0.000    2.000    0.000    3.000    0.000   13.143 
#    0.000    1.429    0.000    0.000    0.000    0.000 
#    0.000    0.000    0.000    0.000    0.000    0.000 
#
# Total GULP energy -347075.991662 kJ/mol
# GULP energy per Si atom -12395.571131 kJ/mol
# Density = 2.031958 g / cm^3
# Si number density = 20.365935 Si / 1000 Ang^3
#
#
#
# Elastic Constant Matrix: (Units=GPa)
#
#
# Indices 1 2 3 4 5 6 
#
# 1 113.1812 59.1816 57.1806 0.0000 4.9348 0.0000
# 2 59.1816 149.2478 58.6992 0.0000 -0.3582 0.0000
# 3 57.1806 58.6992 124.5783 0.0000 -7.7510 0.0000
# 4 0.0000 0.0000 0.0000 26.0003 0.0000 0.2011
# 5 4.9348 -0.3582 -7.7510 0.0000 21.8884 0.0000
# 6 0.0000 0.0000 0.0000 0.2011 0.0000 32.7483
#
#
#
# Elastic Compliance Matrix: (Units=1/GPa)
#
#
# Indices 1 2 3 4 5 6 
#
# 1 0.013216 -0.003376 -0.004769 0.000000 -0.004724 0.000000
# 2 -0.003376 0.009121 -0.002752 0.000000 -0.000064 0.000000
# 3 -0.004769 -0.002752 0.011838 0.000000 0.005222 0.000000
# 4 0.000000 0.000000 0.000000 0.038463 0.000000 -0.000236
# 5 -0.004724 -0.000064 0.005222 0.000000 0.048599 0.000000
# 6 0.000000 0.000000 0.000000 -0.000236 0.000000 0.030537
#
#
# Mechanical properties :
#
#
# Convention : Reuss Voigt Hill
#
# Bulk Modulus (GPa) = 80.77463 81.90334 81.33899
# Shear Modulus (GPa) = 28.13778 30.25713 29.19746
#
# Velocity S-wave (km/s) = 3.72103 3.85863 3.79045
# Velocity P-wave (km/s) = 7.62950 7.75597 7.69299
#
# Compressibility (1/GPa) = 0.01238012
#
# Stress axis : x y z
#
# Youngs Moduli (GPa) = 75.66446 109.63326 84.47533
#
# Poissons Ratio (x) = 0.37015 0.40288
# Poissons Ratio (y) = 0.25546 0.23249
# Poissons Ratio (z) = 0.36086 0.30172
#
# Static dielectric constant tensor:
#      x y z
#    x 3.608140 0.000000 -0.017830 
#    y 0.000000 3.808800 0.000000 
#    z -0.017830 0.000000 3.749470 
# 
# 
# High freq. dielectric constant tensor:
#      x y z
#    x 1.788300 0.000000 -0.003290 
#    y 0.000000 1.801030 0.000000 
#    z -0.003290 0.000000 1.794550 
# 
# From -- ./inp_files/37891.got.cif
#   From: 2010.06.25/outbox.cif.g09.slc.cpg/sg11_19_cif.got.tgz:37891.got - 2010.06.27 23:14:04.
