data_PCOD8071390
_publ_section_title
;
Structure prediction by ZEFSAII (Michael W. Deem and Ramdas Pophale) SiO2 
 PCOD8071390
Probable space group: P 21/M
;
_chemical_formula_sum "Si O2"
_cell_formula_units_Z 32
_cell_length_a 25.024267
_cell_length_b 9.078999
_cell_length_c 10.277119
_cell_angle_alpha 90.000000
_cell_angle_beta 129.814831
_cell_angle_gamma 90.000000
_cell_volume 1793.488314
_symmetry_space_group_name_H-M "P 21/M"
_symmetry_group_IT_number 11
_symmetry_cell_setting 'monoclinic'
loop_
_space_group_symop_operation_xyz
x,y,z
-x,1/2+y,-z
-x,-y,-z
x,1/2-y,z
loop_
_atom_site_type_symbol
_atom_site_label
_atom_site_fract_x
_atom_site_fract_y
_atom_site_fract_z
Si Si1 0.171133 0.579005 0.262013
Si Si2 0.921509 0.077956 0.637316
Si Si3 0.567392 0.086705 0.754008
Si Si4 0.282395 0.576309 0.053385
Si Si5 0.563876 0.414617 0.438278
Si Si6 0.297986 0.075050 0.351009
Si Si7 0.064240 0.576060 0.871796
Si Si8 0.863456 0.075828 0.276250
O O1 0.191022 0.750000 0.275462
O O2 0.137848 0.547633 0.349882
O O3 0.240384 0.480704 0.363076
O O4 0.118007 0.528863 0.066934
O O5 0.938229 0.250000 0.652313
O O6 0.894858 0.010956 0.458416
O O7 0.991097 0.997387 0.790362
O O8 0.551658 0.250000 0.782662
O O9 0.646336 0.037987 0.913689
O O10 0.563805 0.085653 0.593094
O O11 0.510143 0.978675 0.727030
O O12 0.280741 0.750000 0.087190
O O13 0.277143 0.486150 0.177848
O O14 0.217448 0.529506 0.862662
O O15 0.572038 0.250000 0.395265
O O16 0.627098 0.514459 0.485403
O O17 0.301059 0.250000 0.352274
O O18 0.053826 0.750000 0.853763
O O19 0.092612 0.515812 0.777772
O O20 0.868295 0.250000 0.287112
#
# Coordination Sequence:
#
# PCOD8071390 Si02
#       8
#     4   4   4   4   4   4   4   4
#     4  10  20  35  51  69  96 131 163 197 245 294
#     4  10  21  34  51  74  98 124 163 205 239 287
#     4   8  14  23  39  64  92 125 160 194 231 281
#     4   9  16  30  49  67  96 132 162 194 242 292
#     4   9  16  26  41  62  95 132 158 191 241 290
#     4  11  20  29  46  71  96 123 163 207 239 282
#     4  10  19  33  53  70  95 131 161 196 246 295
#     4   9  17  32  52  73  97 129 163 197 240 291
#
# _framework density 17.842324000000001
#
# number of rings (size 3 to 8) (size 9 to 14) (size 15 to 20)
#    0.000    2.500    1.250    3.000    0.000    4.000 
#    0.000    0.625    0.000    0.000    0.000    0.875 
#    0.000    0.000    0.000    0.000    0.000    0.000 
#
# Total GULP energy -396740.743976 kJ/mol
# GULP energy per Si atom -12398.148249 kJ/mol
# Density = 1.780171 g / cm^3
# Si number density = 17.842324 Si / 1000 Ang^3
#
#
#
# Elastic Constant Matrix: (Units=GPa)
#
#
# Indices 1 2 3 4 5 6 
#
# 1 78.8382 38.5434 36.5681 0.0000 19.5609 0.0000
# 2 38.5434 74.1210 21.8869 0.0000 16.7903 0.0000
# 3 36.5681 21.8869 37.6821 0.0000 13.8625 0.0000
# 4 0.0000 0.0000 0.0000 16.9973 0.0000 11.8340
# 5 19.5609 16.7903 13.8625 0.0000 38.0385 0.0000
# 6 0.0000 0.0000 0.0000 11.8340 0.0000 25.6098
#
#
#
# Elastic Compliance Matrix: (Units=1/GPa)
#
#
# Indices 1 2 3 4 5 6 
#
# 1 0.026277 -0.006974 -0.020337 0.000000 -0.003023 0.000000
# 2 -0.006974 0.018774 -0.002780 0.000000 -0.003687 0.000000
# 3 -0.020337 -0.002780 0.050339 0.000000 -0.006660 0.000000
# 4 0.000000 0.000000 0.000000 0.086738 0.000000 -0.040081
# 5 -0.003023 -0.003687 -0.006660 0.000000 0.031898 0.000000
# 6 0.000000 0.000000 0.000000 -0.040081 0.000000 0.057568
#
#
# Mechanical properties :
#
#
# Convention : Reuss Voigt Hill
#
# Bulk Modulus (GPa) = 28.40379 42.73757 35.57068
# Shear Modulus (GPa) = 14.55545 22.37197 18.46371
#
# Velocity S-wave (km/s) = 2.85929 3.54485 3.22036
# Velocity P-wave (km/s) = 5.18214 6.38432 5.81438
#
# Compressibility (1/GPa) = 0.03520658
#
# Stress axis : x y z
#
# Youngs Moduli (GPa) = 38.05599 53.26433 19.86540
#
# Poissons Ratio (x) = 0.37147 0.40401
# Poissons Ratio (y) = 0.26541 0.05523
# Poissons Ratio (z) = 0.77396 0.14808
#
# Static dielectric constant tensor:
#      x y z
#    x 3.323600 0.000000 0.291930 
#    y 0.000000 3.168180 0.000000 
#    z 0.291930 0.000000 3.330590 
# 
# 
# High freq. dielectric constant tensor:
#      x y z
#    x 1.682500 0.000000 0.034150 
#    y 0.000000 1.673800 0.000000 
#    z 0.034150 0.000000 1.669090 
# 
# From -- ./inp_files/43832.got.cif
#   From: 2010.06.25/outbox.cif.g09.slc.cpg/sg11_22_cif.got.tgz:43832.got - 2010.06.27 23:14:04.
