data_PCOD8071450
_publ_section_title
;
Structure prediction by ZEFSAII (Michael W. Deem and Ramdas Pophale) SiO2 
 PCOD8071450
Probable space group: P 21/M
;
_chemical_formula_sum "Si O2"
_cell_formula_units_Z 32
_cell_length_a 11.486106
_cell_length_b 8.969683
_cell_length_c 31.862778
_cell_angle_alpha 90.000000
_cell_angle_beta 148.623701
_cell_angle_gamma 90.000000
_cell_volume 1709.168392
_symmetry_space_group_name_H-M "P 21/M"
_symmetry_group_IT_number 11
_symmetry_cell_setting 'monoclinic'
loop_
_space_group_symop_operation_xyz
x,y,z
-x,1/2+y,-z
-x,-y,-z
x,1/2-y,z
loop_
_atom_site_type_symbol
_atom_site_label
_atom_site_fract_x
_atom_site_fract_y
_atom_site_fract_z
Si Si1 0.005621 0.077263 0.599268
Si Si2 0.030098 0.574349 0.946102
Si Si3 0.810527 0.578336 0.253448
Si Si4 0.370755 0.426871 0.563846
Si Si5 0.341837 0.925017 0.640911
Si Si6 0.656044 0.574854 0.896728
Si Si7 0.140692 0.076792 0.195284
Si Si8 0.879774 0.425475 0.726442
O O1 0.010306 0.250000 0.587234
O O2 0.040474 0.058397 0.659442
O O3 0.198948 0.987931 0.635066
O O4 0.765579 0.004581 0.515486
O O5 0.066095 0.750000 0.959490
O O6 0.816080 0.525984 0.907770
O O7 0.989852 0.520433 0.886129
O O8 0.252804 0.495609 0.031935
O O9 0.743046 0.750000 0.225921
O O10 0.588738 0.482266 0.189194
O O11 0.956006 0.517178 0.259316
O O12 0.338971 0.250000 0.552381
O O13 0.272256 0.488621 0.577265
O O14 0.627999 0.476534 0.637930
O O15 0.294436 0.750000 0.620522
O O16 0.598548 0.958251 0.730992
O O17 0.648145 0.750000 0.900009
O O18 0.100762 0.250000 0.190381
O O19 0.041413 0.993168 0.205060
O O20 0.889144 0.250000 0.733696
#
# Coordination Sequence:
#
# PCOD8071450 Si02
#       8
#     4   4   4   4   4   4   4   4
#     4  11  22  34  51  76 104 136 174 213 259 314
#     4   9  18  34  55  81 113 140 164 203 257 310
#     4  10  22  39  55  73 103 140 174 213 262 308
#     4  10  20  35  54  76 103 135 173 216 261 307
#     4  10  19  33  53  78 109 138 168 211 261 309
#     4  10  20  34  55  83 110 137 171 209 251 304
#     4   9  18  33  55  80 104 135 173 212 256 305
#     4   9  20  38  56  74 100 136 176 217 259 304
#
# _framework density 18.722556000000001
#
# number of rings (size 3 to 8) (size 9 to 14) (size 15 to 20)
#    0.000    2.250    0.000    2.625    0.000    5.000 
#    0.000    0.625    0.000    0.000    0.000    0.000 
#    0.000    0.000    0.000    0.000    0.000    0.000 
#
# Total GULP energy -396910.057781 kJ/mol
# GULP energy per Si atom -12403.439306 kJ/mol
# Density = 1.867994 g / cm^3
# Si number density = 18.722556 Si / 1000 Ang^3
#
#
#
# Elastic Constant Matrix: (Units=GPa)
#
#
# Indices 1 2 3 4 5 6 
#
# 1 85.3693 26.1995 32.3066 0.0000 -13.9056 0.0000
# 2 26.1995 56.4101 36.5732 0.0000 -6.1603 0.0000
# 3 32.3066 36.5732 97.8446 0.0000 -22.6910 0.0000
# 4 0.0000 0.0000 0.0000 34.9847 0.0000 -1.0140
# 5 -13.9056 -6.1603 -22.6910 0.0000 23.0503 0.0000
# 6 0.0000 0.0000 0.0000 -1.0140 0.0000 24.9806
#
#
#
# Elastic Compliance Matrix: (Units=1/GPa)
#
#
# Indices 1 2 3 4 5 6 
#
# 1 0.014900 -0.005253 -0.001551 0.000000 0.006058 0.000000
# 2 -0.005253 0.025416 -0.008974 0.000000 -0.005211 0.000000
# 3 -0.001551 -0.008974 0.017252 0.000000 0.013649 0.000000
# 4 0.000000 0.000000 0.000000 0.028618 0.000000 0.001162
# 5 0.006058 -0.005211 0.013649 0.000000 0.059081 0.000000
# 6 0.000000 0.000000 0.000000 0.001162 0.000000 0.040078
#
#
# Mechanical properties :
#
#
# Convention : Reuss Voigt Hill
#
# Bulk Modulus (GPa) = 38.44467 47.75360 43.09913
# Shear Modulus (GPa) = 22.16574 26.23942 24.20258
#
# Velocity S-wave (km/s) = 3.44453 3.74771 3.59931
# Velocity P-wave (km/s) = 6.03309 6.65495 6.35163
#
# Compressibility (1/GPa) = 0.02601141
#
# Stress axis : x y z
#
# Youngs Moduli (GPa) = 67.11563 39.34468 57.96295
#
# Poissons Ratio (x) = 0.20667 0.08992
# Poissons Ratio (y) = 0.35254 0.52018
# Poissons Ratio (z) = 0.10412 0.35309
#
# Static dielectric constant tensor:
#      x y z
#    x 3.399640 0.000000 -0.103620 
#    y 0.000000 3.431480 0.000000 
#    z -0.103620 0.000000 3.532220 
# 
# 
# High freq. dielectric constant tensor:
#      x y z
#    x 1.715350 0.000000 -0.008080 
#    y 0.000000 1.729230 0.000000 
#    z -0.008080 0.000000 1.731510 
# 
# From -- ./inp_files/69426.got.cif
#   From: 2010.06.25/outbox.cif.g09.slc.cpg/sg11_35_cif.got.tgz:69426.got - 2010.06.27 23:14:04.
