data_PCOD8071628
_publ_section_title
;
Structure prediction by ZEFSAII (Michael W. Deem and Ramdas Pophale) SiO2 
 PCOD8071628
Probable space group: P 21/M
;
_chemical_formula_sum "Si O2"
_cell_formula_units_Z 28
_cell_length_a 11.829327
_cell_length_b 9.034866
_cell_length_c 13.425322
_cell_angle_alpha 90.000000
_cell_angle_beta 104.517950
_cell_angle_gamma 90.000000
_cell_volume 1389.033901
_symmetry_space_group_name_H-M "P 21/M"
_symmetry_group_IT_number 11
_symmetry_cell_setting 'monoclinic'
loop_
_space_group_symop_operation_xyz
x,y,z
-x,1/2+y,-z
-x,-y,-z
x,1/2-y,z
loop_
_atom_site_type_symbol
_atom_site_label
_atom_site_fract_x
_atom_site_fract_y
_atom_site_fract_z
Si Si1 0.902233 0.919972 0.039749
Si Si2 0.503835 0.919983 0.106529
Si Si3 0.612319 0.423613 0.478903
Si Si4 0.703876 0.920941 0.843935
Si Si5 0.190306 0.576762 0.322095
Si Si6 0.696319 0.579966 0.305521
Si Si7 0.072003 0.075436 0.735529
O O1 0.939997 0.750000 0.053454
O O2 0.899925 0.990913 0.149225
O O3 0.776669 0.939450 0.961430
O O4 0.000000 0.000000 0.000000
O O5 0.469329 0.750000 0.081301
O O6 0.631203 0.933422 0.184645
O O7 0.415587 0.991324 0.166769
O O8 0.500000 0.000000 0.000000
O O9 0.500000 0.500000 0.500000
O O10 0.589331 0.250000 0.471871
O O11 0.725119 0.465684 0.569050
O O12 0.632216 0.479640 0.372040
O O13 0.676084 0.750000 0.815231
O O14 0.775571 0.986523 0.767955
O O15 0.196793 0.750000 0.297084
O O16 0.058963 0.530838 0.326621
O O17 0.694064 0.750000 0.342189
O O18 0.829024 0.518634 0.319744
O O19 0.087521 0.250000 0.744328
#
# Coordination Sequence:
#
# PCOD8071628 Si02
#       7
#     4   4   4   4   4   4   4
#     4  10  19  33  55  83 117 156 194 234 283 342
#     4  11  23  39  60  86 118 155 196 239 290 352
#     4  11  24  41  62  88 115 149 196 246 294 350
#     4  11  22  35  56  88 121 153 197 245 290 347
#     4  10  21  38  60  85 114 152 197 240 292 352
#     4  10  22  41  63  86 116 156 194 236 295 354
#     4   9  18  36  60  83 115 155 191 233 289 350
#
# _framework density 20.157896000000001
#
# number of rings (size 3 to 8) (size 9 to 14) (size 15 to 20)
#    0.000    1.714    1.429    3.000    0.000    9.143 
#    0.000    1.429    0.000    0.000    0.000    0.000 
#    0.000    0.000    0.000    0.000    0.000    0.000 
#
# Total GULP energy -347239.758388 kJ/mol
# GULP energy per Si atom -12401.419942 kJ/mol
# Density = 2.011202 g / cm^3
# Si number density = 20.157896 Si / 1000 Ang^3
#
#
#
# Elastic Constant Matrix: (Units=GPa)
#
#
# Indices 1 2 3 4 5 6 
#
# 1 156.3967 52.4758 45.8787 0.0000 -5.9209 0.0000
# 2 52.4758 84.5726 40.6855 0.0000 1.2859 0.0000
# 3 45.8787 40.6855 102.3538 0.0000 -0.4211 0.0000
# 4 0.0000 0.0000 0.0000 29.9757 0.0000 -4.0428
# 5 -5.9209 1.2859 -0.4211 0.0000 35.0879 0.0000
# 6 0.0000 0.0000 0.0000 -4.0428 0.0000 29.7476
#
#
#
# Elastic Compliance Matrix: (Units=1/GPa)
#
#
# Indices 1 2 3 4 5 6 
#
# 1 0.008510 -0.004293 -0.002102 0.000000 0.001568 0.000000
# 2 -0.004293 0.016799 -0.004759 0.000000 -0.001397 0.000000
# 3 -0.002102 -0.004759 0.012604 0.000000 -0.000029 0.000000
# 4 0.000000 0.000000 0.000000 0.033983 0.000000 0.004618
# 5 0.001568 -0.001397 -0.000029 0.000000 0.028815 0.000000
# 6 0.000000 0.000000 0.000000 0.004618 0.000000 0.034244
#
#
# Mechanical properties :
#
#
# Convention : Reuss Voigt Hill
#
# Bulk Modulus (GPa) = 64.08149 69.04480 66.56315
# Shear Modulus (GPa) = 30.77599 32.58110 31.67855
#
# Velocity S-wave (km/s) = 3.91160 4.02468 3.96854
# Velocity P-wave (km/s) = 7.22908 7.47822 7.35470
#
# Compressibility (1/GPa) = 0.01560513
#
# Stress axis : x y z
#
# Youngs Moduli (GPa) = 117.50282 59.52848 79.34278
#
# Poissons Ratio (x) = 0.25558 0.16675
# Poissons Ratio (y) = 0.50449 0.37757
# Poissons Ratio (z) = 0.24695 0.28328
#
# Static dielectric constant tensor:
#      x y z
#    x 4.435980 0.000000 0.472210 
#    y 0.000000 3.485060 0.000000 
#    z 0.472210 0.000000 3.958630 
# 
# 
# High freq. dielectric constant tensor:
#      x y z
#    x 1.802320 0.000000 0.005050 
#    y 0.000000 1.771900 0.000000 
#    z 0.005050 0.000000 1.787470 
# 
# From -- ./inp_files/49024.got.cif
#   From: 2010.06.25/outbox.cif.g09.slc.cpg/sg11_25_cif.got.tgz:49024.got - 2010.06.27 23:14:04.
