data_PCOD8071003
_publ_section_title
;
Structure prediction by ZEFSAII (Michael W. Deem and Ramdas Pophale) SiO2 
 PCOD8071003
Probable space group: P 21/M
;
_chemical_formula_sum "Si O2"
_cell_formula_units_Z 32
_cell_length_a 11.503233
_cell_length_b 8.837982
_cell_length_c 31.687569
_cell_angle_alpha 90.000000
_cell_angle_beta 148.580159
_cell_angle_gamma 90.000000
_cell_volume 1679.399385
_symmetry_space_group_name_H-M "P 21/M"
_symmetry_group_IT_number 11
_symmetry_cell_setting 'monoclinic'
loop_
_space_group_symop_operation_xyz
x,y,z
-x,1/2+y,-z
-x,-y,-z
x,1/2-y,z
loop_
_atom_site_type_symbol
_atom_site_label
_atom_site_fract_x
_atom_site_fract_y
_atom_site_fract_z
Si Si1 0.409041 0.425839 0.173890
Si Si2 0.334253 0.425642 0.610665
Si Si3 0.006816 0.425370 0.435253
Si Si4 0.973847 0.425950 0.893003
Si Si5 0.883431 0.428802 0.228312
Si Si6 0.118525 0.071840 0.684919
Si Si7 0.611836 0.925191 0.927740
Si Si8 0.844520 0.423751 0.759831
O O1 0.464578 0.250000 0.197908
O O2 0.231694 0.480109 0.152858
O O3 0.633124 0.519769 0.249824
O O4 0.313234 0.454653 0.097225
O O5 0.308556 0.250000 0.615078
O O6 0.218577 0.523375 0.611073
O O7 0.590543 0.475046 0.687872
O O8 0.221276 0.459698 0.530586
O O9 0.984095 0.250000 0.417342
O O10 0.041468 0.516901 0.402569
O O11 0.941251 0.250000 0.895219
O O12 0.983096 0.447340 0.845682
O O13 0.202077 0.495370 0.983388
O O14 0.874216 0.250000 0.231765
O O15 0.968196 0.500211 0.298312
O O16 0.635110 0.494226 0.140936
O O17 0.050551 0.470551 0.243022
O O18 0.107920 0.250000 0.685906
O O19 0.597707 0.750000 0.934086
O O20 0.855105 0.250000 0.748122
#
# Coordination Sequence:
#
# PCOD8071003 Si02
#       8
#     4   4   4   4   4   4   4   4
#     4  10  19  32  51  78 111 140 173 217 263 311
#     4   9  19  35  54  80 115 147 173 209 258 312
#     4  10  19  33  56  84 112 140 173 213 259 311
#     4  10  19  32  52  77 107 142 177 214 261 315
#     4  10  21  38  56  74 101 137 179 224 265 306
#     4  11  21  35  56  79 104 136 176 217 264 320
#     4   8  17  33  51  74 105 139 174 217 264 309
#     4  10  21  36  53  75 104 139 178 216 258 310
#
# _framework density 19.054431000000001
#
# number of rings (size 3 to 8) (size 9 to 14) (size 15 to 20)
#    0.000    2.250    0.000    4.125    0.000    3.000 
#    0.000    3.750    0.000    0.000    0.000    0.000 
#    0.000    0.000    0.000    0.000    0.000    0.000 
#
# Total GULP energy -396851.561767 kJ/mol
# GULP energy per Si atom -12401.611305 kJ/mol
# Density = 1.901106 g / cm^3
# Si number density = 19.054431 Si / 1000 Ang^3
#
#
#
# Elastic Constant Matrix: (Units=GPa)
#
#
# Indices 1 2 3 4 5 6 
#
# 1 76.2508 32.8230 26.6033 0.0000 -12.9444 0.0000
# 2 32.8230 81.5561 25.5489 0.0000 -10.2642 0.0000
# 3 26.6033 25.5489 76.9375 0.0000 -19.9083 0.0000
# 4 0.0000 0.0000 0.0000 22.9531 0.0000 -2.3915
# 5 -12.9444 -10.2642 -19.9083 0.0000 24.1522 0.0000
# 6 0.0000 0.0000 0.0000 -2.3915 0.0000 33.7613
#
#
#
# Elastic Compliance Matrix: (Units=1/GPa)
#
#
# Indices 1 2 3 4 5 6 
#
# 1 0.017265 -0.005445 -0.003008 0.000000 0.004460 0.000000
# 2 -0.005445 0.015535 -0.002953 0.000000 0.001250 0.000000
# 3 -0.003008 -0.002953 0.018147 0.000000 0.012091 0.000000
# 4 0.000000 0.000000 0.000000 0.043891 0.000000 0.003109
# 5 0.004460 0.001250 0.012091 0.000000 0.054293 0.000000
# 6 0.000000 0.000000 0.000000 0.003109 0.000000 0.029840
#
#
# Mechanical properties :
#
#
# Convention : Reuss Voigt Hill
#
# Bulk Modulus (GPa) = 35.54099 44.96609 40.25354
# Shear Modulus (GPa) = 23.67879 26.15793 24.91836
#
# Velocity S-wave (km/s) = 3.52901 3.70915 3.62020
# Velocity P-wave (km/s) = 5.94122 6.48026 6.21658
#
# Compressibility (1/GPa) = 0.02813652
#
# Stress axis : x y z
#
# Youngs Moduli (GPa) = 57.92096 64.37025 55.10621
#
# Poissons Ratio (x) = 0.35049 0.16574
# Poissons Ratio (y) = 0.31537 0.16271
# Poissons Ratio (z) = 0.17421 0.19006
#
# Static dielectric constant tensor:
#      x y z
#    x 3.297160 0.000000 -0.114210 
#    y 0.000000 3.358830 0.000000 
#    z -0.114210 0.000000 3.777930 
# 
# 
# High freq. dielectric constant tensor:
#      x y z
#    x 1.727190 0.000000 -0.013770 
#    y 0.000000 1.731750 0.000000 
#    z -0.013770 0.000000 1.747900 
# 
# From -- ./inp_files/66955.got.cif
#   From: 2010.06.25/outbox.cif.g09.slc.cpg/sg11_34_cif.got.tgz:66955.got - 2010.06.27 23:14:04.
