data_PCOD8071725
_publ_section_title
;
Structure prediction by ZEFSAII (Michael W. Deem and Ramdas Pophale) SiO2 
 PCOD8071725
Probable space group: P 21/M
;
_chemical_formula_sum "Si O2"
_cell_formula_units_Z 28
_cell_length_a 13.217161
_cell_length_b 13.663924
_cell_length_c 12.315464
_cell_angle_alpha 90.000000
_cell_angle_beta 138.028921
_cell_angle_gamma 90.000000
_cell_volume 1487.413446
_symmetry_space_group_name_H-M "P 21/M"
_symmetry_group_IT_number 11
_symmetry_cell_setting 'monoclinic'
loop_
_space_group_symop_operation_xyz
x,y,z
-x,1/2+y,-z
-x,-y,-z
x,1/2-y,z
loop_
_atom_site_type_symbol
_atom_site_label
_atom_site_fract_x
_atom_site_fract_y
_atom_site_fract_z
Si Si1 0.021762 0.027067 0.827911
Si Si2 0.182565 0.040648 0.160953
Si Si3 0.336721 0.639424 0.203363
Si Si4 0.332205 0.533561 0.986824
Si Si5 0.432204 0.865601 0.850333
Si Si6 0.242649 0.636036 0.488298
Si Si7 0.493263 0.140882 0.451319
O O1 0.920462 0.088158 0.663036
O O2 0.151651 0.978135 0.858187
O O3 0.099333 0.089544 0.989274
O O4 0.913884 0.948036 0.805293
O O5 0.349847 0.078841 0.306116
O O6 0.198808 0.925085 0.141597
O O7 0.276312 0.750000 0.139258
O O8 0.479797 0.638767 0.398788
O O9 0.399199 0.594818 0.140941
O O10 0.356874 0.599098 0.901055
O O11 0.414341 0.427662 0.047253
O O12 0.473552 0.750000 0.886857
O O13 0.307315 0.888117 0.658768
O O14 0.218032 0.750000 0.451808
O O15 0.361221 0.595551 0.493542
O O16 0.464590 0.250000 0.384531
#
# Coordination Sequence:
#
# PCOD8071725 Si02
#       7
#     4   4   4   4   4   4   4
#     4  10  21  33  52  83 114 147 185 225 290 336
#     4  10  20  34  52  82 118 154 182 225 282 339
#     4  10  19  33  57  84 111 148 190 229 274 331
#     4  10  22  39  60  86 110 149 187 241 287 327
#     4  10  22  41  62  83 108 147 196 237 282 338
#     4  10  20  34  56  83 113 151 190 231 278 334
#     4  10  20  34  55  84 114 151 192 229 272 333
#
# _framework density 18.824624
#
# number of rings (size 3 to 8) (size 9 to 14) (size 15 to 20)
#    0.000    2.000    1.429    2.571    2.000    1.714 
#    0.000    6.429    0.000    0.000    0.000    0.000 
#    0.000    0.000    0.000    0.000    0.000    0.000 
#
# Total GULP energy -346980.851696 kJ/mol
# GULP energy per Si atom -12392.173275 kJ/mol
# Density = 1.878178 g / cm^3
# Si number density = 18.824624 Si / 1000 Ang^3
#
#
#
# Elastic Constant Matrix: (Units=GPa)
#
#
# Indices 1 2 3 4 5 6 
#
# 1 116.2019 44.9724 49.0405 0.0000 -5.6720 0.0000
# 2 44.9724 96.3403 48.1751 0.0000 -0.5795 0.0000
# 3 49.0405 48.1751 116.0762 0.0000 -4.0462 0.0000
# 4 0.0000 0.0000 0.0000 21.5125 0.0000 -7.8165
# 5 -5.6720 -0.5795 -4.0462 0.0000 32.9375 0.0000
# 6 0.0000 0.0000 0.0000 -7.8165 0.0000 9.9007
#
#
#
# Elastic Compliance Matrix: (Units=1/GPa)
#
#
# Indices 1 2 3 4 5 6 
#
# 1 0.011497 -0.003729 -0.003257 0.000000 0.001514 0.000000
# 2 -0.003729 0.014314 -0.004398 0.000000 -0.000931 0.000000
# 3 -0.003257 -0.004398 0.011845 0.000000 0.000817 0.000000
# 4 0.000000 0.000000 0.000000 0.065183 0.000000 0.051462
# 5 0.001514 -0.000931 0.000817 0.000000 0.030705 0.000000
# 6 0.000000 0.000000 0.000000 0.051462 0.000000 0.141632
#
#
# Mechanical properties :
#
#
# Convention : Reuss Voigt Hill
#
# Bulk Modulus (GPa) = 67.16620 68.11048 67.63834
# Shear Modulus (GPa) = 16.50667 25.29882 20.90274
#
# Velocity S-wave (km/s) = 2.96440 3.66993 3.33587
# Velocity P-wave (km/s) = 6.89016 7.36329 7.13065
#
# Compressibility (1/GPa) = 0.01488844
#
# Stress axis : x y z
#
# Youngs Moduli (GPa) = 86.97554 69.86051 84.42607
#
# Poissons Ratio (x) = 0.26054 0.27497
# Poissons Ratio (y) = 0.32436 0.37128
# Poissons Ratio (z) = 0.28327 0.30722
#
# Static dielectric constant tensor:
#      x y z
#    x 3.398300 0.000000 -0.097870 
#    y 0.000000 3.451870 0.000000 
#    z -0.097870 0.000000 3.597790 
# 
# 
# High freq. dielectric constant tensor:
#      x y z
#    x 1.724800 0.000000 -0.004730 
#    y 0.000000 1.714110 0.000000 
#    z -0.004730 0.000000 1.741960 
# 
# From -- ./inp_files/39484.got.cif
#   From: 2010.06.25/outbox.cif.g09.slc.cpg/sg11_20_cif.got.tgz:39484.got - 2010.06.27 23:14:04.
