data_PCOD8071130
_publ_section_title
;
Structure prediction by ZEFSAII (Michael W. Deem and Ramdas Pophale) SiO2 
 PCOD8071130
Probable space group: P 21/M
;
_chemical_formula_sum "Si O2"
_cell_formula_units_Z 32
_cell_length_a 18.546177
_cell_length_b 8.840469
_cell_length_c 26.553420
_cell_angle_alpha 90.000000
_cell_angle_beta 24.335370
_cell_angle_gamma 90.000000
_cell_volume 1794.024837
_symmetry_space_group_name_H-M "P 21/M"
_symmetry_group_IT_number 11
_symmetry_cell_setting 'monoclinic'
loop_
_space_group_symop_operation_xyz
x,y,z
-x,1/2+y,-z
-x,-y,-z
x,1/2-y,z
loop_
_atom_site_type_symbol
_atom_site_label
_atom_site_fract_x
_atom_site_fract_y
_atom_site_fract_z
Si Si1 0.418492 0.070105 0.729766
Si Si2 0.110900 0.922933 0.222334
Si Si3 0.789981 0.570378 0.494626
Si Si4 0.006493 0.428088 0.441753
Si Si5 0.763345 0.573857 0.052471
Si Si6 0.306929 0.427777 0.012656
Si Si7 0.102228 0.926702 0.889540
Si Si8 0.315948 0.575037 0.189510
O O1 0.430412 0.250000 0.720471
O O2 0.603892 0.997705 0.598637
O O3 0.288471 0.012357 0.767891
O O4 0.347214 0.008698 0.829507
O O5 0.095923 0.750000 0.215878
O O6 0.271336 0.947802 0.159187
O O7 0.929171 0.977576 0.363042
O O8 0.146837 0.015330 0.148716
O O9 0.781284 0.750000 0.505744
O O10 0.849658 0.500308 0.509492
O O11 0.977498 0.250000 0.463021
O O12 0.194328 0.465789 0.299157
O O13 0.000000 0.500000 0.500000
O O14 0.721250 0.750000 0.079016
O O15 0.703151 0.501467 0.037450
O O16 0.973731 0.546815 0.923522
O O17 0.288270 0.250000 0.020464
O O18 0.487072 0.476409 0.924560
O O19 0.134744 0.750000 0.878370
O O20 0.000000 0.000000 0.000000
O O21 0.282412 0.750000 0.226446
#
# Coordination Sequence:
#
# PCOD8071130 Si02
#       8
#     4   4   4   4   4   4   4   4
#     4  10  19  32  53  80 106 134 170 209 255 315
#     4   9  19  35  50  70 102 135 171 217 259 302
#     4  10  21  37  54  75 102 134 174 214 258 305
#     4  11  22  35  51  72 103 139 173 212 257 306
#     4   8  17  31  48  76 107 133 163 204 258 306
#     4  10  19  32  53  76 100 133 172 215 258 307
#     4   9  16  30  50  72 104 139 168 206 256 310
#     4   9  19  34  51  72 100 135 174 215 259 303
#
# _framework density 17.836988000000002
#
# number of rings (size 3 to 8) (size 9 to 14) (size 15 to 20)
#    0.000    2.500    0.000    4.125    1.750    3.000 
#    0.000    3.750    0.000    0.750    0.000    0.000 
#    0.000    0.000    0.000    0.000    0.000    0.000 
#
# Total GULP energy -396651.198862 kJ/mol
# GULP energy per Si atom -12395.349964 kJ/mol
# Density = 1.779639 g / cm^3
# Si number density = 17.836988 Si / 1000 Ang^3
#
#
#
# Elastic Constant Matrix: (Units=GPa)
#
#
# Indices 1 2 3 4 5 6 
#
# 1 65.1562 19.8825 44.3640 0.0000 -9.5372 0.0000
# 2 19.8825 66.1342 30.4083 0.0000 -7.2419 0.0000
# 3 44.3640 30.4083 95.4143 0.0000 -22.0683 0.0000
# 4 0.0000 0.0000 0.0000 31.9335 0.0000 -1.2620
# 5 -9.5372 -7.2419 -22.0683 0.0000 26.2951 0.0000
# 6 0.0000 0.0000 0.0000 -1.2620 0.0000 24.1955
#
#
#
# Elastic Compliance Matrix: (Units=1/GPa)
#
#
# Indices 1 2 3 4 5 6 
#
# 1 0.022770 -0.002320 -0.010033 0.000000 -0.000800 0.000000
# 2 -0.002320 0.017954 -0.004584 0.000000 0.000256 0.000000
# 3 -0.010033 -0.004584 0.019200 0.000000 0.011212 0.000000
# 4 0.000000 0.000000 0.000000 0.031380 0.000000 0.001637
# 5 -0.000800 0.000256 0.011212 0.000000 0.047220 0.000000
# 6 0.000000 0.000000 0.000000 0.001637 0.000000 0.041415
#
#
# Mechanical properties :
#
#
# Convention : Reuss Voigt Hill
#
# Bulk Modulus (GPa) = 38.38814 46.22384 42.30599
# Shear Modulus (GPa) = 22.47240 25.28815 23.88027
#
# Velocity S-wave (km/s) = 3.55332 3.76937 3.66294
# Velocity P-wave (km/s) = 6.19703 6.70187 6.45439
#
# Compressibility (1/GPa) = 0.02604971
#
# Stress axis : x y z
#
# Youngs Moduli (GPa) = 43.91792 55.69799 52.08447
#
# Poissons Ratio (x) = 0.12922 0.52255
# Poissons Ratio (y) = 0.10189 0.23875
# Poissons Ratio (z) = 0.44062 0.25531
#
# Static dielectric constant tensor:
#      x y z
#    x 3.524790 0.000000 -0.266240 
#    y 0.000000 3.241420 0.000000 
#    z -0.266240 0.000000 3.415580 
# 
# 
# High freq. dielectric constant tensor:
#      x y z
#    x 1.677680 0.000000 -0.013580 
#    y 0.000000 1.684910 0.000000 
#    z -0.013580 0.000000 1.682670 
# 
# From -- ./inp_files/42831.got.cif
#   From: 2010.06.25/outbox.cif.g09.slc.cpg/sg11_22_cif.got.tgz:42831.got - 2010.06.27 23:14:04.
