data_PCOD8071889
_publ_section_title
;
Structure prediction by ZEFSAII (Michael W. Deem and Ramdas Pophale) SiO2 
 PCOD8071889
Probable space group: P 21/M
;
_chemical_formula_sum "Si O2"
_cell_formula_units_Z 32
_cell_length_a 34.303454
_cell_length_b 8.899028
_cell_length_c 13.961685
_cell_angle_alpha 90.000000
_cell_angle_beta 23.874846
_cell_angle_gamma 90.000000
_cell_volume 1725.021735
_symmetry_space_group_name_H-M "P 21/M"
_symmetry_group_IT_number 11
_symmetry_cell_setting 'monoclinic'
loop_
_space_group_symop_operation_xyz
x,y,z
-x,1/2+y,-z
-x,-y,-z
x,1/2-y,z
loop_
_atom_site_type_symbol
_atom_site_label
_atom_site_fract_x
_atom_site_fract_y
_atom_site_fract_z
Si Si1 0.777124 0.573075 0.684219
Si Si2 0.389547 0.422458 0.436184
Si Si3 0.159125 0.925462 0.271021
Si Si4 0.601286 0.078636 0.766496
Si Si5 0.038565 0.929750 0.816035
Si Si6 0.208983 0.425330 0.962298
Si Si7 0.391518 0.923165 0.037829
Si Si8 0.045766 0.075590 0.190815
O O1 0.794777 0.750000 0.636112
O O2 0.783529 0.521470 0.779580
O O3 0.853209 0.485545 0.446597
O O4 0.669977 0.531269 0.891310
O O5 0.395924 0.250000 0.392271
O O6 0.342316 0.504455 0.449432
O O7 0.319591 0.448791 0.683146
O O8 0.497292 0.479108 0.219155
O O9 0.181486 0.750000 0.236444
O O10 0.045804 0.958848 0.536329
O O11 0.193181 0.975931 0.090879
O O12 0.584798 0.250000 0.777584
O O13 0.651273 0.060062 0.757822
O O14 0.500000 0.000000 0.000000
O O15 0.039752 0.750000 0.820679
O O16 0.971904 0.988733 0.876980
O O17 0.000000 0.000000 0.000000
O O18 0.186239 0.250000 0.034311
O O19 0.139515 0.489948 0.033939
O O20 0.383333 0.750000 0.022355
O O21 0.062129 0.250000 0.140168
#
# Coordination Sequence:
#
# PCOD8071889 Si02
#       8
#     4   4   4   4   4   4   4   4
#     4  11  22  36  56  79 100 136 184 224 263 312
#     4   9  19  33  51  77 110 141 172 215 265 310
#     4  10  20  36  55  77 105 136 169 215 269 320
#     4   9  17  30  50  73 101 135 171 210 256 307
#     4  10  20  36  55  81 116 148 176 213 259 308
#     4  10  19  34  55  79 105 135 172 216 260 311
#     4   9  18  34  52  74 105 141 176 216 264 313
#     4   8  17  33  54  78 106 138 172 209 255 309
#
# _framework density 18.550491000000001
#
# number of rings (size 3 to 8) (size 9 to 14) (size 15 to 20)
#    0.000    2.500    0.000    4.125    0.000    4.000 
#    0.000    5.000    0.000    0.000    0.000    0.000 
#    0.000    0.000    0.000    0.000    0.000    0.000 
#
# Total GULP energy -396656.152484 kJ/mol
# GULP energy per Si atom -12395.504765 kJ/mol
# Density = 1.850827 g / cm^3
# Si number density = 18.550491 Si / 1000 Ang^3
#
#
#
# Elastic Constant Matrix: (Units=GPa)
#
#
# Indices 1 2 3 4 5 6 
#
# 1 111.0099 43.4965 61.2426 0.0000 1.5981 0.0000
# 2 43.4965 80.5573 34.2172 0.0000 1.9458 0.0000
# 3 61.2426 34.2172 91.5236 0.0000 8.4363 0.0000
# 4 0.0000 0.0000 0.0000 26.6735 0.0000 6.2283
# 5 1.5981 1.9458 8.4363 0.0000 29.4027 0.0000
# 6 0.0000 0.0000 0.0000 6.2283 0.0000 31.7295
#
#
#
# Elastic Compliance Matrix: (Units=1/GPa)
#
#
# Indices 1 2 3 4 5 6 
#
# 1 0.015799 -0.004767 -0.008977 0.000000 0.002033 0.000000
# 2 -0.004767 0.016206 -0.002870 0.000000 0.000010 0.000000
# 3 -0.008977 -0.002870 0.018431 0.000000 -0.004610 0.000000
# 4 0.000000 0.000000 0.000000 0.039291 0.000000 -0.007713
# 5 0.002033 0.000010 -0.004610 0.000000 0.035222 0.000000
# 6 0.000000 0.000000 0.000000 -0.007713 0.000000 0.033030
#
#
# Mechanical properties :
#
#
# Convention : Reuss Voigt Hill
#
# Bulk Modulus (GPa) = 58.11117 62.33373 60.22245
# Shear Modulus (GPa) = 25.38778 27.17011 26.27894
#
# Velocity S-wave (km/s) = 3.70344 3.83124 3.76788
# Velocity P-wave (km/s) = 7.04849 7.29701 7.17383
#
# Compressibility (1/GPa) = 0.01720840
#
# Stress axis : x y z
#
# Youngs Moduli (GPa) = 63.29395 61.70494 54.25554
#
# Poissons Ratio (x) = 0.29413 0.48707
# Poissons Ratio (y) = 0.30170 0.15572
# Poissons Ratio (z) = 0.56821 0.17711
#
# Static dielectric constant tensor:
#      x y z
#    x 3.682350 0.000000 0.039760 
#    y 0.000000 3.447970 0.000000 
#    z 0.039760 0.000000 3.346470 
# 
# 
# High freq. dielectric constant tensor:
#      x y z
#    x 1.720460 0.000000 0.005450 
#    y 0.000000 1.712590 0.000000 
#    z 0.005450 0.000000 1.706780 
# 
# From -- ./inp_files/45182.got.cif
#   From: 2010.06.25/outbox.cif.g09.slc.cpg/sg11_23_cif.got.tgz:45182.got - 2010.06.27 23:14:04.
