data_PCOD8071353
_publ_section_title
;
Structure prediction by ZEFSAII (Michael W. Deem and Ramdas Pophale) SiO2 
 PCOD8071353
Probable space group: P 21/M
;
_chemical_formula_sum "Si O2"
_cell_formula_units_Z 32
_cell_length_a 22.913590
_cell_length_b 8.561531
_cell_length_c 16.806831
_cell_angle_alpha 90.000000
_cell_angle_beta 32.174055
_cell_angle_gamma 90.000000
_cell_volume 1755.675881
_symmetry_space_group_name_H-M "P 21/M"
_symmetry_group_IT_number 11
_symmetry_cell_setting 'monoclinic'
loop_
_space_group_symop_operation_xyz
x,y,z
-x,1/2+y,-z
-x,-y,-z
x,1/2-y,z
loop_
_atom_site_type_symbol
_atom_site_label
_atom_site_fract_x
_atom_site_fract_y
_atom_site_fract_z
Si Si1 0.162224 0.933958 0.159023
Si Si2 0.396792 0.068359 0.441569
Si Si3 0.921318 0.567919 0.412788
Si Si4 0.823870 0.433697 0.679202
Si Si5 0.384169 0.066674 0.155752
Si Si6 0.380960 0.069736 0.635654
Si Si7 0.647686 0.434329 0.172268
Si Si8 0.714120 0.068622 0.579418
O O1 0.179279 0.750000 0.146435
O O2 0.156894 0.001554 0.254565
O O3 0.047710 0.972516 0.246512
O O4 0.264917 0.005660 0.991563
O O5 0.394042 0.250000 0.420784
O O6 0.337637 0.042791 0.595722
O O7 0.523759 0.008584 0.295296
O O8 0.324097 0.967736 0.465503
O O9 0.895969 0.750000 0.430834
O O10 0.901661 0.524615 0.527859
O O11 0.842416 0.472689 0.444303
O O12 0.847721 0.250000 0.645111
O O13 0.698688 0.469134 0.802642
O O14 0.375753 0.250000 0.147719
O O15 0.359826 0.035078 0.276504
O O16 0.500000 0.000000 0.000000
O O17 0.386585 0.250000 0.650203
O O18 0.500000 0.000000 0.500000
O O19 0.312677 0.987314 0.785060
O O20 0.651498 0.250000 0.166105
O O21 0.696938 0.250000 0.618202
#
# Coordination Sequence:
#
# PCOD8071353 Si02
#       8
#     4   4   4   4   4   4   4   4
#     4   9  19  33  53  78 103 136 173 213 260 309
#     4   9  18  32  53  77 104 137 169 203 252 312
#     4  10  19  35  54  72 100 138 179 216 257 305
#     4  10  19  33  52  75 101 134 176 217 258 302
#     4  11  22  36  51  71 102 138 172 209 258 306
#     4   9  17  31  51  76 105 137 167 201 251 307
#     4   9  18  33  52  78 108 136 166 205 259 311
#     4  11  22  35  52  76 102 132 175 217 256 301
#
# _framework density 18.226599
#
# number of rings (size 3 to 8) (size 9 to 14) (size 15 to 20)
#    0.000    2.250    0.000    6.000    1.750    2.500 
#    0.000    4.375    0.000    0.750    0.000    0.000 
#    0.000    0.000    0.000    0.000    0.000    0.000 
#
# Total GULP energy -396650.489512 kJ/mol
# GULP energy per Si atom -12395.327797 kJ/mol
# Density = 1.818511 g / cm^3
# Si number density = 18.226599 Si / 1000 Ang^3
#
#
#
# Elastic Constant Matrix: (Units=GPa)
#
#
# Indices 1 2 3 4 5 6 
#
# 1 107.6203 22.2183 49.6363 0.0000 8.7148 0.0000
# 2 22.2183 43.5164 12.0845 0.0000 1.1169 0.0000
# 3 49.6363 12.0845 81.8323 0.0000 0.0008 0.0000
# 4 0.0000 0.0000 0.0000 21.5627 0.0000 3.7448
# 5 8.7148 1.1169 0.0008 0.0000 13.0222 0.0000
# 6 0.0000 0.0000 0.0000 3.7448 0.0000 28.7980
#
#
#
# Elastic Compliance Matrix: (Units=1/GPa)
#
#
# Indices 1 2 3 4 5 6 
#
# 1 0.014952 -0.005078 -0.008320 0.000000 -0.009571 0.000000
# 2 -0.005078 0.025742 -0.000721 0.000000 0.001191 0.000000
# 3 -0.008320 -0.000721 0.017373 0.000000 0.005628 0.000000
# 4 0.000000 0.000000 0.000000 0.047448 0.000000 -0.006170
# 5 -0.009571 0.001191 0.005628 0.000000 0.083094 0.000000
# 6 0.000000 0.000000 0.000000 -0.006170 0.000000 0.035527
#
#
# Mechanical properties :
#
#
# Convention : Reuss Voigt Hill
#
# Bulk Modulus (GPa) = 33.52373 44.53858 39.03115
# Shear Modulus (GPa) = 19.06081 22.61191 20.83636
#
# Velocity S-wave (km/s) = 3.23734 3.52604 3.38477
# Velocity P-wave (km/s) = 5.69267 6.40830 6.06106
#
# Compressibility (1/GPa) = 0.02982962
#
# Stress axis : x y z
#
# Youngs Moduli (GPa) = 66.87862 38.84641 57.56105
#
# Poissons Ratio (x) = 0.19728 0.47888
# Poissons Ratio (y) = 0.33963 0.04151
# Poissons Ratio (z) = 0.55640 0.02801
#
# Static dielectric constant tensor:
#      x y z
#    x 3.537410 0.000000 0.202830 
#    y 0.000000 3.396650 0.000000 
#    z 0.202830 0.000000 3.547730 
# 
# 
# High freq. dielectric constant tensor:
#      x y z
#    x 1.701570 0.000000 0.004600 
#    y 0.000000 1.702830 0.000000 
#    z 0.004600 0.000000 1.690160 
# 
# From -- ./inp_files/61762.got.cif
#   From: 2010.06.25/outbox.cif.g09.slc.cpg/sg11_31_cif.got.tgz:61762.got - 2010.06.27 23:14:04.
