data_PCOD8071263
_publ_section_title
;
Structure prediction by ZEFSAII (Michael W. Deem and Ramdas Pophale) SiO2 
 PCOD8071263
Probable space group: P 21/M
;
_chemical_formula_sum "Si O2"
_cell_formula_units_Z 28
_cell_length_a 9.139915
_cell_length_b 14.075848
_cell_length_c 13.975005
_cell_angle_alpha 90.000000
_cell_angle_beta 57.232685
_cell_angle_gamma 90.000000
_cell_volume 1511.821060
_symmetry_space_group_name_H-M "P 21/M"
_symmetry_group_IT_number 11
_symmetry_cell_setting 'monoclinic'
loop_
_space_group_symop_operation_xyz
x,y,z
-x,1/2+y,-z
-x,-y,-z
x,1/2-y,z
loop_
_atom_site_type_symbol
_atom_site_label
_atom_site_fract_x
_atom_site_fract_y
_atom_site_fract_z
Si Si1 0.284642 0.140265 0.473937
Si Si2 0.912597 0.140956 0.698385
Si Si3 0.125537 0.857778 0.765168
Si Si4 0.264564 0.982363 0.868086
Si Si5 0.598927 0.141363 0.494720
Si Si6 0.941590 0.464552 0.878529
Si Si7 0.362786 0.527575 0.324984
O O1 0.315352 0.250000 0.435850
O O2 0.429262 0.103994 0.498342
O O3 0.098622 0.121922 0.586071
O O4 0.301450 0.079710 0.370551
O O5 0.856208 0.250000 0.706593
O O6 0.773256 0.074662 0.697392
O O7 0.920447 0.116772 0.807601
O O8 0.059379 0.750000 0.801462
O O9 0.229569 0.870377 0.630022
O O10 0.961129 0.930336 0.822440
O O11 0.253767 0.885412 0.808493
O O12 0.452850 0.029277 0.793806
O O13 0.226277 0.961437 0.993071
O O14 0.116940 0.055443 0.879325
O O15 0.569238 0.250000 0.534580
O O16 0.626436 0.083101 0.580120
#
# Coordination Sequence:
#
# PCOD8071263 Si02
#       7
#     4   4   4   4   4   4   4
#     4  10  20  35  55  81 108 145 191 232 277 333
#     4  11  24  38  54  78 116 154 189 225 273 335
#     4   9  17  33  59  86 109 134 179 236 282 326
#     4   9  20  35  61  83 109 140 189 233 276 325
#     4  10  19  32  56  85 111 141 186 230 279 334
#     4   9  19  40  56  84 107 147 186 232 280 321
#     4  12  21  35  56  83 117 153 178 228 282 332
#
# _framework density 18.520710999999999
#
# number of rings (size 3 to 8) (size 9 to 14) (size 15 to 20)
#    0.857    1.143    1.429    3.000    0.000    1.143 
#    0.000    4.286    0.000    0.000    0.000    0.000 
#    0.000    0.000    0.000    0.000    0.000    0.000 
#
# Total GULP energy -347141.319896 kJ/mol
# GULP energy per Si atom -12397.904282 kJ/mol
# Density = 1.847856 g / cm^3
# Si number density = 18.520711 Si / 1000 Ang^3
#
#
#
# Elastic Constant Matrix: (Units=GPa)
#
#
# Indices 1 2 3 4 5 6 
#
# 1 60.0592 24.0462 40.8208 0.0000 5.9602 0.0000
# 2 24.0462 53.7561 35.8467 0.0000 -0.1062 0.0000
# 3 40.8208 35.8467 113.3107 0.0000 -13.6752 0.0000
# 4 0.0000 0.0000 0.0000 16.8892 0.0000 0.4461
# 5 5.9602 -0.1062 -13.6752 0.0000 13.2670 0.0000
# 6 0.0000 0.0000 0.0000 0.4461 0.0000 28.0817
#
#
#
# Elastic Compliance Matrix: (Units=1/GPa)
#
#
# Indices 1 2 3 4 5 6 
#
# 1 0.029507 -0.005180 -0.012101 0.000000 -0.025771 0.000000
# 2 -0.005180 0.025370 -0.006686 0.000000 -0.004361 0.000000
# 3 -0.012101 -0.006686 0.018216 0.000000 0.024159 0.000000
# 4 0.000000 0.000000 0.000000 0.059234 0.000000 -0.000941
# 5 -0.025771 -0.004361 0.024159 0.000000 0.111820 0.000000
# 6 0.000000 0.000000 0.000000 -0.000941 0.000000 0.035625
#
#
# Mechanical properties :
#
#
# Convention : Reuss Voigt Hill
#
# Bulk Modulus (GPa) = 39.75058 47.61704 43.68381
# Shear Modulus (GPa) = 14.87685 20.07508 17.47596
#
# Velocity S-wave (km/s) = 2.83725 3.29587 3.07512
# Velocity P-wave (km/s) = 5.67826 6.34426 6.02048
#
# Compressibility (1/GPa) = 0.02515687
#
# Stress axis : x y z
#
# Youngs Moduli (GPa) = 33.89046 39.41720 54.89740
#
# Poissons Ratio (x) = 0.20419 0.66434
# Poissons Ratio (y) = 0.17556 0.36705
# Poissons Ratio (z) = 0.41012 0.26354
#
# Static dielectric constant tensor:
#      x y z
#    x 3.201550 0.000000 -0.056930 
#    y 0.000000 3.469600 0.000000 
#    z -0.056930 0.000000 3.351610 
# 
# 
# High freq. dielectric constant tensor:
#      x y z
#    x 1.695780 0.000000 -0.006140 
#    y 0.000000 1.715920 0.000000 
#    z -0.006140 0.000000 1.720620 
# 
# From -- ./inp_files/31773.got.cif
#   From: 2010.06.25/outbox.cif.g09.slc.cpg/sg11_16_cif.got.tgz:31773.got - 2010.06.27 23:14:04.
