data_PCOD8071883
_publ_section_title
;
Structure prediction by ZEFSAII (Michael W. Deem and Ramdas Pophale) SiO2 
 PCOD8071883
Probable space group: P 21/M
;
_chemical_formula_sum "Si O2"
_cell_formula_units_Z 28
_cell_length_a 15.851884
_cell_length_b 8.906692
_cell_length_c 11.928432
_cell_angle_alpha 90.000000
_cell_angle_beta 123.181934
_cell_angle_gamma 90.000000
_cell_volume 1409.527028
_symmetry_space_group_name_H-M "P 21/M"
_symmetry_group_IT_number 11
_symmetry_cell_setting 'monoclinic'
loop_
_space_group_symop_operation_xyz
x,y,z
-x,1/2+y,-z
-x,-y,-z
x,1/2-y,z
loop_
_atom_site_type_symbol
_atom_site_label
_atom_site_fract_x
_atom_site_fract_y
_atom_site_fract_z
Si Si1 0.702201 0.573681 0.405046
Si Si2 0.108323 0.073412 0.587729
Si Si3 0.668259 0.926986 0.866377
Si Si4 0.955708 0.073073 0.858457
Si Si5 0.857966 0.574292 0.141000
Si Si6 0.256402 0.424135 0.319513
Si Si7 0.489288 0.071039 0.869855
O O1 0.703705 0.750000 0.386423
O O2 0.812249 0.511539 0.446750
O O3 0.683231 0.534901 0.522349
O O4 0.613083 0.508719 0.262603
O O5 0.090959 0.250000 0.565214
O O6 0.159301 0.029096 0.743193
O O7 0.000000 0.000000 0.500000
O O8 0.651991 0.750000 0.877048
O O9 0.674920 0.962363 0.738209
O O10 0.577451 0.020163 0.851627
O O11 0.769465 0.992025 0.998568
O O12 0.954210 0.250000 0.872797
O O13 0.030677 0.019507 0.813786
O O14 0.844574 0.019029 0.751752
O O15 0.000000 0.000000 0.000000
O O16 0.852281 0.750000 0.118510
O O17 0.225181 0.250000 0.294394
O O18 0.489673 0.250000 0.881809
O O19 0.500000 0.000000 0.000000
#
# Coordination Sequence:
#
# PCOD8071883 Si02
#       7
#     4   4   4   4   4   4   4
#     4   9  20  38  60  83 114 153 189 230 288 349
#     4  10  19  34  55  78 108 144 184 227 276 333
#     4  10  20  37  59  83 113 149 188 234 291 347
#     4  11  20  33  53  81 116 156 196 238 286 340
#     4   9  18  33  53  77 109 152 189 225 283 343
#     4  10  20  37  59  84 115 154 193 233 289 353
#     4  11  23  41  63  87 113 147 193 240 287 343
#
# _framework density 19.864820000000002
#
# number of rings (size 3 to 8) (size 9 to 14) (size 15 to 20)
#    0.000    2.000    1.429    2.571    0.000    3.429 
#    0.000    5.714    0.000    0.000    0.000    0.000 
#    0.000    0.000    0.000    0.000    0.000    0.000 
#
# Total GULP energy -347105.952457 kJ/mol
# GULP energy per Si atom -12396.641159 kJ/mol
# Density = 1.981961 g / cm^3
# Si number density = 19.864820 Si / 1000 Ang^3
#
#
#
# Elastic Constant Matrix: (Units=GPa)
#
#
# Indices 1 2 3 4 5 6 
#
# 1 149.6534 38.8043 75.3534 0.0000 -6.4898 0.0000
# 2 38.8043 52.0196 38.2873 0.0000 -2.2822 0.0000
# 3 75.3534 38.2873 148.1843 0.0000 -3.9497 0.0000
# 4 0.0000 0.0000 0.0000 22.9208 0.0000 2.7356
# 5 -6.4898 -2.2822 -3.9497 0.0000 36.9980 0.0000
# 6 0.0000 0.0000 0.0000 2.7356 0.0000 32.7995
#
#
#
# Elastic Compliance Matrix: (Units=1/GPa)
#
#
# Indices 1 2 3 4 5 6 
#
# 1 0.009799 -0.004466 -0.003801 0.000000 0.001038 0.000000
# 2 -0.004466 0.025798 -0.004385 0.000000 0.000340 0.000000
# 3 -0.003801 -0.004385 0.009817 0.000000 0.000111 0.000000
# 4 0.000000 0.000000 0.000000 0.044067 0.000000 -0.003675
# 5 0.001038 0.000340 0.000111 0.000000 0.027243 0.000000
# 6 0.000000 0.000000 0.000000 -0.003675 0.000000 0.030795
#
#
# Mechanical properties :
#
#
# Convention : Reuss Voigt Hill
#
# Bulk Modulus (GPa) = 49.73054 72.74971 61.24012
# Shear Modulus (GPa) = 27.85069 31.70447 29.77758
#
# Velocity S-wave (km/s) = 3.74841 3.99934 3.87591
# Velocity P-wave (km/s) = 6.61989 7.61763 7.13621
#
# Compressibility (1/GPa) = 0.02010837
#
# Stress axis : x y z
#
# Youngs Moduli (GPa) = 102.04825 38.76294 101.86013
#
# Poissons Ratio (x) = 0.17313 0.38721
# Poissons Ratio (y) = 0.45579 0.44668
# Poissons Ratio (z) = 0.38792 0.16999
#
# Static dielectric constant tensor:
#      x y z
#    x 3.601980 0.000000 -0.280490 
#    y 0.000000 3.228060 0.000000 
#    z -0.280490 0.000000 3.654460 
# 
# 
# High freq. dielectric constant tensor:
#      x y z
#    x 1.785250 0.000000 -0.009170 
#    y 0.000000 1.741330 0.000000 
#    z -0.009170 0.000000 1.786840 
# 
# From -- ./inp_files/38471.got.cif
#   From: 2010.06.25/outbox.cif.g09.slc.cpg/sg11_20_cif.got.tgz:38471.got - 2010.06.27 23:14:04.
