data_PCOD8071397
_publ_section_title
;
Structure prediction by ZEFSAII (Michael W. Deem and Ramdas Pophale) SiO2 
 PCOD8071397
Probable space group: P 21/M
;
_chemical_formula_sum "Si O2"
_cell_formula_units_Z 28
_cell_length_a 18.222028
_cell_length_b 8.859272
_cell_length_c 27.680408
_cell_angle_alpha 90.000000
_cell_angle_beta 158.786261
_cell_angle_gamma 90.000000
_cell_volume 1616.938701
_symmetry_space_group_name_H-M "P 21/M"
_symmetry_group_IT_number 11
_symmetry_cell_setting 'monoclinic'
loop_
_space_group_symop_operation_xyz
x,y,z
-x,1/2+y,-z
-x,-y,-z
x,1/2-y,z
loop_
_atom_site_type_symbol
_atom_site_label
_atom_site_fract_x
_atom_site_fract_y
_atom_site_fract_z
Si Si1 0.184860 0.922189 0.661769
Si Si2 0.366804 0.419445 0.072918
Si Si3 0.615126 0.928336 0.299151
Si Si4 0.021022 0.426202 0.200891
Si Si5 0.226128 0.422884 0.428408
Si Si6 0.144106 0.927686 0.475670
Si Si7 0.615544 0.424251 0.614409
O O1 0.107156 0.750000 0.605304
O O2 0.419017 0.918607 0.824450
O O3 0.189532 0.017254 0.613733
O O4 0.058526 0.003606 0.625618
O O5 0.290569 0.250000 0.036606
O O6 0.406898 0.503838 0.149118
O O7 0.203344 0.506866 0.940765
O O8 0.599662 0.750000 0.292140
O O9 0.656887 0.996748 0.377734
O O10 0.011950 0.250000 0.186358
O O11 0.108417 0.466649 0.307146
O O12 0.164310 0.496653 0.246497
O O13 0.178200 0.250000 0.413140
O O14 0.146027 0.533963 0.420352
O O15 0.470305 0.444456 0.571998
O O16 0.148154 0.750000 0.485978
O O17 0.500000 0.500000 0.500000
O O18 0.649144 0.250000 0.623069
#
# Coordination Sequence:
#
# PCOD8071397 Si02
#       7
#     4   4   4   4   4   4   4
#     4   9  19  34  51  74 101 132 170 210 248 293
#     4   9  19  33  52  76 101 131 171 210 246 293
#     4  10  19  33  53  74 101 132 168 210 250 295
#     4  10  19  33  55  78 103 133 167 207 251 300
#     4   9  20  35  50  74 104 135 167 204 250 299
#     4  12  22  32  50  75 103 135 169 209 254 298
#     4   9  17  31  52  75 100 129 166 209 251 296
#
# _framework density 17.316673000000002
#
# number of rings (size 3 to 8) (size 9 to 14) (size 15 to 20)
#    0.857    1.429    0.000    5.143    0.000    3.429 
#    0.000    0.714    0.000    0.857    0.000    0.000 
#    0.000    0.000    0.000    0.000    0.000    0.000 
#
# Total GULP energy -346998.832270 kJ/mol
# GULP energy per Si atom -12392.815438 kJ/mol
# Density = 1.727726 g / cm^3
# Si number density = 17.316673 Si / 1000 Ang^3
#
#
#
# Elastic Constant Matrix: (Units=GPa)
#
#
# Indices 1 2 3 4 5 6 
#
# 1 48.1283 36.3198 31.3159 0.0000 -0.2181 0.0000
# 2 36.3198 147.4723 46.7312 0.0000 -3.8227 0.0000
# 3 31.3159 46.7312 72.1539 0.0000 -8.8548 0.0000
# 4 0.0000 0.0000 0.0000 33.3054 0.0000 0.6607
# 5 -0.2181 -3.8227 -8.8548 0.0000 10.9653 0.0000
# 6 0.0000 0.0000 0.0000 0.6607 0.0000 28.6994
#
#
#
# Elastic Compliance Matrix: (Units=1/GPa)
#
#
# Indices 1 2 3 4 5 6 
#
# 1 0.032058 -0.004208 -0.012532 0.000000 -0.010949 0.000000
# 2 -0.004208 0.009111 -0.004102 0.000000 -0.000220 0.000000
# 3 -0.012532 -0.004102 0.024141 0.000000 0.017816 0.000000
# 4 0.000000 0.000000 0.000000 0.030039 0.000000 -0.000692
# 5 -0.010949 -0.000220 0.017816 0.000000 0.105289 0.000000
# 6 0.000000 0.000000 0.000000 -0.000692 0.000000 0.034860
#
#
# Mechanical properties :
#
#
# Convention : Reuss Voigt Hill
#
# Bulk Modulus (GPa) = 42.32417 55.16538 48.74477
# Shear Modulus (GPa) = 17.54032 24.81986 21.18009
#
# Velocity S-wave (km/s) = 3.18609 3.78999 3.50108
# Velocity P-wave (km/s) = 6.16678 7.14689 6.67485
#
# Compressibility (1/GPa) = 0.02362716
#
# Stress axis : x y z
#
# Youngs Moduli (GPa) = 31.19342 109.75346 41.42297
#
# Poissons Ratio (x) = 0.46184 0.51912
# Poissons Ratio (y) = 0.13126 0.16990
# Poissons Ratio (z) = 0.39092 0.45017
#
# Static dielectric constant tensor:
#      x y z
#    x 3.049550 0.000000 0.170430 
#    y 0.000000 3.395120 0.000000 
#    z 0.170430 0.000000 3.228010 
# 
# 
# High freq. dielectric constant tensor:
#      x y z
#    x 1.635130 0.000000 0.008910 
#    y 0.000000 1.688850 0.000000 
#    z 0.008910 0.000000 1.658310 
# 
# From -- ./inp_files/73602.got.cif
#   From: 2010.06.25/outbox.cif.g09.slc.cpg/sg11_37_cif.got.tgz:73602.got - 2010.06.27 23:14:04.
