data_PCOD8071308
_publ_section_title
;
Structure prediction by ZEFSAII (Michael W. Deem and Ramdas Pophale) SiO2 
 PCOD8071308
Probable space group: P 21/M
;
_chemical_formula_sum "Si O2"
_cell_formula_units_Z 32
_cell_length_a 16.803965
_cell_length_b 8.751112
_cell_length_c 30.291226
_cell_angle_alpha 90.000000
_cell_angle_beta 25.683039
_cell_angle_gamma 90.000000
_cell_volume 1930.514539
_symmetry_space_group_name_H-M "P 21/M"
_symmetry_group_IT_number 11
_symmetry_cell_setting 'monoclinic'
loop_
_space_group_symop_operation_xyz
x,y,z
-x,1/2+y,-z
-x,-y,-z
x,1/2-y,z
loop_
_atom_site_type_symbol
_atom_site_label
_atom_site_fract_x
_atom_site_fract_y
_atom_site_fract_z
Si Si1 0.143891 0.429378 0.307608
Si Si2 0.290598 0.429758 0.058328
Si Si3 0.499925 0.068722 0.177786
Si Si4 0.885366 0.930573 0.098341
Si Si5 0.143939 0.929342 0.048388
Si Si6 0.709583 0.070242 0.848887
Si Si7 0.500233 0.931968 0.723211
Si Si8 0.114398 0.569396 0.483882
O O1 0.157336 0.250000 0.292182
O O2 0.322437 0.495994 0.242568
O O3 0.141467 0.512682 0.261549
O O4 0.975862 0.470207 0.423671
O O5 0.278722 0.250000 0.068080
O O6 0.141797 0.487199 0.096704
O O7 0.228872 0.500060 0.135520
O O8 0.500098 0.482570 0.941948
O O9 0.499926 0.250000 0.178794
O O10 0.499328 0.006872 0.227371
O O11 0.677977 0.003999 0.065055
O O12 0.878528 0.750000 0.093778
O O13 0.975475 0.969868 0.100653
O O14 0.684041 0.000536 0.205776
O O15 0.000000 0.000000 0.000000
O O16 0.157846 0.750000 0.050197
O O17 0.721501 0.250000 0.846699
O O18 0.500286 0.750000 0.718546
O O19 0.684163 0.999643 0.610011
O O20 0.120953 0.750000 0.472684
O O21 0.000000 0.500000 0.500000
#
# Coordination Sequence:
#
# PCOD8071308 Si02
#       8
#     4   4   4   4   4   4   4   4
#     4  10  19  33  51  71 101 138 173 210 255 304
#     4  10  20  32  48  73 102 133 169 209 254 305
#     4   9  16  29  48  70  99 136 171 206 253 300
#     4  11  22  35  52  76 104 139 178 217 261 310
#     4  10  19  33  51  71 101 138 173 210 255 304
#     4  10  20  32  48  73 102 133 169 209 254 305
#     4  11  21  37  53  72 103 140 179 222 263 301
#     4  11  22  35  52  76 104 139 178 217 261 310
#
# _framework density 16.575890999999999
#
# number of rings (size 3 to 8) (size 9 to 14) (size 15 to 20)
#    0.000    1.750    3.750    1.875    0.000    3.000 
#    0.000    0.000    0.000    0.000    0.000    0.875 
#    0.000    0.000    0.000    0.000    0.000    0.000 
#
# Total GULP energy -396685.613829 kJ/mol
# GULP energy per Si atom -12396.425432 kJ/mol
# Density = 1.653816 g / cm^3
# Si number density = 16.575891 Si / 1000 Ang^3
#
#
#
# Elastic Constant Matrix: (Units=GPa)
#
#
# Indices 1 2 3 4 5 6 
#
# 1 112.7806 51.8215 77.2531 0.0000 16.6387 0.0000
# 2 51.8215 75.4642 46.6569 0.0000 4.2668 0.0000
# 3 77.2531 46.6569 104.4501 0.0000 -8.3538 0.0000
# 4 0.0000 0.0000 0.0000 26.3671 0.0000 1.6310
# 5 16.6387 4.2668 -8.3538 0.0000 25.4958 0.0000
# 6 0.0000 0.0000 0.0000 1.6310 0.0000 28.5552
#
#
#
# Elastic Compliance Matrix: (Units=1/GPa)
#
#
# Indices 1 2 3 4 5 6 
#
# 1 0.030519 -0.005842 -0.022056 0.000000 -0.026166 0.000000
# 2 -0.005842 0.020332 -0.004856 0.000000 -0.001181 0.000000
# 3 -0.022056 -0.004856 0.030060 0.000000 0.025056 0.000000
# 4 0.000000 0.000000 0.000000 0.038061 0.000000 -0.002174
# 5 -0.026166 -0.001181 0.025056 0.000000 0.064706 0.000000
# 6 0.000000 0.000000 0.000000 -0.002174 0.000000 0.035144
#
#
# Mechanical properties :
#
#
# Convention : Reuss Voigt Hill
#
# Bulk Modulus (GPa) = 64.91825 71.57313 68.24569
# Shear Modulus (GPa) = 17.27337 23.88117 20.57727
#
# Velocity S-wave (km/s) = 3.23162 3.79980 3.52717
# Velocity P-wave (km/s) = 7.29204 7.90722 7.60585
#
# Compressibility (1/GPa) = 0.01540399
#
# Stress axis : x y z
#
# Youngs Moduli (GPa) = 32.76609 49.18371 33.26705
#
# Poissons Ratio (x) = 0.28733 0.73373
# Poissons Ratio (y) = 0.19142 0.16154
# Poissons Ratio (z) = 0.72268 0.23882
#
# Static dielectric constant tensor:
#      x y z
#    x 3.138840 0.000000 0.032520 
#    y 0.000000 3.046060 0.000000 
#    z 0.032520 0.000000 3.096590 
# 
# 
# High freq. dielectric constant tensor:
#      x y z
#    x 1.630460 0.000000 0.008910 
#    y 0.000000 1.640750 0.000000 
#    z 0.008910 0.000000 1.618480 
# 
# From -- ./inp_files/51787.got.cif
#   From: 2010.06.25/outbox.cif.g09.slc.cpg/sg11_26_cif.got.tgz:51787.got - 2010.06.27 23:14:04.
