data_PCOD8071579
_publ_section_title
;
Structure prediction by ZEFSAII (Michael W. Deem and Ramdas Pophale) SiO2 
 PCOD8071579
Probable space group: P 21/M
;
_chemical_formula_sum "Si O2"
_cell_formula_units_Z 32
_cell_length_a 12.454260
_cell_length_b 8.962418
_cell_length_c 22.983055
_cell_angle_alpha 90.000000
_cell_angle_beta 43.949074
_cell_angle_gamma 90.000000
_cell_volume 1780.418382
_symmetry_space_group_name_H-M "P 21/M"
_symmetry_group_IT_number 11
_symmetry_cell_setting 'monoclinic'
loop_
_space_group_symop_operation_xyz
x,y,z
-x,1/2+y,-z
-x,-y,-z
x,1/2-y,z
loop_
_atom_site_type_symbol
_atom_site_label
_atom_site_fract_x
_atom_site_fract_y
_atom_site_fract_z
Si Si1 0.956354 0.578293 0.777826
Si Si2 0.335733 0.424049 0.827941
Si Si3 0.197028 0.924539 0.988126
Si Si4 0.869977 0.579000 0.515624
Si Si5 0.335979 0.426103 0.304504
Si Si6 0.647019 0.923314 0.969679
Si Si7 0.936097 0.074672 0.663422
Si Si8 0.896377 0.579311 0.177472
O O1 0.987481 0.750000 0.751002
O O2 0.788999 0.551796 0.870702
O O3 0.967371 0.483285 0.715350
O O4 0.087664 0.523835 0.771911
O O5 0.350364 0.250000 0.836215
O O6 0.212990 0.496993 0.919744
O O7 0.500713 0.499885 0.771560
O O8 0.268829 0.449684 0.788888
O O9 0.229719 0.750000 0.969067
O O10 0.027508 0.959292 0.078957
O O11 0.324945 0.995738 0.980342
O O12 0.900005 0.750000 0.515621
O O13 0.706996 0.536782 0.610403
O O14 0.000000 0.500000 0.500000
O O15 0.901199 0.542738 0.435301
O O16 0.348688 0.250000 0.288024
O O17 0.208559 0.491422 0.309916
O O18 0.615268 0.750000 0.993608
O O19 0.500000 0.000000 0.000000
O O20 0.897962 0.250000 0.679940
O O21 0.913572 0.750000 0.191230
#
# Coordination Sequence:
#
# PCOD8071579 Si02
#       8
#     4   4   4   4   4   4   4   4
#     4  10  21  35  53  77 103 134 174 215 257 306
#     4  11  22  35  53  78 106 136 173 217 262 310
#     4  10  20  35  54  75  99 133 176 218 261 306
#     4   8  16  31  51  75 103 136 169 206 252 305
#     4  10  20  34  52  78 110 138 170 211 258 308
#     4  10  21  35  50  70 102 139 173 211 257 306
#     4  10  19  33  55  80 107 138 172 209 255 311
#     4   9  20  38  56  74 100 136 178 219 260 305
#
# _framework density 17.973303999999999
#
# number of rings (size 3 to 8) (size 9 to 14) (size 15 to 20)
#    0.000    2.250    0.000    2.625    1.750    4.000 
#    0.000    0.000    0.000    0.750    0.000    0.000 
#    0.000    0.000    0.000    0.000    0.000    0.000 
#
# Total GULP energy -396623.875477 kJ/mol
# GULP energy per Si atom -12394.496109 kJ/mol
# Density = 1.793240 g / cm^3
# Si number density = 17.973304 Si / 1000 Ang^3
#
#
#
# Elastic Constant Matrix: (Units=GPa)
#
#
# Indices 1 2 3 4 5 6 
#
# 1 74.1233 35.8184 29.1690 0.0000 15.3946 0.0000
# 2 35.8184 93.8237 40.3544 0.0000 11.8081 0.0000
# 3 29.1690 40.3544 71.9634 0.0000 16.3710 0.0000
# 4 0.0000 0.0000 0.0000 24.9288 0.0000 6.2722
# 5 15.3946 11.8081 16.3710 0.0000 18.5382 0.0000
# 6 0.0000 0.0000 0.0000 6.2722 0.0000 28.0691
#
#
#
# Elastic Compliance Matrix: (Units=1/GPa)
#
#
# Indices 1 2 3 4 5 6 
#
# 1 0.019016 -0.004815 -0.002644 0.000000 -0.010389 0.000000
# 2 -0.004815 0.015358 -0.006688 0.000000 0.000122 0.000000
# 3 -0.002644 -0.006688 0.021586 0.000000 -0.012607 0.000000
# 4 0.000000 0.000000 0.000000 0.042504 0.000000 -0.009498
# 5 -0.010389 0.000122 -0.012607 0.000000 0.073625 0.000000
# 6 0.000000 0.000000 0.000000 -0.009498 0.000000 0.037749
#
#
# Mechanical properties :
#
#
# Convention : Reuss Voigt Hill
#
# Bulk Modulus (GPa) = 36.14666 50.06601 43.10634
# Shear Modulus (GPa) = 20.21395 23.27847 21.74621
#
# Velocity S-wave (km/s) = 3.35724 3.60275 3.48216
# Velocity P-wave (km/s) = 5.93153 6.72478 6.34057
#
# Compressibility (1/GPa) = 0.02766508
#
# Stress axis : x y z
#
# Youngs Moduli (GPa) = 52.58731 65.11416 46.32578
#
# Poissons Ratio (x) = 0.31350 0.12250
# Poissons Ratio (y) = 0.25319 0.30984
# Poissons Ratio (z) = 0.13906 0.43550
#
# Static dielectric constant tensor:
#      x y z
#    x 3.168580 0.000000 0.191870 
#    y 0.000000 3.476650 0.000000 
#    z 0.191870 0.000000 4.089020 
# 
# 
# High freq. dielectric constant tensor:
#      x y z
#    x 1.677780 0.000000 0.011040 
#    y 0.000000 1.712440 0.000000 
#    z 0.011040 0.000000 1.690660 
# 
# From -- ./inp_files/54355.got.cif
#   From: 2010.06.25/outbox.cif.g09.slc.cpg/sg11_28_cif.got.tgz:54355.got - 2010.06.27 23:14:04.
