data_PCOD8071531
_publ_section_title
;
Structure prediction by ZEFSAII (Michael W. Deem and Ramdas Pophale) SiO2 
 PCOD8071531
Probable space group: P 21/M
;
_chemical_formula_sum "Si O2"
_cell_formula_units_Z 32
_cell_length_a 10.112601
_cell_length_b 13.845382
_cell_length_c 26.311688
_cell_angle_alpha 90.000000
_cell_angle_beta 26.396234
_cell_angle_gamma 90.000000
_cell_volume 1637.807428
_symmetry_space_group_name_H-M "P 21/M"
_symmetry_group_IT_number 11
_symmetry_cell_setting 'monoclinic'
loop_
_space_group_symop_operation_xyz
x,y,z
-x,1/2+y,-z
-x,-y,-z
x,1/2-y,z
loop_
_atom_site_type_symbol
_atom_site_label
_atom_site_fract_x
_atom_site_fract_y
_atom_site_fract_z
Si Si1 0.653425 0.488615 0.326256
Si Si2 0.224466 0.360984 0.122024
Si Si3 0.801405 0.545674 0.377105
Si Si4 0.723524 0.015959 0.631701
Si Si5 0.407648 0.862086 0.805991
Si Si6 0.875131 0.858414 0.448879
Si Si7 0.734161 0.859256 0.007144
Si Si8 0.411923 0.041268 0.155450
O O1 0.756366 0.569149 0.332522
O O2 0.559759 0.542794 0.306497
O O3 0.377016 0.426572 0.441778
O O4 0.910949 0.413429 0.227444
O O5 0.165490 0.250000 0.156258
O O6 0.366557 0.371295 0.017064
O O7 0.440448 0.406012 0.090753
O O8 0.500000 0.500000 0.500000
O O9 0.874209 0.637767 0.387350
O O10 0.066322 0.466828 0.290775
O O11 0.802413 0.103524 0.642663
O O12 0.649576 0.920001 0.689439
O O13 0.000000 0.000000 0.500000
O O14 0.497138 0.750000 0.772947
O O15 0.412000 0.897686 0.862957
O O16 0.083269 0.880445 0.894226
O O17 0.825135 0.750000 0.484621
O O18 0.662696 0.750000 0.050083
O O19 0.546667 0.933593 0.105454
#
# Coordination Sequence:
#
# PCOD8071531 Si02
#       8
#     4   4   4   4   4   4   4   4
#     4   9  18  33  57  78 112 147 194 243 284 334
#     4  10  19  34  58  87 112 147 194 239 290 348
#     4   9  19  35  56  79 112 148 189 231 288 351
#     4  10  20  35  57  84 115 150 191 245 293 341
#     4  11  22  39  61  88 115 152 201 247 293 349
#     4  10  19  33  54  80 113 154 192 231 291 356
#     4  10  22  38  60  86 114 153 202 240 293 360
#     4  11  21  37  58  87 118 150 188 251 300 338
#
# _framework density 19.538315000000001
#
# number of rings (size 3 to 8) (size 9 to 14) (size 15 to 20)
#    0.000    2.000    2.500    1.500    0.000    2.500 
#    0.000    1.250    0.000    1.500    0.000    0.000 
#    0.000    0.000    0.000    0.000    0.000    0.000 
#
# Total GULP energy -396553.615511 kJ/mol
# GULP energy per Si atom -12392.300485 kJ/mol
# Density = 1.949385 g / cm^3
# Si number density = 19.538315 Si / 1000 Ang^3
#
#
#
# Elastic Constant Matrix: (Units=GPa)
#
#
# Indices 1 2 3 4 5 6 
#
# 1 147.1084 53.8981 17.8252 0.0000 4.7094 0.0000
# 2 53.8981 79.9787 33.4610 0.0000 1.0961 0.0000
# 3 17.8252 33.4610 54.1655 0.0000 2.3382 0.0000
# 4 0.0000 0.0000 0.0000 26.5085 0.0000 2.4983
# 5 4.7094 1.0961 2.3382 0.0000 16.8150 0.0000
# 6 0.0000 0.0000 0.0000 2.4983 0.0000 24.9757
#
#
#
# Elastic Compliance Matrix: (Units=1/GPa)
#
#
# Indices 1 2 3 4 5 6 
#
# 1 0.009159 -0.006637 0.001185 0.000000 -0.002297 0.000000
# 2 -0.006637 0.021672 -0.011291 0.000000 0.002016 0.000000
# 3 0.001185 -0.011291 0.025181 0.000000 -0.003097 0.000000
# 4 0.000000 0.000000 0.000000 0.038083 0.000000 -0.003809
# 5 -0.002297 0.002016 -0.003097 0.000000 0.060413 0.000000
# 6 0.000000 0.000000 0.000000 -0.003809 0.000000 0.040420
#
#
# Mechanical properties :
#
#
# Convention : Reuss Voigt Hill
#
# Bulk Modulus (GPa) = 44.39240 54.62459 49.50850
# Shear Modulus (GPa) = 21.19338 25.39773 23.29556
#
# Velocity S-wave (km/s) = 3.29706 3.60932 3.45672
# Velocity P-wave (km/s) = 6.10444 6.73706 6.42853
#
# Compressibility (1/GPa) = 0.02252638
#
# Stress axis : x y z
#
# Youngs Moduli (GPa) = 109.17906 46.14240 39.71282
#
# Poissons Ratio (x) = 0.30623 -0.04705
# Poissons Ratio (y) = 0.72459 0.44840
# Poissons Ratio (z) = -0.12936 0.52099
#
# Static dielectric constant tensor:
#      x y z
#    x 4.586700 0.000000 0.032940 
#    y 0.000000 3.342950 0.000000 
#    z 0.032940 0.000000 3.358380 
# 
# 
# High freq. dielectric constant tensor:
#      x y z
#    x 1.790000 0.000000 0.001510 
#    y 0.000000 1.729310 0.000000 
#    z 0.001510 0.000000 1.744940 
# 
# From -- ./inp_files/68127.got.cif
#   From: 2010.06.25/outbox.cif.g09.slc.cpg/sg11_35_cif.got.tgz:68127.got - 2010.06.27 23:14:04.
