data_PCOD8071782
_publ_section_title
;
Structure prediction by ZEFSAII (Michael W. Deem and Ramdas Pophale) SiO2 
 PCOD8071782
Probable space group: P 21/M
;
_chemical_formula_sum "Si O2"
_cell_formula_units_Z 20
_cell_length_a 9.955062
_cell_length_b 7.565057
_cell_length_c 20.470604
_cell_angle_alpha 90.000000
_cell_angle_beta 134.670025
_cell_angle_gamma 90.000000
_cell_volume 1096.373805
_symmetry_space_group_name_H-M "P 21/M"
_symmetry_group_IT_number 11
_symmetry_cell_setting 'monoclinic'
loop_
_space_group_symop_operation_xyz
x,y,z
-x,1/2+y,-z
-x,-y,-z
x,1/2-y,z
loop_
_atom_site_type_symbol
_atom_site_label
_atom_site_fract_x
_atom_site_fract_y
_atom_site_fract_z
Si Si1 0.197094 0.047403 0.906994
Si Si2 0.964892 0.750000 0.637000
Si Si3 0.061329 0.250000 0.222513
Si Si4 0.514039 0.953986 0.109972
Si Si5 0.384968 0.750000 0.755599
Si Si6 0.620527 0.942764 0.479271
Si Si7 0.500290 0.750000 0.649413
O O1 0.130462 0.250000 0.884423
O O2 0.330149 0.003127 0.891228
O O3 0.012746 0.924581 0.839977
O O4 0.308615 0.002596 0.011435
O O5 0.016638 0.750000 0.730764
O O6 0.841334 0.924678 0.576307
O O7 0.160870 0.750000 0.664771
O O8 0.285491 0.250000 0.301307
O O9 0.520293 0.750000 0.133631
O O10 0.554123 0.073075 0.186276
O O11 0.493685 0.750000 0.724621
O O12 0.545766 0.750000 0.430208
O O13 0.500000 0.000000 0.500000
O O14 0.604562 0.078105 0.414474
#
# Coordination Sequence:
#
# PCOD8071782 Si02
#       7
#     4   2   2   4   2   4   2
#     4  10  19  33  62  94 118 157 203 253 293 333
#     4  10  22  40  66  90 120 151 208 255 283 378
#     4  12  20  38  60  98 112 153 220 245 273 376
#     4  10  19  35  61  90 124 161 195 248 300 345
#     4  12  24  42  58  92 129 157 202 246 303 361
#     4  10  20  41  66  90 116 152 198 252 309 348
#     4  12  26  42  64  86 125 163 192 260 311 351
#
# _framework density 18.241952999999999
#
# number of rings (size 3 to 8) (size 9 to 14) (size 15 to 20)
#    0.600    0.800    7.000    0.000    0.000    2.400 
#    3.600    1.000    0.000    0.000    0.000    0.000 
#    0.000    0.000    0.000    0.000    0.000    0.000 
#
# Total GULP energy -247998.281263 kJ/mol
# GULP energy per Si atom -12399.914063 kJ/mol
# Density = 1.820043 g / cm^3
# Si number density = 18.241953 Si / 1000 Ang^3
#
#
#
# Elastic Constant Matrix: (Units=GPa)
#
#
# Indices 1 2 3 4 5 6 
#
# 1 41.8706 22.9981 14.8095 0.0000 -15.3534 0.0000
# 2 22.9981 146.4406 57.7145 0.0000 -11.1859 0.0000
# 3 14.8095 57.7145 100.4987 0.0000 -1.7606 0.0000
# 4 0.0000 0.0000 0.0000 46.4143 0.0000 -3.7680
# 5 -15.3534 -11.1859 -1.7606 0.0000 28.4096 0.0000
# 6 0.0000 0.0000 0.0000 -3.7680 0.0000 17.2665
#
#
#
# Elastic Compliance Matrix: (Units=1/GPa)
#
#
# Indices 1 2 3 4 5 6 
#
# 1 0.032354 -0.002680 -0.002944 0.000000 0.016248 0.000000
# 2 -0.002680 0.009342 -0.004936 0.000000 0.001924 0.000000
# 3 -0.002944 -0.004936 0.013171 0.000000 -0.002718 0.000000
# 4 0.000000 0.000000 0.000000 0.021934 0.000000 0.004786
# 5 0.016248 0.001924 -0.002718 0.000000 0.044569 0.000000
# 6 0.000000 0.000000 0.000000 0.004786 0.000000 0.058960
#
#
# Mechanical properties :
#
#
# Convention : Reuss Voigt Hill
#
# Bulk Modulus (GPa) = 29.63214 53.31710 41.47462
# Shear Modulus (GPa) = 23.50727 31.30392 27.40559
#
# Velocity S-wave (km/s) = 3.59365 4.14701 3.88021
# Velocity P-wave (km/s) = 5.78778 7.22644 6.54674
#
# Compressibility (1/GPa) = 0.03374714
#
# Stress axis : x y z
#
# Youngs Moduli (GPa) = 30.90799 107.04326 75.92180
#
# Poissons Ratio (x) = 0.28685 0.22352
# Poissons Ratio (y) = 0.08282 0.37478
# Poissons Ratio (z) = 0.09100 0.52840
#
# Static dielectric constant tensor:
#      x y z
#    x 2.919600 0.000000 0.022270 
#    y 0.000000 3.474680 0.000000 
#    z 0.022270 0.000000 3.382550 
# 
# 
# High freq. dielectric constant tensor:
#      x y z
#    x 1.666740 0.000000 0.001760 
#    y 0.000000 1.718470 0.000000 
#    z 0.001760 0.000000 1.713050 
# 
# From -- ./inp_files/63340.got.cif
#   From: 2010.06.25/outbox.cif.g09.slc.cpg/sg11_32_cif.got.tgz:63340.got - 2010.06.27 23:14:04.
