data_PCOD8071635
_publ_section_title
;
Structure prediction by ZEFSAII (Michael W. Deem and Ramdas Pophale) SiO2 
 PCOD8071635
Probable space group: P 21/M
;
_chemical_formula_sum "Si O2"
_cell_formula_units_Z 32
_cell_length_a 20.768729
_cell_length_b 8.738318
_cell_length_c 14.193653
_cell_angle_alpha 90.000000
_cell_angle_beta 137.142261
_cell_angle_gamma 90.000000
_cell_volume 1752.088500
_symmetry_space_group_name_H-M "P 21/M"
_symmetry_group_IT_number 11
_symmetry_cell_setting 'monoclinic'
loop_
_space_group_symop_operation_xyz
x,y,z
-x,1/2+y,-z
-x,-y,-z
x,1/2-y,z
loop_
_atom_site_type_symbol
_atom_site_label
_atom_site_fract_x
_atom_site_fract_y
_atom_site_fract_z
Si Si1 0.096195 0.926885 0.066224
Si Si2 0.795958 0.928776 0.346273
Si Si3 0.521329 0.070461 0.921826
Si Si4 0.343976 0.927673 0.658573
Si Si5 0.855750 0.570367 0.079263
Si Si6 0.819827 0.075429 0.650155
Si Si7 0.269020 0.569399 0.906879
Si Si8 0.958335 0.573558 0.659799
O O1 0.078046 0.750000 0.021545
O O2 0.176177 0.944344 0.233061
O O3 0.134088 0.014505 0.016423
O O4 0.000000 0.000000 0.000000
O O5 0.771384 0.750000 0.325970
O O6 0.898345 0.963082 0.501673
O O7 0.715013 0.021639 0.313514
O O8 0.798140 0.987329 0.241928
O O9 0.517342 0.250000 0.928721
O O10 0.443241 0.016785 0.762014
O O11 0.622994 0.016829 0.992540
O O12 0.500000 0.000000 0.000000
O O13 0.366561 0.750000 0.693230
O O14 0.285293 0.965311 0.500306
O O15 0.839891 0.750000 0.063032
O O16 0.764485 0.488453 0.026856
O O17 0.947962 0.528744 0.239885
O O18 0.845415 0.250000 0.648426
O O19 0.896275 0.963814 0.685362
O O20 0.256569 0.750000 0.885321
O O21 0.988658 0.750000 0.697402
#
# Coordination Sequence:
#
# PCOD8071635 Si02
#       8
#     4   4   4   4   4   4   4   4
#     4  11  21  36  59  86 114 147 188 233 277 329
#     4  10  20  34  54  81 112 148 189 229 273 327
#     4  11  22  36  58  85 112 145 186 233 283 331
#     4  10  19  33  55  84 115 147 182 226 277 330
#     4  12  25  39  56  80 112 151 190 234 283 336
#     4   9  19  34  55  83 114 146 183 227 277 328
#     4  11  24  40  57  79 110 150 190 233 282 334
#     4  10  20  34  54  80 112 149 188 230 273 327
#
# _framework density 18.263918
#
# number of rings (size 3 to 8) (size 9 to 14) (size 15 to 20)
#    0.000    1.500    2.500    3.375    0.000    4.500 
#    0.000    0.000    0.000    0.750    0.000    0.000 
#    0.000    0.000    0.000    0.000    0.000    0.000 
#
# Total GULP energy -396901.478513 kJ/mol
# GULP energy per Si atom -12403.171204 kJ/mol
# Density = 1.822235 g / cm^3
# Si number density = 18.263918 Si / 1000 Ang^3
#
#
#
# Elastic Constant Matrix: (Units=GPa)
#
#
# Indices 1 2 3 4 5 6 
#
# 1 109.2722 34.0711 56.5306 0.0000 3.3755 0.0000
# 2 34.0711 73.3157 34.5087 0.0000 7.9530 0.0000
# 3 56.5306 34.5087 103.5331 0.0000 3.0951 0.0000
# 4 0.0000 0.0000 0.0000 30.7805 0.0000 0.8822
# 5 3.3755 7.9530 3.0951 0.0000 22.8423 0.0000
# 6 0.0000 0.0000 0.0000 0.8822 0.0000 29.4668
#
#
#
# Elastic Compliance Matrix: (Units=1/GPa)
#
#
# Indices 1 2 3 4 5 6 
#
# 1 0.013395 -0.003301 -0.006214 0.000000 0.000012 0.000000
# 2 -0.003301 0.017562 -0.003899 0.000000 -0.005098 0.000000
# 3 -0.006214 -0.003899 0.014341 0.000000 0.000332 0.000000
# 4 0.000000 0.000000 0.000000 0.032516 0.000000 -0.000974
# 5 0.000012 -0.005098 0.000332 0.000000 0.045507 0.000000
# 6 0.000000 0.000000 0.000000 -0.000974 0.000000 0.033966
#
#
# Mechanical properties :
#
#
# Convention : Reuss Voigt Hill
#
# Bulk Modulus (GPa) = 54.14057 59.59352 56.86704
# Shear Modulus (GPa) = 26.27828 27.35196 26.81512
#
# Velocity S-wave (km/s) = 3.79728 3.87408 3.83587
# Velocity P-wave (km/s) = 6.99525 7.26025 7.12898
#
# Compressibility (1/GPa) = 0.01847044
#
# Stress axis : x y z
#
# Youngs Moduli (GPa) = 74.65370 56.94133 69.72957
#
# Poissons Ratio (x) = 0.18799 0.43329
# Poissons Ratio (y) = 0.24647 0.27184
# Poissons Ratio (z) = 0.46389 0.22199
#
# Static dielectric constant tensor:
#      x y z
#    x 3.239270 0.000000 0.324170 
#    y 0.000000 3.487270 0.000000 
#    z 0.324170 0.000000 5.269070 
# 
# 
# High freq. dielectric constant tensor:
#      x y z
#    x 1.679020 0.000000 -0.002160 
#    y 0.000000 1.723860 0.000000 
#    z -0.002160 0.000000 1.712970 
# 
# From -- ./inp_files/54362.got.cif
#   From: 2010.06.25/outbox.cif.g09.slc.cpg/sg11_28_cif.got.tgz:54362.got - 2010.06.27 23:14:04.
