data_PCOD8071798
_publ_section_title
;
Structure prediction by ZEFSAII (Michael W. Deem and Ramdas Pophale) SiO2 
 PCOD8071798
Probable space group: P 21/M
;
_chemical_formula_sum "Si O2"
_cell_formula_units_Z 28
_cell_length_a 6.614065
_cell_length_b 17.456102
_cell_length_c 15.816399
_cell_angle_alpha 90.000000
_cell_angle_beta 126.295834
_cell_angle_gamma 90.000000
_cell_volume 1471.780122
_symmetry_space_group_name_H-M "P 21/M"
_symmetry_group_IT_number 11
_symmetry_cell_setting 'monoclinic'
loop_
_space_group_symop_operation_xyz
x,y,z
-x,1/2+y,-z
-x,-y,-z
x,1/2-y,z
loop_
_atom_site_type_symbol
_atom_site_label
_atom_site_fract_x
_atom_site_fract_y
_atom_site_fract_z
Si Si1 0.892975 0.962823 0.631442
Si Si2 0.790295 0.444040 0.983385
Si Si3 0.979676 0.335173 0.453361
Si Si4 0.221469 0.471786 0.856863
Si Si5 0.530258 0.336710 0.636175
Si Si6 0.367377 0.590300 0.512211
Si Si7 0.923300 0.339929 0.873737
O O1 0.054395 0.892922 0.633550
O O2 0.645654 0.927709 0.615426
O O3 0.804977 0.014199 0.529146
O O4 0.047841 0.014041 0.734032
O O5 0.503051 0.465671 0.890087
O O6 0.859502 0.362701 0.955890
O O7 0.805424 0.452600 0.089213
O O8 0.000000 0.500000 0.000000
O O9 0.979133 0.250000 0.414998
O O10 0.231902 0.350372 0.570423
O O11 0.744914 0.343538 0.457533
O O12 0.142684 0.393251 0.887120
O O13 0.589690 0.250000 0.625546
O O14 0.635657 0.387545 0.586887
O O15 0.668439 0.356674 0.758043
O O16 0.002644 0.250000 0.890416
#
# Coordination Sequence:
#
# PCOD8071798 Si02
#       7
#     4   4   4   4   4   4   4
#     4  10  21  34  55  80 106 140 187 224 261 323
#     4   9  21  38  59  82 108 142 185 228 280 328
#     4  10  21  34  50  76 112 150 185 224 269 319
#     4  10  20  39  60  80 111 148 183 229 281 328
#     4   9  18  31  49  79 116 146 177 219 269 325
#     4  10  19  34  52  78 110 144 182 220 265 319
#     4  10  20  34  56  87 116 141 178 225 277 337
#
# _framework density 19.024581000000001
#
# number of rings (size 3 to 8) (size 9 to 14) (size 15 to 20)
#    0.000    2.286    1.429    0.857    2.000    3.429 
#    0.000    0.714    0.000    8.571    0.000    0.000 
#    0.000    0.000    0.000    0.000    0.000    0.000 
#
# Total GULP energy -346910.785167 kJ/mol
# GULP energy per Si atom -12389.670899 kJ/mol
# Density = 1.898128 g / cm^3
# Si number density = 19.024581 Si / 1000 Ang^3
#
#
#
# Elastic Constant Matrix: (Units=GPa)
#
#
# Indices 1 2 3 4 5 6 
#
# 1 106.0707 38.9583 27.9489 0.0000 6.3486 0.0000
# 2 38.9583 89.3349 25.9350 0.0000 -5.7492 0.0000
# 3 27.9489 25.9350 53.6296 0.0000 6.7198 0.0000
# 4 0.0000 0.0000 0.0000 28.3492 0.0000 -5.8016
# 5 6.3486 -5.7492 6.7198 0.0000 21.4473 0.0000
# 6 0.0000 0.0000 0.0000 -5.8016 0.0000 29.9606
#
#
#
# Elastic Compliance Matrix: (Units=1/GPa)
#
#
# Indices 1 2 3 4 5 6 
#
# 1 0.012294 -0.004503 -0.003770 0.000000 -0.003665 0.000000
# 2 -0.004503 0.015373 -0.006007 0.000000 0.007336 0.000000
# 3 -0.003770 -0.006007 0.024542 0.000000 -0.008184 0.000000
# 4 0.000000 0.000000 0.000000 0.036730 0.000000 0.007112
# 5 -0.003665 0.007336 -0.008184 0.000000 0.052241 0.000000
# 6 0.000000 0.000000 0.000000 0.007112 0.000000 0.034754
#
#
# Mechanical properties :
#
#
# Convention : Reuss Voigt Hill
#
# Bulk Modulus (GPa) = 42.28516 48.30219 45.29367
# Shear Modulus (GPa) = 23.54284 26.36429 24.95356
#
# Velocity S-wave (km/s) = 3.52162 3.72667 3.62560
# Velocity P-wave (km/s) = 6.22982 6.63038 6.43322
#
# Compressibility (1/GPa) = 0.02364896
#
# Stress axis : x y z
#
# Youngs Moduli (GPa) = 81.33860 65.04702 40.74678
#
# Poissons Ratio (x) = 0.29289 0.15363
# Poissons Ratio (y) = 0.36624 0.24477
# Poissons Ratio (z) = 0.30668 0.39075
#
# Static dielectric constant tensor:
#      x y z
#    x 3.571770 0.000000 0.077270 
#    y 0.000000 3.598390 0.000000 
#    z 0.077270 0.000000 3.360680 
# 
# 
# High freq. dielectric constant tensor:
#      x y z
#    x 1.743240 0.000000 0.007430 
#    y 0.000000 1.737360 0.000000 
#    z 0.007430 0.000000 1.712400 
# 
# From -- ./inp_files/46088.got.cif
#   From: 2010.06.25/outbox.cif.g09.slc.cpg/sg11_24_cif.got.tgz:46088.got - 2010.06.27 23:14:04.
