data_PCOD8071050
_publ_section_title
;
Structure prediction by ZEFSAII (Michael W. Deem and Ramdas Pophale) SiO2 
 PCOD8071050
Probable space group: P 21/M
;
_chemical_formula_sum "Si O2"
_cell_formula_units_Z 24
_cell_length_a 16.013847
_cell_length_b 13.365310
_cell_length_c 12.497255
_cell_angle_alpha 90.000000
_cell_angle_beta 27.473520
_cell_angle_gamma 90.000000
_cell_volume 1233.982939
_symmetry_space_group_name_H-M "P 21/M"
_symmetry_group_IT_number 11
_symmetry_cell_setting 'monoclinic'
loop_
_space_group_symop_operation_xyz
x,y,z
-x,1/2+y,-z
-x,-y,-z
x,1/2-y,z
loop_
_atom_site_type_symbol
_atom_site_label
_atom_site_fract_x
_atom_site_fract_y
_atom_site_fract_z
Si Si1 0.143826 0.860205 0.881227
Si Si2 0.047940 0.366495 0.312336
Si Si3 0.428414 0.037142 0.918469
Si Si4 0.658540 0.364717 0.833215
Si Si5 0.102369 0.069399 0.026978
Si Si6 0.492061 0.425505 0.607575
O O1 0.108193 0.750000 0.973225
O O2 0.337147 0.852823 0.600709
O O3 0.990661 0.882260 0.968670
O O4 0.133730 0.948763 0.980139
O O5 0.090083 0.250000 0.252713
O O6 0.991241 0.412042 0.261224
O O7 0.874120 0.385614 0.584466
O O8 0.225444 0.419345 0.157579
O O9 0.564720 0.109480 0.826858
O O10 0.501027 0.023393 0.714833
O O11 0.429387 0.928034 0.971099
O O12 0.619033 0.250000 0.904932
O O13 0.295680 0.126802 0.821690
O O14 0.500000 0.500000 0.500000
#
# Coordination Sequence:
#
# PCOD8071050 Si02
#       6
#     4   4   4   4   4   4
#     4  10  19  32  52  76 105 142 179 215 261 315
#     4  10  19  33  55  79 103 137 178 217 261 314
#     4  10  20  35  56  80 109 138 176 224 265 314
#     4  10  21  36  56  80 106 140 179 220 268 317
#     4   9  19  33  50  76 108 136 175 223 262 305
#     4   9  19  35  53  76 105 139 175 217 265 312
#
# _framework density 19.449216
#
# number of rings (size 3 to 8) (size 9 to 14) (size 15 to 20)
#    0.000    2.333    0.000    2.500    0.000    5.333 
#    0.000    7.500    0.000   22.000    0.000    0.000 
#    0.000    0.000    0.000    0.000    0.000    0.000 
#
# Total GULP energy -297423.718580 kJ/mol
# GULP energy per Si atom -12392.654941 kJ/mol
# Density = 1.940495 g / cm^3
# Si number density = 19.449216 Si / 1000 Ang^3
#
#
#
# Elastic Constant Matrix: (Units=GPa)
#
#
# Indices 1 2 3 4 5 6 
#
# 1 86.6354 23.3883 19.1605 0.0000 0.1018 0.0000
# 2 23.3883 104.9837 29.4005 0.0000 8.3431 0.0000
# 3 19.1605 29.4005 47.2639 0.0000 -1.2397 0.0000
# 4 0.0000 0.0000 0.0000 20.7031 0.0000 1.0617
# 5 0.1018 8.3431 -1.2397 0.0000 31.8941 0.0000
# 6 0.0000 0.0000 0.0000 1.0617 0.0000 13.7934
#
#
#
# Elastic Compliance Matrix: (Units=1/GPa)
#
#
# Indices 1 2 3 4 5 6 
#
# 1 0.012930 -0.001737 -0.004155 0.000000 0.000252 0.000000
# 2 -0.001737 0.012126 -0.006929 0.000000 -0.003436 0.000000
# 3 -0.004155 -0.006929 0.027228 0.000000 0.002884 0.000000
# 4 0.000000 0.000000 0.000000 0.048493 0.000000 -0.003733
# 5 0.000252 -0.003436 0.002884 0.000000 0.032364 0.000000
# 6 0.000000 0.000000 0.000000 -0.003733 0.000000 0.072786
#
#
# Mechanical properties :
#
#
# Convention : Reuss Voigt Hill
#
# Bulk Modulus (GPa) = 37.53375 42.53128 40.03252
# Shear Modulus (GPa) = 20.79447 24.40701 22.60074
#
# Velocity S-wave (km/s) = 3.27336 3.54631 3.41257
# Velocity P-wave (km/s) = 5.79886 6.21963 6.01293
#
# Compressibility (1/GPa) = 0.02664269
#
# Stress axis : x y z
#
# Youngs Moduli (GPa) = 77.33873 82.46959 36.72724
#
# Poissons Ratio (x) = 0.14326 0.15259
# Poissons Ratio (y) = 0.13434 0.25447
# Poissons Ratio (z) = 0.32132 0.57141
#
# Static dielectric constant tensor:
#      x y z
#    x 3.567140 0.000000 -0.256810 
#    y 0.000000 3.415190 0.000000 
#    z -0.256810 0.000000 3.910740 
# 
# 
# High freq. dielectric constant tensor:
#      x y z
#    x 1.760060 0.000000 -0.018780 
#    y 0.000000 1.743660 0.000000 
#    z -0.018780 0.000000 1.759680 
# 
# From -- ./inp_files/39567.got.cif
#   From: 2010.06.25/outbox.cif.g09.slc.cpg/sg11_20_cif.got.tgz:39567.got - 2010.06.27 23:14:04.
