data_PCOD8071497
_publ_section_title
;
Structure prediction by ZEFSAII (Michael W. Deem and Ramdas Pophale) SiO2 
 PCOD8071497
Probable space group: P 21/M
;
_chemical_formula_sum "Si O2"
_cell_formula_units_Z 28
_cell_length_a 19.974408
_cell_length_b 8.741836
_cell_length_c 18.235384
_cell_angle_alpha 90.000000
_cell_angle_beta 28.675174
_cell_angle_gamma 90.000000
_cell_volume 1527.886171
_symmetry_space_group_name_H-M "P 21/M"
_symmetry_group_IT_number 11
_symmetry_cell_setting 'monoclinic'
loop_
_space_group_symop_operation_xyz
x,y,z
-x,1/2+y,-z
-x,-y,-z
x,1/2-y,z
loop_
_atom_site_type_symbol
_atom_site_label
_atom_site_fract_x
_atom_site_fract_y
_atom_site_fract_z
Si Si1 0.812609 0.425854 0.986383
Si Si2 0.907860 0.427939 0.526873
Si Si3 0.022563 0.570614 0.898422
Si Si4 0.700873 0.574210 0.356492
Si Si5 0.159401 0.429272 0.195727
Si Si6 0.602059 0.423634 0.309571
Si Si7 0.653257 0.430485 0.857594
O O1 0.844804 0.250000 0.936355
O O2 0.806559 0.523964 0.919145
O O3 0.928474 0.487788 0.929627
O O4 0.662934 0.444714 0.169782
O O5 0.909505 0.250000 0.539075
O O6 0.745982 0.480379 0.695606
O O7 0.000000 0.500000 0.500000
O O8 0.992906 0.468485 0.370294
O O9 0.991825 0.750000 0.928705
O O10 0.181640 0.535409 0.722412
O O11 0.000000 0.500000 0.000000
O O12 0.747859 0.750000 0.317483
O O13 0.678326 0.537664 0.292184
O O14 0.561849 0.539577 0.536445
O O15 0.186284 0.250000 0.180010
O O16 0.265242 0.515414 0.148177
O O17 0.626550 0.250000 0.314474
O O18 0.634737 0.250000 0.879934
O O19 0.500000 0.500000 0.000000
#
# Coordination Sequence:
#
# PCOD8071497 Si02
#       7
#     4   4   4   4   4   4   4
#     4  11  22  37  56  80 110 144 181 227 277 328
#     4   8  16  31  53  78 107 140 177 217 259 312
#     4  12  23  36  54  79 106 139 181 229 275 325
#     4  10  19  33  54  78 102 133 176 226 275 326
#     4  10  20  36  56  81 111 145 182 222 270 326
#     4   9  19  34  53  76 104 138 177 221 273 329
#     4  10  19  34  57  86 114 144 181 222 266 317
#
# _framework density 18.325973000000001
#
# number of rings (size 3 to 8) (size 9 to 14) (size 15 to 20)
#    0.000    2.000    1.429    3.000    0.000    2.286 
#    0.000    1.429    0.000    0.000    0.000    0.000 
#    0.000    0.000    0.000    0.000    0.000    0.000 
#
# Total GULP energy -346961.843167 kJ/mol
# GULP energy per Si atom -12391.494399 kJ/mol
# Density = 1.828426 g / cm^3
# Si number density = 18.325973 Si / 1000 Ang^3
#
#
#
# Elastic Constant Matrix: (Units=GPa)
#
#
# Indices 1 2 3 4 5 6 
#
# 1 66.8857 11.9062 53.7666 0.0000 -1.3360 0.0000
# 2 11.9062 45.5889 36.9221 0.0000 -3.4199 0.0000
# 3 53.7666 36.9221 147.1550 0.0000 -7.0899 0.0000
# 4 0.0000 0.0000 0.0000 28.5714 0.0000 -2.1528
# 5 -1.3360 -3.4199 -7.0899 0.0000 28.7152 0.0000
# 6 0.0000 0.0000 0.0000 -2.1528 0.0000 31.4479
#
#
#
# Elastic Compliance Matrix: (Units=1/GPa)
#
#
# Indices 1 2 3 4 5 6 
#
# 1 0.021221 0.000885 -0.008019 0.000000 -0.000887 0.000000
# 2 0.000885 0.027638 -0.007183 0.000000 0.001559 0.000000
# 3 -0.008019 -0.007183 0.011607 0.000000 0.001637 0.000000
# 4 0.000000 0.000000 0.000000 0.035182 0.000000 0.002408
# 5 -0.000887 0.001559 0.001637 0.000000 0.035373 0.000000
# 6 0.000000 0.000000 0.000000 0.002408 0.000000 0.031963
#
#
# Mechanical properties :
#
#
# Convention : Reuss Voigt Hill
#
# Bulk Modulus (GPa) = 31.41315 51.64662 41.52988
# Shear Modulus (GPa) = 24.72450 28.21587 26.47019
#
# Velocity S-wave (km/s) = 3.67706 3.92811 3.80466
# Velocity P-wave (km/s) = 5.93349 6.98690 6.48163
#
# Compressibility (1/GPa) = 0.03183380
#
# Stress axis : x y z
#
# Youngs Moduli (GPa) = 47.12221 36.18155 86.15853
#
# Poissons Ratio (x) = -0.03204 0.69088
# Poissons Ratio (y) = -0.04172 0.61888
# Poissons Ratio (z) = 0.37786 0.25989
#
# Static dielectric constant tensor:
#      x y z
#    x 3.019250 0.000000 -0.083520 
#    y 0.000000 3.512360 0.000000 
#    z -0.083520 0.000000 4.141700 
# 
# 
# High freq. dielectric constant tensor:
#      x y z
#    x 1.667400 0.000000 -0.008710 
#    y 0.000000 1.723070 0.000000 
#    z -0.008710 0.000000 1.734200 
# 
# From -- ./inp_files/61246.got.cif
#   From: 2010.06.25/outbox.cif.g09.slc.cpg/sg11_31_cif.got.tgz:61246.got - 2010.06.27 23:14:04.
