data_PCOD8071797
_publ_section_title
;
Structure prediction by ZEFSAII (Michael W. Deem and Ramdas Pophale) SiO2 
 PCOD8071797
Probable space group: P 21/M
;
_chemical_formula_sum "Si O2"
_cell_formula_units_Z 28
_cell_length_a 13.121853
_cell_length_b 13.121971
_cell_length_c 9.681623
_cell_angle_alpha 90.000000
_cell_angle_beta 117.793271
_cell_angle_gamma 90.000000
_cell_volume 1474.710905
_symmetry_space_group_name_H-M "P 21/M"
_symmetry_group_IT_number 11
_symmetry_cell_setting 'monoclinic'
loop_
_space_group_symop_operation_xyz
x,y,z
-x,1/2+y,-z
-x,-y,-z
x,1/2-y,z
loop_
_atom_site_type_symbol
_atom_site_label
_atom_site_fract_x
_atom_site_fract_y
_atom_site_fract_z
Si Si1 0.809219 0.631312 0.162905
Si Si2 0.574178 0.030447 0.415412
Si Si3 0.983536 0.129203 0.896137
Si Si4 0.748847 0.868248 0.430211
Si Si5 0.726165 0.368279 0.717692
Si Si6 0.345038 0.456854 0.158872
Si Si7 0.154308 0.368285 0.225904
O O1 0.783477 0.750000 0.120750
O O2 0.808597 0.602952 0.323450
O O3 0.933338 0.600895 0.179618
O O4 0.707864 0.568117 0.023442
O O5 0.668075 0.111655 0.530655
O O6 0.480381 0.076822 0.247674
O O7 0.500000 0.000000 0.500000
O O8 0.635020 0.934813 0.380891
O O9 0.966700 0.250000 0.894015
O O10 0.855995 0.082965 0.792086
O O11 0.042081 0.084793 0.075594
O O12 0.710963 0.750000 0.410071
O O13 0.843909 0.891127 0.609414
O O14 0.725515 0.250000 0.750621
O O15 0.662576 0.422502 0.807204
O O16 0.275981 0.402819 0.239477
O O17 0.146462 0.250000 0.188459
#
# Coordination Sequence:
#
# PCOD8071797 Si02
#       7
#     4   4   4   4   4   4   4
#     4   9  19  34  55  80 103 132 166 210 264 308
#     4  10  20  34  50  77 104 132 173 215 252 293
#     4   8  16  32  52  75 103 132 168 212 255 303
#     4  10  19  34  54  79 105 131 168 211 262 310
#     4  10  20  33  52  76 104 139 175 209 252 301
#     4  10  19  34  52  78 104 135 170 218 249 298
#     4   9  16  29  53  78 100 128 168 214 255 295
#
# _framework density 18.986771999999998
#
# number of rings (size 3 to 8) (size 9 to 14) (size 15 to 20)
#    0.000    2.571    2.857    1.286    0.000    6.286 
#    0.000    0.714    0.000    0.857    0.000    0.000 
#    0.000    0.000    0.000    0.000    0.000    0.000 
#
# Total GULP energy -347001.346871 kJ/mol
# GULP energy per Si atom -12392.905245 kJ/mol
# Density = 1.894356 g / cm^3
# Si number density = 18.986772 Si / 1000 Ang^3
#
#
#
# Elastic Constant Matrix: (Units=GPa)
#
#
# Indices 1 2 3 4 5 6 
#
# 1 90.2187 20.4909 73.9495 0.0000 17.5296 0.0000
# 2 20.4909 35.5466 41.2052 0.0000 8.3009 0.0000
# 3 73.9495 41.2052 145.4612 0.0000 6.1821 0.0000
# 4 0.0000 0.0000 0.0000 24.0185 0.0000 -0.0076
# 5 17.5296 8.3009 6.1821 0.0000 44.2560 0.0000
# 6 0.0000 0.0000 0.0000 -0.0076 0.0000 20.4261
#
#
#
# Elastic Compliance Matrix: (Units=1/GPa)
#
#
# Indices 1 2 3 4 5 6 
#
# 1 0.020998 0.002383 -0.011043 0.000000 -0.007221 0.000000
# 2 0.002383 0.043940 -0.013347 0.000000 -0.007321 0.000000
# 3 -0.011043 -0.013347 0.016073 0.000000 0.004632 0.000000
# 4 0.000000 0.000000 0.000000 0.041635 0.000000 0.000015
# 5 -0.007221 -0.007321 0.004632 0.000000 0.026182 0.000000
# 6 0.000000 0.000000 0.000000 0.000015 0.000000 0.048957
#
#
# Mechanical properties :
#
#
# Convention : Reuss Voigt Hill
#
# Bulk Modulus (GPa) = 27.02999 60.27978 43.65488
# Shear Modulus (GPa) = 19.67493 26.77885 23.22689
#
# Velocity S-wave (km/s) = 3.22257 3.75960 3.50139
# Velocity P-wave (km/s) = 5.30224 7.11782 6.27603
#
# Compressibility (1/GPa) = 0.03699595
#
# Stress axis : x y z
#
# Youngs Moduli (GPa) = 47.62457 22.75825 62.21714
#
# Poissons Ratio (x) = -0.05423 0.68706
# Poissons Ratio (y) = -0.11349 0.83044
# Poissons Ratio (z) = 0.52591 0.30376
#
# Static dielectric constant tensor:
#      x y z
#    x 3.547030 0.000000 0.397340 
#    y 0.000000 3.453290 0.000000 
#    z 0.397340 0.000000 3.908760 
# 
# 
# High freq. dielectric constant tensor:
#      x y z
#    x 1.714060 0.000000 0.025480 
#    y 0.000000 1.737720 0.000000 
#    z 0.025480 0.000000 1.738790 
# 
# From -- ./inp_files/21941.got.cif
#   From: 2010.06.25/outbox.cif.g09.slc.cpg/sg11_11_cif.got.tgz:21941.got - 2010.06.27 23:14:04.
