data_PCOD8071362
_publ_section_title
;
Structure prediction by ZEFSAII (Michael W. Deem and Ramdas Pophale) SiO2 
 PCOD8071362
Probable space group: P 21/M
;
_chemical_formula_sum "Si O2"
_cell_formula_units_Z 28
_cell_length_a 9.469357
_cell_length_b 9.029555
_cell_length_c 28.128300
_cell_angle_alpha 90.000000
_cell_angle_beta 139.926501
_cell_angle_gamma 90.000000
_cell_volume 1548.320618
_symmetry_space_group_name_H-M "P 21/M"
_symmetry_group_IT_number 11
_symmetry_cell_setting 'monoclinic'
loop_
_space_group_symop_operation_xyz
x,y,z
-x,1/2+y,-z
-x,-y,-z
x,1/2-y,z
loop_
_atom_site_type_symbol
_atom_site_label
_atom_site_fract_x
_atom_site_fract_y
_atom_site_fract_z
Si Si1 0.868099 0.924838 0.423896
Si Si2 0.007103 0.080555 0.147803
Si Si3 0.455911 0.923172 0.939089
Si Si4 0.851535 0.073746 0.002376
Si Si5 0.360752 0.916832 0.400984
Si Si6 0.173724 0.417821 0.437854
Si Si7 0.376495 0.921141 0.298074
O O1 0.873227 0.750000 0.433189
O O2 0.621103 0.986758 0.357318
O O3 0.000000 0.000000 0.500000
O O4 0.982110 0.971506 0.404108
O O5 0.075718 0.250000 0.163968
O O6 0.807609 0.056806 0.134451
O O7 0.947297 0.030197 0.078741
O O8 0.218905 0.992966 0.219012
O O9 0.519122 0.750000 0.957072
O O10 0.500000 0.000000 0.000000
O O11 0.603036 0.004834 0.936496
O O12 0.838936 0.250000 0.991361
O O13 0.000000 0.000000 0.000000
O O14 0.294703 0.750000 0.399446
O O15 0.623203 0.933987 0.473419
O O16 0.288551 0.949248 0.328619
O O17 0.241387 0.037573 0.402257
O O18 0.086863 0.250000 0.414656
O O19 0.383960 0.750000 0.287445
#
# Coordination Sequence:
#
# PCOD8071362 Si02
#       7
#     4   4   4   4   4   4   4
#     4  11  21  35  53  77 105 139 181 228 275 324
#     4   9  20  36  54  80 111 141 178 222 268 319
#     4   9  17  32  54  80 109 140 177 218 258 310
#     4  10  20  35  57  86 115 144 181 223 267 318
#     4   9  18  34  51  73 102 131 169 218 266 316
#     4  10  19  33  52  76 101 129 172 221 269 319
#     4  10  21  36  54  77 107 140 180 225 271 325
#
# _framework density 18.084108000000001
#
# number of rings (size 3 to 8) (size 9 to 14) (size 15 to 20)
#    0.000    2.286    1.429    2.571    0.000    5.714 
#    0.000    1.429    0.000    0.000    0.000    0.000 
#    0.000    0.000    0.000    0.000    0.000    0.000 
#
# Total GULP energy -347084.776128 kJ/mol
# GULP energy per Si atom -12395.884862 kJ/mol
# Density = 1.804295 g / cm^3
# Si number density = 18.084108 Si / 1000 Ang^3
#
#
#
# Elastic Constant Matrix: (Units=GPa)
#
#
# Indices 1 2 3 4 5 6 
#
# 1 111.7756 51.4640 42.4244 0.0000 14.4470 0.0000
# 2 51.4640 85.7822 41.3952 0.0000 9.1905 0.0000
# 3 42.4244 41.3952 89.0014 0.0000 10.1744 0.0000
# 4 0.0000 0.0000 0.0000 29.0252 0.0000 1.9443
# 5 14.4470 9.1905 10.1744 0.0000 21.5986 0.0000
# 6 0.0000 0.0000 0.0000 1.9443 0.0000 35.8886
#
#
#
# Elastic Compliance Matrix: (Units=1/GPa)
#
#
# Indices 1 2 3 4 5 6 
#
# 1 0.013578 -0.006139 -0.003041 0.000000 -0.005038 0.000000
# 2 -0.006139 0.018029 -0.005339 0.000000 -0.001050 0.000000
# 3 -0.003041 -0.005339 0.015512 0.000000 -0.003001 0.000000
# 4 0.000000 0.000000 0.000000 0.034578 0.000000 -0.001873
# 5 -0.005038 -0.001050 -0.003001 0.000000 0.051529 0.000000
# 6 0.000000 0.000000 0.000000 -0.001873 0.000000 0.027965
#
#
# Mechanical properties :
#
#
# Convention : Reuss Voigt Hill
#
# Bulk Modulus (GPa) = 55.30753 61.90294 58.60524
# Shear Modulus (GPa) = 25.47655 27.38752 26.43203
#
# Velocity S-wave (km/s) = 3.75744 3.89582 3.82726
# Velocity P-wave (km/s) = 7.03381 7.38522 7.21165
#
# Compressibility (1/GPa) = 0.01808072
#
# Stress axis : x y z
#
# Youngs Moduli (GPa) = 73.64643 55.46478 64.46653
#
# Poissons Ratio (x) = 0.34049 0.19606
# Poissons Ratio (y) = 0.45210 0.34421
# Poissons Ratio (z) = 0.22398 0.29615
#
# Static dielectric constant tensor:
#      x y z
#    x 3.581000 0.000000 0.254170 
#    y 0.000000 3.442750 0.000000 
#    z 0.254170 0.000000 3.177370 
# 
# 
# High freq. dielectric constant tensor:
#      x y z
#    x 1.705610 0.000000 0.010570 
#    y 0.000000 1.708210 0.000000 
#    z 0.010570 0.000000 1.669360 
# 
# From -- ./inp_files/70926.got.cif
#   From: 2010.06.25/outbox.cif.g09.slc.cpg/sg11_36_cif.got.tgz:70926.got - 2010.06.27 23:14:04.
