data_PCOD8071873
_publ_section_title
;
Structure prediction by ZEFSAII (Michael W. Deem and Ramdas Pophale) SiO2 
 PCOD8071873
Probable space group: P 21/M
;
_chemical_formula_sum "Si O2"
_cell_formula_units_Z 32
_cell_length_a 7.068227
_cell_length_b 18.396354
_cell_length_c 17.027748
_cell_angle_alpha 90.000000
_cell_angle_beta 52.397099
_cell_angle_gamma 90.000000
_cell_volume 1754.149101
_symmetry_space_group_name_H-M "P 21/M"
_symmetry_group_IT_number 11
_symmetry_cell_setting 'monoclinic'
loop_
_space_group_symop_operation_xyz
x,y,z
-x,1/2+y,-z
-x,-y,-z
x,1/2-y,z
loop_
_atom_site_type_symbol
_atom_site_label
_atom_site_fract_x
_atom_site_fract_y
_atom_site_fract_z
Si Si1 0.886784 0.665077 0.881728
Si Si2 0.194077 0.164873 0.273881
Si Si3 0.279914 0.917345 0.591867
Si Si4 0.384399 0.423169 0.755069
Si Si5 0.200145 0.667644 0.308481
Si Si6 0.622867 0.410237 0.252644
Si Si7 0.373637 0.168488 0.898184
Si Si8 0.255248 0.082491 0.615975
O O1 0.954151 0.750000 0.866034
O O2 0.775426 0.643570 0.825708
O O3 0.123044 0.619361 0.841179
O O4 0.691491 0.643946 0.997230
O O5 0.174118 0.250000 0.290576
O O6 0.416377 0.137627 0.267240
O O7 0.949966 0.130888 0.368284
O O8 0.390391 0.904185 0.650020
O O9 0.481399 0.894299 0.478539
O O10 0.201813 0.000986 0.600201
O O11 0.642618 0.384502 0.674506
O O12 0.416732 0.507794 0.766564
O O13 0.253526 0.384345 0.862697
O O14 0.228559 0.413156 0.716601
O O15 0.191410 0.750000 0.343660
O O16 0.337560 0.666154 0.188435
O O17 0.933832 0.637885 0.372117
O O18 0.275712 0.250000 0.908096
#
# Coordination Sequence:
#
# PCOD8071873 Si02
#       8
#     4   4   4   4   4   4   4   4
#     4   9  18  35  54  74 104 136 173 214 255 304
#     4  10  20  35  54  76 103 135 173 215 259 305
#     4   9  21  36  54  77 104 134 174 218 254 299
#     4   9  19  34  53  76 108 134 168 213 254 302
#     4   9  19  34  52  75 106 137 169 210 252 302
#     4  10  19  34  55  77 103 136 173 214 257 306
#     4   8  17  36  53  73 107 137 164 214 260 297
#     4  10  19  36  57  75 100 142 176 204 257 314
#
# _framework density 18.242462
#
# number of rings (size 3 to 8) (size 9 to 14) (size 15 to 20)
#    0.750    2.000    0.000    1.125    0.000    3.500 
#    2.250    5.625    0.000    0.000    0.000    0.000 
#    0.000    0.000    0.000    0.000    0.000    0.000 
#
# Total GULP energy -396591.439638 kJ/mol
# GULP energy per Si atom -12393.482489 kJ/mol
# Density = 1.820094 g / cm^3
# Si number density = 18.242462 Si / 1000 Ang^3
#
#
#
# Elastic Constant Matrix: (Units=GPa)
#
#
# Indices 1 2 3 4 5 6 
#
# 1 56.2798 17.3652 11.1477 0.0000 -12.8497 0.0000
# 2 17.3652 56.1153 24.6685 0.0000 -13.5423 0.0000
# 3 11.1477 24.6685 64.0681 0.0000 -1.3476 0.0000
# 4 0.0000 0.0000 0.0000 27.0072 0.0000 -3.3278
# 5 -12.8497 -13.5423 -1.3476 0.0000 17.2859 0.0000
# 6 0.0000 0.0000 0.0000 -3.3278 0.0000 30.8144
#
#
#
# Elastic Compliance Matrix: (Units=1/GPa)
#
#
# Indices 1 2 3 4 5 6 
#
# 1 0.022334 -0.002157 -0.002746 0.000000 0.014698 0.000000
# 2 -0.002157 0.027390 -0.009769 0.000000 0.019093 0.000000
# 3 -0.002746 -0.009769 0.019676 0.000000 -0.008161 0.000000
# 4 0.000000 0.000000 0.000000 0.037526 0.000000 0.004053
# 5 0.014698 0.019093 -0.008161 0.000000 0.083099 0.000000
# 6 0.000000 0.000000 0.000000 0.004053 0.000000 0.032890
#
#
# Mechanical properties :
#
#
# Convention : Reuss Voigt Hill
#
# Bulk Modulus (GPa) = 24.96569 31.42512 28.19541
# Shear Modulus (GPa) = 18.82443 23.24030 21.03237
#
# Velocity S-wave (km/s) = 3.21581 3.57314 3.39917
# Velocity P-wave (km/s) = 5.24440 5.85550 5.55835
#
# Compressibility (1/GPa) = 0.04005497
#
# Stress axis : x y z
#
# Youngs Moduli (GPa) = 44.77541 36.50916 50.82301
#
# Poissons Ratio (x) = 0.07875 0.13958
# Poissons Ratio (y) = 0.09658 0.49651
# Poissons Ratio (z) = 0.12297 0.35667
#
# Static dielectric constant tensor:
#      x y z
#    x 3.092870 0.000000 0.057950 
#    y 0.000000 3.438680 0.000000 
#    z 0.057950 0.000000 3.314190 
# 
# 
# High freq. dielectric constant tensor:
#      x y z
#    x 1.686460 0.000000 0.002060 
#    y 0.000000 1.715090 0.000000 
#    z 0.002060 0.000000 1.698830 
# 
# From -- ./inp_files/57214.got.cif
#   From: 2010.06.25/outbox.cif.g09.slc.cpg/sg11_29_cif.got.tgz:57214.got - 2010.06.27 23:14:04.
