data_PCOD8071105
_publ_section_title
;
Structure prediction by ZEFSAII (Michael W. Deem and Ramdas Pophale) SiO2 
 PCOD8071105
Probable space group: P 21/M
;
_chemical_formula_sum "Si O2"
_cell_formula_units_Z 28
_cell_length_a 8.933932
_cell_length_b 8.988070
_cell_length_c 28.808438
_cell_angle_alpha 90.000000
_cell_angle_beta 140.779384
_cell_angle_gamma 90.000000
_cell_volume 1462.707692
_symmetry_space_group_name_H-M "P 21/M"
_symmetry_group_IT_number 11
_symmetry_cell_setting 'monoclinic'
loop_
_space_group_symop_operation_xyz
x,y,z
-x,1/2+y,-z
-x,-y,-z
x,1/2-y,z
loop_
_atom_site_type_symbol
_atom_site_label
_atom_site_fract_x
_atom_site_fract_y
_atom_site_fract_z
Si Si1 0.575850 0.923440 0.798524
Si Si2 0.908594 0.574072 0.793998
Si Si3 0.350133 0.079586 0.501966
Si Si4 0.041948 0.923105 0.656781
Si Si5 0.599503 0.921934 0.069157
Si Si6 0.755311 0.420575 0.931892
Si Si7 0.731658 0.425284 0.660592
O O1 0.597253 0.750000 0.815061
O O2 0.765815 0.971042 0.805706
O O3 0.315720 0.966120 0.717620
O O4 0.620832 0.011923 0.856027
O O5 0.938986 0.750000 0.796964
O O6 0.764274 0.514352 0.715593
O O7 0.163539 0.499643 0.856600
O O8 0.407528 0.250000 0.508507
O O9 0.459119 0.036422 0.578571
O O10 0.074965 0.045867 0.422838
O O11 0.500000 0.000000 0.500000
O O12 0.011217 0.750000 0.663265
O O13 0.921006 0.021689 0.667646
O O14 0.651299 0.750000 0.070649
O O15 0.405881 0.940979 0.062126
O O16 0.500000 0.000000 0.000000
O O17 0.809455 0.250000 0.934311
O O18 0.000000 0.500000 0.000000
O O19 0.770337 0.250000 0.678586
#
# Coordination Sequence:
#
# PCOD8071105 Si02
#       7
#     4   4   4   4   4   4   4
#     4  10  22  38  56  79 108 142 183 225 266 315
#     4  11  23  38  55  78 109 146 185 224 266 317
#     4   8  15  28  49  76 105 137 176 221 270 321
#     4   9  17  33  56  79 105 141 181 224 273 323
#     4  11  24  41  61  87 114 142 177 218 263 316
#     4  11  24  40  60  85 112 140 175 217 263 315
#     4  10  19  32  52  80 110 140 179 227 273 323
#
# _framework density 19.142579999999999
#
# number of rings (size 3 to 8) (size 9 to 14) (size 15 to 20)
#    0.000    2.000    0.000    3.429    0.000   10.286 
#    0.000    0.714    0.000    0.000    0.000    0.000 
#    0.000    0.000    0.000    0.000    0.000    0.000 
#
# Total GULP energy -347056.031153 kJ/mol
# GULP energy per Si atom -12394.858255 kJ/mol
# Density = 1.909901 g / cm^3
# Si number density = 19.142580 Si / 1000 Ang^3
#
#
#
# Elastic Constant Matrix: (Units=GPa)
#
#
# Indices 1 2 3 4 5 6 
#
# 1 45.9506 38.3379 30.0509 0.0000 0.6164 0.0000
# 2 38.3379 85.1183 59.0386 0.0000 -3.0578 0.0000
# 3 30.0509 59.0386 158.5334 0.0000 1.3567 0.0000
# 4 0.0000 0.0000 0.0000 34.3622 0.0000 -3.6291
# 5 0.6164 -3.0578 1.3567 0.0000 32.6532 0.0000
# 6 0.0000 0.0000 0.0000 -3.6291 0.0000 26.3923
#
#
#
# Elastic Compliance Matrix: (Units=1/GPa)
#
#
# Indices 1 2 3 4 5 6 
#
# 1 0.035124 -0.015219 -0.000973 0.000000 -0.002048 0.000000
# 2 -0.015219 0.022532 -0.005529 0.000000 0.002627 0.000000
# 3 -0.000973 -0.005529 0.008558 0.000000 -0.000855 0.000000
# 4 0.000000 0.000000 0.000000 0.029531 0.000000 0.004061
# 5 -0.002048 0.002627 -0.000855 0.000000 0.030945 0.000000
# 6 0.000000 0.000000 0.000000 0.004061 0.000000 0.038448
#
#
# Mechanical properties :
#
#
# Convention : Reuss Voigt Hill
#
# Bulk Modulus (GPa) = 43.91052 60.49525 52.20289
# Shear Modulus (GPa) = 23.12995 29.49321 26.31158
#
# Velocity S-wave (km/s) = 3.47983 3.92945 3.71145
# Velocity P-wave (km/s) = 6.25572 7.22900 6.75990
#
# Compressibility (1/GPa) = 0.02277358
#
# Stress axis : x y z
#
# Youngs Moduli (GPa) = 28.47086 44.38103 116.84323
#
# Poissons Ratio (x) = 0.67542 0.11367
# Poissons Ratio (y) = 0.43329 0.64600
# Poissons Ratio (z) = 0.02770 0.24537
#
# Static dielectric constant tensor:
#      x y z
#    x 3.333590 0.000000 0.070280 
#    y 0.000000 3.684830 0.000000 
#    z 0.070280 0.000000 4.448990 
# 
# 
# High freq. dielectric constant tensor:
#      x y z
#    x 1.720770 0.000000 0.002800 
#    y 0.000000 1.753640 0.000000 
#    z 0.002800 0.000000 1.774550 
# 
# From -- ./inp_files/28447.got.cif
#   From: 2010.06.25/outbox.cif.g09.slc.cpg/sg11_15_cif.got.tgz:28447.got - 2010.06.27 23:14:04.
