data_PCOD8071355
_publ_section_title
;
Structure prediction by ZEFSAII (Michael W. Deem and Ramdas Pophale) SiO2 
 PCOD8071355
Probable space group: P 21/M
;
_chemical_formula_sum "Si O2"
_cell_formula_units_Z 32
_cell_length_a 14.954095
_cell_length_b 8.554016
_cell_length_c 23.033841
_cell_angle_alpha 90.000000
_cell_angle_beta 140.781447
_cell_angle_gamma 90.000000
_cell_volume 1862.971211
_symmetry_space_group_name_H-M "P 21/M"
_symmetry_group_IT_number 11
_symmetry_cell_setting 'monoclinic'
loop_
_space_group_symop_operation_xyz
x,y,z
-x,1/2+y,-z
-x,-y,-z
x,1/2-y,z
loop_
_atom_site_type_symbol
_atom_site_label
_atom_site_fract_x
_atom_site_fract_y
_atom_site_fract_z
Si Si1 0.051483 0.431149 0.115842
Si Si2 0.777560 0.930042 0.574155
Si Si3 0.496545 0.431613 0.383327
Si Si4 0.202248 0.070645 0.614182
Si Si5 0.484799 0.930878 0.250656
Si Si6 0.773723 0.068968 0.694960
Si Si7 0.045234 0.929762 0.430567
Si Si8 0.205371 0.067635 0.073630
O O1 0.058095 0.250000 0.135668
O O2 0.109607 0.531795 0.198049
O O3 0.148500 0.469377 0.109270
O O4 0.890597 0.480601 0.022155
O O5 0.735105 0.750000 0.545883
O O6 0.650239 0.035789 0.486503
O O7 0.811568 0.968375 0.657567
O O8 0.917430 0.966111 0.606586
O O9 0.459126 0.250000 0.371064
O O10 0.489804 0.475245 0.312830
O O11 0.383101 0.529380 0.362448
O O12 0.170373 0.250000 0.580196
O O13 0.368162 0.045896 0.709953
O O14 0.113176 0.027407 0.627155
O O15 0.156288 0.961412 0.538026
O O16 0.455380 0.750000 0.249871
O O17 0.363151 0.999633 0.148092
O O18 0.780598 0.250000 0.682155
O O19 0.056866 0.750000 0.418114
O O20 0.203713 0.250000 0.058861
#
# Coordination Sequence:
#
# PCOD8071355 Si02
#       8
#     4   4   4   4   4   4   4   4
#     4  10  20  35  53  75 104 136 173 215 259 305
#     4  12  24  38  53  73 103 140 180 220 259 306
#     4  12  23  36  51  74 105 140 179 217 254 303
#     4   9  19  33  51  75 105 137 172 213 261 312
#     4  11  20  32  52  78 107 141 174 210 259 311
#     4  12  24  38  55  75 102 139 178 217 259 307
#     4  10  19  33  52  75 102 135 175 218 260 306
#     4  10  20  33  52  76 105 137 173 214 259 307
#
# _framework density 17.176860999999999
#
# number of rings (size 3 to 8) (size 9 to 14) (size 15 to 20)
#    0.000    1.250    2.500    5.250    0.000    2.000 
#    0.000    0.000    0.000    0.000    0.000    0.875 
#    0.000    0.000    0.000    0.000    0.000    0.000 
#
# Total GULP energy -396959.276727 kJ/mol
# GULP energy per Si atom -12404.977398 kJ/mol
# Density = 1.713777 g / cm^3
# Si number density = 17.176861 Si / 1000 Ang^3
#
#
#
# Elastic Constant Matrix: (Units=GPa)
#
#
# Indices 1 2 3 4 5 6 
#
# 1 98.1492 20.4914 41.0066 0.0000 8.3197 0.0000
# 2 20.4914 63.6739 24.1948 0.0000 3.7437 0.0000
# 3 41.0066 24.1948 70.1170 0.0000 11.0314 0.0000
# 4 0.0000 0.0000 0.0000 27.6633 0.0000 -0.5703
# 5 8.3197 3.7437 11.0314 0.0000 23.3976 0.0000
# 6 0.0000 0.0000 0.0000 -0.5703 0.0000 24.0286
#
#
#
# Elastic Compliance Matrix: (Units=1/GPa)
#
#
# Indices 1 2 3 4 5 6 
#
# 1 0.013647 -0.001566 -0.007255 0.000000 -0.001181 0.000000
# 2 -0.001566 0.018255 -0.005413 0.000000 0.000188 0.000000
# 3 -0.007255 -0.005413 0.021419 0.000000 -0.006653 0.000000
# 4 0.000000 0.000000 0.000000 0.036167 0.000000 0.000858
# 5 -0.001181 0.000188 -0.006653 0.000000 0.046266 0.000000
# 6 0.000000 0.000000 0.000000 0.000858 0.000000 0.041637
#
#
# Mechanical properties :
#
#
# Convention : Reuss Voigt Hill
#
# Bulk Modulus (GPa) = 40.23550 44.81396 42.52473
# Shear Modulus (GPa) = 23.34896 24.76771 24.05834
#
# Velocity S-wave (km/s) = 3.69090 3.80139 3.74655
# Velocity P-wave (km/s) = 6.45281 6.73897 6.59744
#
# Compressibility (1/GPa) = 0.02485368
#
# Stress axis : x y z
#
# Youngs Moduli (GPa) = 73.27802 54.78070 46.68696
#
# Poissons Ratio (x) = 0.08576 0.33871
# Poissons Ratio (y) = 0.11472 0.25271
# Poissons Ratio (z) = 0.53162 0.29653
#
# Static dielectric constant tensor:
#      x y z
#    x 3.282760 0.000000 0.161140 
#    y 0.000000 3.304910 0.000000 
#    z 0.161140 0.000000 3.124870 
# 
# 
# High freq. dielectric constant tensor:
#      x y z
#    x 1.646490 0.000000 0.013500 
#    y 0.000000 1.681180 0.000000 
#    z 0.013500 0.000000 1.643230 
# 
# From -- ./inp_files/65262.got.cif
#   From: 2010.06.25/outbox.cif.g09.slc.cpg/sg11_33_cif.got.tgz:65262.got - 2010.06.27 23:14:04.
