data_PCOD8071356
_publ_section_title
;
Structure prediction by ZEFSAII (Michael W. Deem and Ramdas Pophale) SiO2 
 PCOD8071356
Probable space group: P 21/M
;
_chemical_formula_sum "Si O2"
_cell_formula_units_Z 28
_cell_length_a 14.280451
_cell_length_b 8.901462
_cell_length_c 14.599613
_cell_angle_alpha 90.000000
_cell_angle_beta 59.530204
_cell_angle_gamma 90.000000
_cell_volume 1599.557196
_symmetry_space_group_name_H-M "P 21/M"
_symmetry_group_IT_number 11
_symmetry_cell_setting 'monoclinic'
loop_
_space_group_symop_operation_xyz
x,y,z
-x,1/2+y,-z
-x,-y,-z
x,1/2-y,z
loop_
_atom_site_type_symbol
_atom_site_label
_atom_site_fract_x
_atom_site_fract_y
_atom_site_fract_z
Si Si1 0.743128 0.578434 0.540712
Si Si2 0.091661 0.075618 0.392953
Si Si3 0.928086 0.918887 0.797194
Si Si4 0.298357 0.425764 0.760677
Si Si5 0.108181 0.070452 0.988320
Si Si6 0.494496 0.426060 0.402583
Si Si7 0.822163 0.418284 0.334772
O O1 0.761218 0.750000 0.499918
O O2 0.789007 0.556287 0.620908
O O3 0.617074 0.534116 0.594565
O O4 0.815637 0.468178 0.443124
O O5 0.058307 0.250000 0.400116
O O6 0.097170 0.000465 0.287877
O O7 0.000000 0.000000 0.500000
O O8 0.885030 0.750000 0.808466
O O9 0.873164 0.988703 0.915991
O O10 0.054826 0.924280 0.758442
O O11 0.320175 0.250000 0.756800
O O12 0.412850 0.511224 0.711506
O O13 0.249154 0.463832 0.686153
O O14 0.214748 0.482070 0.879904
O O15 0.094464 0.250000 0.992062
O O16 0.000000 0.000000 0.000000
O O17 0.500000 0.500000 0.500000
O O18 0.509531 0.250000 0.408946
O O19 0.775131 0.250000 0.345775
#
# Coordination Sequence:
#
# PCOD8071356 Si02
#       7
#     4   4   4   4   4   4   4
#     4  10  21  34  50  74 105 135 170 211 255 303
#     4  10  19  33  52  75 103 134 167 207 254 307
#     4   9  18  32  50  75 104 135 170 203 250 308
#     4  11  22  34  50  75 106 139 173 211 256 307
#     4  10  20  34  52  75 103 135 172 211 254 306
#     4  11  22  35  52  75 103 137 174 213 260 308
#     4  11  19  29  51  77 105 138 170 205 248 307
#
# _framework density 17.504843999999999
#
# number of rings (size 3 to 8) (size 9 to 14) (size 15 to 20)
#    0.000    1.714    4.286    1.286    0.000    1.143 
#    0.000    0.714    0.000    0.857    0.000    0.000 
#    0.000    0.000    0.000    0.000    0.000    0.286 
#
# Total GULP energy -347058.251792 kJ/mol
# GULP energy per Si atom -12394.937564 kJ/mol
# Density = 1.746500 g / cm^3
# Si number density = 17.504844 Si / 1000 Ang^3
#
#
#
# Elastic Constant Matrix: (Units=GPa)
#
#
# Indices 1 2 3 4 5 6 
#
# 1 103.3525 25.2521 53.9288 0.0000 6.8969 0.0000
# 2 25.2521 49.9193 32.4551 0.0000 -5.1781 0.0000
# 3 53.9288 32.4551 128.2555 0.0000 5.5447 0.0000
# 4 0.0000 0.0000 0.0000 22.8990 0.0000 -4.0523
# 5 6.8969 -5.1781 5.5447 0.0000 29.4112 0.0000
# 6 0.0000 0.0000 0.0000 -4.0523 0.0000 20.3653
#
#
#
# Elastic Compliance Matrix: (Units=1/GPa)
#
#
# Indices 1 2 3 4 5 6 
#
# 1 0.013159 -0.004134 -0.004358 0.000000 -0.002992 0.000000
# 2 -0.004134 0.026161 -0.005165 0.000000 0.006549 0.000000
# 3 -0.004358 -0.005165 0.011021 0.000000 -0.001965 0.000000
# 4 0.000000 0.000000 0.000000 0.045264 0.000000 0.009007
# 5 -0.002992 0.006549 -0.001965 0.000000 0.036226 0.000000
# 6 0.000000 0.000000 0.000000 0.009007 0.000000 0.050895
#
#
# Mechanical properties :
#
#
# Convention : Reuss Voigt Hill
#
# Bulk Modulus (GPa) = 43.42514 56.08883 49.75698
# Shear Modulus (GPa) = 22.96581 25.86121 24.41351
#
# Velocity S-wave (km/s) = 3.62604 3.84783 3.73858
# Velocity P-wave (km/s) = 6.51093 7.20087 6.86458
#
# Compressibility (1/GPa) = 0.02302814
#
# Stress axis : x y z
#
# Youngs Moduli (GPa) = 75.99276 38.22519 90.73414
#
# Poissons Ratio (x) = 0.15802 0.39539
# Poissons Ratio (y) = 0.31414 0.46863
# Poissons Ratio (z) = 0.33116 0.19743
#
# Static dielectric constant tensor:
#      x y z
#    x 3.328780 0.000000 0.073710 
#    y 0.000000 3.193020 0.000000 
#    z 0.073710 0.000000 3.462980 
# 
# 
# High freq. dielectric constant tensor:
#      x y z
#    x 1.666830 0.000000 0.003010 
#    y 0.000000 1.666300 0.000000 
#    z 0.003010 0.000000 1.669660 
# 
# From -- ./inp_files/51107.got.cif
#   From: 2010.06.25/outbox.cif.g09.slc.cpg/sg11_26_cif.got.tgz:51107.got - 2010.06.27 23:14:04.
