data_PCOD8071822
_publ_section_title
;
Structure prediction by ZEFSAII (Michael W. Deem and Ramdas Pophale) SiO2 
 PCOD8071822
Probable space group: P 21/M
;
_chemical_formula_sum "Si O2"
_cell_formula_units_Z 32
_cell_length_a 10.080307
_cell_length_b 18.357702
_cell_length_c 18.282147
_cell_angle_alpha 90.000000
_cell_angle_beta 34.863835
_cell_angle_gamma 90.000000
_cell_volume 1933.894715
_symmetry_space_group_name_H-M "P 21/M"
_symmetry_group_IT_number 11
_symmetry_cell_setting 'monoclinic'
loop_
_space_group_symop_operation_xyz
x,y,z
-x,1/2+y,-z
-x,-y,-z
x,1/2-y,z
loop_
_atom_site_type_symbol
_atom_site_label
_atom_site_fract_x
_atom_site_fract_y
_atom_site_fract_z
Si Si1 0.924950 0.027158 0.737183
Si Si2 0.850137 0.462072 0.504801
Si Si3 0.399842 0.530981 0.760250
Si Si4 0.474359 0.064931 0.860397
Si Si5 0.142410 0.169740 0.594614
Si Si6 0.211341 0.667135 0.373255
Si Si7 0.624160 0.167897 0.306359
Si Si8 0.005094 0.438508 0.149080
O O1 0.933495 0.987358 0.809805
O O2 0.039106 0.975741 0.624016
O O3 0.657855 0.041249 0.838547
O O4 0.057966 0.104712 0.685280
O O5 0.591253 0.493721 0.621704
O O6 0.838759 0.375881 0.528563
O O7 0.000000 0.500000 0.500000
O O8 0.419584 0.505067 0.834457
O O9 0.437483 0.619031 0.737702
O O10 0.146441 0.512871 0.839834
O O11 0.571074 0.131071 0.767597
O O12 0.240320 0.090334 0.005522
O O13 0.080179 0.250000 0.655801
O O14 0.417468 0.164399 0.458699
O O15 0.017668 0.160802 0.572702
O O16 0.274733 0.750000 0.363922
O O17 0.673671 0.250000 0.258259
O O18 0.853466 0.132654 0.240782
#
# Coordination Sequence:
#
# PCOD8071822 Si02
#       8
#     4   4   4   4   4   4   4   4
#     4  11  19  32  54  77 106 135 167 218 264 302
#     4  11  16  31  53  79 103 129 169 220 261 303
#     4   9  18  32  54  74  96 133 172 216 250 296
#     4  10  19  34  54  73 104 136 181 213 246 298
#     4   9  16  29  50  76  99 129 172 210 256 313
#     4   9  18  30  51  79 104 131 170 218 264 300
#     4   9  18  31  50  74 102 130 168 212 259 310
#     4  10  22  32  49  78 104 139 176 206 252 314
#
# _framework density 16.546918999999999
#
# number of rings (size 3 to 8) (size 9 to 14) (size 15 to 20)
#    0.750    1.500    5.000    0.750    0.000    2.500 
#    0.000    0.625    0.000    6.000    0.000    0.000 
#    0.000    0.000    0.000    0.000    0.000    0.000 
#
# Total GULP energy -396532.753016 kJ/mol
# GULP energy per Si atom -12391.648532 kJ/mol
# Density = 1.650926 g / cm^3
# Si number density = 16.546919 Si / 1000 Ang^3
#
#
#
# Elastic Constant Matrix: (Units=GPa)
#
#
# Indices 1 2 3 4 5 6 
#
# 1 49.0052 30.7374 26.7173 0.0000 -11.4901 0.0000
# 2 30.7374 122.8862 28.0359 0.0000 -2.3477 0.0000
# 3 26.7173 28.0359 92.5545 0.0000 -21.9282 0.0000
# 4 0.0000 0.0000 0.0000 16.8953 0.0000 -0.6208
# 5 -11.4901 -2.3477 -21.9282 0.0000 24.1008 0.0000
# 6 0.0000 0.0000 0.0000 -0.6208 0.0000 21.2382
#
#
#
# Elastic Compliance Matrix: (Units=1/GPa)
#
#
# Indices 1 2 3 4 5 6 
#
# 1 0.028667 -0.006020 -0.004274 0.000000 0.009192 0.000000
# 2 -0.006020 0.010081 -0.002248 0.000000 -0.003933 0.000000
# 3 -0.004274 -0.002248 0.015533 0.000000 0.011876 0.000000
# 4 0.000000 0.000000 0.000000 0.059252 0.000000 0.001732
# 5 0.009192 -0.003933 0.011876 0.000000 0.056297 0.000000
# 6 0.000000 0.000000 0.000000 0.001732 0.000000 0.047136
#
#
# Mechanical properties :
#
#
# Convention : Reuss Voigt Hill
#
# Bulk Modulus (GPa) = 34.24915 48.38077 41.31496
# Shear Modulus (GPa) = 19.85855 24.37722 22.11789
#
# Velocity S-wave (km/s) = 3.46806 3.84242 3.66003
# Velocity P-wave (km/s) = 6.06463 6.99911 6.54856
#
# Compressibility (1/GPa) = 0.02919780
#
# Stress axis : x y z
#
# Youngs Moduli (GPa) = 34.88324 99.19640 64.38004
#
# Poissons Ratio (x) = 0.59714 0.27516
# Poissons Ratio (y) = 0.20999 0.14471
# Poissons Ratio (z) = 0.14909 0.22297
#
# Static dielectric constant tensor:
#      x y z
#    x 2.901460 0.000000 -0.213550 
#    y 0.000000 3.279490 0.000000 
#    z -0.213550 0.000000 3.124770 
# 
# 
# High freq. dielectric constant tensor:
#      x y z
#    x 1.610860 0.000000 -0.025340 
#    y 0.000000 1.632400 0.000000 
#    z -0.025340 0.000000 1.632540 
# 
# From -- ./inp_files/64863.got.cif
#   From: 2010.06.25/outbox.cif.g09.slc.cpg/sg11_33_cif.got.tgz:64863.got - 2010.06.27 23:14:04.
