data_PCOD8071592
_publ_section_title
;
Structure prediction by ZEFSAII (Michael W. Deem and Ramdas Pophale) SiO2 
 PCOD8071592
Probable space group: P 21/M
;
_chemical_formula_sum "Si O2"
_cell_formula_units_Z 32
_cell_length_a 20.482654
_cell_length_b 8.824549
_cell_length_c 26.171157
_cell_angle_alpha 90.000000
_cell_angle_beta 159.182961
_cell_angle_gamma 90.000000
_cell_volume 1681.127701
_symmetry_space_group_name_H-M "P 21/M"
_symmetry_group_IT_number 11
_symmetry_cell_setting 'monoclinic'
loop_
_space_group_symop_operation_xyz
x,y,z
-x,1/2+y,-z
-x,-y,-z
x,1/2-y,z
loop_
_atom_site_type_symbol
_atom_site_label
_atom_site_fract_x
_atom_site_fract_y
_atom_site_fract_z
Si Si1 0.395611 0.926548 0.837517
Si Si2 0.804597 0.930230 0.136781
Si Si3 0.929560 0.070267 0.328363
Si Si4 0.274824 0.925324 0.210494
Si Si5 0.586449 0.572256 0.513553
Si Si6 0.074136 0.074493 0.975860
Si Si7 0.994609 0.428777 0.180206
Si Si8 0.141691 0.926808 0.565212
O O1 0.400687 0.750000 0.852500
O O2 0.247296 0.994155 0.769314
O O3 0.339171 0.954800 0.736638
O O4 0.597672 0.995191 0.993611
O O5 0.810906 0.750000 0.144293
O O6 0.930939 0.002460 0.272849
O O7 0.874570 0.983325 0.133450
O O8 0.935264 0.250000 0.330069
O O9 0.116918 0.010802 0.492729
O O10 0.271283 0.750000 0.191715
O O11 0.469725 0.973155 0.377777
O O12 0.119411 0.959062 0.138825
O O13 0.240180 0.025311 0.134755
O O14 0.500000 0.500000 0.500000
O O15 0.576931 0.750000 0.515371
O O16 0.794905 0.516955 0.658977
O O17 0.097498 0.250000 0.978680
O O18 0.082934 0.974082 0.931651
O O19 0.974728 0.250000 0.173589
O O20 0.100562 0.750000 0.528123
O O21 0.000000 0.000000 0.500000
#
# Coordination Sequence:
#
# PCOD8071592 Si02
#       8
#     4   4   4   4   4   4   4   4
#     4   8  17  33  55  81 108 139 180 227 270 318
#     4  11  22  37  55  77 107 146 185 223 270 323
#     4  10  19  34  55  82 112 141 179 226 273 323
#     4   9  18  33  54  82 110 135 170 216 265 314
#     4  10  20  35  57  82 108 138 175 218 265 318
#     4  10  19  33  55  81 108 138 174 215 262 317
#     4  11  23  38  55  78 110 145 179 222 274 323
#     4   9  16  30  52  80 109 137 173 220 271 319
#
# _framework density 19.034842000000001
#
# number of rings (size 3 to 8) (size 9 to 14) (size 15 to 20)
#    0.000    2.250    1.250    3.000    0.000    1.500 
#    0.000    8.125    0.000    0.000    0.000    0.000 
#    0.000    0.000    0.000    0.000    0.000    0.000 
#
# Total GULP energy -396730.002915 kJ/mol
# GULP energy per Si atom -12397.812591 kJ/mol
# Density = 1.899152 g / cm^3
# Si number density = 19.034842 Si / 1000 Ang^3
#
#
#
# Elastic Constant Matrix: (Units=GPa)
#
#
# Indices 1 2 3 4 5 6 
#
# 1 74.7405 27.5555 31.4350 0.0000 -20.9347 0.0000
# 2 27.5555 68.1205 23.7983 0.0000 -10.1298 0.0000
# 3 31.4350 23.7983 65.7669 0.0000 -24.2036 0.0000
# 4 0.0000 0.0000 0.0000 24.9997 0.0000 -7.8208
# 5 -20.9347 -10.1298 -24.2036 0.0000 30.4849 0.0000
# 6 0.0000 0.0000 0.0000 -7.8208 0.0000 33.4668
#
#
#
# Elastic Compliance Matrix: (Units=1/GPa)
#
#
# Indices 1 2 3 4 5 6 
#
# 1 0.019394 -0.005087 -0.004450 0.000000 0.008095 0.000000
# 2 -0.005087 0.018163 -0.004529 0.000000 -0.001053 0.000000
# 3 -0.004450 -0.004529 0.024431 0.000000 0.014836 0.000000
# 4 0.000000 0.000000 0.000000 0.043155 0.000000 0.010085
# 5 0.008095 -0.001053 0.014836 0.000000 0.049791 0.000000
# 6 0.000000 0.000000 0.000000 0.010085 0.000000 0.032237
#
#
# Mechanical properties :
#
#
# Convention : Reuss Voigt Hill
#
# Bulk Modulus (GPa) = 29.53601 41.57838 35.55720
# Shear Modulus (GPa) = 22.06637 26.17954 24.12296
#
# Velocity S-wave (km/s) = 3.40849 3.71259 3.56379
# Velocity P-wave (km/s) = 5.57143 6.34575 5.97116
#
# Compressibility (1/GPa) = 0.03385697
#
# Stress axis : x y z
#
# Youngs Moduli (GPa) = 51.56222 55.05694 40.93139
#
# Poissons Ratio (x) = 0.28006 0.18215
# Poissons Ratio (y) = 0.26228 0.18537
# Poissons Ratio (z) = 0.22946 0.24934
#
# Static dielectric constant tensor:
#      x y z
#    x 3.345600 0.000000 -0.264880 
#    y 0.000000 3.431870 0.000000 
#    z -0.264880 0.000000 3.943070 
# 
# 
# High freq. dielectric constant tensor:
#      x y z
#    x 1.719580 0.000000 -0.027760 
#    y 0.000000 1.736490 0.000000 
#    z -0.027760 0.000000 1.742940 
# 
# From -- ./inp_files/72223.got.cif
#   From: 2010.06.25/outbox.cif.g09.slc.cpg/sg11_37_cif.got.tgz:72223.got - 2010.06.27 23:14:04.
