data_PCOD8071262
_publ_section_title
;
Structure prediction by ZEFSAII (Michael W. Deem and Ramdas Pophale) SiO2 
 PCOD8071262
Probable space group: P 21/M
;
_chemical_formula_sum "Si O2"
_cell_formula_units_Z 32
_cell_length_a 27.772360
_cell_length_b 9.098677
_cell_length_c 21.548406
_cell_angle_alpha 90.000000
_cell_angle_beta 17.909462
_cell_angle_gamma 90.000000
_cell_volume 1674.444438
_symmetry_space_group_name_H-M "P 21/M"
_symmetry_group_IT_number 11
_symmetry_cell_setting 'monoclinic'
loop_
_space_group_symop_operation_xyz
x,y,z
-x,1/2+y,-z
-x,-y,-z
x,1/2-y,z
loop_
_atom_site_type_symbol
_atom_site_label
_atom_site_fract_x
_atom_site_fract_y
_atom_site_fract_z
Si Si1 0.781836 0.919405 0.298195
Si Si2 0.737928 0.420774 0.562184
Si Si3 0.117162 0.921293 0.941837
Si Si4 0.906500 0.920962 0.904606
Si Si5 0.965145 0.581164 0.479560
Si Si6 0.803339 0.080181 0.910235
Si Si7 0.655715 0.920240 0.787981
Si Si8 0.551980 0.581796 0.687476
O O1 0.782042 0.750000 0.277319
O O2 0.633376 0.959793 0.522570
O O3 0.771543 0.017866 0.249189
O O4 0.937440 0.957178 0.146133
O O5 0.708757 0.250000 0.611994
O O6 0.723191 0.510832 0.643056
O O7 0.609629 0.475239 0.670799
O O8 0.908784 0.451383 0.325343
O O9 0.149054 0.750000 0.910826
O O10 0.161974 0.000950 0.950602
O O11 0.868039 0.750000 0.955792
O O12 0.818123 0.985718 0.953882
O O13 0.008346 0.750000 0.437055
O O14 0.783702 0.559147 0.684964
O O15 0.000000 0.500000 0.500000
O O16 0.073927 0.518721 0.290915
O O17 0.838609 0.250000 0.883041
O O18 0.631920 0.058535 0.092654
O O19 0.619018 0.750000 0.820828
O O20 0.500000 0.000000 0.000000
O O21 0.594494 0.750000 0.652687
#
# Coordination Sequence:
#
# PCOD8071262 Si02
#       8
#     4   4   4   4   4   4   4   4
#     4   9  18  33  53  83 119 150 189 241 295 346
#     4  11  23  38  60  89 119 153 196 243 289 343
#     4  10  19  32  56  84 115 154 194 239 291 346
#     4  11  22  37  59  87 117 154 196 242 290 340
#     4  10  23  41  61  86 118 155 194 236 286 346
#     4  10  22  41  62  85 115 154 197 236 288 350
#     4  11  24  42  63  89 120 154 193 241 292 342
#     4  10  21  38  61  88 118 155 194 242 296 346
#
# _framework density 19.110817000000001
#
# number of rings (size 3 to 8) (size 9 to 14) (size 15 to 20)
#    0.000    1.750    2.500    1.500    1.750    4.000 
#    0.000    0.625    0.000    0.000    0.000    0.000 
#    0.000    0.000    0.000    0.000    0.000    0.000 
#
# Total GULP energy -396980.361734 kJ/mol
# GULP energy per Si atom -12405.636304 kJ/mol
# Density = 1.906732 g / cm^3
# Si number density = 19.110817 Si / 1000 Ang^3
#
#
#
# Elastic Constant Matrix: (Units=GPa)
#
#
# Indices 1 2 3 4 5 6 
#
# 1 118.7284 64.2544 20.8634 0.0000 13.0122 0.0000
# 2 64.2544 103.9336 29.5686 0.0000 6.4408 0.0000
# 3 20.8634 29.5686 60.6407 0.0000 1.6313 0.0000
# 4 0.0000 0.0000 0.0000 28.2342 0.0000 4.9139
# 5 13.0122 6.4408 1.6313 0.0000 27.1034 0.0000
# 6 0.0000 0.0000 0.0000 4.9139 0.0000 42.4333
#
#
#
# Elastic Compliance Matrix: (Units=1/GPa)
#
#
# Indices 1 2 3 4 5 6 
#
# 1 0.013190 -0.007687 -0.000670 0.000000 -0.004465 0.000000
# 2 -0.007687 0.015800 -0.005066 0.000000 0.000241 0.000000
# 3 -0.000670 -0.005066 0.019181 0.000000 0.000371 0.000000
# 4 0.000000 0.000000 0.000000 0.036147 0.000000 -0.004186
# 5 -0.004465 0.000241 0.000371 0.000000 0.038960 0.000000
# 6 0.000000 0.000000 0.000000 -0.004186 0.000000 0.024051
#
#
# Mechanical properties :
#
#
# Convention : Reuss Voigt Hill
#
# Bulk Modulus (GPa) = 46.89131 56.96395 51.92763
# Shear Modulus (GPa) = 27.58125 30.79527 29.18826
#
# Velocity S-wave (km/s) = 3.80310 4.01859 3.91233
# Velocity P-wave (km/s) = 6.62379 7.16965 6.90212
#
# Compressibility (1/GPa) = 0.02132591
#
# Stress axis : x y z
#
# Youngs Moduli (GPa) = 75.81642 63.29042 52.13446
#
# Poissons Ratio (x) = 0.48652 0.03491
# Poissons Ratio (y) = 0.58280 0.26411
# Poissons Ratio (z) = 0.05076 0.32063
#
# Static dielectric constant tensor:
#      x y z
#    x 3.463570 0.000000 0.168040 
#    y 0.000000 3.520920 0.000000 
#    z 0.168040 0.000000 3.555910 
# 
# 
# High freq. dielectric constant tensor:
#      x y z
#    x 1.745980 0.000000 0.010510 
#    y 0.000000 1.746950 0.000000 
#    z 0.010510 0.000000 1.739220 
# 
# From -- ./inp_files/66956.got.cif
#   From: 2010.06.25/outbox.cif.g09.slc.cpg/sg11_34_cif.got.tgz:66956.got - 2010.06.27 23:14:04.
