data_PCOD8071744
_publ_section_title
;
Structure prediction by ZEFSAII (Michael W. Deem and Ramdas Pophale) SiO2 
 PCOD8071744
Probable space group: P 21/M
;
_chemical_formula_sum "Si O2"
_cell_formula_units_Z 32
_cell_length_a 19.968001
_cell_length_b 9.002262
_cell_length_c 25.788242
_cell_angle_alpha 90.000000
_cell_angle_beta 158.796584
_cell_angle_gamma 90.000000
_cell_volume 1676.612329
_symmetry_space_group_name_H-M "P 21/M"
_symmetry_group_IT_number 11
_symmetry_cell_setting 'monoclinic'
loop_
_space_group_symop_operation_xyz
x,y,z
-x,1/2+y,-z
-x,-y,-z
x,1/2-y,z
loop_
_atom_site_type_symbol
_atom_site_label
_atom_site_fract_x
_atom_site_fract_y
_atom_site_fract_z
Si Si1 0.271417 0.078493 0.695211
Si Si2 0.090539 0.921249 0.386922
Si Si3 0.006951 0.576075 0.209553
Si Si4 0.180017 0.422604 0.151421
Si Si5 0.302487 0.073753 0.352769
Si Si6 0.487503 0.076777 0.290769
Si Si7 0.042053 0.575799 0.610193
Si Si8 0.357033 0.576686 0.093570
O O1 0.233376 0.250000 0.679468
O O2 0.483000 0.048023 0.833102
O O3 0.140940 0.025556 0.553525
O O4 0.223922 0.987369 0.712748
O O5 0.068828 0.750000 0.385839
O O6 0.006311 0.956744 0.270105
O O7 0.305491 0.967423 0.543420
O O8 0.970295 0.013600 0.340888
O O9 0.032782 0.750000 0.216399
O O10 0.176010 0.486197 0.307454
O O11 0.816561 0.520793 0.047840
O O12 0.138832 0.250000 0.119826
O O13 0.213350 0.476002 0.234004
O O14 0.359469 0.462944 0.247159
O O15 0.000000 0.500000 0.000000
O O16 0.323074 0.250000 0.371533
O O17 0.500000 0.000000 0.500000
O O18 0.471433 0.250000 0.263659
O O19 0.426431 0.973885 0.199542
O O20 0.062864 0.750000 0.628882
O O21 0.302839 0.750000 0.057150
#
# Coordination Sequence:
#
# PCOD8071744 Si02
#       8
#     4   4   4   4   4   4   4   4
#     4   9  19  35  55  83 119 153 186 233 287 342
#     4  10  21  38  59  83 114 151 191 240 290 338
#     4  11  24  41  60  85 118 156 197 238 287 348
#     4  10  22  38  56  82 114 147 188 235 287 342
#     4  11  23  41  63  87 116 153 196 242 291 347
#     4  10  20  36  59  83 109 146 189 235 286 342
#     4  10  19  33  57  88 117 147 190 240 286 340
#     4  11  22  38  58  86 120 153 191 237 289 343
#
# _framework density 19.086106999999998
#
# number of rings (size 3 to 8) (size 9 to 14) (size 15 to 20)
#    0.000    1.750    1.250    3.000    0.000    8.000 
#    0.000    1.875    0.000    0.000    0.000    0.000 
#    0.000    0.000    0.000    0.000    0.000    0.000 
#
# Total GULP energy -396956.901681 kJ/mol
# GULP energy per Si atom -12404.903178 kJ/mol
# Density = 1.904267 g / cm^3
# Si number density = 19.086107 Si / 1000 Ang^3
#
#
#
# Elastic Constant Matrix: (Units=GPa)
#
#
# Indices 1 2 3 4 5 6 
#
# 1 93.1711 49.4162 3.4188 0.0000 6.6169 0.0000
# 2 49.4162 71.9538 29.7082 0.0000 -1.7778 0.0000
# 3 3.4188 29.7082 54.7924 0.0000 -0.8020 0.0000
# 4 0.0000 0.0000 0.0000 28.4728 0.0000 2.8426
# 5 6.6169 -1.7778 -0.8020 0.0000 26.6029 0.0000
# 6 0.0000 0.0000 0.0000 2.8426 0.0000 36.6597
#
#
#
# Elastic Compliance Matrix: (Units=1/GPa)
#
#
# Indices 1 2 3 4 5 6 
#
# 1 0.019939 -0.017122 0.007954 0.000000 -0.005864 0.000000
# 2 -0.017122 0.032632 -0.016538 0.000000 0.005941 0.000000
# 3 0.007954 -0.016538 0.026688 0.000000 -0.002279 0.000000
# 4 0.000000 0.000000 0.000000 0.035395 0.000000 -0.002745
# 5 -0.005864 0.005941 -0.002279 0.000000 0.039377 0.000000
# 6 0.000000 0.000000 0.000000 -0.002745 0.000000 0.027491
#
#
# Mechanical properties :
#
#
# Convention : Reuss Voigt Hill
#
# Bulk Modulus (GPa) = 35.91169 42.77819 39.34494
# Shear Modulus (GPa) = 20.64277 27.50534 24.07405
#
# Velocity S-wave (km/s) = 3.29228 3.80033 3.55539
# Velocity P-wave (km/s) = 5.77136 6.45899 6.12483
#
# Compressibility (1/GPa) = 0.02784609
#
# Stress axis : x y z
#
# Youngs Moduli (GPa) = 50.15317 30.64489 37.47047
#
# Poissons Ratio (x) = 0.52471 -0.29803
# Poissons Ratio (y) = 0.85874 0.61967
# Poissons Ratio (z) = -0.39891 0.50679
#
# Static dielectric constant tensor:
#      x y z
#    x 2.852980 0.000000 -0.483580 
#    y 0.000000 3.425070 0.000000 
#    z -0.483580 0.000000 3.086480 
# 
# 
# High freq. dielectric constant tensor:
#      x y z
#    x 1.754730 0.000000 0.006590 
#    y 0.000000 1.746160 0.000000 
#    z 0.006590 0.000000 1.736090 
# 
# From -- ./inp_files/72200.got.cif
#   From: 2010.06.25/outbox.cif.g09.slc.cpg/sg11_37_cif.got.tgz:72200.got - 2010.06.27 23:14:04.
