data_PCOD8071079
_publ_section_title
;
Structure prediction by ZEFSAII (Michael W. Deem and Ramdas Pophale) SiO2 
 PCOD8071079
Probable space group: P 21/M
;
_chemical_formula_sum "Si O2"
_cell_formula_units_Z 28
_cell_length_a 15.388543
_cell_length_b 8.980748
_cell_length_c 19.490643
_cell_angle_alpha 90.000000
_cell_angle_beta 36.502755
_cell_angle_gamma 90.000000
_cell_volume 1602.330120
_symmetry_space_group_name_H-M "P 21/M"
_symmetry_group_IT_number 11
_symmetry_cell_setting 'monoclinic'
loop_
_space_group_symop_operation_xyz
x,y,z
-x,1/2+y,-z
-x,-y,-z
x,1/2-y,z
loop_
_atom_site_type_symbol
_atom_site_label
_atom_site_fract_x
_atom_site_fract_y
_atom_site_fract_z
Si Si1 0.366895 0.423913 0.621190
Si Si2 0.876454 0.423688 0.622630
Si Si3 0.102221 0.924976 0.991628
Si Si4 0.701063 0.422703 0.607593
Si Si5 0.386229 0.426800 0.765497
Si Si6 0.013294 0.926479 0.653191
Si Si7 0.053599 0.076778 0.767938
O O1 0.500000 0.500000 0.500000
O O2 0.393233 0.250000 0.600560
O O3 0.357782 0.474321 0.705536
O O4 0.219396 0.472272 0.677088
O O5 0.909866 0.250000 0.610797
O O6 0.728413 0.448204 0.672018
O O7 0.000000 0.500000 0.500000
O O8 0.877183 0.503307 0.696424
O O9 0.103745 0.750000 0.975726
O O10 0.264533 0.991744 0.887966
O O11 0.042040 0.960301 0.105107
O O12 0.000000 0.000000 0.000000
O O13 0.693970 0.250000 0.594197
O O14 0.544508 0.492148 0.687338
O O15 0.833348 0.487363 0.476556
O O16 0.373587 0.250000 0.784808
O O17 0.001828 0.750000 0.655842
O O18 0.994735 0.979046 0.742681
O O19 0.044079 0.250000 0.754621
#
# Coordination Sequence:
#
# PCOD8071079 Si02
#       7
#     4   4   4   4   4   4   4
#     4  10  20  33  49  73 105 138 166 203 256 308
#     4   9  16  29  49  76 108 142 173 207 253 308
#     4  11  22  38  56  74  98 133 178 219 259 306
#     4   8  16  30  51  77 107 138 167 202 255 309
#     4  10  19  35  54  74 103 136 171 214 255 302
#     4  10  19  32  52  79 105 137 175 212 258 311
#     4  10  21  36  51  71 102 136 169 212 261 305
#
# _framework density 17.474551000000002
#
# number of rings (size 3 to 8) (size 9 to 14) (size 15 to 20)
#    0.000    2.286    1.429    3.000    0.000    3.429 
#    0.000    4.286    0.000    0.857    0.000    0.000 
#    0.000    0.000    0.000    0.000    0.000    0.000 
#
# Total GULP energy -347114.903942 kJ/mol
# GULP energy per Si atom -12396.960855 kJ/mol
# Density = 1.743478 g / cm^3
# Si number density = 17.474551 Si / 1000 Ang^3
#
#
#
# Elastic Constant Matrix: (Units=GPa)
#
#
# Indices 1 2 3 4 5 6 
#
# 1 107.2428 43.5035 30.9984 0.0000 24.8803 0.0000
# 2 43.5035 64.9653 35.2368 0.0000 12.5115 0.0000
# 3 30.9984 35.2368 85.3565 0.0000 11.4203 0.0000
# 4 0.0000 0.0000 0.0000 29.3032 0.0000 2.7651
# 5 24.8803 12.5115 11.4203 0.0000 20.4369 0.0000
# 6 0.0000 0.0000 0.0000 2.7651 0.0000 26.2702
#
#
#
# Elastic Compliance Matrix: (Units=1/GPa)
#
#
# Indices 1 2 3 4 5 6 
#
# 1 0.015911 -0.007468 -0.000773 0.000000 -0.014366 0.000000
# 2 -0.007468 0.024690 -0.007214 0.000000 -0.001992 0.000000
# 3 -0.000773 -0.007214 0.015410 0.000000 -0.003254 0.000000
# 4 0.000000 0.000000 0.000000 0.034468 0.000000 -0.003628
# 5 -0.014366 -0.001992 -0.003254 0.000000 0.069458 0.000000
# 6 0.000000 0.000000 0.000000 -0.003628 0.000000 0.038448
#
#
# Mechanical properties :
#
#
# Convention : Reuss Voigt Hill
#
# Bulk Modulus (GPa) = 39.84063 53.00466 46.42264
# Shear Modulus (GPa) = 21.03831 25.05713 23.04772
#
# Velocity S-wave (km/s) = 3.47355 3.79082 3.63565
# Velocity P-wave (km/s) = 6.23988 7.03980 6.65188
#
# Compressibility (1/GPa) = 0.02510001
#
# Stress axis : x y z
#
# Youngs Moduli (GPa) = 62.85157 40.50153 64.89447
#
# Poissons Ratio (x) = 0.30248 0.05016
# Poissons Ratio (y) = 0.46940 0.46814
# Poissons Ratio (z) = 0.04858 0.29217
#
# Static dielectric constant tensor:
#      x y z
#    x 3.691420 0.000000 -0.017600 
#    y 0.000000 3.194670 0.000000 
#    z -0.017600 0.000000 3.163030 
# 
# 
# High freq. dielectric constant tensor:
#      x y z
#    x 1.685920 0.000000 0.006460 
#    y 0.000000 1.668570 0.000000 
#    z 0.006460 0.000000 1.651100 
# 
# From -- ./inp_files/42367.got.cif
#   From: 2010.06.25/outbox.cif.g09.slc.cpg/sg11_22_cif.got.tgz:42367.got - 2010.06.27 23:14:04.
