data_PCOD8071816
_publ_section_title
;
Structure prediction by ZEFSAII (Michael W. Deem and Ramdas Pophale) SiO2 
 PCOD8071816
Probable space group: P 21/M
;
_chemical_formula_sum "Si O2"
_cell_formula_units_Z 32
_cell_length_a 15.530337
_cell_length_b 8.479341
_cell_length_c 15.486278
_cell_angle_alpha 90.000000
_cell_angle_beta 56.314167
_cell_angle_gamma 90.000000
_cell_volume 1696.918588
_symmetry_space_group_name_H-M "P 21/M"
_symmetry_group_IT_number 11
_symmetry_cell_setting 'monoclinic'
loop_
_space_group_symop_operation_xyz
x,y,z
-x,1/2+y,-z
-x,-y,-z
x,1/2-y,z
loop_
_atom_site_type_symbol
_atom_site_label
_atom_site_fract_x
_atom_site_fract_y
_atom_site_fract_z
Si Si1 0.593561 0.934749 0.136027
Si Si2 0.645389 0.433981 0.468223
Si Si3 0.140631 0.433985 0.590914
Si Si4 0.451082 0.932734 0.659101
Si Si5 0.826522 0.065631 0.610437
Si Si6 0.620883 0.435672 0.815640
Si Si7 0.735699 0.064510 0.919668
Si Si8 0.925432 0.934850 0.724229
O O1 0.602461 0.750000 0.113854
O O2 0.488484 0.008861 0.152958
O O3 0.595526 0.967424 0.236513
O O4 0.691207 0.020337 0.037827
O O5 0.628938 0.250000 0.494499
O O6 0.762713 0.480829 0.419083
O O7 0.616320 0.479900 0.386699
O O8 0.571134 0.525482 0.576124
O O9 0.145888 0.250000 0.607840
O O10 0.137054 0.463600 0.490553
O O11 0.038593 0.508463 0.691292
O O12 0.441753 0.750000 0.687291
O O13 0.835986 0.250000 0.582525
O O14 0.708481 0.017061 0.697621
O O15 0.898194 0.028214 0.652090
O O16 0.609357 0.250000 0.824216
O O17 0.654485 0.496565 0.891782
O O18 0.754867 0.250000 0.900322
O O19 0.845061 0.977769 0.844875
O O20 0.924062 0.750000 0.706332
#
# Coordination Sequence:
#
# PCOD8071816 Si02
#       8
#     4   4   4   4   4   4   4   4
#     4  11  20  32  53  80 108 141 181 221 265 316
#     4  10  21  38  58  81 110 141 174 216 265 318
#     4  12  23  35  54  80 107 139 179 220 267 321
#     4  10  21  37  57  82 111 142 175 214 264 319
#     4  10  19  34  53  77 110 145 180 219 264 312
#     4   8  17  31  49  74 106 141 175 214 257 304
#     4  10  20  36  53  73 105 143 183 225 268 312
#     4  11  22  37  54  75 105 142 183 224 267 314
#
# _framework density 18.857710999999998
#
# number of rings (size 3 to 8) (size 9 to 14) (size 15 to 20)
#    0.000    1.750    0.000    6.375    0.000    2.500 
#    0.000    6.250    0.000    0.750    0.000    0.000 
#    0.000    0.000    0.000    0.000    0.000    0.000 
#
# Total GULP energy -396930.519978 kJ/mol
# GULP energy per Si atom -12404.078749 kJ/mol
# Density = 1.881479 g / cm^3
# Si number density = 18.857711 Si / 1000 Ang^3
#
#
#
# Elastic Constant Matrix: (Units=GPa)
#
#
# Indices 1 2 3 4 5 6 
#
# 1 87.6771 6.5419 42.5508 0.0000 -17.1370 0.0000
# 2 6.5419 44.8360 11.9204 0.0000 0.8194 0.0000
# 3 42.5508 11.9204 107.1933 0.0000 -9.7228 0.0000
# 4 0.0000 0.0000 0.0000 31.3959 0.0000 -0.6764
# 5 -17.1370 0.8194 -9.7228 0.0000 23.0117 0.0000
# 6 0.0000 0.0000 0.0000 -0.6764 0.0000 26.8174
#
#
#
# Elastic Compliance Matrix: (Units=1/GPa)
#
#
# Indices 1 2 3 4 5 6 
#
# 1 0.015969 -0.001087 -0.005341 0.000000 0.009675 0.000000
# 2 -0.001087 0.023144 -0.002382 0.000000 -0.002640 0.000000
# 3 -0.005341 -0.002382 0.011813 0.000000 0.001099 0.000000
# 4 0.000000 0.000000 0.000000 0.031869 0.000000 0.000804
# 5 0.009675 -0.002640 0.001099 0.000000 0.051219 0.000000
# 6 0.000000 0.000000 0.000000 0.000804 0.000000 0.037309
#
#
# Mechanical properties :
#
#
# Convention : Reuss Voigt Hill
#
# Bulk Modulus (GPa) = 30.02292 40.19249 35.10770
# Shear Modulus (GPa) = 24.99434 28.15789 26.57612
#
# Velocity S-wave (km/s) = 3.64458 3.86836 3.75813
# Velocity P-wave (km/s) = 5.80223 6.42745 6.12283
#
# Compressibility (1/GPa) = 0.03330789
#
# Stress axis : x y z
#
# Youngs Moduli (GPa) = 62.61938 43.20857 84.64896
#
# Poissons Ratio (x) = 0.04697 0.45209
# Poissons Ratio (y) = 0.06806 0.20160
# Poissons Ratio (z) = 0.33443 0.10291
#
# Static dielectric constant tensor:
#      x y z
#    x 3.508140 0.000000 -0.172300 
#    y 0.000000 3.408600 0.000000 
#    z -0.172300 0.000000 3.423290 
# 
# 
# High freq. dielectric constant tensor:
#      x y z
#    x 1.716250 0.000000 -0.014410 
#    y 0.000000 1.736150 0.000000 
#    z -0.014410 0.000000 1.727030 
# 
# From -- ./inp_files/51627.got.cif
#   From: 2010.06.25/outbox.cif.g09.slc.cpg/sg11_26_cif.got.tgz:51627.got - 2010.06.27 23:14:04.
