data_PCOD8071295
_publ_section_title
;
Structure prediction by ZEFSAII (Michael W. Deem and Ramdas Pophale) SiO2 
 PCOD8071295
Probable space group: P 21/M
;
_chemical_formula_sum "Si O2"
_cell_formula_units_Z 32
_cell_length_a 23.177682
_cell_length_b 8.841316
_cell_length_c 14.608149
_cell_angle_alpha 90.000000
_cell_angle_beta 144.353252
_cell_angle_gamma 90.000000
_cell_volume 1744.581872
_symmetry_space_group_name_H-M "P 21/M"
_symmetry_group_IT_number 11
_symmetry_cell_setting 'monoclinic'
loop_
_space_group_symop_operation_xyz
x,y,z
-x,1/2+y,-z
-x,-y,-z
x,1/2-y,z
loop_
_atom_site_type_symbol
_atom_site_label
_atom_site_fract_x
_atom_site_fract_y
_atom_site_fract_z
Si Si1 0.878385 0.072816 0.261222
Si Si2 0.721452 0.576444 0.929725
Si Si3 0.495783 0.072157 0.394194
Si Si4 0.822001 0.429333 0.556370
Si Si5 0.206583 0.582698 0.145377
Si Si6 0.101859 0.072483 0.522192
Si Si7 0.314014 0.926000 0.463140
Si Si8 0.985301 0.920371 0.885473
O O1 0.875278 0.250000 0.277959
O O2 0.986069 0.027515 0.358785
O O3 0.859567 0.984136 0.330613
O O4 0.789866 0.030989 0.078979
O O5 0.745584 0.750000 0.984119
O O6 0.605234 0.539007 0.791972
O O7 0.742263 0.544085 0.850194
O O8 0.510004 0.250000 0.427994
O O9 0.583297 0.003416 0.442402
O O10 0.500000 0.000000 0.500000
O O11 0.820773 0.250000 0.546632
O O12 0.826567 0.499252 0.461381
O O13 0.725469 0.489193 0.489549
O O14 0.919343 0.478307 0.735433
O O15 0.252436 0.750000 0.184309
O O16 0.226629 0.540800 0.277217
O O17 0.091352 0.587467 0.973539
O O18 0.116151 0.250000 0.534277
O O19 0.331638 0.750000 0.499509
O O20 0.942321 0.750000 0.841448
O O21 0.000000 0.000000 0.000000
#
# Coordination Sequence:
#
# PCOD8071295 Si02
#       8
#     4   4   4   4   4   4   4   4
#     4  10  21  38  60  83 109 145 178 213 268 329
#     4  11  22  33  52  83 110 136 176 230 278 315
#     4  10  20  35  54  76 105 142 184 228 274 316
#     4  11  21  35  54  77 105 145 185 217 264 325
#     4  10  19  33  50  69 101 145 182 213 260 320
#     4  10  21  38  59  85 113 140 175 222 268 316
#     4   9  18  34  52  71 102 144 183 218 260 316
#     4  11  21  32  46  69 102 140 179 217 259 310
#
# _framework density 18.342503000000001
#
# number of rings (size 3 to 8) (size 9 to 14) (size 15 to 20)
#    0.000    1.750    2.500    2.625    0.000    6.000 
#    0.000    1.250    0.000    0.750    0.000    0.000 
#    0.000    0.000    0.000    0.000    0.000    0.000 
#
# Total GULP energy -396671.014388 kJ/mol
# GULP energy per Si atom -12395.969200 kJ/mol
# Density = 1.830075 g / cm^3
# Si number density = 18.342503 Si / 1000 Ang^3
#
#
#
# Elastic Constant Matrix: (Units=GPa)
#
#
# Indices 1 2 3 4 5 6 
#
# 1 145.2006 40.1514 37.2405 0.0000 5.8661 0.0000
# 2 40.1514 60.9599 21.2421 0.0000 -0.4888 0.0000
# 3 37.2405 21.2421 61.9352 0.0000 7.8202 0.0000
# 4 0.0000 0.0000 0.0000 25.1277 0.0000 -6.1058
# 5 5.8661 -0.4888 7.8202 0.0000 24.0947 0.0000
# 6 0.0000 0.0000 0.0000 -6.1058 0.0000 29.2582
#
#
#
# Elastic Compliance Matrix: (Units=1/GPa)
#
#
# Indices 1 2 3 4 5 6 
#
# 1 0.009216 -0.004767 -0.003765 0.000000 -0.001118 0.000000
# 2 -0.004767 0.021249 -0.004820 0.000000 0.003156 0.000000
# 3 -0.003765 -0.004820 0.020813 0.000000 -0.005936 0.000000
# 4 0.000000 0.000000 0.000000 0.041923 0.000000 0.008749
# 5 -0.001118 0.003156 -0.005936 0.000000 0.043766 0.000000
# 6 0.000000 0.000000 0.000000 0.008749 0.000000 0.036004
#
#
# Mechanical properties :
#
#
# Convention : Reuss Voigt Hill
#
# Bulk Modulus (GPa) = 40.69518 51.70709 46.20113
# Shear Modulus (GPa) = 24.05396 26.99356 25.52376
#
# Velocity S-wave (km/s) = 3.62522 3.84036 3.73434
# Velocity P-wave (km/s) = 6.30535 6.92210 6.62091
#
# Compressibility (1/GPa) = 0.02457293
#
# Stress axis : x y z
#
# Youngs Moduli (GPa) = 108.50527 47.06105 48.04802
#
# Poissons Ratio (x) = 0.22435 0.18091
# Poissons Ratio (y) = 0.51726 0.23159
# Poissons Ratio (z) = 0.40855 0.22683
#
# Static dielectric constant tensor:
#      x y z
#    x 3.629830 0.000000 0.236930 
#    y 0.000000 3.836350 0.000000 
#    z 0.236930 0.000000 3.252960 
# 
# 
# High freq. dielectric constant tensor:
#      x y z
#    x 1.712020 0.000000 0.005100 
#    y 0.000000 1.707770 0.000000 
#    z 0.005100 0.000000 1.690000 
# 
# From -- ./inp_files/54345.got.cif
#   From: 2010.06.25/outbox.cif.g09.slc.cpg/sg11_28_cif.got.tgz:54345.got - 2010.06.27 23:14:04.
