data_PCOD8071494
_publ_section_title
;
Structure prediction by ZEFSAII (Michael W. Deem and Ramdas Pophale) SiO2 
 PCOD8071494
Probable space group: P 21/M
;
_chemical_formula_sum "Si O2"
_cell_formula_units_Z 32
_cell_length_a 19.668226
_cell_length_b 10.247298
_cell_length_c 26.667147
_cell_angle_alpha 90.000000
_cell_angle_beta 18.607711
_cell_angle_gamma 90.000000
_cell_volume 1714.983833
_symmetry_space_group_name_H-M "P 21/M"
_symmetry_group_IT_number 11
_symmetry_cell_setting 'monoclinic'
loop_
_space_group_symop_operation_xyz
x,y,z
-x,1/2+y,-z
-x,-y,-z
x,1/2-y,z
loop_
_atom_site_type_symbol
_atom_site_label
_atom_site_fract_x
_atom_site_fract_y
_atom_site_fract_z
Si Si1 0.936484 0.104265 0.907671
Si Si2 0.661018 0.523035 0.960462
Si Si3 0.925728 0.894393 0.297551
Si Si4 0.381405 0.901698 0.437207
Si Si5 0.778440 0.401588 0.557441
Si Si6 0.237613 0.103704 0.217683
Si Si7 0.600152 0.603515 0.112857
Si Si8 0.862513 0.899659 0.127678
O O1 0.834109 0.250000 0.982415
O O2 0.083038 0.093474 0.756258
O O3 0.089099 0.077819 0.847842
O O4 0.751650 0.996913 0.035611
O O5 0.749182 0.606388 0.852211
O O6 0.830400 0.408745 0.853594
O O7 0.428963 0.472186 0.109135
O O8 0.631777 0.607862 0.031092
O O9 0.846973 0.750000 0.369526
O O10 0.780376 0.009826 0.418890
O O11 0.322667 0.750000 0.487645
O O12 0.361658 0.942166 0.392861
O O13 0.617197 0.933870 0.290581
O O14 0.828455 0.250000 0.519021
O O15 0.642795 0.437116 0.702029
O O16 0.014941 0.466323 0.390553
O O17 0.252485 0.250000 0.227375
O O18 0.645751 0.750000 0.101514
O O19 0.911635 0.750000 0.077005
O O20 0.000000 0.000000 0.000000
#
# Coordination Sequence:
#
# PCOD8071494 Si02
#       8
#     4   4   4   4   4   4   4   4
#     4   9  20  37  55  79 113 147 179 223 279 331
#     4  10  20  33  54  80 108 142 186 231 270 327
#     4  10  20  35  54  78 110 144 180 226 279 329
#     4  10  20  35  56  80 108 144 184 226 273 326
#     4   9  18  33  53  78 109 141 180 227 277 323
#     4  10  19  33  54  77 107 146 183 224 280 334
#     4  10  20  35  58  83 109 143 187 231 269 325
#     4  10  21  37  57  81 111 146 184 226 275 329
#
# _framework density 18.659067
#
# number of rings (size 3 to 8) (size 9 to 14) (size 15 to 20)
#    0.000    2.250    1.250    1.500    0.000    5.500 
#    0.000    0.625    0.000    0.000    0.000    0.000 
#    0.000    0.000    0.000    0.000    0.000    0.000 
#
# Total GULP energy -396637.889926 kJ/mol
# GULP energy per Si atom -12394.934060 kJ/mol
# Density = 1.861660 g / cm^3
# Si number density = 18.659067 Si / 1000 Ang^3
#
#
#
# Elastic Constant Matrix: (Units=GPa)
#
#
# Indices 1 2 3 4 5 6 
#
# 1 75.7959 25.8943 35.6414 0.0000 -10.3063 0.0000
# 2 25.8943 86.0247 49.6763 0.0000 -2.8027 0.0000
# 3 35.6414 49.6763 120.1836 0.0000 -5.7750 0.0000
# 4 0.0000 0.0000 0.0000 30.8463 0.0000 2.9891
# 5 -10.3063 -2.8027 -5.7750 0.0000 27.4975 0.0000
# 6 0.0000 0.0000 0.0000 2.9891 0.0000 13.5978
#
#
#
# Elastic Compliance Matrix: (Units=1/GPa)
#
#
# Indices 1 2 3 4 5 6 
#
# 1 0.016487 -0.002777 -0.003493 0.000000 0.005163 0.000000
# 2 -0.002777 0.015738 -0.005712 0.000000 -0.000636 0.000000
# 3 -0.003493 -0.005712 0.011745 0.000000 0.000575 0.000000
# 4 0.000000 0.000000 0.000000 0.033124 0.000000 -0.007282
# 5 0.005163 -0.000636 0.000575 0.000000 0.038358 0.000000
# 6 0.000000 0.000000 0.000000 -0.007282 0.000000 0.075142
#
#
# Mechanical properties :
#
#
# Convention : Reuss Voigt Hill
#
# Bulk Modulus (GPa) = 49.98760 56.04758 53.01759
# Shear Modulus (GPa) = 22.60105 25.77447 24.18776
#
# Velocity S-wave (km/s) = 3.48410 3.72067 3.60432
# Velocity P-wave (km/s) = 6.55998 6.96855 6.76735
#
# Compressibility (1/GPa) = 0.02000496
#
# Stress axis : x y z
#
# Youngs Moduli (GPa) = 60.65484 63.53875 85.14058
#
# Poissons Ratio (x) = 0.17646 0.29742
# Poissons Ratio (y) = 0.16845 0.48634
# Poissons Ratio (z) = 0.21188 0.36295
#
# Static dielectric constant tensor:
#      x y z
#    x 3.546900 0.000000 -0.007420 
#    y 0.000000 3.340740 0.000000 
#    z -0.007420 0.000000 3.463890 
# 
# 
# High freq. dielectric constant tensor:
#      x y z
#    x 1.727320 0.000000 -0.000020 
#    y 0.000000 1.712580 0.000000 
#    z -0.000020 0.000000 1.725120 
# 
# From -- ./inp_files/69630.got.cif
#   From: 2010.06.25/outbox.cif.g09.slc.cpg/sg11_35_cif.got.tgz:69630.got - 2010.06.27 23:14:04.
