data_PCOD8071299
_publ_section_title
;
Structure prediction by ZEFSAII (Michael W. Deem and Ramdas Pophale) SiO2 
 PCOD8071299
Probable space group: P 21/M
;
_chemical_formula_sum "Si O2"
_cell_formula_units_Z 32
_cell_length_a 23.371119
_cell_length_b 9.031734
_cell_length_c 15.588985
_cell_angle_alpha 90.000000
_cell_angle_beta 32.232182
_cell_angle_gamma 90.000000
_cell_volume 1755.019683
_symmetry_space_group_name_H-M "P 21/M"
_symmetry_group_IT_number 11
_symmetry_cell_setting 'monoclinic'
loop_
_space_group_symop_operation_xyz
x,y,z
-x,1/2+y,-z
-x,-y,-z
x,1/2-y,z
loop_
_atom_site_type_symbol
_atom_site_label
_atom_site_fract_x
_atom_site_fract_y
_atom_site_fract_z
Si Si1 0.062901 0.575708 0.542686
Si Si2 0.600226 0.424638 0.328134
Si Si3 0.099580 0.919953 0.832930
Si Si4 0.371758 0.926057 0.899312
Si Si5 0.856574 0.075902 0.746481
Si Si6 0.294397 0.418575 0.662940
Si Si7 0.601962 0.580947 0.643036
Si Si8 0.803997 0.082118 0.465975
O O1 0.044950 0.750000 0.576555
O O2 0.121638 0.535142 0.379688
O O3 0.139740 0.512628 0.520898
O O4 0.945717 0.499938 0.694221
O O5 0.500000 0.500000 0.500000
O O6 0.583527 0.250000 0.350194
O O7 0.623400 0.486402 0.204088
O O8 0.697774 0.474320 0.265065
O O9 0.108966 0.750000 0.853493
O O10 0.104192 0.924920 0.723788
O O11 0.193270 0.026749 0.740715
O O12 0.000000 0.000000 0.000000
O O13 0.369627 0.750000 0.900186
O O14 0.479298 0.976256 0.815765
O O15 0.262463 0.986400 0.081079
O O16 0.863508 0.250000 0.754721
O O17 0.281241 0.250000 0.711214
O O18 0.389690 0.431723 0.471741
O O19 0.616330 0.750000 0.653613
O O20 0.691264 0.493331 0.583476
O O21 0.770869 0.250000 0.527189
#
# Coordination Sequence:
#
# PCOD8071299 Si02
#       8
#     4   4   4   4   4   4   4   4
#     4   9  18  35  56  77 103 130 164 210 260 306
#     4  11  20  32  49  72 102 135 171 210 250 299
#     4  10  20  34  50  71 100 135 170 211 255 302
#     4   9  18  33  51  75 105 134 170 211 253 303
#     4   9  18  34  57  78  99 133 168 205 254 308
#     4  10  19  33  50  70  97 134 174 211 250 297
#     4   9  17  32  51  71  99 134 169 205 245 298
#     4   9  19  34  52  74 100 132 168 208 256 304
#
# _framework density 18.233412999999999
#
# number of rings (size 3 to 8) (size 9 to 14) (size 15 to 20)
#    0.000    2.500    1.250    1.125    0.000    2.500 
#    0.000    5.000    0.000    0.000    0.000    0.000 
#    0.000    0.000    0.000    0.000    0.000    0.000 
#
# Total GULP energy -396528.640112 kJ/mol
# GULP energy per Si atom -12391.520003 kJ/mol
# Density = 1.819191 g / cm^3
# Si number density = 18.233413 Si / 1000 Ang^3
#
#
#
# Elastic Constant Matrix: (Units=GPa)
#
#
# Indices 1 2 3 4 5 6 
#
# 1 127.2436 34.3158 54.2715 0.0000 -8.3771 0.0000
# 2 34.3158 51.5350 36.3575 0.0000 -8.2811 0.0000
# 3 54.2715 36.3575 119.9916 0.0000 -17.5723 0.0000
# 4 0.0000 0.0000 0.0000 23.0484 0.0000 -5.8854
# 5 -8.3771 -8.2811 -17.5723 0.0000 19.1011 0.0000
# 6 0.0000 0.0000 0.0000 -5.8854 0.0000 29.9434
#
#
#
# Elastic Compliance Matrix: (Units=1/GPa)
#
#
# Indices 1 2 3 4 5 6 
#
# 1 0.010552 -0.004696 -0.003433 0.000000 -0.000566 0.000000
# 2 -0.004696 0.027096 -0.005394 0.000000 0.004725 0.000000
# 3 -0.003433 -0.005394 0.012664 0.000000 0.007807 0.000000
# 4 0.000000 0.000000 0.000000 0.045680 0.000000 0.008978
# 5 -0.000566 0.004725 0.007807 0.000000 0.061335 0.000000
# 6 0.000000 0.000000 0.000000 0.008978 0.000000 0.035161
#
#
# Mechanical properties :
#
#
# Convention : Reuss Voigt Hill
#
# Bulk Modulus (GPa) = 42.97931 60.96220 51.97075
# Shear Modulus (GPa) = 21.99842 26.00693 24.00268
#
# Velocity S-wave (km/s) = 3.47722 3.78078 3.63217
# Velocity P-wave (km/s) = 6.30431 7.25024 6.79376
#
# Compressibility (1/GPa) = 0.02326701
#
# Stress axis : x y z
#
# Youngs Moduli (GPa) = 94.76745 36.90608 78.96235
#
# Poissons Ratio (x) = 0.17329 0.27106
# Poissons Ratio (y) = 0.44498 0.42594
# Poissons Ratio (z) = 0.32532 0.19908
#
# Static dielectric constant tensor:
#      x y z
#    x 3.260560 0.000000 -0.872810 
#    y 0.000000 4.007300 0.000000 
#    z -0.872810 0.000000 1.508920 
# 
# 
# High freq. dielectric constant tensor:
#      x y z
#    x 1.708590 0.000000 -0.012110 
#    y 0.000000 1.693390 0.000000 
#    z -0.012110 0.000000 1.698130 
# 
# From -- ./inp_files/55550.got.cif
#   From: 2010.06.25/outbox.cif.g09.slc.cpg/sg11_28_cif.got.tgz:55550.got - 2010.06.27 23:14:04.
