data_PCOD8071973
_publ_section_title
;
Structure prediction by ZEFSAII (Michael W. Deem and Ramdas Pophale) SiO2 
 PCOD8071973
Probable space group: P 21/M
;
_chemical_formula_sum "Si O2"
_cell_formula_units_Z 24
_cell_length_a 5.173008
_cell_length_b 8.443098
_cell_length_c 26.930154
_cell_angle_alpha 90.000000
_cell_angle_beta 90.054499
_cell_angle_gamma 90.000000
_cell_volume 1176.206624
_symmetry_space_group_name_H-M "P 21/M"
_symmetry_group_IT_number 11
_symmetry_cell_setting 'monoclinic'
loop_
_space_group_symop_operation_xyz
x,y,z
-x,1/2+y,-z
-x,-y,-z
x,1/2-y,z
loop_
_atom_site_type_symbol
_atom_site_label
_atom_site_fract_x
_atom_site_fract_y
_atom_site_fract_z
Si Si1 0.504578 0.437634 0.724075
Si Si2 0.001940 0.937262 0.555246
Si Si3 0.019971 0.563295 0.106784
Si Si4 0.480107 0.936110 0.944835
Si Si5 0.995593 0.561590 0.219804
Si Si6 0.497642 0.062109 0.386390
O O1 0.504190 0.250000 0.727108
O O2 0.756466 0.507867 0.751348
O O3 0.499668 0.488792 0.667595
O O4 0.256150 0.506957 0.752652
O O5 0.001059 0.750000 0.553417
O O6 0.752494 0.001256 0.584437
O O7 0.253993 0.000901 0.583721
O O8 0.000000 0.000000 0.500000
O O9 0.970856 0.750000 0.102142
O O10 0.806532 0.472134 0.074800
O O11 0.307141 0.523551 0.088493
O O12 0.996855 0.503019 0.163227
O O13 0.532517 0.750000 0.943995
O O14 0.500000 0.000000 0.000000
O O15 0.000042 0.750000 0.221362
O O16 0.497540 0.250000 0.381770
#
# Coordination Sequence:
#
# PCOD8071973 Si02
#       6
#     4   4   4   4   4   4
#     4  10  19  34  56  82 108 142 185 226 266 324
#     4  10  21  36  54  75 103 136 175 218 267 321
#     4  11  22  41  66  90 119 160 201 244 299 354
#     4  12  25  42  62  90 124 158 199 248 298 354
#     4   9  19  35  57  83 112 144 185 232 278 327
#     4  10  21  36  52  76 108 140 171 216 272 324
#
# _framework density 20.404578999999998
#
# number of rings (size 3 to 8) (size 9 to 14) (size 15 to 20)
#    0.000    1.667    0.000    5.000    0.000    4.000 
#    0.000    5.000    0.000    0.000    0.000    0.000 
#    0.000    0.000    0.000    0.000    0.000    0.000 
#
# Total GULP energy -297702.877405 kJ/mol
# GULP energy per Si atom -12404.286559 kJ/mol
# Density = 2.035814 g / cm^3
# Si number density = 20.404579 Si / 1000 Ang^3
#
#
#
# Elastic Constant Matrix: (Units=GPa)
#
#
# Indices 1 2 3 4 5 6 
#
# 1 166.3503 21.3320 69.7715 0.0000 -0.7982 0.0000
# 2 21.3320 33.2072 29.3179 0.0000 0.5072 0.0000
# 3 69.7715 29.3179 167.6391 0.0000 -1.8078 0.0000
# 4 0.0000 0.0000 0.0000 29.7162 0.0000 0.1640
# 5 -0.7982 0.5072 -1.8078 0.0000 50.8582 0.0000
# 6 0.0000 0.0000 0.0000 0.1640 0.0000 18.1243
#
#
#
# Elastic Compliance Matrix: (Units=1/GPa)
#
#
# Indices 1 2 3 4 5 6 
#
# 1 0.007444 -0.002422 -0.002674 0.000000 0.000046 0.000000
# 2 -0.002422 0.036417 -0.005367 0.000000 -0.000592 0.000000
# 3 -0.002674 -0.005367 0.008020 0.000000 0.000297 0.000000
# 4 0.000000 0.000000 0.000000 0.033653 0.000000 -0.000304
# 5 0.000046 -0.000592 0.000297 0.000000 0.019680 0.000000
# 6 0.000000 0.000000 0.000000 -0.000304 0.000000 0.055177
#
#
# Mechanical properties :
#
#
# Convention : Reuss Voigt Hill
#
# Bulk Modulus (GPa) = 32.30503 67.55993 49.93248
# Shear Modulus (GPa) = 26.09112 36.19142 31.14127
#
# Velocity S-wave (km/s) = 3.57976 4.21609 3.91089
# Velocity P-wave (km/s) = 5.74045 7.54206 6.70207
#
# Compressibility (1/GPa) = 0.03095494
#
# Stress axis : x y z
#
# Youngs Moduli (GPa) = 134.34102 27.45938 124.68748
#
# Poissons Ratio (x) = 0.06650 0.33343
# Poissons Ratio (y) = 0.32532 0.66926
# Poissons Ratio (z) = 0.35924 0.14739
#
# Static dielectric constant tensor:
#      x y z
#    x -4.948640 0.000000 0.122680 
#    y 0.000000 3.423690 0.000000 
#    z 0.122680 0.000000 3.807720 
# 
# 
# High freq. dielectric constant tensor:
#      x y z
#    x 1.820090 0.000000 -0.000260 
#    y 0.000000 1.773080 0.000000 
#    z -0.000260 0.000000 1.816410 
# 
# From -- ./inp_files/9250.got.cif
#   From: 2010.06.25/outbox.cif.g09.slc.cpg/sg11_5_cif.got.tgz:9250.got - 2010.06.27 23:14:04.
