data_PCOD8071045
_publ_section_title
;
Structure prediction by ZEFSAII (Michael W. Deem and Ramdas Pophale) SiO2 
 PCOD8071045
Probable space group: P 21/M
;
_chemical_formula_sum "Si O2"
_cell_formula_units_Z 32
_cell_length_a 21.552668
_cell_length_b 8.983286
_cell_length_c 27.795557
_cell_angle_alpha 90.000000
_cell_angle_beta 19.284792
_cell_angle_gamma 90.000000
_cell_volume 1777.348984
_symmetry_space_group_name_H-M "P 21/M"
_symmetry_group_IT_number 11
_symmetry_cell_setting 'monoclinic'
loop_
_space_group_symop_operation_xyz
x,y,z
-x,1/2+y,-z
-x,-y,-z
x,1/2-y,z
loop_
_atom_site_type_symbol
_atom_site_label
_atom_site_fract_x
_atom_site_fract_y
_atom_site_fract_z
Si Si1 0.069559 0.575448 0.373576
Si Si2 0.193577 0.913200 0.917802
Si Si3 0.689878 0.573652 0.880142
Si Si4 0.918310 0.922272 0.908684
Si Si5 0.683833 0.420734 0.350236
Si Si6 0.348214 0.421536 0.981372
Si Si7 0.770936 0.587281 0.195550
Si Si8 0.275251 0.424420 0.310549
O O1 0.106197 0.750000 0.339510
O O2 0.128274 0.491907 0.281258
O O3 0.202149 0.517750 0.318922
O O4 0.852586 0.543914 0.548224
O O5 0.291365 0.750000 0.848324
O O6 0.297301 0.030828 0.807053
O O7 0.992123 0.893047 0.040528
O O8 0.195410 0.978914 0.970026
O O9 0.682000 0.750000 0.877573
O O10 0.500000 0.500000 0.000000
O O11 0.706455 0.532536 0.924361
O O12 0.903194 0.750000 0.935715
O O13 0.136048 0.973557 0.750267
O O14 0.837133 0.948612 0.914963
O O15 0.500000 0.500000 0.500000
O O16 0.648825 0.250000 0.383175
O O17 0.707024 0.458185 0.277731
O O18 0.413424 0.250000 0.931676
O O19 0.511774 0.521847 0.837790
O O20 0.676633 0.750000 0.273581
O O21 0.268946 0.250000 0.302463
#
# Coordination Sequence:
#
# PCOD8071045 Si02
#       8
#     4   4   4   4   4   4   4   4
#     4  10  20  34  52  77 108 139 176 224 272 321
#     4   9  16  27  46  73 100 124 156 201 248 295
#     4  11  21  33  53  81 109 141 183 230 273 321
#     4   9  19  35  53  74 102 138 175 214 260 316
#     4  10  19  32  52  76 103 135 175 219 262 312
#     4  10  21  36  55  78 107 141 182 226 273 329
#     4   9  16  27  46  72  99 126 158 198 246 298
#     4  10  20  33  53  79 105 138 178 222 273 323
#
# _framework density 18.004342999999999
#
# number of rings (size 3 to 8) (size 9 to 14) (size 15 to 20)
#    0.000    2.250    1.250    2.250    0.000    6.000 
#    0.000    0.000    2.750    0.000    0.000    0.000 
#    0.000    0.000    0.000    0.000    0.000    0.000 
#
# Total GULP energy -396594.058960 kJ/mol
# GULP energy per Si atom -12393.564343 kJ/mol
# Density = 1.796336 g / cm^3
# Si number density = 18.004343 Si / 1000 Ang^3
#
#
#
# Elastic Constant Matrix: (Units=GPa)
#
#
# Indices 1 2 3 4 5 6 
#
# 1 116.1413 46.5293 50.3226 0.0000 10.8724 0.0000
# 2 46.5293 80.3911 42.3376 0.0000 6.1275 0.0000
# 3 50.3226 42.3376 101.2388 0.0000 11.6692 0.0000
# 4 0.0000 0.0000 0.0000 31.1766 0.0000 6.5580
# 5 10.8724 6.1275 11.6692 0.0000 17.0491 0.0000
# 6 0.0000 0.0000 0.0000 6.5580 0.0000 23.5391
#
#
#
# Elastic Compliance Matrix: (Units=1/GPa)
#
#
# Indices 1 2 3 4 5 6 
#
# 1 0.012588 -0.005045 -0.003725 0.000000 -0.003665 0.000000
# 2 -0.005045 0.018000 -0.005043 0.000000 0.000199 0.000000
# 3 -0.003725 -0.005043 0.014499 0.000000 -0.005736 0.000000
# 4 0.000000 0.000000 0.000000 0.034072 0.000000 -0.009493
# 5 -0.003665 0.000199 -0.005736 0.000000 0.064846 0.000000
# 6 0.000000 0.000000 0.000000 -0.009493 0.000000 0.045127
#
#
# Mechanical properties :
#
#
# Convention : Reuss Voigt Hill
#
# Bulk Modulus (GPa) = 57.26743 64.01669 60.64206
# Shear Modulus (GPa) = 22.46400 24.92506 23.69453
#
# Velocity S-wave (km/s) = 3.53611 3.72478 3.63167
# Velocity P-wave (km/s) = 6.96769 7.35745 7.16522
#
# Compressibility (1/GPa) = 0.01746193
#
# Stress axis : x y z
#
# Youngs Moduli (GPa) = 79.43782 55.55681 68.96892
#
# Poissons Ratio (x) = 0.28028 0.25692
# Poissons Ratio (y) = 0.40075 0.34779
# Poissons Ratio (z) = 0.29592 0.28016
#
# Static dielectric constant tensor:
#      x y z
#    x 3.296760 0.000000 0.323780 
#    y 0.000000 3.622140 0.000000 
#    z 0.323780 0.000000 3.454210 
# 
# 
# High freq. dielectric constant tensor:
#      x y z
#    x 1.677640 0.000000 0.021030 
#    y 0.000000 1.713900 0.000000 
#    z 0.021030 0.000000 1.673920 
# 
# From -- ./inp_files/72091.got.cif
#   From: 2010.06.25/outbox.cif.g09.slc.cpg/sg11_37_cif.got.tgz:72091.got - 2010.06.27 23:14:04.
