data_PCOD8071673
_publ_section_title
;
Structure prediction by ZEFSAII (Michael W. Deem and Ramdas Pophale) SiO2 
 PCOD8071673
Probable space group: P 21/M
;
_chemical_formula_sum "Si O2"
_cell_formula_units_Z 28
_cell_length_a 21.772155
_cell_length_b 8.933511
_cell_length_c 24.268149
_cell_angle_alpha 90.000000
_cell_angle_beta 18.002883
_cell_angle_gamma 90.000000
_cell_volume 1458.847384
_symmetry_space_group_name_H-M "P 21/M"
_symmetry_group_IT_number 11
_symmetry_cell_setting 'monoclinic'
loop_
_space_group_symop_operation_xyz
x,y,z
-x,1/2+y,-z
-x,-y,-z
x,1/2-y,z
loop_
_atom_site_type_symbol
_atom_site_label
_atom_site_fract_x
_atom_site_fract_y
_atom_site_fract_z
Si Si1 0.692575 0.572987 0.102539
Si Si2 0.352457 0.074003 0.083095
Si Si3 0.191508 0.075982 0.811059
Si Si4 0.955797 0.425874 0.479804
Si Si5 0.486582 0.576261 0.637183
Si Si6 0.480707 0.927529 0.173936
Si Si7 0.898324 0.580179 0.237053
O O1 0.670567 0.750000 0.127081
O O2 0.588897 0.496877 0.242607
O O3 0.584924 0.509482 0.139772
O O4 0.924310 0.532764 0.901107
O O5 0.388648 0.250000 0.055821
O O6 0.125835 0.031134 0.290814
O O7 0.399752 0.013380 0.981554
O O8 0.500000 0.000000 0.000000
O O9 0.189681 0.250000 0.828102
O O10 0.194035 0.048304 0.743887
O O11 0.386807 0.001059 0.669665
O O12 0.000000 0.000000 0.000000
O O13 0.946625 0.250000 0.498115
O O14 0.746523 0.485345 0.634583
O O15 0.000000 0.500000 0.500000
O O16 0.426869 0.750000 0.687969
O O17 0.723839 0.554087 0.430368
O O18 0.487048 0.750000 0.170030
O O19 0.979499 0.750000 0.170708
#
# Coordination Sequence:
#
# PCOD8071673 Si02
#       7
#     4   4   4   4   4   4   4
#     4  11  23  39  61  86 114 156 202 244 290 346
#     4  10  19  33  56  83 110 143 180 226 281 336
#     4  11  21  36  61  91 119 154 196 244 299 348
#     4  10  19  33  56  83 111 143 180 226 281 336
#     4  11  23  40  61  86 120 158 196 243 296 349
#     4   9  20  37  55  81 116 148 186 235 285 339
#     4  10  23  41  61  85 119 158 194 242 298 348
#
# _framework density 19.193235000000001
#
# number of rings (size 3 to 8) (size 9 to 14) (size 15 to 20)
#    0.000    1.714    2.857    1.714    0.000    2.857 
#    0.000    5.714    0.000    0.000    0.000    0.000 
#    0.000    0.000    0.000    0.000    0.000    0.000 
#
# Total GULP energy -347264.497036 kJ/mol
# GULP energy per Si atom -12402.303466 kJ/mol
# Density = 1.914955 g / cm^3
# Si number density = 19.193235 Si / 1000 Ang^3
#
#
#
# Elastic Constant Matrix: (Units=GPa)
#
#
# Indices 1 2 3 4 5 6 
#
# 1 130.0853 42.6618 70.0195 0.0000 -19.8176 0.0000
# 2 42.6618 72.0656 46.8469 0.0000 -6.6674 0.0000
# 3 70.0195 46.8469 151.8975 0.0000 1.5898 0.0000
# 4 0.0000 0.0000 0.0000 23.7021 0.0000 -4.3157
# 5 -19.8176 -6.6674 1.5898 0.0000 14.2432 0.0000
# 6 0.0000 0.0000 0.0000 -4.3157 0.0000 25.1999
#
#
#
# Elastic Compliance Matrix: (Units=1/GPa)
#
#
# Indices 1 2 3 4 5 6 
#
# 1 0.015153 -0.003009 -0.006270 0.000000 0.020375 0.000000
# 2 -0.003009 0.019111 -0.004562 0.000000 0.005268 0.000000
# 3 -0.006270 -0.004562 0.011007 0.000000 -0.012088 0.000000
# 4 0.000000 0.000000 0.000000 0.043548 0.000000 0.007458
# 5 0.020375 0.005268 -0.012088 0.000000 0.102373 0.000000
# 6 0.000000 0.000000 0.000000 0.007458 0.000000 0.040960
#
#
# Mechanical properties :
#
#
# Convention : Reuss Voigt Hill
#
# Bulk Modulus (GPa) = 56.85673 74.78943 65.82308
# Shear Modulus (GPa) = 18.81839 25.59705 22.20772
#
# Velocity S-wave (km/s) = 3.13464 3.65588 3.40525
# Velocity P-wave (km/s) = 6.54133 7.54134 7.05906
#
# Compressibility (1/GPa) = 0.01758807
#
# Stress axis : x y z
#
# Youngs Moduli (GPa) = 65.99295 52.32694 90.84982
#
# Poissons Ratio (x) = 0.15747 0.56965
# Poissons Ratio (y) = 0.19860 0.41444
# Poissons Ratio (z) = 0.41379 0.23871
#
# Static dielectric constant tensor:
#      x y z
#    x 3.681370 0.000000 0.114680 
#    y 0.000000 3.459530 0.000000 
#    z 0.114680 0.000000 3.857380 
# 
# 
# High freq. dielectric constant tensor:
#      x y z
#    x 1.744720 0.000000 0.004440 
#    y 0.000000 1.735490 0.000000 
#    z 0.004440 0.000000 1.762790 
# 
# From -- ./inp_files/69751.got.cif
#   From: 2010.06.25/outbox.cif.g09.slc.cpg/sg11_35_cif.got.tgz:69751.got - 2010.06.27 23:14:04.
