data_PCOD8071271
_publ_section_title
;
Structure prediction by ZEFSAII (Michael W. Deem and Ramdas Pophale) SiO2 
 PCOD8071271
Probable space group: P 21/M
;
_chemical_formula_sum "Si O2"
_cell_formula_units_Z 32
_cell_length_a 11.553718
_cell_length_b 19.751316
_cell_length_c 13.892307
_cell_angle_alpha 90.000000
_cell_angle_beta 33.723284
_cell_angle_gamma 90.000000
_cell_volume 1760.061810
_symmetry_space_group_name_H-M "P 21/M"
_symmetry_group_IT_number 11
_symmetry_cell_setting 'monoclinic'
loop_
_space_group_symop_operation_xyz
x,y,z
-x,1/2+y,-z
-x,-y,-z
x,1/2-y,z
loop_
_atom_site_type_symbol
_atom_site_label
_atom_site_fract_x
_atom_site_fract_y
_atom_site_fract_z
Si Si1 0.088273 0.893577 0.695505
Si Si2 0.778731 0.421388 0.193926
Si Si3 0.437931 0.928390 0.999928
Si Si4 0.352306 0.328168 0.999952
Si Si5 0.034752 0.048501 0.695286
Si Si6 0.425115 0.048498 0.304863
Si Si7 0.166641 0.078621 0.806088
Si Si8 0.520896 0.106430 0.695386
O O1 0.214335 0.883595 0.708305
O O2 0.244815 0.875830 0.500083
O O3 0.892929 0.843998 0.828277
O O4 0.003695 0.970118 0.745242
O O5 0.559036 0.410571 0.291983
O O6 0.810448 0.500010 0.189474
O O7 0.962330 0.392178 0.000009
O O8 0.188933 0.919912 0.172375
O O9 0.528738 0.868373 0.999943
O O10 0.534068 0.919939 0.827370
O O11 0.500000 0.000000 0.000000
O O12 0.384752 0.250000 0.999972
O O13 0.450891 0.344000 0.828060
O O14 0.181690 0.055879 0.500100
O O15 0.143100 0.089410 0.708006
O O16 0.493975 0.970116 0.254922
O O17 0.369073 0.116444 0.708358
#
# Coordination Sequence:
#
# PCOD8071271 Si02
#       8
#     4   4   4   4   4   4   4   4
#     4  10  19  34  57  85 116 145 177 224 283 344
#     4   9  15  27  53  85 118 142 166 213 277 334
#     4  12  22  37  57  78 109 151 197 243 278 326
#     4  12  26  41  55  77 111 153 194 233 281 336
#     4  10  19  32  56  89 116 142 180 233 288 331
#     4  10  19  32  56  89 116 142 180 233 288 331
#     4   9  15  27  53  85 118 142 166 213 277 334
#     4  10  19  34  57  85 116 145 177 224 283 344
#
# _framework density 18.181180000000001
#
# number of rings (size 3 to 8) (size 9 to 14) (size 15 to 20)
#    0.000    1.750    5.000    0.750    0.000    5.000 
#    0.000    0.000    0.000    3.000    0.000    0.000 
#    0.000    0.000    0.000    0.000    0.000    0.000 
#
# Total GULP energy -396779.876351 kJ/mol
# GULP energy per Si atom -12399.371136 kJ/mol
# Density = 1.813980 g / cm^3
# Si number density = 18.181180 Si / 1000 Ang^3
#
#
#
# Elastic Constant Matrix: (Units=GPa)
#
#
# Indices 1 2 3 4 5 6 
#
# 1 129.9780 50.4223 59.3489 0.0000 -3.4435 0.0000
# 2 50.4223 72.1095 35.8561 0.0000 -0.8449 0.0000
# 3 59.3489 35.8561 130.1089 0.0000 3.8043 0.0000
# 4 0.0000 0.0000 0.0000 12.0323 0.0000 -0.1852
# 5 -3.4435 -0.8449 3.8043 0.0000 7.4147 0.0000
# 6 0.0000 0.0000 0.0000 -0.1852 0.0000 15.0075
#
#
#
# Elastic Compliance Matrix: (Units=1/GPa)
#
#
# Indices 1 2 3 4 5 6 
#
# 1 0.012212 -0.006473 -0.003991 0.000000 0.006981 0.000000
# 2 -0.006473 0.019629 -0.002471 0.000000 0.000499 0.000000
# 3 -0.003991 -0.002471 0.010406 0.000000 -0.007474 0.000000
# 4 0.000000 0.000000 0.000000 0.083126 0.000000 0.001026
# 5 0.006981 0.000499 -0.007474 0.000000 0.142002 0.000000
# 6 0.000000 0.000000 0.000000 0.001026 0.000000 0.066646
#
#
# Mechanical properties :
#
#
# Convention : Reuss Voigt Hill
#
# Bulk Modulus (GPa) = 61.06348 69.27236 65.16792
# Shear Modulus (GPa) = 13.68557 19.32882 16.50719
#
# Velocity S-wave (km/s) = 2.74657 3.26409 3.01645
# Velocity P-wave (km/s) = 6.61190 7.23806 6.93206
#
# Compressibility (1/GPa) = 0.01637640
#
# Stress axis : x y z
#
# Youngs Moduli (GPa) = 81.88829 50.94596 96.10031
#
# Poissons Ratio (x) = 0.32977 0.38350
# Poissons Ratio (y) = 0.53005 0.23750
# Poissons Ratio (z) = 0.32679 0.12590
#
# Static dielectric constant tensor:
#      x y z
#    x 3.568450 0.000000 -0.006060 
#    y 0.000000 2.903440 0.000000 
#    z -0.006060 0.000000 3.472980 
# 
# 
# High freq. dielectric constant tensor:
#      x y z
#    x 1.714080 0.000000 0.000610 
#    y 0.000000 1.627860 0.000000 
#    z 0.000610 0.000000 1.723360 
# 
# From -- ./inp_files/50662.got.cif
#   From: 2010.06.25/outbox.cif.g09.slc.cpg/sg11_26_cif.got.tgz:50662.got - 2010.06.27 23:14:04.
