data_PCOD8071429
_publ_section_title
;
Structure prediction by ZEFSAII (Michael W. Deem and Ramdas Pophale) SiO2 
 PCOD8071429
Probable space group: P 21/M
;
_chemical_formula_sum "Si O2"
_cell_formula_units_Z 32
_cell_length_a 23.149990
_cell_length_b 13.773004
_cell_length_c 17.079638
_cell_angle_alpha 90.000000
_cell_angle_beta 161.790267
_cell_angle_gamma 90.000000
_cell_volume 1701.778399
_symmetry_space_group_name_H-M "P 21/M"
_symmetry_group_IT_number 11
_symmetry_cell_setting 'monoclinic'
loop_
_space_group_symop_operation_xyz
x,y,z
-x,1/2+y,-z
-x,-y,-z
x,1/2-y,z
loop_
_atom_site_type_symbol
_atom_site_label
_atom_site_fract_x
_atom_site_fract_y
_atom_site_fract_z
Si Si1 0.189285 0.978097 0.202611
Si Si2 0.609169 0.945875 0.074308
Si Si3 0.952736 0.962809 0.609998
Si Si4 0.846375 0.359812 0.997072
Si Si5 0.660927 0.484227 0.974392
Si Si6 0.471446 0.359768 0.607622
Si Si7 0.752364 0.358448 0.433184
Si Si8 0.617376 0.139427 0.423116
O O1 0.291153 0.891259 0.378019
O O2 0.311647 0.075876 0.362225
O O3 0.147188 0.940299 0.061852
O O4 0.000000 0.000000 0.000000
O O5 0.802239 0.909626 0.360427
O O6 0.651338 0.019824 0.056424
O O7 0.469959 0.860150 0.869794
O O8 0.500000 0.000000 0.000000
O O9 0.000335 0.890436 0.741852
O O10 0.873355 0.064955 0.540419
O O11 0.129315 0.982222 0.783756
O O12 0.892987 0.250000 0.028543
O O13 0.643595 0.363318 0.771551
O O14 0.535581 0.398146 0.775799
O O15 0.576520 0.585176 0.836564
O O16 0.397441 0.250000 0.522687
O O17 0.824966 0.250000 0.507197
O O18 0.764132 0.381028 0.541500
O O19 0.561203 0.250000 0.356385
#
# Coordination Sequence:
#
# PCOD8071429 Si02
#       8
#     4   4   4   4   4   4   4   4
#     4  11  21  34  54  80 108 137 177 221 266 316
#     4   9  18  33  52  74 104 140 172 209 260 315
#     4  10  19  33  53  77 104 135 177 222 264 309
#     4  10  21  37  55  77 107 143 181 222 268 318
#     4   9  18  33  54  78 103 134 173 219 264 312
#     4   9  20  38  57  78 107 141 177 219 269 322
#     4   9  18  33  51  73 103 136 171 212 261 315
#     4   9  18  33  51  71 100 136 169 208 261 317
#
# _framework density 18.803858999999999
#
# number of rings (size 3 to 8) (size 9 to 14) (size 15 to 20)
#    0.000    2.500    0.000    1.875    0.000    3.000 
#    0.000    3.125    0.000    4.500    0.000    0.000 
#    0.000    0.000    0.000    0.000    0.000    0.000 
#
# Total GULP energy -396622.877604 kJ/mol
# GULP energy per Si atom -12394.464925 kJ/mol
# Density = 1.876106 g / cm^3
# Si number density = 18.803859 Si / 1000 Ang^3
#
#
#
# Elastic Constant Matrix: (Units=GPa)
#
#
# Indices 1 2 3 4 5 6 
#
# 1 96.7467 39.4760 42.2015 0.0000 -13.7161 0.0000
# 2 39.4760 114.9611 42.8983 0.0000 -2.2815 0.0000
# 3 42.2015 42.8983 97.8781 0.0000 -5.1325 0.0000
# 4 0.0000 0.0000 0.0000 18.4527 0.0000 3.3010
# 5 -13.7161 -2.2815 -5.1325 0.0000 29.1382 0.0000
# 6 0.0000 0.0000 0.0000 3.3010 0.0000 23.4901
#
#
#
# Elastic Compliance Matrix: (Units=1/GPa)
#
#
# Indices 1 2 3 4 5 6 
#
# 1 0.014410 -0.003142 -0.004535 0.000000 0.005738 0.000000
# 2 -0.003142 0.011084 -0.003568 0.000000 -0.001240 0.000000
# 3 -0.004535 -0.003568 0.013736 0.000000 0.000005 0.000000
# 4 0.000000 0.000000 0.000000 0.055590 0.000000 -0.007812
# 5 0.005738 -0.001240 0.000005 0.000000 0.036924 0.000000
# 6 0.000000 0.000000 0.000000 -0.007812 0.000000 0.043669
#
#
# Mechanical properties :
#
#
# Convention : Reuss Voigt Hill
#
# Bulk Modulus (GPa) = 59.73752 62.08194 60.90973
# Shear Modulus (GPa) = 24.57177 26.55021 25.56099
#
# Velocity S-wave (km/s) = 3.61881 3.76168 3.69093
# Velocity P-wave (km/s) = 7.02131 7.20792 7.11523
#
# Compressibility (1/GPa) = 0.01673990
#
# Stress axis : x y z
#
# Youngs Moduli (GPa) = 69.39566 90.21608 72.79916
#
# Poissons Ratio (x) = 0.28346 0.33015
# Poissons Ratio (y) = 0.21804 0.25978
# Poissons Ratio (z) = 0.31472 0.32193
#
# Static dielectric constant tensor:
#      x y z
#    x 11.873670 0.000000 -10.908560 
#    y 0.000000 3.490880 0.000000 
#    z -10.908560 0.000000 17.554440 
# 
# 
# High freq. dielectric constant tensor:
#      x y z
#    x 1.734570 0.000000 -0.006900 
#    y 0.000000 1.718060 0.000000 
#    z -0.006900 0.000000 1.735920 
# 
# From -- ./inp_files/55024.got.cif
#   From: 2010.06.25/outbox.cif.g09.slc.cpg/sg11_28_cif.got.tgz:55024.got - 2010.06.27 23:14:04.
