data_PCOD8071486
_publ_section_title
;
Structure prediction by ZEFSAII (Michael W. Deem and Ramdas Pophale) SiO2 
 PCOD8071486
Probable space group: P 21/M
;
_chemical_formula_sum "Si O2"
_cell_formula_units_Z 32
_cell_length_a 24.221726
_cell_length_b 10.151738
_cell_length_c 23.731810
_cell_angle_alpha 90.000000
_cell_angle_beta 162.508060
_cell_angle_gamma 90.000000
_cell_volume 1753.978811
_symmetry_space_group_name_H-M "P 21/M"
_symmetry_group_IT_number 11
_symmetry_cell_setting 'monoclinic'
loop_
_space_group_symop_operation_xyz
x,y,z
-x,1/2+y,-z
-x,-y,-z
x,1/2-y,z
loop_
_atom_site_type_symbol
_atom_site_label
_atom_site_fract_x
_atom_site_fract_y
_atom_site_fract_z
Si Si1 0.781388 0.095432 0.431703
Si Si2 0.958409 0.902669 0.097841
Si Si3 0.375216 0.100719 0.025203
Si Si4 0.737124 0.402955 0.690802
Si Si5 0.682021 0.599990 0.734688
Si Si6 0.296060 0.469371 0.823083
Si Si7 0.058394 0.404309 0.794536
Si Si8 0.050418 0.390465 0.487214
O O1 0.790334 0.250000 0.423432
O O2 0.575522 0.035843 0.229618
O O3 0.864230 0.071810 0.574493
O O4 0.902436 0.015276 0.505143
O O5 0.997730 0.750000 0.145747
O O6 0.948518 0.970591 0.149967
O O7 0.126954 0.957695 0.224863
O O8 0.768459 0.927743 0.880010
O O9 0.395027 0.250000 0.064192
O O10 0.312978 0.098614 0.900106
O O11 0.223472 0.031547 0.917929
O O12 0.777965 0.250000 0.746873
O O13 0.767422 0.495549 0.774369
O O14 0.533989 0.420422 0.468704
O O15 0.727812 0.750000 0.759415
O O16 0.191813 0.376905 0.677054
O O17 0.161399 0.596243 0.697843
O O18 0.500000 0.500000 0.000000
O O19 0.097817 0.250000 0.838319
O O20 0.063570 0.250000 0.467575
#
# Coordination Sequence:
#
# PCOD8071486 Si02
#       8
#     4   4   4   4   4   4   4   4
#     4  10  20  36  57  78 103 137 173 212 260 312
#     4   9  17  29  47  73 102 132 169 212 253 295
#     4  10  19  33  54  77 102 134 173 214 259 313
#     4   9  17  29  47  73 103 132 165 207 253 300
#     4   9  17  29  47  72 103 134 166 205 250 299
#     4  11  22  38  54  78 108 142 171 211 264 325
#     4   9  18  32  51  75 102 132 172 219 257 297
#     4  11  24  37  56  84 110 136 171 216 264 318
#
# _framework density 18.244233000000001
#
# number of rings (size 3 to 8) (size 9 to 14) (size 15 to 20)
#    0.000    2.250    2.500    0.750    0.000    4.000 
#    0.000    5.000    0.000    1.500    0.000    1.750 
#    0.000    0.000    0.000    0.000    0.000    0.000 
#
# Total GULP energy -396527.134644 kJ/mol
# GULP energy per Si atom -12391.472958 kJ/mol
# Density = 1.820271 g / cm^3
# Si number density = 18.244233 Si / 1000 Ang^3
#
#
#
# Elastic Constant Matrix: (Units=GPa)
#
#
# Indices 1 2 3 4 5 6 
#
# 1 116.6711 26.7015 51.9674 0.0000 -11.9404 0.0000
# 2 26.7015 55.6707 24.0308 0.0000 -3.8870 0.0000
# 3 51.9674 24.0308 125.1297 0.0000 -0.7467 0.0000
# 4 0.0000 0.0000 0.0000 8.3676 0.0000 -1.5871
# 5 -11.9404 -3.8870 -0.7467 0.0000 30.4347 0.0000
# 6 0.0000 0.0000 0.0000 -1.5871 0.0000 16.5490
#
#
#
# Elastic Compliance Matrix: (Units=1/GPa)
#
#
# Indices 1 2 3 4 5 6 
#
# 1 0.011625 -0.003513 -0.004129 0.000000 0.004011 0.000000
# 2 -0.003513 0.020826 -0.002533 0.000000 0.001219 0.000000
# 3 -0.004129 -0.002533 0.010183 0.000000 -0.001694 0.000000
# 4 0.000000 0.000000 0.000000 0.121722 0.000000 0.011674
# 5 0.004011 0.001219 -0.001694 0.000000 0.034545 0.000000
# 6 0.000000 0.000000 0.000000 0.011674 0.000000 0.061546
#
#
# Mechanical properties :
#
#
# Convention : Reuss Voigt Hill
#
# Bulk Modulus (GPa) = 44.87764 55.87453 50.37609
# Shear Modulus (GPa) = 17.34744 24.05507 20.70126
#
# Velocity S-wave (km/s) = 3.08692 3.63506 3.37215
# Velocity P-wave (km/s) = 6.11205 6.95058 6.54476
#
# Compressibility (1/GPa) = 0.02228281
#
# Stress axis : x y z
#
# Youngs Moduli (GPa) = 86.02255 48.01576 98.20254
#
# Poissons Ratio (x) = 0.16869 0.40550
# Poissons Ratio (y) = 0.30221 0.24878
# Poissons Ratio (z) = 0.35521 0.12164
#
# Static dielectric constant tensor:
#      x y z
#    x 3.556960 0.000000 0.085210 
#    y 0.000000 3.023740 0.000000 
#    z 0.085210 0.000000 3.642270 
# 
# 
# High freq. dielectric constant tensor:
#      x y z
#    x 1.696870 0.000000 0.002900 
#    y 0.000000 1.659230 0.000000 
#    z 0.002900 0.000000 1.729250 
# 
# From -- ./inp_files/66561.got.cif
#   From: 2010.06.25/outbox.cif.g09.slc.cpg/sg11_34_cif.got.tgz:66561.got - 2010.06.27 23:14:04.
