data_PCOD8071359
_publ_section_title
;
Structure prediction by ZEFSAII (Michael W. Deem and Ramdas Pophale) SiO2 
 PCOD8071359
Probable space group: P 21/M
;
_chemical_formula_sum "Si O2"
_cell_formula_units_Z 32
_cell_length_a 31.088888
_cell_length_b 9.250736
_cell_length_c 11.894289
_cell_angle_alpha 90.000000
_cell_angle_beta 149.957114
_cell_angle_gamma 90.000000
_cell_volume 1712.586508
_symmetry_space_group_name_H-M "P 21/M"
_symmetry_group_IT_number 11
_symmetry_cell_setting 'monoclinic'
loop_
_space_group_symop_operation_xyz
x,y,z
-x,1/2+y,-z
-x,-y,-z
x,1/2-y,z
loop_
_atom_site_type_symbol
_atom_site_label
_atom_site_fract_x
_atom_site_fract_y
_atom_site_fract_z
Si Si1 0.589472 0.080964 0.692201
Si Si2 0.252506 0.919059 0.803414
Si Si3 0.280135 0.081519 0.649506
Si Si4 0.776088 0.579818 0.727265
Si Si5 0.469792 0.085269 0.038565
Si Si6 0.923819 0.082093 0.183234
Si Si7 0.636363 0.085292 0.551822
Si Si8 0.094510 0.583535 0.600663
O O1 0.568750 0.250000 0.650171
O O2 0.638493 0.043303 0.687248
O O3 0.500000 0.000000 0.500000
O O4 0.654488 0.033248 0.938039
O O5 0.250641 0.750000 0.775629
O O6 0.180223 0.962239 0.729904
O O7 0.231510 0.998713 0.639259
O O8 0.274617 0.250000 0.663681
O O9 0.236675 0.043816 0.432587
O O10 0.378307 0.025063 0.872290
O O11 0.783454 0.750000 0.765686
O O12 0.695575 0.521850 0.615609
O O13 0.863006 0.501826 0.959946
O O14 0.458291 0.250000 0.973699
O O15 0.537559 0.067890 0.291688
O O16 0.500000 0.000000 0.000000
O O17 0.926072 0.250000 0.155641
O O18 0.888019 0.058206 0.227897
O O19 0.018793 0.018222 0.385239
O O20 0.668784 0.250000 0.605823
O O21 0.068868 0.750000 0.520493
#
# Coordination Sequence:
#
# PCOD8071359 Si02
#       8
#     4   4   4   4   4   4   4   4
#     4  10  21  37  55  80 113 147 184 227 275 325
#     4  10  21  37  58  81 109 148 188 226 271 327
#     4  10  22  38  54  77 111 148 187 233 276 322
#     4  11  22  36  55  81 112 144 182 229 278 326
#     4  10  19  33  52  75 105 143 184 228 274 319
#     4  10  20  36  61  89 116 142 174 222 277 333
#     4  10  20  34  55  79 108 145 184 230 282 331
#     4   9  19  38  61  86 114 143 178 223 274 328
#
# _framework density 18.685186999999999
#
# number of rings (size 3 to 8) (size 9 to 14) (size 15 to 20)
#    0.000    2.000    1.250    2.250    0.000    6.500 
#    0.000    1.875    0.000    0.000    0.000    0.000 
#    0.000    0.000    0.000    0.000    0.000    0.000 
#
# Total GULP energy -396900.688876 kJ/mol
# GULP energy per Si atom -12403.146527 kJ/mol
# Density = 1.864266 g / cm^3
# Si number density = 18.685187 Si / 1000 Ang^3
#
#
#
# Elastic Constant Matrix: (Units=GPa)
#
#
# Indices 1 2 3 4 5 6 
#
# 1 110.3083 55.9909 56.0322 0.0000 -2.7528 0.0000
# 2 55.9909 84.7639 62.0367 0.0000 -2.5115 0.0000
# 3 56.0322 62.0367 115.2537 0.0000 -3.7105 0.0000
# 4 0.0000 0.0000 0.0000 34.3659 0.0000 0.8260
# 5 -2.7528 -2.5115 -3.7105 0.0000 28.2729 0.0000
# 6 0.0000 0.0000 0.0000 0.8260 0.0000 32.2120
#
#
#
# Elastic Compliance Matrix: (Units=1/GPa)
#
#
# Indices 1 2 3 4 5 6 
#
# 1 0.014273 -0.007173 -0.003067 0.000000 0.000350 0.000000
# 2 -0.007173 0.023075 -0.008927 0.000000 0.000180 0.000000
# 3 -0.003067 -0.008927 0.015001 0.000000 0.000877 0.000000
# 4 0.000000 0.000000 0.000000 0.029117 0.000000 -0.000747
# 5 0.000350 0.000180 0.000877 0.000000 0.035535 0.000000
# 6 0.000000 0.000000 0.000000 -0.000747 0.000000 0.031063
#
#
# Mechanical properties :
#
#
# Convention : Reuss Voigt Hill
#
# Bulk Modulus (GPa) = 71.35494 73.16062 72.25778
# Shear Modulus (GPa) = 26.16864 28.05456 27.11160
#
# Velocity S-wave (km/s) = 3.74639 3.87904 3.81329
# Velocity P-wave (km/s) = 7.54883 7.70077 7.62518
#
# Compressibility (1/GPa) = 0.01401445
#
# Stress axis : x y z
#
# Youngs Moduli (GPa) = 70.06222 43.33775 66.66350
#
# Poissons Ratio (x) = 0.31087 0.20443
# Poissons Ratio (y) = 0.50258 0.59510
# Poissons Ratio (z) = 0.21486 0.38688
#
# Static dielectric constant tensor:
#      x y z
#    x 4.015900 0.000000 0.918470 
#    y 0.000000 3.512660 0.000000 
#    z 0.918470 0.000000 5.007150 
# 
# 
# High freq. dielectric constant tensor:
#      x y z
#    x 1.720990 0.000000 -0.004220 
#    y 0.000000 1.723490 0.000000 
#    z -0.004220 0.000000 1.730300 
# 
# From -- ./inp_files/42954.got.cif
#   From: 2010.06.25/outbox.cif.g09.slc.cpg/sg11_22_cif.got.tgz:42954.got - 2010.06.27 23:14:04.
