data_PCOD8071197
_publ_section_title
;
Structure prediction by ZEFSAII (Michael W. Deem and Ramdas Pophale) SiO2 
 PCOD8071197
Probable space group: P 21/M
;
_chemical_formula_sum "Si O2"
_cell_formula_units_Z 28
_cell_length_a 15.712869
_cell_length_b 10.534419
_cell_length_c 9.363202
_cell_angle_alpha 90.000000
_cell_angle_beta 108.075823
_cell_angle_gamma 90.000000
_cell_volume 1473.362579
_symmetry_space_group_name_H-M "P 21/M"
_symmetry_group_IT_number 11
_symmetry_cell_setting 'monoclinic'
loop_
_space_group_symop_operation_xyz
x,y,z
-x,1/2+y,-z
-x,-y,-z
x,1/2-y,z
loop_
_atom_site_type_symbol
_atom_site_label
_atom_site_fract_x
_atom_site_fract_y
_atom_site_fract_z
Si Si1 0.962726 0.392035 0.378598
Si Si2 0.683352 0.600312 0.471098
Si Si3 0.241564 0.891966 0.693403
Si Si4 0.531760 0.612583 0.192053
Si Si5 0.048029 0.394033 0.116835
Si Si6 0.641573 0.505700 0.015699
Si Si7 0.254540 0.104576 0.191481
O O1 0.979958 0.250000 0.451235
O O2 0.857492 0.411411 0.294787
O O3 0.000000 0.500000 0.500000
O O4 0.015008 0.406801 0.259534
O O5 0.711789 0.750000 0.462502
O O6 0.746608 0.502904 0.417532
O O7 0.581106 0.577287 0.366436
O O8 0.688483 0.562394 0.640171
O O9 0.251906 0.750000 0.631494
O O10 0.313722 0.898493 0.860445
O O11 0.488531 0.750000 0.180324
O O12 0.448908 0.523302 0.117710
O O13 0.609066 0.614145 0.109166
O O14 0.030528 0.250000 0.049928
O O15 0.152233 0.427295 0.169304
O O16 0.000000 0.500000 0.000000
O O17 0.715687 0.538107 0.938235
O O18 0.271546 0.250000 0.170499
#
# Coordination Sequence:
#
# PCOD8071197 Si02
#       7
#     4   4   4   4   4   4   4
#     4  10  21  36  55  79 107 141 181 223 265 313
#     4   9  19  36  57  80 109 143 178 217 262 315
#     4  10  20  35  54  79 110 142 179 221 265 312
#     4   9  18  33  52  76 104 136 177 219 259 309
#     4  10  21  37  55  78 109 142 178 221 268 316
#     4  10  19  32  54  78 105 139 176 216 264 315
#     4  10  20  35  55  79 107 140 179 221 265 316
#
# _framework density 19.004148000000001
#
# number of rings (size 3 to 8) (size 9 to 14) (size 15 to 20)
#    0.000    2.286    0.000    2.571    0.000    3.429 
#    0.000    3.571    0.000    0.000    0.000    0.000 
#    0.000    0.000    0.000    0.000    0.000    0.000 
#
# Total GULP energy -346908.470607 kJ/mol
# GULP energy per Si atom -12389.588236 kJ/mol
# Density = 1.896089 g / cm^3
# Si number density = 19.004148 Si / 1000 Ang^3
#
#
#
# Elastic Constant Matrix: (Units=GPa)
#
#
# Indices 1 2 3 4 5 6 
#
# 1 67.1929 25.4264 18.5434 0.0000 1.4780 0.0000
# 2 25.4264 93.0200 45.0101 0.0000 6.1449 0.0000
# 3 18.5434 45.0101 91.6759 0.0000 10.1222 0.0000
# 4 0.0000 0.0000 0.0000 30.6039 0.0000 2.0650
# 5 1.4780 6.1449 10.1222 0.0000 28.6163 0.0000
# 6 0.0000 0.0000 0.0000 2.0650 0.0000 17.8374
#
#
#
# Elastic Compliance Matrix: (Units=1/GPa)
#
#
# Indices 1 2 3 4 5 6 
#
# 1 0.016762 -0.003866 -0.001549 0.000000 0.000512 0.000000
# 2 -0.003866 0.015002 -0.006504 0.000000 -0.000721 0.000000
# 3 -0.001549 -0.006504 0.014831 0.000000 -0.003769 0.000000
# 4 0.000000 0.000000 0.000000 0.032933 0.000000 -0.003813
# 5 0.000512 -0.000721 -0.003769 0.000000 0.036407 0.000000
# 6 0.000000 0.000000 0.000000 -0.003813 0.000000 0.056503
#
#
# Mechanical properties :
#
#
# Convention : Reuss Voigt Hill
#
# Bulk Modulus (GPa) = 43.94322 47.76095 45.85209
# Shear Modulus (GPa) = 24.52663 26.27211 25.39937
#
# Velocity S-wave (km/s) = 3.59638 3.72215 3.65981
# Velocity P-wave (km/s) = 6.35755 6.60749 6.48373
#
# Compressibility (1/GPa) = 0.02275664
#
# Stress axis : x y z
#
# Youngs Moduli (GPa) = 59.65995 66.65853 67.42796
#
# Poissons Ratio (x) = 0.25771 0.10443
# Poissons Ratio (y) = 0.23065 0.43854
# Poissons Ratio (z) = 0.09240 0.43354
#
# Static dielectric constant tensor:
#      x y z
#    x 3.468290 0.000000 0.109750 
#    y 0.000000 3.473570 0.000000 
#    z 0.109750 0.000000 3.534680 
# 
# 
# High freq. dielectric constant tensor:
#      x y z
#    x 1.738880 0.000000 0.011040 
#    y 0.000000 1.734710 0.000000 
#    z 0.011040 0.000000 1.738360 
# 
# From -- ./inp_files/21140.got.cif
#   From: 2010.06.25/outbox.cif.g09.slc.cpg/sg11_11_cif.got.tgz:21140.got - 2010.06.27 23:14:04.
