data_PCOD8071080
_publ_section_title
;
Structure prediction by ZEFSAII (Michael W. Deem and Ramdas Pophale) SiO2 
 PCOD8071080
Probable space group: P 21/M
;
_chemical_formula_sum "Si O2"
_cell_formula_units_Z 28
_cell_length_a 9.109421
_cell_length_b 8.951968
_cell_length_c 26.456407
_cell_angle_alpha 90.000000
_cell_angle_beta 137.118647
_cell_angle_gamma 90.000000
_cell_volume 1468.104843
_symmetry_space_group_name_H-M "P 21/M"
_symmetry_group_IT_number 11
_symmetry_cell_setting 'monoclinic'
loop_
_space_group_symop_operation_xyz
x,y,z
-x,1/2+y,-z
-x,-y,-z
x,1/2-y,z
loop_
_atom_site_type_symbol
_atom_site_label
_atom_site_fract_x
_atom_site_fract_y
_atom_site_fract_z
Si Si1 0.273051 0.577043 0.716536
Si Si2 0.442206 0.424743 0.563409
Si Si3 0.172464 0.575601 0.413272
Si Si4 0.618854 0.077506 0.144719
Si Si5 0.438261 0.074301 0.305092
Si Si6 0.985639 0.925436 0.173245
Si Si7 0.680743 0.921636 0.014199
O O1 0.205321 0.750000 0.694716
O O2 0.399120 0.544384 0.800445
O O3 0.431392 0.528012 0.711871
O O4 0.061615 0.476339 0.662681
O O5 0.407575 0.250000 0.561893
O O6 0.241912 0.488368 0.481139
O O7 0.665837 0.462529 0.591694
O O8 0.439718 0.501739 0.617037
O O9 0.172836 0.750000 0.425793
O O10 0.684652 0.250000 0.151473
O O11 0.799037 0.972324 0.165286
O O12 0.377886 0.045717 0.059619
O O13 0.430473 0.250000 0.311211
O O14 0.197565 0.015295 0.239959
O O15 0.032828 0.750000 0.191886
O O16 0.913484 0.968016 0.096731
O O17 0.655155 0.750000 0.020515
O O18 0.500000 0.000000 0.000000
#
# Coordination Sequence:
#
# PCOD8071080 Si02
#       7
#     4   4   4   4   4   4   4
#     4  10  22  37  53  75 105 141 179 216 255 304
#     4  10  21  38  60  84 107 133 169 212 257 307
#     4  10  21  37  59  84 107 133 168 211 259 309
#     4   9  17  33  56  78 102 136 176 218 262 307
#     4  11  23  37  52  74 106 143 179 213 255 307
#     4  10  19  32  52  79 107 135 172 218 265 312
#     4   8  15  28  49  76 103 131 168 215 263 308
#
# _framework density 19.072208
#
# number of rings (size 3 to 8) (size 9 to 14) (size 15 to 20)
#    0.000    2.286    0.000    2.571    0.000    6.857 
#    0.000    0.714    0.000    0.000    0.000    0.000 
#    0.000    0.000    0.000    0.000    0.000    0.000 
#
# Total GULP energy -347047.941004 kJ/mol
# GULP energy per Si atom -12394.569322 kJ/mol
# Density = 1.902880 g / cm^3
# Si number density = 19.072208 Si / 1000 Ang^3
#
#
#
# Elastic Constant Matrix: (Units=GPa)
#
#
# Indices 1 2 3 4 5 6 
#
# 1 62.9585 22.4764 32.7595 0.0000 -29.1508 0.0000
# 2 22.4764 58.2198 29.2897 0.0000 -16.1194 0.0000
# 3 32.7595 29.2897 106.6828 0.0000 -39.2973 0.0000
# 4 0.0000 0.0000 0.0000 29.6291 0.0000 -2.3143
# 5 -29.1508 -16.1194 -39.2973 0.0000 26.4608 0.0000
# 6 0.0000 0.0000 0.0000 -2.3143 0.0000 21.3466
#
#
#
# Elastic Compliance Matrix: (Units=1/GPa)
#
#
# Indices 1 2 3 4 5 6 
#
# 1 0.035940 -0.004424 0.008324 0.000000 0.049261 0.000000
# 2 -0.004424 0.021462 -0.003341 0.000000 0.003239 0.000000
# 3 0.008324 -0.003341 0.022879 0.000000 0.041113 0.000000
# 4 0.000000 0.000000 0.000000 0.034039 0.000000 0.003690
# 5 0.049261 0.003239 0.041113 0.000000 0.155090 0.000000
# 6 0.000000 0.000000 0.000000 0.003690 0.000000 0.047246
#
#
# Mechanical properties :
#
#
# Convention : Reuss Voigt Hill
#
# Bulk Modulus (GPa) = 12.28512 44.10135 28.19324
# Shear Modulus (GPa) = 14.59128 25.04300 19.81714
#
# Velocity S-wave (km/s) = 2.76896 3.62755 3.22694
# Velocity P-wave (km/s) = 4.08390 6.38115 5.35711
#
# Compressibility (1/GPa) = 0.08139926
#
# Stress axis : x y z
#
# Youngs Moduli (GPa) = 27.82401 46.59483 43.70852
#
# Poissons Ratio (x) = 0.20613 -0.36382
# Poissons Ratio (y) = 0.12309 0.14602
# Poissons Ratio (z) = -0.23160 0.15566
#
# Static dielectric constant tensor:
#      x y z
#    x 3.248220 0.000000 -0.267250 
#    y 0.000000 3.503370 0.000000 
#    z -0.267250 0.000000 4.017830 
# 
# 
# High freq. dielectric constant tensor:
#      x y z
#    x 1.706480 0.000000 -0.016490 
#    y 0.000000 1.748620 0.000000 
#    z -0.016490 0.000000 1.765970 
# 
# From -- ./inp_files/24072.got.cif
#   From: 2010.06.25/outbox.cif.g09.slc.cpg/sg11_13_cif.got.tgz:24072.got - 2010.06.27 23:14:04.
