data_PCOD8071769
_publ_section_title
;
Structure prediction by ZEFSAII (Michael W. Deem and Ramdas Pophale) SiO2 
 PCOD8071769
Probable space group: P 21/M
;
_chemical_formula_sum "Si O2"
_cell_formula_units_Z 28
_cell_length_a 9.526049
_cell_length_b 14.324707
_cell_length_c 12.100651
_cell_angle_alpha 90.000000
_cell_angle_beta 121.733937
_cell_angle_gamma 90.000000
_cell_volume 1404.369754
_symmetry_space_group_name_H-M "P 21/M"
_symmetry_group_IT_number 11
_symmetry_cell_setting 'monoclinic'
loop_
_space_group_symop_operation_xyz
x,y,z
-x,1/2+y,-z
-x,-y,-z
x,1/2-y,z
loop_
_atom_site_type_symbol
_atom_site_label
_atom_site_fract_x
_atom_site_fract_y
_atom_site_fract_z
Si Si1 0.364335 0.358970 0.319174
Si Si2 0.589014 0.537887 0.884299
Si Si3 0.586681 0.352371 0.759142
Si Si4 0.247441 0.482917 0.824621
Si Si5 0.711659 0.355520 0.572192
Si Si6 0.212277 0.145103 0.608423
Si Si7 0.101929 0.037120 0.360796
O O1 0.322548 0.250000 0.311948
O O2 0.367732 0.388426 0.192484
O O3 0.540136 0.384026 0.444188
O O4 0.225039 0.416823 0.324371
O O5 0.629960 0.431583 0.865347
O O6 0.396056 0.546375 0.837643
O O7 0.703434 0.560065 0.036608
O O8 0.615006 0.250000 0.825843
O O9 0.700078 0.363632 0.699318
O O10 0.398554 0.360146 0.638740
O O11 0.207151 0.396485 0.728619
O O12 0.081635 0.544290 0.766097
O O13 0.762580 0.250000 0.558519
O O14 0.849653 0.429425 0.592468
O O15 0.145908 0.250000 0.587167
O O16 0.097721 0.089278 0.476159
#
# Coordination Sequence:
#
# PCOD8071769 Si02
#       7
#     4   4   4   4   4   4   4
#     4  11  22  37  62  91 119 154 196 244 301 353
#     4  10  21  43  60  81 118 164 201 240 285 356
#     4   9  16  32  59  86 111 150 197 235 282 348
#     4  10  24  39  60  83 119 162 203 236 292 350
#     4  10  19  33  58  91 119 148 190 241 299 353
#     4  10  20  36  60  86 117 155 195 237 293 355
#     4  12  21  37  61  92 122 148 191 256 303 343
#
# _framework density 19.93777
#
# number of rings (size 3 to 8) (size 9 to 14) (size 15 to 20)
#    0.000    1.714    2.857    3.000    0.000    1.714 
#    0.000    6.429    0.000    0.857    0.000    0.000 
#    0.000    0.000    0.000    0.000    0.000    0.000 
#
# Total GULP energy -347247.501958 kJ/mol
# GULP energy per Si atom -12401.696498 kJ/mol
# Density = 1.989239 g / cm^3
# Si number density = 19.937770 Si / 1000 Ang^3
#
#
#
# Elastic Constant Matrix: (Units=GPa)
#
#
# Indices 1 2 3 4 5 6 
#
# 1 57.5645 42.3979 64.1078 0.0000 6.1586 0.0000
# 2 42.3979 99.0318 45.9946 0.0000 7.1903 0.0000
# 3 64.1078 45.9946 125.1861 0.0000 -0.8197 0.0000
# 4 0.0000 0.0000 0.0000 14.4859 0.0000 -3.6712
# 5 6.1586 7.1903 -0.8197 0.0000 28.5032 0.0000
# 6 0.0000 0.0000 0.0000 -3.6712 0.0000 15.6945
#
#
#
# Elastic Compliance Matrix: (Units=1/GPa)
#
#
# Indices 1 2 3 4 5 6 
#
# 1 0.051118 -0.010914 -0.022226 0.000000 -0.008931 0.000000
# 2 -0.010914 0.014805 0.000141 0.000000 -0.001373 0.000000
# 3 -0.022226 0.000141 0.019353 0.000000 0.005324 0.000000
# 4 0.000000 0.000000 0.000000 0.073383 0.000000 0.017165
# 5 -0.008931 -0.001373 0.005324 0.000000 0.037513 0.000000
# 6 0.000000 0.000000 0.000000 0.017165 0.000000 0.067732
#
#
# Mechanical properties :
#
#
# Convention : Reuss Voigt Hill
#
# Bulk Modulus (GPa) = 51.87426 65.19811 58.53619
# Shear Modulus (GPa) = 14.86641 20.35553 17.61097
#
# Velocity S-wave (km/s) = 2.73360 3.19870 2.97526
# Velocity P-wave (km/s) = 6.00317 6.81279 6.42075
#
# Compressibility (1/GPa) = 0.01927738
#
# Stress axis : x y z
#
# Youngs Moduli (GPa) = 19.56242 67.54690 51.67033
#
# Poissons Ratio (x) = 0.73718 1.14845
# Poissons Ratio (y) = 0.21350 -0.00726
# Poissons Ratio (z) = 0.43480 -0.00949
#
# Static dielectric constant tensor:
#      x y z
#    x 3.568960 0.000000 -0.036890 
#    y 0.000000 3.691600 0.000000 
#    z -0.036890 0.000000 3.474410 
# 
# 
# High freq. dielectric constant tensor:
#      x y z
#    x 1.774840 0.000000 -0.011390 
#    y 0.000000 1.776540 0.000000 
#    z -0.011390 0.000000 1.763810 
# 
# From -- ./inp_files/17941.got.cif
#   From: 2010.06.25/outbox.cif.g09.slc.cpg/sg11_9_cif.got.tgz:17941.got - 2010.06.27 23:14:04.
