data_PCOD8071432
_publ_section_title
;
Structure prediction by ZEFSAII (Michael W. Deem and Ramdas Pophale) SiO2 
 PCOD8071432
Probable space group: P 21/M
;
_chemical_formula_sum "Si O2"
_cell_formula_units_Z 32
_cell_length_a 20.328331
_cell_length_b 8.521649
_cell_length_c 12.247612
_cell_angle_alpha 90.000000
_cell_angle_beta 124.929328
_cell_angle_gamma 90.000000
_cell_volume 1739.465834
_symmetry_space_group_name_H-M "P 21/M"
_symmetry_group_IT_number 11
_symmetry_cell_setting 'monoclinic'
loop_
_space_group_symop_operation_xyz
x,y,z
-x,1/2+y,-z
-x,-y,-z
x,1/2-y,z
loop_
_atom_site_type_symbol
_atom_site_label
_atom_site_fract_x
_atom_site_fract_y
_atom_site_fract_z
Si Si1 0.706100 0.563978 0.926441
Si Si2 0.608750 0.435243 0.180098
Si Si3 0.175189 0.434019 0.138581
Si Si4 0.786926 0.433647 0.392247
Si Si5 0.442302 0.434722 0.095844
Si Si6 0.880985 0.067656 0.697206
Si Si7 0.840178 0.934191 0.219476
Si Si8 0.053924 0.931889 0.854443
O O1 0.707023 0.750000 0.927992
O O2 0.743693 0.507861 0.847117
O O3 0.615137 0.498876 0.860808
O O4 0.761859 0.505700 0.079535
O O5 0.602659 0.250000 0.154985
O O6 0.693489 0.484522 0.312746
O O7 0.534963 0.493285 0.188826
O O8 0.599711 0.519508 0.056619
O O9 0.177492 0.250000 0.168061
O O10 0.171368 0.533398 0.245261
O O11 0.099029 0.466055 0.988824
O O12 0.793969 0.250000 0.375803
O O13 0.828074 0.483480 0.543687
O O14 0.832399 0.522204 0.338465
O O15 0.441292 0.250000 0.103369
O O16 0.904245 0.250000 0.714053
O O17 0.959878 0.962571 0.775270
O O18 0.853581 0.750000 0.220178
O O19 0.917362 0.019248 0.239585
O O20 0.071206 0.750000 0.892839
#
# Coordination Sequence:
#
# PCOD8071432 Si02
#       8
#     4   4   4   4   4   4   4   4
#     4   8  15  28  49  76 102 129 161 203 250 299
#     4   9  17  28  46  74 105 134 166 205 248 298
#     4  10  20  36  56  78 102 129 170 216 259 302
#     4  10  21  35  50  72 105 141 174 211 253 305
#     4   9  15  27  48  75 104 133 164 201 252 303
#     4  11  23  38  53  71  99 137 178 214 256 305
#     4  10  19  33  53  77 105 136 170 206 253 307
#     4  11  22  37  57  79 102 128 165 213 264 307
#
# _framework density 18.396453000000001
#
# number of rings (size 3 to 8) (size 9 to 14) (size 15 to 20)
#    0.000    2.250    1.250    3.375    0.000    1.500 
#    0.000    0.625    0.000    0.750    0.000    0.000 
#    0.000    0.000    0.000    0.000    0.000    0.625 
#
# Total GULP energy -396657.451892 kJ/mol
# GULP energy per Si atom -12395.545372 kJ/mol
# Density = 1.835458 g / cm^3
# Si number density = 18.396453 Si / 1000 Ang^3
#
#
#
# Elastic Constant Matrix: (Units=GPa)
#
#
# Indices 1 2 3 4 5 6 
#
# 1 145.8853 14.0831 36.7155 0.0000 -15.7905 0.0000
# 2 14.0831 32.5348 5.9145 0.0000 -2.6869 0.0000
# 3 36.7155 5.9145 54.3416 0.0000 -19.7252 0.0000
# 4 0.0000 0.0000 0.0000 18.9702 0.0000 -5.8814
# 5 -15.7905 -2.6869 -19.7252 0.0000 19.1063 0.0000
# 6 0.0000 0.0000 0.0000 -5.8814 0.0000 24.2573
#
#
#
# Elastic Compliance Matrix: (Units=1/GPa)
#
#
# Indices 1 2 3 4 5 6 
#
# 1 0.008514 -0.002665 -0.004869 0.000000 0.001635 0.000000
# 2 -0.002665 0.032215 -0.001376 0.000000 0.000907 0.000000
# 3 -0.004869 -0.001376 0.032484 0.000000 0.029319 0.000000
# 4 0.000000 0.000000 0.000000 0.056999 0.000000 0.013820
# 5 0.001635 0.000907 0.029319 0.000000 0.084086 0.000000
# 6 0.000000 0.000000 0.000000 0.013820 0.000000 0.044575
#
#
# Mechanical properties :
#
#
# Convention : Reuss Voigt Hill
#
# Bulk Modulus (GPa) = 18.05322 38.46534 28.25928
# Shear Modulus (GPa) = 16.94001 24.20334 20.57167
#
# Velocity S-wave (km/s) = 3.03781 3.63113 3.34764
# Velocity P-wave (km/s) = 4.70522 6.20763 5.50789
#
# Compressibility (1/GPa) = 0.05539179
#
# Stress axis : x y z
#
# Youngs Moduli (GPa) = 117.44801 31.04126 30.78454
#
# Poissons Ratio (x) = 0.08274 0.14989
# Poissons Ratio (y) = 0.31305 0.04237
# Poissons Ratio (z) = 0.57186 0.04272
#
# Static dielectric constant tensor:
#      x y z
#    x -0.410980 0.000000 -0.179850 
#    y 0.000000 3.235670 0.000000 
#    z -0.179850 0.000000 3.111180 
# 
# 
# High freq. dielectric constant tensor:
#      x y z
#    x 1.735460 0.000000 0.001870 
#    y 0.000000 1.704580 0.000000 
#    z 0.001870 0.000000 1.671200 
# 
# From -- ./inp_files/42935.got.cif
#   From: 2010.06.25/outbox.cif.g09.slc.cpg/sg11_22_cif.got.tgz:42935.got - 2010.06.27 23:14:04.
