data_PCOD8071328
_publ_section_title
;
Structure prediction by ZEFSAII (Michael W. Deem and Ramdas Pophale) SiO2 
 PCOD8071328
Probable space group: P 21/M
;
_chemical_formula_sum "Si O2"
_cell_formula_units_Z 32
_cell_length_a 25.860775
_cell_length_b 8.541754
_cell_length_c 14.610384
_cell_angle_alpha 90.000000
_cell_angle_beta 32.115327
_cell_angle_gamma 90.000000
_cell_volume 1715.756929
_symmetry_space_group_name_H-M "P 21/M"
_symmetry_group_IT_number 11
_symmetry_cell_setting 'monoclinic'
loop_
_space_group_symop_operation_xyz
x,y,z
-x,1/2+y,-z
-x,-y,-z
x,1/2-y,z
loop_
_atom_site_type_symbol
_atom_site_label
_atom_site_fract_x
_atom_site_fract_y
_atom_site_fract_z
Si Si1 0.349528 0.932398 0.073129
Si Si2 0.101239 0.433761 0.747886
Si Si3 0.104451 0.068658 0.952346
Si Si4 0.559135 0.067144 0.769378
Si Si5 0.728086 0.433666 0.181686
Si Si6 0.439702 0.934530 0.437515
Si Si7 0.657799 0.565455 0.107132
Si Si8 0.277067 0.432329 0.356219
O O1 0.373859 0.750000 0.036580
O O2 0.271259 0.974226 0.269095
O O3 0.445920 0.030409 0.952378
O O4 0.306204 0.983012 0.039963
O O5 0.079633 0.250000 0.771465
O O6 0.128196 0.476762 0.811910
O O7 0.189194 0.490253 0.552099
O O8 0.006777 0.528632 0.857556
O O9 0.124503 0.250000 0.941487
O O10 0.171628 0.966272 0.917448
O O11 0.576914 0.250000 0.761470
O O12 0.590822 0.017446 0.619408
O O13 0.621123 0.966099 0.746792
O O14 0.715750 0.250000 0.185183
O O15 0.638320 0.506608 0.375044
O O16 0.729681 0.517668 0.080937
O O17 0.438019 0.750000 0.449264
O O18 0.548683 0.995632 0.295283
O O19 0.658959 0.750000 0.088905
O O20 0.268020 0.250000 0.349003
#
# Coordination Sequence:
#
# PCOD8071328 Si02
#       8
#     4   4   4   4   4   4   4   4
#     4  11  22  36  52  73 102 138 178 217 259 304
#     4   9  20  37  56  79 107 137 169 208 256 309
#     4  10  20  35  55  80 108 137 169 208 255 305
#     4  10  19  33  51  75 107 141 176 213 255 302
#     4  11  20  32  52  78 106 138 175 212 255 306
#     4   8  17  31  49  74 105 139 173 211 253 300
#     4  10  20  36  53  73 103 138 177 218 259 301
#     4  11  21  34  53  77 104 136 174 214 258 307
#
# _framework density 18.650659999999998
#
# number of rings (size 3 to 8) (size 9 to 14) (size 15 to 20)
#    0.000    2.000    0.000    5.250    0.000    1.500 
#    0.000    6.250    0.000    0.750    0.000    0.000 
#    0.000    0.000    0.000    0.000    0.000    0.000 
#
# Total GULP energy -396901.732436 kJ/mol
# GULP energy per Si atom -12403.179139 kJ/mol
# Density = 1.860821 g / cm^3
# Si number density = 18.650660 Si / 1000 Ang^3
#
#
#
# Elastic Constant Matrix: (Units=GPa)
#
#
# Indices 1 2 3 4 5 6 
#
# 1 116.9318 23.7624 49.4945 0.0000 11.9437 0.0000
# 2 23.7624 52.0080 18.0098 0.0000 5.6396 0.0000
# 3 49.4945 18.0098 83.4853 0.0000 17.4563 0.0000
# 4 0.0000 0.0000 0.0000 24.3662 0.0000 -0.0929
# 5 11.9437 5.6396 17.4563 0.0000 24.2602 0.0000
# 6 0.0000 0.0000 0.0000 -0.0929 0.0000 29.8247
#
#
#
# Elastic Compliance Matrix: (Units=1/GPa)
#
#
# Indices 1 2 3 4 5 6 
#
# 1 0.011909 -0.003214 -0.006235 0.000000 -0.000629 0.000000
# 2 -0.003214 0.021721 -0.002420 0.000000 -0.001726 0.000000
# 3 -0.006235 -0.002420 0.018171 0.000000 -0.009443 0.000000
# 4 0.000000 0.000000 0.000000 0.041041 0.000000 0.000128
# 5 -0.000629 -0.001726 -0.009443 0.000000 0.048725 0.000000
# 6 0.000000 0.000000 0.000000 0.000128 0.000000 0.033530
#
#
# Mechanical properties :
#
#
# Convention : Reuss Voigt Hill
#
# Bulk Modulus (GPa) = 35.63289 48.32873 41.98081
# Shear Modulus (GPa) = 24.01671 26.43411 25.22541
#
# Velocity S-wave (km/s) = 3.59237 3.76883 3.68165
# Velocity P-wave (km/s) = 6.02940 6.70131 6.37422
#
# Compressibility (1/GPa) = 0.02806396
#
# Stress axis : x y z
#
# Youngs Moduli (GPa) = 83.97345 46.03800 55.03235
#
# Poissons Ratio (x) = 0.14795 0.34314
# Poissons Ratio (y) = 0.26986 0.13316
# Poissons Ratio (z) = 0.52359 0.11140
#
# Static dielectric constant tensor:
#      x y z
#    x 3.408470 0.000000 0.227820 
#    y 0.000000 3.285080 0.000000 
#    z 0.227820 0.000000 3.455720 
# 
# 
# High freq. dielectric constant tensor:
#      x y z
#    x 1.720390 0.000000 0.015000 
#    y 0.000000 1.723140 0.000000 
#    z 0.015000 0.000000 1.704100 
# 
# From -- ./inp_files/55523.got.cif
#   From: 2010.06.25/outbox.cif.g09.slc.cpg/sg11_28_cif.got.tgz:55523.got - 2010.06.27 23:14:04.
