data_PCOD8071298
_publ_section_title
;
Structure prediction by ZEFSAII (Michael W. Deem and Ramdas Pophale) SiO2 
 PCOD8071298
Probable space group: P 21/M
;
_chemical_formula_sum "Si O2"
_cell_formula_units_Z 32
_cell_length_a 12.636586
_cell_length_b 8.499671
_cell_length_c 23.384958
_cell_angle_alpha 90.000000
_cell_angle_beta 134.730304
_cell_angle_gamma 90.000000
_cell_volume 1784.383247
_symmetry_space_group_name_H-M "P 21/M"
_symmetry_group_IT_number 11
_symmetry_cell_setting 'monoclinic'
loop_
_space_group_symop_operation_xyz
x,y,z
-x,1/2+y,-z
-x,-y,-z
x,1/2-y,z
loop_
_atom_site_type_symbol
_atom_site_label
_atom_site_fract_x
_atom_site_fract_y
_atom_site_fract_z
Si Si1 0.557282 0.434630 0.787176
Si Si2 0.172505 0.062868 0.314790
Si Si3 0.560811 0.063417 0.660056
Si Si4 0.702410 0.064955 0.007440
Si Si5 0.581462 0.065416 0.156827
Si Si6 0.158363 0.565175 0.821895
Si Si7 0.630253 0.565279 0.512178
Si Si8 0.840781 0.933498 0.952739
O O1 0.527820 0.250000 0.778854
O O2 0.538227 0.501282 0.715655
O O3 0.439058 0.517201 0.784772
O O4 0.724174 0.472025 0.869828
O O5 0.171220 0.250000 0.309102
O O6 0.218494 0.010564 0.397837
O O7 0.007524 0.989900 0.242101
O O8 0.288028 0.001588 0.311140
O O9 0.578653 0.250000 0.668119
O O10 0.409419 0.010382 0.567815
O O11 0.729529 0.250000 0.008747
O O12 0.531755 0.025345 0.928119
O O13 0.809482 0.965503 0.007087
O O14 0.745809 0.008076 0.087329
O O15 0.549975 0.250000 0.138087
O O16 0.748283 0.020447 0.199668
O O17 0.136941 0.750000 0.817150
O O18 0.500000 0.500000 0.500000
O O19 0.623670 0.750000 0.510960
O O20 0.829573 0.750000 0.934252
O O21 0.000000 0.000000 0.000000
#
# Coordination Sequence:
#
# PCOD8071298 Si02
#       8
#     4   4   4   4   4   4   4   4
#     4  10  20  34  50  70  96 126 164 202 239 283
#     4   9  17  30  49  74  99 126 157 191 240 294
#     4   9  18  31  48  73 101 126 155 196 238 286
#     4  10  19  33  50  70  95 125 162 202 242 284
#     4  10  19  34  51  68  93 126 166 205 242 282
#     4   9  19  32  49  73  98 123 158 205 243 283
#     4   8  14  27  47  69  96 126 154 187 234 288
#     4  11  22  35  49  68  97 130 162 196 240 286
#
# _framework density 17.933368000000002
#
# number of rings (size 3 to 8) (size 9 to 14) (size 15 to 20)
#    0.000    2.500    0.000    4.125    1.750    1.000 
#    0.000    3.750    0.000    0.750    0.000    0.000 
#    0.000    0.000    0.000    0.000    0.000    1.000 
#
# Total GULP energy -396452.864419 kJ/mol
# GULP energy per Si atom -12389.152013 kJ/mol
# Density = 1.789255 g / cm^3
# Si number density = 17.933368 Si / 1000 Ang^3
#
#
#
# Elastic Constant Matrix: (Units=GPa)
#
#
# Indices 1 2 3 4 5 6 
#
# 1 106.7785 13.7015 77.1476 0.0000 -11.3834 0.0000
# 2 13.7015 24.9085 13.5848 0.0000 -0.3251 0.0000
# 3 77.1476 13.5848 120.7835 0.0000 -19.4483 0.0000
# 4 0.0000 0.0000 0.0000 16.2656 0.0000 -0.0035
# 5 -11.3834 -0.3251 -19.4483 0.0000 26.2265 0.0000
# 6 0.0000 0.0000 0.0000 -0.0035 0.0000 22.5528
#
#
#
# Elastic Compliance Matrix: (Units=1/GPa)
#
#
# Indices 1 2 3 4 5 6 
#
# 1 0.017729 -0.003771 -0.010979 0.000000 -0.000493 0.000000
# 2 -0.003771 0.043849 -0.003065 0.000000 -0.003366 0.000000
# 3 -0.010979 -0.003065 0.016879 0.000000 0.007713 0.000000
# 4 0.000000 0.000000 0.000000 0.061479 0.000000 0.000010
# 5 -0.000493 -0.003366 0.007713 0.000000 0.043593 0.000000
# 6 0.000000 0.000000 0.000000 0.000010 0.000000 0.044340
#
#
# Mechanical properties :
#
#
# Convention : Reuss Voigt Hill
#
# Bulk Modulus (GPa) = 23.35028 51.25979 37.30504
# Shear Modulus (GPa) = 18.00011 22.87807 20.43909
#
# Velocity S-wave (km/s) = 3.17159 3.57561 3.37964
# Velocity P-wave (km/s) = 5.14401 6.75960 6.00637
#
# Compressibility (1/GPa) = 0.04282603
#
# Stress axis : x y z
#
# Youngs Moduli (GPa) = 56.40467 22.80551 59.24600
#
# Poissons Ratio (x) = 0.08599 0.65048
# Poissons Ratio (y) = 0.21268 0.18161
# Poissons Ratio (z) = 0.61929 0.06991
#
# Static dielectric constant tensor:
#      x y z
#    x 3.372370 0.000000 -0.147420 
#    y 0.000000 3.269550 0.000000 
#    z -0.147420 0.000000 4.052140 
# 
# 
# High freq. dielectric constant tensor:
#      x y z
#    x 1.679460 0.000000 -0.009340 
#    y 0.000000 1.686590 0.000000 
#    z -0.009340 0.000000 1.694170 
# 
# From -- ./inp_files/68322.got.cif
#   From: 2010.06.25/outbox.cif.g09.slc.cpg/sg11_35_cif.got.tgz:68322.got - 2010.06.27 23:14:04.
