data_PCOD8071719
_publ_section_title
;
Structure prediction by ZEFSAII (Michael W. Deem and Ramdas Pophale) SiO2 
 PCOD8071719
Probable space group: P 21/M
;
_chemical_formula_sum "Si O2"
_cell_formula_units_Z 28
_cell_length_a 14.778054
_cell_length_b 17.391290
_cell_length_c 7.995543
_cell_angle_alpha 90.000000
_cell_angle_beta 45.144976
_cell_angle_gamma 90.000000
_cell_volume 1456.726882
_symmetry_space_group_name_H-M "P 21/M"
_symmetry_group_IT_number 11
_symmetry_cell_setting 'monoclinic'
loop_
_space_group_symop_operation_xyz
x,y,z
-x,1/2+y,-z
-x,-y,-z
x,1/2-y,z
loop_
_atom_site_type_symbol
_atom_site_label
_atom_site_fract_x
_atom_site_fract_y
_atom_site_fract_z
Si Si1 0.736533 0.496177 0.593290
Si Si2 0.902701 0.836462 0.870843
Si Si3 0.222103 0.598796 0.965494
Si Si4 0.306055 0.061290 0.000713
Si Si5 0.433028 0.941269 0.467030
Si Si6 0.819161 0.163027 0.623283
Si Si7 0.038915 0.077847 0.868600
O O1 0.673438 0.531412 0.838955
O O2 0.640587 0.497564 0.564516
O O3 0.764790 0.404667 0.577709
O O4 0.854482 0.553830 0.405212
O O5 0.861207 0.750000 0.951732
O O6 0.796814 0.872994 0.889806
O O7 0.029775 0.844420 0.595077
O O8 0.910876 0.867900 0.049367
O O9 0.337376 0.619604 0.684526
O O10 0.249064 0.509010 0.965081
O O11 0.225657 0.650086 0.127192
O O12 0.084419 0.614316 0.061518
O O13 0.443898 0.099185 0.776986
O O14 0.500000 0.000000 0.500000
O O15 0.774670 0.250000 0.628371
O O16 0.000000 0.000000 0.000000
#
# Coordination Sequence:
#
# PCOD8071719 Si02
#       7
#     4   4   4   4   4   4   4
#     4  11  20  35  60  84 108 146 189 233 281 331
#     4  11  22  37  55  81 115 148 183 232 286 337
#     4  10  19  33  57  82 110 144 183 227 277 327
#     4  10  20  35  55  79 108 148 186 223 268 332
#     4  10  19  34  56  83 109 138 187 234 267 323
#     4  10  21  36  55  83 113 140 180 234 286 333
#     4  12  18  33  58  85 113 145 189 233 284 337
#
# _framework density 19.221174000000001
#
# number of rings (size 3 to 8) (size 9 to 14) (size 15 to 20)
#    0.000    1.429    4.286    2.143    0.000    2.857 
#    0.000    2.857    0.000    0.000    0.000    0.000 
#    0.000    0.000    0.000    0.000    0.000    0.000 
#
# Total GULP energy -346877.791816 kJ/mol
# GULP energy per Si atom -12388.492565 kJ/mol
# Density = 1.917743 g / cm^3
# Si number density = 19.221174 Si / 1000 Ang^3
#
#
#
# Elastic Constant Matrix: (Units=GPa)
#
#
# Indices 1 2 3 4 5 6 
#
# 1 109.4231 29.5305 39.9243 0.0000 -2.1168 0.0000
# 2 29.5305 95.2603 38.0499 0.0000 0.6386 0.0000
# 3 39.9243 38.0499 125.8792 0.0000 -2.6451 0.0000
# 4 0.0000 0.0000 0.0000 15.9285 0.0000 6.0729
# 5 -2.1168 0.6386 -2.6451 0.0000 28.2167 0.0000
# 6 0.0000 0.0000 0.0000 6.0729 0.0000 22.2049
#
#
#
# Elastic Compliance Matrix: (Units=1/GPa)
#
#
# Indices 1 2 3 4 5 6 
#
# 1 0.010749 -0.002251 -0.002716 0.000000 0.000603 0.000000
# 2 -0.002251 0.012421 -0.003056 0.000000 -0.000736 0.000000
# 3 -0.002716 -0.003056 0.009746 0.000000 0.000779 0.000000
# 4 0.000000 0.000000 0.000000 0.070089 0.000000 -0.019169
# 5 0.000603 -0.000736 0.000779 0.000000 0.035575 0.000000
# 6 0.000000 0.000000 0.000000 -0.019169 0.000000 0.050278
#
#
# Mechanical properties :
#
#
# Convention : Reuss Voigt Hill
#
# Bulk Modulus (GPa) = 59.28015 60.61910 59.94963
# Shear Modulus (GPa) = 23.74994 28.14056 25.94525
#
# Velocity S-wave (km/s) = 3.51894 3.83043 3.67798
# Velocity P-wave (km/s) = 6.88612 7.15325 7.02096
#
# Compressibility (1/GPa) = 0.01686905
#
# Stress axis : x y z
#
# Youngs Moduli (GPa) = 93.03142 80.50845 102.60989
#
# Poissons Ratio (x) = 0.18125 0.27869
# Poissons Ratio (y) = 0.20945 0.31357
# Poissons Ratio (z) = 0.25267 0.24603
#
# Static dielectric constant tensor:
#      x y z
#    x 3.324480 0.000000 -0.128470 
#    y 0.000000 3.185040 0.000000 
#    z -0.128470 0.000000 4.211520 
# 
# 
# High freq. dielectric constant tensor:
#      x y z
#    x 1.751010 0.000000 0.006820 
#    y 0.000000 1.710590 0.000000 
#    z 0.006820 0.000000 1.764960 
# 
# From -- ./inp_files/22742.got.cif
#   From: 2010.06.25/outbox.cif.g09.slc.cpg/sg11_12_cif.got.tgz:22742.got - 2010.06.27 23:14:04.
