data_PCOD8071580
_publ_section_title
;
Structure prediction by ZEFSAII (Michael W. Deem and Ramdas Pophale) SiO2 
 PCOD8071580
Probable space group: P 21/M
;
_chemical_formula_sum "Si O2"
_cell_formula_units_Z 32
_cell_length_a 24.955507
_cell_length_b 9.223697
_cell_length_c 19.951303
_cell_angle_alpha 90.000000
_cell_angle_beta 156.765962
_cell_angle_gamma 90.000000
_cell_volume 1811.658556
_symmetry_space_group_name_H-M "P 21/M"
_symmetry_group_IT_number 11
_symmetry_cell_setting 'monoclinic'
loop_
_space_group_symop_operation_xyz
x,y,z
-x,1/2+y,-z
-x,-y,-z
x,1/2-y,z
loop_
_atom_site_type_symbol
_atom_site_label
_atom_site_fract_x
_atom_site_fract_y
_atom_site_fract_z
Si Si1 0.170854 0.417811 0.751649
Si Si2 0.116793 0.415237 0.055581
Si Si3 0.864577 0.916506 0.074025
Si Si4 0.647341 0.577523 0.436734
Si Si5 0.190759 0.581218 0.266937
Si Si6 0.905480 0.917835 0.479577
Si Si7 0.371356 0.081598 0.095186
Si Si8 0.864171 0.581160 0.578411
O O1 0.134846 0.250000 0.717735
O O2 0.184595 0.463410 0.688913
O O3 0.047639 0.499860 0.645047
O O4 0.309312 0.452286 0.950297
O O5 0.140576 0.250000 0.106747
O O6 0.193653 0.522793 0.194231
O O7 0.176709 0.442993 0.050736
O O8 0.955979 0.448713 0.869103
O O9 0.904274 0.750000 0.131976
O O10 0.737272 0.961429 0.972919
O O11 0.994279 0.009264 0.241387
O O12 0.646653 0.750000 0.443618
O O13 0.697229 0.506081 0.562868
O O14 0.497854 0.522792 0.248928
O O15 0.743654 0.523049 0.486853
O O16 0.229099 0.750000 0.310770
O O17 0.943117 0.750000 0.518640
O O18 0.824602 0.952545 0.455286
O O19 0.414211 0.250000 0.150959
O O20 0.884690 0.750000 0.614576
#
# Coordination Sequence:
#
# PCOD8071580 Si02
#       8
#     4   4   4   4   4   4   4   4
#     4   9  17  31  52  77 106 138 173 215 264 314
#     4   9  18  32  53  81 109 135 167 216 267 313
#     4  10  19  34  56  81 107 136 176 221 262 310
#     4  11  23  37  53  75 108 146 180 217 263 316
#     4  10  19  33  55  80 107 138 173 216 264 315
#     4   9  17  30  51  79 107 135 171 218 266 311
#     4  10  21  36  54  77 107 142 179 218 263 315
#     4  10  20  33  52  79 108 138 176 221 264 310
#
# _framework density 17.663374000000001
#
# number of rings (size 3 to 8) (size 9 to 14) (size 15 to 20)
#    0.000    2.250    2.500    0.750    0.000    2.500 
#    0.000    1.250    0.000    0.000    0.000    0.000 
#    0.000    0.000    0.000    0.000    0.000    0.000 
#
# Total GULP energy -396784.563029 kJ/mol
# GULP energy per Si atom -12399.517595 kJ/mol
# Density = 1.762317 g / cm^3
# Si number density = 17.663374 Si / 1000 Ang^3
#
#
#
# Elastic Constant Matrix: (Units=GPa)
#
#
# Indices 1 2 3 4 5 6 
#
# 1 104.6996 37.5311 55.0373 0.0000 -7.5303 0.0000
# 2 37.5311 59.6598 46.7051 0.0000 -4.7780 0.0000
# 3 55.0373 46.7051 105.5234 0.0000 -8.5146 0.0000
# 4 0.0000 0.0000 0.0000 31.8854 0.0000 -0.3262
# 5 -7.5303 -4.7780 -8.5146 0.0000 22.8115 0.0000
# 6 0.0000 0.0000 0.0000 -0.3262 0.0000 21.2334
#
#
#
# Elastic Compliance Matrix: (Units=1/GPa)
#
#
# Indices 1 2 3 4 5 6 
#
# 1 0.014044 -0.004699 -0.005104 0.000000 0.001747 0.000000
# 2 -0.004699 0.027252 -0.009563 0.000000 0.000587 0.000000
# 3 -0.005104 -0.009563 0.016573 0.000000 0.002498 0.000000
# 4 0.000000 0.000000 0.000000 0.031367 0.000000 0.000482
# 5 0.001747 0.000587 0.002498 0.000000 0.045470 0.000000
# 6 0.000000 0.000000 0.000000 0.000482 0.000000 0.047103
#
#
# Mechanical properties :
#
#
# Convention : Reuss Voigt Hill
#
# Bulk Modulus (GPa) = 52.25904 60.93665 56.59784
# Shear Modulus (GPa) = 22.03405 23.89333 22.96369
#
# Velocity S-wave (km/s) = 3.53575 3.68190 3.60957
# Velocity P-wave (km/s) = 6.80581 7.25596 7.03449
#
# Compressibility (1/GPa) = 0.01913544
#
# Stress axis : x y z
#
# Youngs Moduli (GPa) = 71.20257 36.69483 60.33891
#
# Poissons Ratio (x) = 0.17244 0.30798
# Poissons Ratio (y) = 0.33461 0.57704
# Poissons Ratio (z) = 0.36343 0.35093
#
# Static dielectric constant tensor:
#      x y z
#    x 3.630650 0.000000 -0.269090 
#    y 0.000000 3.328280 0.000000 
#    z -0.269090 0.000000 3.105640 
# 
# 
# High freq. dielectric constant tensor:
#      x y z
#    x 1.688570 0.000000 -0.023510 
#    y 0.000000 1.684770 0.000000 
#    z -0.023510 0.000000 1.662460 
# 
# From -- ./inp_files/67292.got.cif
#   From: 2010.06.25/outbox.cif.g09.slc.cpg/sg11_34_cif.got.tgz:67292.got - 2010.06.27 23:14:04.
