data_PCOD8071386
_publ_section_title
;
Structure prediction by ZEFSAII (Michael W. Deem and Ramdas Pophale) SiO2 
 PCOD8071386
Probable space group: P 21/M
;
_chemical_formula_sum "Si O2"
_cell_formula_units_Z 32
_cell_length_a 12.589341
_cell_length_b 28.574614
_cell_length_c 14.413658
_cell_angle_alpha 90.000000
_cell_angle_beta 159.861076
_cell_angle_gamma 90.000000
_cell_volume 1785.219272
_symmetry_space_group_name_H-M "P 21/M"
_symmetry_group_IT_number 11
_symmetry_cell_setting 'monoclinic'
loop_
_space_group_symop_operation_xyz
x,y,z
-x,1/2+y,-z
-x,-y,-z
x,1/2-y,z
loop_
_atom_site_type_symbol
_atom_site_label
_atom_site_fract_x
_atom_site_fract_y
_atom_site_fract_z
Si Si1 0.862012 0.098997 0.890978
Si Si2 0.268846 0.803215 0.142237
Si Si3 0.267789 0.613098 0.889091
Si Si4 0.320231 0.967392 0.615418
Si Si5 0.497020 0.550153 0.549954
Si Si6 0.973970 0.801567 0.703441
Si Si7 0.621052 0.952703 0.050155
Si Si8 0.601013 0.573821 0.336521
O O1 0.860915 0.156002 0.895428
O O2 0.780207 0.082018 0.719491
O O3 0.581563 0.075585 0.717413
O O4 0.176526 0.077018 0.189566
O O5 0.263251 0.750000 0.181513
O O6 0.617192 0.817551 0.398970
O O7 0.047302 0.804200 0.872418
O O8 0.464551 0.593034 0.966285
O O9 0.231296 0.669315 0.856473
O O10 0.915279 0.600149 0.599962
O O11 0.389649 0.596952 0.086877
O O12 0.433683 0.954291 0.606886
O O13 0.554268 0.949369 0.885956
O O14 0.307444 0.022295 0.617811
O O15 0.984021 0.947043 0.362208
O O16 0.500000 0.500000 0.500000
O O17 0.011702 0.750000 0.693920
O O18 0.500000 0.000000 0.000000
#
# Coordination Sequence:
#
# PCOD8071386 Si02
#       8
#     4   4   4   4   4   4   4   4
#     4  12  22  37  56  83 111 153 182 221 275 337
#     4  10  20  34  56  83 113 142 176 224 279 336
#     4  12  21  34  53  84 105 151 175 216 272 332
#     4  12  24  39  50  79 110 145 186 237 254 312
#     4  12  26  37  56  79 111 153 193 223 273 325
#     4  10  19  33  52  81 114 140 171 218 275 336
#     4  12  23  36  56  76 108 144 188 220 273 316
#     4  12  21  32  58  77 115 139 189 219 261 320
#
# _framework density 17.924969000000001
#
# number of rings (size 3 to 8) (size 9 to 14) (size 15 to 20)
#    0.000    0.500    6.250    3.750    1.750    0.000 
#    0.000    0.000    0.000    0.000    0.000    5.250 
#    0.000    0.000    0.000    0.000    0.000    0.000 
#
# Total GULP energy -396638.386473 kJ/mol
# GULP energy per Si atom -12394.949577 kJ/mol
# Density = 1.788417 g / cm^3
# Si number density = 17.924969 Si / 1000 Ang^3
#
#
#
# Elastic Constant Matrix: (Units=GPa)
#
#
# Indices 1 2 3 4 5 6 
#
# 1 77.2176 25.4775 12.2545 0.0000 -6.8955 0.0000
# 2 25.4775 119.5506 30.2099 0.0000 7.4135 0.0000
# 3 12.2545 30.2099 108.0714 0.0000 -6.5729 0.0000
# 4 0.0000 0.0000 0.0000 30.1924 0.0000 5.5424
# 5 -6.8955 7.4135 -6.5729 0.0000 32.4363 0.0000
# 6 0.0000 0.0000 0.0000 5.5424 0.0000 26.5007
#
#
#
# Elastic Compliance Matrix: (Units=1/GPa)
#
#
# Indices 1 2 3 4 5 6 
#
# 1 0.014407 -0.003166 -0.000525 0.000000 0.003680 0.000000
# 2 -0.003166 0.009918 -0.002625 0.000000 -0.003472 0.000000
# 3 -0.000525 -0.002625 0.010202 0.000000 0.002556 0.000000
# 4 0.000000 0.000000 0.000000 0.034443 0.000000 -0.007204
# 5 0.003680 -0.003472 0.002556 0.000000 0.032923 0.000000
# 6 0.000000 0.000000 0.000000 -0.007204 0.000000 0.039241
#
#
# Mechanical properties :
#
#
# Convention : Reuss Voigt Hill
#
# Bulk Modulus (GPa) = 45.67051 48.96927 47.31989
# Shear Modulus (GPa) = 31.04365 33.61906 32.33136
#
# Velocity S-wave (km/s) = 4.16608 4.33545 4.25161
# Velocity P-wave (km/s) = 6.97680 7.24154 7.11040
#
# Compressibility (1/GPa) = 0.02189597
#
# Stress axis : x y z
#
# Youngs Moduli (GPa) = 69.41126 100.82853 98.02246
#
# Poissons Ratio (x) = 0.31921 0.05145
# Poissons Ratio (y) = 0.21974 0.25727
# Poissons Ratio (z) = 0.03643 0.26463
#
# Static dielectric constant tensor:
#      x y z
#    x 2.839290 0.000000 -0.149220 
#    y 0.000000 3.539290 0.000000 
#    z -0.149220 0.000000 3.570770 
# 
# 
# High freq. dielectric constant tensor:
#      x y z
#    x 1.665100 0.000000 -0.020700 
#    y 0.000000 1.689920 0.000000 
#    z -0.020700 0.000000 1.718490 
# 
# From -- ./inp_files/50860.got.cif
#   From: 2010.06.25/outbox.cif.g09.slc.cpg/sg11_26_cif.got.tgz:50860.got - 2010.06.27 23:14:04.
