data_PCOD8071567
_publ_section_title
;
Structure prediction by ZEFSAII (Michael W. Deem and Ramdas Pophale) SiO2 
 PCOD8071567
Probable space group: P 21/M
;
_chemical_formula_sum "Si O2"
_cell_formula_units_Z 32
_cell_length_a 13.858502
_cell_length_b 15.686130
_cell_length_c 8.905770
_cell_angle_alpha 90.000000
_cell_angle_beta 55.161162
_cell_angle_gamma 90.000000
_cell_volume 1588.989035
_symmetry_space_group_name_H-M "P 21/M"
_symmetry_group_IT_number 11
_symmetry_cell_setting 'monoclinic'
loop_
_space_group_symop_operation_xyz
x,y,z
-x,1/2+y,-z
-x,-y,-z
x,1/2-y,z
loop_
_atom_site_type_symbol
_atom_site_label
_atom_site_fract_x
_atom_site_fract_y
_atom_site_fract_z
Si Si1 0.013110 0.842462 0.310811
Si Si2 0.343864 0.152134 0.941772
Si Si3 0.397993 0.650722 0.192956
Si Si4 0.754655 0.992014 0.177397
Si Si5 0.154833 0.415768 0.317082
Si Si6 0.227432 0.536039 0.519387
Si Si7 0.724220 0.153307 0.994820
Si Si8 0.014759 0.490294 0.175127
O O1 0.971621 0.750000 0.289129
O O2 0.954235 0.860520 0.524954
O O3 0.153366 0.845085 0.204324
O O4 0.970233 0.911701 0.226974
O O5 0.345912 0.250000 0.882188
O O6 0.470335 0.121252 0.887573
O O7 0.307638 0.089206 0.839989
O O8 0.253081 0.145976 0.160376
O O9 0.382186 0.750000 0.226858
O O10 0.307744 0.612253 0.393060
O O11 0.371756 0.624746 0.043792
O O12 0.711654 0.994021 0.387533
O O13 0.900586 0.978216 0.046880
O O14 0.723106 0.082639 0.127290
O O15 0.214291 0.468790 0.397608
O O16 0.107335 0.478993 0.230953
O O17 0.099090 0.570023 0.696473
O O18 0.698691 0.250000 0.080621
#
# Coordination Sequence:
#
# PCOD8071567 Si02
#       8
#     4   4   4   4   4   4   4   4
#     4   9  15  26  48  76 102 127 164 215 264 307
#     4  10  22  40  56  74 105 144 186 228 270 317
#     4  10  21  37  57  79 103 136 184 234 269 308
#     4  10  21  35  55  80 114 150 174 211 271 332
#     4  10  19  33  55  78 101 137 183 224 261 312
#     4  11  20  33  55  83 111 138 175 221 271 323
#     4   9  18  34  56  81 108 140 178 221 268 320
#     4   9  18  34  51  76 109 142 177 213 258 317
#
# _framework density 20.138590000000001
#
# number of rings (size 3 to 8) (size 9 to 14) (size 15 to 20)
#    0.000    2.250    0.000    5.250    0.000    3.000 
#    0.000    5.625    0.000    9.000    0.000    0.000 
#    0.000    0.000    0.000    0.000    0.000    0.000 
#
# Total GULP energy -396574.065226 kJ/mol
# GULP energy per Si atom -12392.939538 kJ/mol
# Density = 2.009275 g / cm^3
# Si number density = 20.138590 Si / 1000 Ang^3
#
#
#
# Elastic Constant Matrix: (Units=GPa)
#
#
# Indices 1 2 3 4 5 6 
#
# 1 47.9271 24.2650 10.9410 0.0000 -6.4066 0.0000
# 2 24.2650 81.6284 24.4993 0.0000 0.6618 0.0000
# 3 10.9410 24.4993 62.4698 0.0000 12.0716 0.0000
# 4 0.0000 0.0000 0.0000 21.9366 0.0000 -2.5251
# 5 -6.4066 0.6618 12.0716 0.0000 24.0145 0.0000
# 6 0.0000 0.0000 0.0000 -2.5251 0.0000 25.9619
#
#
#
# Elastic Compliance Matrix: (Units=1/GPa)
#
#
# Indices 1 2 3 4 5 6 
#
# 1 0.026368 -0.006799 -0.003707 0.000000 0.009086 0.000000
# 2 -0.006799 0.015787 -0.005057 0.000000 0.000293 0.000000
# 3 -0.003707 -0.005057 0.020828 0.000000 -0.011319 0.000000
# 4 0.000000 0.000000 0.000000 0.046102 0.000000 0.004484
# 5 0.009086 0.000293 -0.011319 0.000000 0.049747 0.000000
# 6 0.000000 0.000000 0.000000 0.004484 0.000000 0.038954
#
#
# Mechanical properties :
#
#
# Convention : Reuss Voigt Hill
#
# Bulk Modulus (GPa) = 31.39164 34.60398 32.99781
# Shear Modulus (GPa) = 20.87395 23.20392 22.03893
#
# Velocity S-wave (km/s) = 3.22299 3.39811 3.31171
# Velocity P-wave (km/s) = 5.42880 5.71108 5.57173
#
# Compressibility (1/GPa) = 0.03185562
#
# Stress axis : x y z
#
# Youngs Moduli (GPa) = 37.92436 63.34218 48.01298
#
# Poissons Ratio (x) = 0.43068 0.17800
# Poissons Ratio (y) = 0.25786 0.24281
# Poissons Ratio (z) = 0.14060 0.32034
#
# Static dielectric constant tensor:
#      x y z
#    x 3.850620 0.000000 -0.063290 
#    y 0.000000 3.687690 0.000000 
#    z -0.063290 0.000000 3.653730 
# 
# 
# High freq. dielectric constant tensor:
#      x y z
#    x 1.786200 0.000000 0.001580 
#    y 0.000000 1.777830 0.000000 
#    z 0.001580 0.000000 1.778560 
# 
# From -- ./inp_files/22195.got.cif
#   From: 2010.06.25/outbox.cif.g09.slc.cpg/sg11_12_cif.got.tgz:22195.got - 2010.06.27 23:14:04.
