data_PCOD8071998
_publ_section_title
;
Structure prediction by ZEFSAII (Michael W. Deem and Ramdas Pophale) SiO2 
 PCOD8071998
Probable space group: P 21/M
;
_chemical_formula_sum "Si O2"
_cell_formula_units_Z 32
_cell_length_a 29.815154
_cell_length_b 9.007880
_cell_length_c 10.964600
_cell_angle_alpha 90.000000
_cell_angle_beta 146.536117
_cell_angle_gamma 90.000000
_cell_volume 1623.783208
_symmetry_space_group_name_H-M "P 21/M"
_symmetry_group_IT_number 11
_symmetry_cell_setting 'monoclinic'
loop_
_space_group_symop_operation_xyz
x,y,z
-x,1/2+y,-z
-x,-y,-z
x,1/2-y,z
loop_
_atom_site_type_symbol
_atom_site_label
_atom_site_fract_x
_atom_site_fract_y
_atom_site_fract_z
Si Si1 0.002568 0.074274 0.638934
Si Si2 0.397167 0.078327 0.537765
Si Si3 0.828948 0.075883 0.344398
Si Si4 0.694877 0.576690 0.169369
Si Si5 0.844743 0.081691 0.910998
Si Si6 0.456418 0.575262 0.286516
Si Si7 0.734626 0.415655 0.895982
Si Si8 0.703321 0.923543 0.464331
O O1 0.010683 0.250000 0.636748
O O2 0.922660 0.034439 0.536306
O O3 0.000000 0.000000 0.500000
O O4 0.074259 0.013927 0.886826
O O5 0.378954 0.250000 0.493731
O O6 0.490836 0.043652 0.717514
O O7 0.367423 0.017764 0.602720
O O8 0.344601 0.011386 0.308926
O O9 0.818811 0.250000 0.346266
O O10 0.786938 0.984093 0.358561
O O11 0.780749 0.020250 0.116396
O O12 0.690759 0.750000 0.130421
O O13 0.671682 0.543463 0.256978
O O14 0.632575 0.491700 0.938777
O O15 0.866942 0.250000 0.922784
O O16 0.798144 0.079372 0.931600
O O17 0.787861 0.009373 0.678597
O O18 0.500000 0.500000 0.500000
O O19 0.448601 0.750000 0.294290
O O20 0.703412 0.250000 0.849408
O O21 0.721135 0.750000 0.523483
#
# Coordination Sequence:
#
# PCOD8071998 Si02
#       8
#     4   4   4   4   4   4   4   4
#     4  11  21  35  56  86 120 152 187 234 289 342
#     4   9  19  35  56  82 109 146 191 231 277 334
#     4  10  21  37  55  79 115 152 190 233 285 343
#     4  11  24  40  59  83 113 151 194 238 289 343
#     4  10  19  34  56  85 116 147 188 234 285 343
#     4  11  23  39  60  87 119 151 188 232 287 346
#     4   9  17  31  51  79 113 145 179 226 281 335
#     4   9  20  40  60  81 112 150 195 243 285 332
#
# _framework density 19.707065
#
# number of rings (size 3 to 8) (size 9 to 14) (size 15 to 20)
#    0.000    2.000    1.250    2.250    0.000    6.500 
#    0.000    0.625    0.000    0.000    0.000    0.000 
#    0.000    0.000    0.000    0.000    0.000    0.000 
#
# Total GULP energy -396727.171013 kJ/mol
# GULP energy per Si atom -12397.724094 kJ/mol
# Density = 1.966221 g / cm^3
# Si number density = 19.707065 Si / 1000 Ang^3
#
#
#
# Elastic Constant Matrix: (Units=GPa)
#
#
# Indices 1 2 3 4 5 6 
#
# 1 67.0523 47.2952 39.9157 0.0000 6.4716 0.0000
# 2 47.2952 81.9561 45.3919 0.0000 9.0821 0.0000
# 3 39.9157 45.3919 89.0872 0.0000 13.5205 0.0000
# 4 0.0000 0.0000 0.0000 31.6572 0.0000 1.2149
# 5 6.4716 9.0821 13.5205 0.0000 30.2056 0.0000
# 6 0.0000 0.0000 0.0000 1.2149 0.0000 27.0443
#
#
#
# Elastic Compliance Matrix: (Units=1/GPa)
#
#
# Indices 1 2 3 4 5 6 
#
# 1 0.027172 -0.012473 -0.005906 0.000000 0.000572 0.000000
# 2 -0.012473 0.022773 -0.005774 0.000000 -0.001591 0.000000
# 3 -0.005906 -0.005774 0.017550 0.000000 -0.004854 0.000000
# 4 0.000000 0.000000 0.000000 0.031643 0.000000 -0.001421
# 5 0.000572 -0.001591 -0.004854 0.000000 0.035635 0.000000
# 6 0.000000 0.000000 0.000000 -0.001421 0.000000 0.037040
#
#
# Mechanical properties :
#
#
# Convention : Reuss Voigt Hill
#
# Bulk Modulus (GPa) = 52.11048 55.92235 54.01642
# Shear Modulus (GPa) = 22.07359 24.81429 23.44394
#
# Velocity S-wave (km/s) = 3.35040 3.55231 3.45283
# Velocity P-wave (km/s) = 6.43947 6.72782 6.58523
#
# Compressibility (1/GPa) = 0.01919000
#
# Stress axis : x y z
#
# Youngs Moduli (GPa) = 36.80275 43.91079 56.98054
#
# Poissons Ratio (x) = 0.54768 0.33654
# Poissons Ratio (y) = 0.45902 0.32900
# Poissons Ratio (z) = 0.21737 0.25353
#
# Static dielectric constant tensor:
#      x y z
#    x 3.805440 0.000000 0.176920 
#    y 0.000000 3.640050 0.000000 
#    z 0.176920 0.000000 3.518500 
# 
# 
# High freq. dielectric constant tensor:
#      x y z
#    x 1.769080 0.000000 0.011750 
#    y 0.000000 1.769270 0.000000 
#    z 0.011750 0.000000 1.758740 
# 
# From -- ./inp_files/45261.got.cif
#   From: 2010.06.25/outbox.cif.g09.slc.cpg/sg11_23_cif.got.tgz:45261.got - 2010.06.27 23:14:04.
