data_PCOD8071062
_publ_section_title
;
Structure prediction by ZEFSAII (Michael W. Deem and Ramdas Pophale) SiO2 
 PCOD8071062
Probable space group: P 21/M
;
_chemical_formula_sum "Si O2"
_cell_formula_units_Z 28
_cell_length_a 31.222581
_cell_length_b 8.809873
_cell_length_c 10.268007
_cell_angle_alpha 90.000000
_cell_angle_beta 143.913168
_cell_angle_gamma 90.000000
_cell_volume 1663.595546
_symmetry_space_group_name_H-M "P 21/M"
_symmetry_group_IT_number 11
_symmetry_cell_setting 'monoclinic'
loop_
_space_group_symop_operation_xyz
x,y,z
-x,1/2+y,-z
-x,-y,-z
x,1/2-y,z
loop_
_atom_site_type_symbol
_atom_site_label
_atom_site_fract_x
_atom_site_fract_y
_atom_site_fract_z
Si Si1 0.297092 0.071035 0.854045
Si Si2 0.424934 0.921292 0.283995
Si Si3 0.954243 0.427132 0.001781
Si Si4 0.714866 0.421348 0.918542
Si Si5 0.786705 0.573801 0.854756
Si Si6 0.954590 0.573280 0.273976
Si Si7 0.785505 0.426185 0.583090
O O1 0.294811 0.250000 0.865027
O O2 0.253783 0.993832 0.869547
O O3 0.260432 0.024442 0.629963
O O4 0.381229 0.012411 0.063122
O O5 0.439522 0.750000 0.271749
O O6 0.500000 0.000000 0.500000
O O7 0.373452 0.921134 0.286799
O O8 0.970579 0.250000 0.049079
O O9 0.979294 0.500026 0.198953
O O10 0.870011 0.461766 0.767547
O O11 0.000000 0.500000 0.000000
O O12 0.745193 0.250000 0.977186
O O13 0.737099 0.524163 0.852609
O O14 0.773989 0.750000 0.792937
O O15 0.762324 0.476695 0.670339
O O16 0.870211 0.540266 0.095082
O O17 0.972010 0.750000 0.309775
O O18 0.000000 0.500000 0.500000
O O19 0.767341 0.250000 0.519556
#
# Coordination Sequence:
#
# PCOD8071062 Si02
#       7
#     4   4   4   4   4   4   4
#     4  10  19  32  52  78 105 135 173 214 254 300
#     4   9  18  32  53  80 109 139 173 211 257 307
#     4  10  21  36  54  74  99 134 173 216 265 314
#     4   9  19  33  51  77 105 135 172 210 253 304
#     4  10  20  34  53  76 102 134 173 215 261 311
#     4  10  21  36  53  74 100 133 173 216 262 314
#     4  10  20  35  53  74 103 137 172 213 263 315
#
# _framework density 16.831015000000001
#
# number of rings (size 3 to 8) (size 9 to 14) (size 15 to 20)
#    0.857    1.429    0.000    3.429    0.000    4.571 
#    0.000    0.000    0.000    0.857    0.000    0.000 
#    0.000    0.000    0.000    0.000    0.000    0.000 
#
# Total GULP energy -347119.619739 kJ/mol
# GULP energy per Si atom -12397.129276 kJ/mol
# Density = 1.679271 g / cm^3
# Si number density = 16.831015 Si / 1000 Ang^3
#
#
#
# Elastic Constant Matrix: (Units=GPa)
#
#
# Indices 1 2 3 4 5 6 
#
# 1 76.0326 33.5875 47.5785 0.0000 -10.6353 0.0000
# 2 33.5875 109.6119 53.4163 0.0000 -2.9089 0.0000
# 3 47.5785 53.4163 105.5568 0.0000 -13.1125 0.0000
# 4 0.0000 0.0000 0.0000 34.1947 0.0000 -3.9914
# 5 -10.6353 -2.9089 -13.1125 0.0000 16.9843 0.0000
# 6 0.0000 0.0000 0.0000 -3.9914 0.0000 32.0040
#
#
#
# Elastic Compliance Matrix: (Units=1/GPa)
#
#
# Indices 1 2 3 4 5 6 
#
# 1 0.019326 -0.002522 -0.006620 0.000000 0.006559 0.000000
# 2 -0.002522 0.012572 -0.005701 0.000000 -0.003827 0.000000
# 3 -0.006620 -0.005701 0.016266 0.000000 0.007436 0.000000
# 4 0.000000 0.000000 0.000000 0.029676 0.000000 0.003701
# 5 0.006559 -0.003827 0.007436 0.000000 0.068071 0.000000
# 6 0.000000 0.000000 0.000000 0.003701 0.000000 0.031708
#
#
# Mechanical properties :
#
#
# Convention : Reuss Voigt Hill
#
# Bulk Modulus (GPa) = 54.11516 62.26291 58.18903
# Shear Modulus (GPa) = 23.42299 27.07786 25.25043
#
# Velocity S-wave (km/s) = 3.73454 4.01535 3.87748
# Velocity P-wave (km/s) = 7.12864 7.65314 7.39554
#
# Compressibility (1/GPa) = 0.01847911
#
# Stress axis : x y z
#
# Youngs Moduli (GPa) = 51.74263 79.53891 61.47687
#
# Poissons Ratio (x) = 0.20058 0.40699
# Poissons Ratio (y) = 0.13048 0.35048
# Poissons Ratio (z) = 0.34255 0.45345
#
# Static dielectric constant tensor:
#      x y z
#    x 3.002510 0.000000 -0.045980 
#    y 0.000000 3.333490 0.000000 
#    z -0.045980 0.000000 2.999690 
# 
# 
# High freq. dielectric constant tensor:
#      x y z
#    x 1.632580 0.000000 -0.007700 
#    y 0.000000 1.672510 0.000000 
#    z -0.007700 0.000000 1.635980 
# 
# From -- ./inp_files/29101.got.cif
#   From: 2010.06.25/outbox.cif.g09.slc.cpg/sg11_15_cif.got.tgz:29101.got - 2010.06.27 23:14:04.
