data_PCOD8071269
_publ_section_title
;
Structure prediction by ZEFSAII (Michael W. Deem and Ramdas Pophale) SiO2 
 PCOD8071269
Probable space group: P 21/M
;
_chemical_formula_sum "Si O2"
_cell_formula_units_Z 32
_cell_length_a 11.380024
_cell_length_b 8.841346
_cell_length_c 29.101396
_cell_angle_alpha 90.000000
_cell_angle_beta 34.685939
_cell_angle_gamma 90.000000
_cell_volume 1666.276188
_symmetry_space_group_name_H-M "P 21/M"
_symmetry_group_IT_number 11
_symmetry_cell_setting 'monoclinic'
loop_
_space_group_symop_operation_xyz
x,y,z
-x,1/2+y,-z
-x,-y,-z
x,1/2-y,z
loop_
_atom_site_type_symbol
_atom_site_label
_atom_site_fract_x
_atom_site_fract_y
_atom_site_fract_z
Si Si1 0.297535 0.071316 0.681400
Si Si2 0.865385 0.927377 0.606160
Si Si3 0.889721 0.579312 0.162094
Si Si4 0.637002 0.570682 0.769836
Si Si5 0.823884 0.428058 0.087991
Si Si6 0.702165 0.077819 0.917153
Si Si7 0.275716 0.073111 0.449447
Si Si8 0.912705 0.570957 0.764634
O O1 0.283566 0.250000 0.681423
O O2 0.236750 0.020908 0.752705
O O3 0.523873 0.012721 0.596270
O O4 0.139780 0.001617 0.694988
O O5 0.914222 0.750000 0.593766
O O6 0.715526 0.984927 0.694773
O O7 0.753867 0.968757 0.594465
O O8 0.080803 0.016035 0.541294
O O9 0.822392 0.750000 0.170506
O O10 0.132162 0.575723 0.095243
O O11 0.850555 0.467528 0.132776
O O12 0.632855 0.750000 0.772057
O O13 0.403397 0.512236 0.854242
O O14 0.795792 0.509471 0.756930
O O15 0.841573 0.250000 0.076359
O O16 0.000000 0.500000 0.000000
O O17 0.661103 0.250000 0.914356
O O18 0.775784 0.978366 0.851249
O O19 0.500000 0.000000 0.000000
O O20 0.305582 0.250000 0.447494
O O21 0.936258 0.750000 0.756233
#
# Coordination Sequence:
#
# PCOD8071269 Si02
#       8
#     4   4   4   4   4   4   4   4
#     4  10  20  36  57  82 112 146 183 230 279 326
#     4   9  18  35  57  83 113 148 185 225 278 332
#     4   9  20  37  54  76 107 139 178 227 274 323
#     4   9  20  38  58  78 109 149 184 224 277 334
#     4  11  23  38  56  81 111 145 184 226 276 333
#     4  10  21  36  55  79 107 139 182 232 281 329
#     4  10  19  32  56  88 117 144 183 230 275 331
#     4  10  20  36  57  80 106 144 187 229 280 334
#
# _framework density 19.204498999999998
#
# number of rings (size 3 to 8) (size 9 to 14) (size 15 to 20)
#    0.000    2.250    0.000    3.375    1.750    4.500 
#    0.000    5.000    0.000    0.000    0.000    0.000 
#    0.000    0.000    0.000    0.000    0.000    0.000 
#
# Total GULP energy -396833.619383 kJ/mol
# GULP energy per Si atom -12401.050606 kJ/mol
# Density = 1.916079 g / cm^3
# Si number density = 19.204499 Si / 1000 Ang^3
#
#
#
# Elastic Constant Matrix: (Units=GPa)
#
#
# Indices 1 2 3 4 5 6 
#
# 1 103.8440 34.7000 56.7326 0.0000 -11.2304 0.0000
# 2 34.7000 67.2544 34.2431 0.0000 -9.2963 0.0000
# 3 56.7326 34.2431 121.9838 0.0000 -23.9047 0.0000
# 4 0.0000 0.0000 0.0000 32.7046 0.0000 -3.7219
# 5 -11.2304 -9.2963 -23.9047 0.0000 28.1465 0.0000
# 6 0.0000 0.0000 0.0000 -3.7219 0.0000 26.9049
#
#
#
# Elastic Compliance Matrix: (Units=1/GPa)
#
#
# Indices 1 2 3 4 5 6 
#
# 1 0.014021 -0.004586 -0.005319 0.000000 -0.000438 0.000000
# 2 -0.004586 0.018935 -0.002778 0.000000 0.002065 0.000000
# 3 -0.005319 -0.002778 0.013023 0.000000 0.008021 0.000000
# 4 0.000000 0.000000 0.000000 0.031066 0.000000 0.004297
# 5 -0.000438 0.002065 0.008021 0.000000 0.042847 0.000000
# 6 0.000000 0.000000 0.000000 0.004297 0.000000 0.037762
#
#
# Mechanical properties :
#
#
# Convention : Reuss Voigt Hill
#
# Bulk Modulus (GPa) = 48.51425 60.49262 54.50343
# Shear Modulus (GPa) = 26.33064 28.71164 27.52114
#
# Velocity S-wave (km/s) = 3.70681 3.87078 3.78968
# Velocity P-wave (km/s) = 6.60586 7.17947 6.89863
#
# Compressibility (1/GPa) = 0.02061250
#
# Stress axis : x y z
#
# Youngs Moduli (GPa) = 71.32099 52.81237 76.78544
#
# Poissons Ratio (x) = 0.24222 0.40845
# Poissons Ratio (y) = 0.32710 0.21329
# Poissons Ratio (z) = 0.37938 0.14670
#
# Static dielectric constant tensor:
#      x y z
#    x 3.590890 0.000000 -0.149640 
#    y 0.000000 3.427170 0.000000 
#    z -0.149640 0.000000 3.633010 
# 
# 
# High freq. dielectric constant tensor:
#      x y z
#    x 1.741680 0.000000 -0.014580 
#    y 0.000000 1.743010 0.000000 
#    z -0.014580 0.000000 1.749610 
# 
# From -- ./inp_files/73107.got.cif
#   From: 2010.06.25/outbox.cif.g09.slc.cpg/sg11_37_cif.got.tgz:73107.got - 2010.06.27 23:14:04.
