data_PCOD8071047
_publ_section_title
;
Structure prediction by ZEFSAII (Michael W. Deem and Ramdas Pophale) SiO2 
 PCOD8071047
Probable space group: P 21/M
;
_chemical_formula_sum "Si O2"
_cell_formula_units_Z 28
_cell_length_a 14.110719
_cell_length_b 8.775105
_cell_length_c 12.707854
_cell_angle_alpha 90.000000
_cell_angle_beta 75.573733
_cell_angle_gamma 90.000000
_cell_volume 1523.910381
_symmetry_space_group_name_H-M "P 21/M"
_symmetry_group_IT_number 11
_symmetry_cell_setting 'monoclinic'
loop_
_space_group_symop_operation_xyz
x,y,z
-x,1/2+y,-z
-x,-y,-z
x,1/2-y,z
loop_
_atom_site_type_symbol
_atom_site_label
_atom_site_fract_x
_atom_site_fract_y
_atom_site_fract_z
Si Si1 0.584063 0.929443 0.109797
Si Si2 0.250904 0.430640 0.776234
Si Si3 0.985619 0.068990 0.692674
Si Si4 0.789938 0.569249 0.667055
Si Si5 0.047125 0.930576 0.885135
Si Si6 0.803891 0.571053 0.432819
Si Si7 0.381186 0.070249 0.135122
O O1 0.569164 0.750000 0.115070
O O2 0.654504 0.984035 0.184426
O O3 0.479656 0.005259 0.158981
O O4 0.628443 0.981056 0.984256
O O5 0.234300 0.250000 0.792353
O O6 0.158736 0.515620 0.850193
O O7 0.261667 0.480425 0.649925
O O8 0.982476 0.250000 0.704344
O O9 0.084808 0.009525 0.608517
O O10 0.893242 0.010791 0.654000
O O11 0.982126 0.994222 0.808151
O O12 0.803117 0.750000 0.674316
O O13 0.756547 0.521153 0.557401
O O14 0.710654 0.506737 0.772632
O O15 0.041691 0.750000 0.888335
O O16 0.000000 0.000000 0.000000
O O17 0.811860 0.750000 0.427498
O O18 0.385628 0.250000 0.144360
#
# Coordination Sequence:
#
# PCOD8071047 Si02
#       7
#     4   4   4   4   4   4   4
#     4   9  18  34  54  73  98 133 169 211 265 317
#     4   9  18  34  55  75 100 136 175 213 259 311
#     4  10  20  34  51  75 105 140 177 213 257 306
#     4  10  19  32  52  76 103 137 176 218 265 308
#     4  11  22  35  51  76 108 139 173 212 254 306
#     4   8  16  32  51  73 103 138 174 213 257 311
#     4   9  19  33  50  75 101 129 169 216 263 315
#
# _framework density 18.373783
#
# number of rings (size 3 to 8) (size 9 to 14) (size 15 to 20)
#    0.000    2.571    0.000    3.000    2.000    1.143 
#    0.000    3.571    0.000    0.000    0.000    0.000 
#    0.000    0.000    0.000    0.000    0.000    0.000 
#
# Total GULP energy -347076.612876 kJ/mol
# GULP energy per Si atom -12395.593317 kJ/mol
# Density = 1.833196 g / cm^3
# Si number density = 18.373783 Si / 1000 Ang^3
#
#
#
# Elastic Constant Matrix: (Units=GPa)
#
#
# Indices 1 2 3 4 5 6 
#
# 1 113.2785 20.5495 67.9312 0.0000 21.6687 0.0000
# 2 20.5495 47.5868 22.6413 0.0000 4.3672 0.0000
# 3 67.9312 22.6413 115.2410 0.0000 7.2740 0.0000
# 4 0.0000 0.0000 0.0000 17.2464 0.0000 0.1484
# 5 21.6687 4.3672 7.2740 0.0000 26.2806 0.0000
# 6 0.0000 0.0000 0.0000 0.1484 0.0000 30.6422
#
#
#
# Elastic Compliance Matrix: (Units=1/GPa)
#
#
# Indices 1 2 3 4 5 6 
#
# 1 0.016421 -0.002005 -0.008603 0.000000 -0.010825 0.000000
# 2 -0.002005 0.023607 -0.003372 0.000000 -0.001337 0.000000
# 3 -0.008603 -0.003372 0.014175 0.000000 0.003730 0.000000
# 4 0.000000 0.000000 0.000000 0.057985 0.000000 -0.000281
# 5 -0.010825 -0.001337 0.003730 0.000000 0.046166 0.000000
# 6 0.000000 0.000000 0.000000 -0.000281 0.000000 0.032636
#
#
# Mechanical properties :
#
#
# Convention : Reuss Voigt Hill
#
# Bulk Modulus (GPa) = 38.10243 55.37225 46.73734
# Shear Modulus (GPa) = 21.95892 25.83280 23.89586
#
# Velocity S-wave (km/s) = 3.46081 3.75368 3.61021
# Velocity P-wave (km/s) = 6.06234 6.99920 6.54755
#
# Compressibility (1/GPa) = 0.02624505
#
# Stress axis : x y z
#
# Youngs Moduli (GPa) = 60.89770 42.36046 70.54438
#
# Poissons Ratio (x) = 0.08492 0.60686
# Poissons Ratio (y) = 0.12208 0.23787
# Poissons Ratio (z) = 0.52388 0.14284
#
# Static dielectric constant tensor:
#      x y z
#    x 3.353340 0.000000 0.153300 
#    y 0.000000 3.220950 0.000000 
#    z 0.153300 0.000000 3.766440 
# 
# 
# High freq. dielectric constant tensor:
#      x y z
#    x 1.701840 0.000000 0.011930 
#    y 0.000000 1.696010 0.000000 
#    z 0.011930 0.000000 1.721300 
# 
# From -- ./inp_files/37212.got.cif
#   From: 2010.06.25/outbox.cif.g09.slc.cpg/sg11_19_cif.got.tgz:37212.got - 2010.06.27 23:14:04.
