data_PCOD8071437
_publ_section_title
;
Structure prediction by ZEFSAII (Michael W. Deem and Ramdas Pophale) SiO2 
 PCOD8071437
Probable space group: P 21/M
;
_chemical_formula_sum "Si O2"
_cell_formula_units_Z 32
_cell_length_a 12.008532
_cell_length_b 9.020223
_cell_length_c 31.275359
_cell_angle_alpha 90.000000
_cell_angle_beta 29.532275
_cell_angle_gamma 90.000000
_cell_volume 1669.861445
_symmetry_space_group_name_H-M "P 21/M"
_symmetry_group_IT_number 11
_symmetry_cell_setting 'monoclinic'
loop_
_space_group_symop_operation_xyz
x,y,z
-x,1/2+y,-z
-x,-y,-z
x,1/2-y,z
loop_
_atom_site_type_symbol
_atom_site_label
_atom_site_fract_x
_atom_site_fract_y
_atom_site_fract_z
Si Si1 0.058215 0.420238 0.361127
Si Si2 0.675013 0.422830 0.086552
Si Si3 0.841836 0.576569 0.112714
Si Si4 0.542199 0.419085 0.529533
Si Si5 0.230452 0.576213 0.219747
Si Si6 0.151263 0.423771 0.720512
Si Si7 0.193792 0.077304 0.408164
Si Si8 0.705034 0.075722 0.245463
O O1 0.112809 0.250000 0.330535
O O2 0.796133 0.440740 0.460475
O O3 0.123457 0.523612 0.300035
O O4 0.190710 0.471304 0.359335
O O5 0.635861 0.250000 0.107381
O O6 0.686610 0.499927 0.128908
O O7 0.463779 0.492072 0.131900
O O8 0.896128 0.454940 0.984846
O O9 0.786729 0.750000 0.131428
O O10 0.788400 0.506343 0.175674
O O11 0.500000 0.500000 0.500000
O O12 0.477942 0.250000 0.542333
O O13 0.374980 0.481204 0.621476
O O14 0.275689 0.750000 0.207874
O O15 0.065285 0.537598 0.235853
O O16 0.163240 0.250000 0.727487
O O17 0.139202 0.516454 0.768161
O O18 0.141357 0.250000 0.428802
O O19 0.442330 0.037257 0.342701
O O20 0.000000 0.000000 0.500000
O O21 0.740963 0.250000 0.227355
#
# Coordination Sequence:
#
# PCOD8071437 Si02
#       8
#     4   4   4   4   4   4   4   4
#     4  10  20  34  55  80 111 148 185 234 294 344
#     4  10  21  38  62  91 121 147 181 232 285 341
#     4  10  21  39  64  91 117 150 187 227 282 343
#     4  10  19  33  53  77 108 148 191 239 287 334
#     4  11  22  36  57  85 114 148 191 237 287 339
#     4  10  22  39  56  79 114 154 197 241 284 340
#     4  10  22  38  55  80 112 147 187 231 280 334
#     4  11  23  38  59  86 116 152 194 238 286 341
#
# _framework density 19.163267000000001
#
# number of rings (size 3 to 8) (size 9 to 14) (size 15 to 20)
#    0.000    1.750    1.250    3.000    0.000    6.500 
#    0.000    0.625    0.000    0.000    0.000    0.000 
#    0.000    0.000    0.000    0.000    0.000    0.000 
#
# Total GULP energy -396917.408663 kJ/mol
# GULP energy per Si atom -12403.669021 kJ/mol
# Density = 1.911965 g / cm^3
# Si number density = 19.163267 Si / 1000 Ang^3
#
#
#
# Elastic Constant Matrix: (Units=GPa)
#
#
# Indices 1 2 3 4 5 6 
#
# 1 123.8423 57.5275 46.9142 0.0000 1.4533 0.0000
# 2 57.5275 92.2425 48.1862 0.0000 3.0645 0.0000
# 3 46.9142 48.1862 86.6269 0.0000 2.5017 0.0000
# 4 0.0000 0.0000 0.0000 34.8550 0.0000 1.9080
# 5 1.4533 3.0645 2.5017 0.0000 31.5247 0.0000
# 6 0.0000 0.0000 0.0000 1.9080 0.0000 35.3815
#
#
#
# Elastic Compliance Matrix: (Units=1/GPa)
#
#
# Indices 1 2 3 4 5 6 
#
# 1 0.012002 -0.005771 -0.003297 0.000000 0.000269 0.000000
# 2 -0.005771 0.018078 -0.006903 0.000000 -0.000943 0.000000
# 3 -0.003297 -0.006903 0.017185 0.000000 -0.000541 0.000000
# 4 0.000000 0.000000 0.000000 0.028775 0.000000 -0.001552
# 5 0.000269 -0.000943 -0.000541 0.000000 0.031843 0.000000
# 6 0.000000 0.000000 0.000000 -0.001552 0.000000 0.028347
#
#
# Mechanical properties :
#
#
# Convention : Reuss Voigt Hill
#
# Bulk Modulus (GPa) = 65.26900 67.55194 66.41047
# Shear Modulus (GPa) = 28.85514 30.35782 29.60648
#
# Velocity S-wave (km/s) = 3.88461 3.98448 3.93486
# Velocity P-wave (km/s) = 7.36571 7.51634 7.44140
#
# Compressibility (1/GPa) = 0.01532121
#
# Stress axis : x y z
#
# Youngs Moduli (GPa) = 83.32231 55.31685 58.19149
#
# Poissons Ratio (x) = 0.31926 0.19186
# Poissons Ratio (y) = 0.48089 0.40169
# Poissons Ratio (z) = 0.27472 0.38184
#
# Static dielectric constant tensor:
#      x y z
#    x 3.650770 0.000000 -0.267230 
#    y 0.000000 3.460220 0.000000 
#    z -0.267230 0.000000 3.629230 
# 
# 
# High freq. dielectric constant tensor:
#      x y z
#    x 1.749510 0.000000 -0.007150 
#    y 0.000000 1.748540 0.000000 
#    z -0.007150 0.000000 1.744960 
# 
# From -- ./inp_files/73098.got.cif
#   From: 2010.06.25/outbox.cif.g09.slc.cpg/sg11_37_cif.got.tgz:73098.got - 2010.06.27 23:14:04.
