data_PCOD8071224
_publ_section_title
;
Structure prediction by ZEFSAII (Michael W. Deem and Ramdas Pophale) SiO2 
 PCOD8071224
Probable space group: P 21/M
;
_chemical_formula_sum "Si O2"
_cell_formula_units_Z 28
_cell_length_a 14.307128
_cell_length_b 9.004818
_cell_length_c 13.128560
_cell_angle_alpha 90.000000
_cell_angle_beta 57.219489
_cell_angle_gamma 90.000000
_cell_volume 1422.039935
_symmetry_space_group_name_H-M "P 21/M"
_symmetry_group_IT_number 11
_symmetry_cell_setting 'monoclinic'
loop_
_space_group_symop_operation_xyz
x,y,z
-x,1/2+y,-z
-x,-y,-z
x,1/2-y,z
loop_
_atom_site_type_symbol
_atom_site_label
_atom_site_fract_x
_atom_site_fract_y
_atom_site_fract_z
Si Si1 0.835401 0.422128 0.778878
Si Si2 0.238735 0.419692 0.703635
Si Si3 0.401605 0.574152 0.995717
Si Si4 0.613441 0.575889 0.573385
Si Si5 0.950276 0.077585 0.289182
Si Si6 0.404635 0.077365 0.777759
Si Si7 0.196453 0.577950 0.432087
O O1 0.851674 0.250000 0.792281
O O2 0.713906 0.475271 0.885125
O O3 0.852072 0.458744 0.650026
O O4 0.927705 0.507670 0.789593
O O5 0.204986 0.250000 0.704493
O O6 0.331891 0.466723 0.566603
O O7 0.127555 0.516013 0.755400
O O8 0.288071 0.444109 0.787162
O O9 0.417984 0.750000 0.988401
O O10 0.500000 0.500000 0.000000
O O11 0.402478 0.519022 0.880080
O O12 0.588246 0.750000 0.599314
O O13 0.500950 0.482398 0.647261
O O14 0.695828 0.524425 0.614997
O O15 0.963404 0.250000 0.263388
O O16 0.897291 0.037994 0.429951
O O17 0.425658 0.250000 0.790787
O O18 0.232940 0.750000 0.418843
#
# Coordination Sequence:
#
# PCOD8071224 Si02
#       7
#     4   4   4   4   4   4   4
#     4  10  21  37  56  77 108 147 183 221 270 325
#     4   9  20  37  56  80 112 148 184 224 276 331
#     4  11  24  41  61  85 111 144 185 229 273 322
#     4  10  19  32  54  84 114 145 182 227 276 331
#     4  10  20  33  55  85 113 141 178 225 274 326
#     4  11  22  37  57  80 110 149 187 228 277 328
#     4   9  18  33  53  81 114 146 179 220 273 331
#
# _framework density 19.690023
#
# number of rings (size 3 to 8) (size 9 to 14) (size 15 to 20)
#    0.000    2.000    0.000    3.429    0.000    5.143 
#    0.000    0.714    0.000    0.000    0.000    0.000 
#    0.000    0.000    0.000    0.000    0.000    0.000 
#
# Total GULP energy -347308.174916 kJ/mol
# GULP energy per Si atom -12403.863390 kJ/mol
# Density = 1.964521 g / cm^3
# Si number density = 19.690023 Si / 1000 Ang^3
#
#
#
# Elastic Constant Matrix: (Units=GPa)
#
#
# Indices 1 2 3 4 5 6 
#
# 1 146.6849 63.5569 49.8789 0.0000 -8.3903 0.0000
# 2 63.5569 73.7108 31.6722 0.0000 -9.8407 0.0000
# 3 49.8789 31.6722 61.0960 0.0000 1.1865 0.0000
# 4 0.0000 0.0000 0.0000 27.0251 0.0000 -1.2626
# 5 -8.3903 -9.8407 1.1865 0.0000 28.6858 0.0000
# 6 0.0000 0.0000 0.0000 -1.2626 0.0000 39.4515
#
#
#
# Elastic Compliance Matrix: (Units=1/GPa)
#
#
# Indices 1 2 3 4 5 6 
#
# 1 0.012357 -0.007922 -0.006004 0.000000 0.001145 0.000000
# 2 -0.007922 0.023778 -0.005977 0.000000 0.006087 0.000000
# 3 -0.006004 -0.005977 0.024461 0.000000 -0.004818 0.000000
# 4 0.000000 0.000000 0.000000 0.037058 0.000000 0.001186
# 5 0.001145 0.006087 -0.004818 0.000000 0.037483 0.000000
# 6 0.000000 0.000000 0.000000 0.001186 0.000000 0.025386
#
#
# Mechanical properties :
#
#
# Convention : Reuss Voigt Hill
#
# Bulk Modulus (GPa) = 48.09897 63.52308 55.81103
# Shear Modulus (GPa) = 24.12440 28.12474 26.12457
#
# Velocity S-wave (km/s) = 3.50410 3.78349 3.64647
# Velocity P-wave (km/s) = 6.39161 7.17063 6.79230
#
# Compressibility (1/GPa) = 0.02079046
#
# Stress axis : x y z
#
# Youngs Moduli (GPa) = 80.92663 42.05487 40.88110
#
# Poissons Ratio (x) = 0.33317 0.24543
# Poissons Ratio (y) = 0.64112 0.24436
# Poissons Ratio (z) = 0.48584 0.25137
#
# Static dielectric constant tensor:
#      x y z
#    x 3.604400 0.000000 -0.018350 
#    y 0.000000 3.569830 0.000000 
#    z -0.018350 0.000000 3.459930 
# 
# 
# High freq. dielectric constant tensor:
#      x y z
#    x 1.776270 0.000000 0.001580 
#    y 0.000000 1.771850 0.000000 
#    z 0.001580 0.000000 1.747400 
# 
# From -- ./inp_files/37847.got.cif
#   From: 2010.06.25/outbox.cif.g09.slc.cpg/sg11_19_cif.got.tgz:37847.got - 2010.06.27 23:14:04.
