data_PCOD8071849
_publ_section_title
;
Structure prediction by ZEFSAII (Michael W. Deem and Ramdas Pophale) SiO2 
 PCOD8071849
Probable space group: P 21/M
;
_chemical_formula_sum "Si O2"
_cell_formula_units_Z 28
_cell_length_a 21.612000
_cell_length_b 9.054824
_cell_length_c 16.601170
_cell_angle_alpha 90.000000
_cell_angle_beta 154.321528
_cell_angle_gamma 90.000000
_cell_volume 1407.741432
_symmetry_space_group_name_H-M "P 21/M"
_symmetry_group_IT_number 11
_symmetry_cell_setting 'monoclinic'
loop_
_space_group_symop_operation_xyz
x,y,z
-x,1/2+y,-z
-x,-y,-z
x,1/2-y,z
loop_
_atom_site_type_symbol
_atom_site_label
_atom_site_fract_x
_atom_site_fract_y
_atom_site_fract_z
Si Si1 0.241601 0.074600 0.960207
Si Si2 0.490765 0.088413 0.364807
Si Si3 0.317812 0.577660 0.719377
Si Si4 0.361030 0.076292 0.932276
Si Si5 0.041495 0.574570 0.965083
Si Si6 0.312972 0.088724 0.310761
Si Si7 0.951194 0.424982 0.702734
O O1 0.245226 0.250000 0.969610
O O2 0.273028 0.018834 0.906568
O O3 0.087313 0.018970 0.809819
O O4 0.369859 0.014227 0.166923
O O5 0.538287 0.250000 0.385822
O O6 0.436577 0.114315 0.391566
O O7 0.626758 0.979689 0.534217
O O8 0.310593 0.750000 0.728942
O O9 0.290713 0.497522 0.772085
O O10 0.193503 0.530009 0.512613
O O11 0.471552 0.532464 0.862624
O O12 0.344803 0.250000 0.903641
O O13 0.029321 0.750000 0.954558
O O14 0.202923 0.522522 0.139027
O O15 0.000000 0.500000 0.000000
O O16 0.944668 0.511162 0.779442
O O17 0.244360 0.250000 0.250926
O O18 0.960840 0.250000 0.730150
#
# Coordination Sequence:
#
# PCOD8071849 Si02
#       7
#     4   4   4   4   4   4   4
#     4   9  17  32  55  81 111 147 188 233 284 336
#     4   9  17  31  53  78 107 143 183 228 281 333
#     4   9  19  35  56  81 112 147 184 225 279 338
#     4   9  18  34  56  81 109 145 186 227 274 336
#     4  12  25  40  58  81 111 148 190 233 284 342
#     4  10  19  34  54  78 108 143 185 231 279 329
#     4  10  20  38  59  81 110 147 186 233 286 340
#
# _framework density 19.890017
#
# number of rings (size 3 to 8) (size 9 to 14) (size 15 to 20)
#    0.000    2.286    1.429    1.714    0.000    2.857 
#    0.000    4.286    0.000    0.000    0.000    0.000 
#    0.000    0.000    0.000    0.000    0.000    0.000 
#
# Total GULP energy -347068.664972 kJ/mol
# GULP energy per Si atom -12395.309463 kJ/mol
# Density = 1.984475 g / cm^3
# Si number density = 19.890017 Si / 1000 Ang^3
#
#
#
# Elastic Constant Matrix: (Units=GPa)
#
#
# Indices 1 2 3 4 5 6 
#
# 1 100.6245 36.2186 46.0995 0.0000 -20.6474 0.0000
# 2 36.2186 84.1533 55.5158 0.0000 -12.5261 0.0000
# 3 46.0995 55.5158 147.4889 0.0000 -21.9860 0.0000
# 4 0.0000 0.0000 0.0000 29.4153 0.0000 -4.8139
# 5 -20.6474 -12.5261 -21.9860 0.0000 20.1488 0.0000
# 6 0.0000 0.0000 0.0000 -4.8139 0.0000 22.1583
#
#
#
# Elastic Compliance Matrix: (Units=1/GPa)
#
#
# Indices 1 2 3 4 5 6 
#
# 1 0.014054 -0.003479 -0.001503 0.000000 0.010598 0.000000
# 2 -0.003479 0.016942 -0.005077 0.000000 0.001427 0.000000
# 3 -0.001503 -0.005077 0.010104 0.000000 0.006329 0.000000
# 4 0.000000 0.000000 0.000000 0.035249 0.000000 0.007658
# 5 0.010598 0.001427 0.006329 0.000000 0.068285 0.000000
# 6 0.000000 0.000000 0.000000 0.007658 0.000000 0.046793
#
#
# Mechanical properties :
#
#
# Convention : Reuss Voigt Hill
#
# Bulk Modulus (GPa) = 47.66095 67.54827 57.60461
# Shear Modulus (GPa) = 22.87909 27.30668 25.09288
#
# Velocity S-wave (km/s) = 3.39526 3.70926 3.55573
# Velocity P-wave (km/s) = 6.27572 7.23737 6.77363
#
# Compressibility (1/GPa) = 0.02098154
#
# Stress axis : x y z
#
# Youngs Moduli (GPa) = 71.15631 59.02412 98.96629
#
# Poissons Ratio (x) = 0.20537 0.14876
# Poissons Ratio (y) = 0.24758 0.50244
# Poissons Ratio (z) = 0.10696 0.29966
#
# Static dielectric constant tensor:
#      x y z
#    x 3.602950 0.000000 0.086280 
#    y 0.000000 3.741660 0.000000 
#    z 0.086280 0.000000 3.801040 
# 
# 
# High freq. dielectric constant tensor:
#      x y z
#    x 1.763360 0.000000 -0.002280 
#    y 0.000000 1.755240 0.000000 
#    z -0.002280 0.000000 1.780650 
# 
# From -- ./inp_files/54587.got.cif
#   From: 2010.06.25/outbox.cif.g09.slc.cpg/sg11_28_cif.got.tgz:54587.got - 2010.06.27 23:14:04.
