data_PCOD8071638
_publ_section_title
;
Structure prediction by ZEFSAII (Michael W. Deem and Ramdas Pophale) SiO2 
 PCOD8071638
Probable space group: P 21/M
;
_chemical_formula_sum "Si O2"
_cell_formula_units_Z 32
_cell_length_a 9.788013
_cell_length_b 18.247164
_cell_length_c 11.928598
_cell_angle_alpha 90.000000
_cell_angle_beta 127.081086
_cell_angle_gamma 90.000000
_cell_volume 1699.668006
_symmetry_space_group_name_H-M "P 21/M"
_symmetry_group_IT_number 11
_symmetry_cell_setting 'monoclinic'
loop_
_space_group_symop_operation_xyz
x,y,z
-x,1/2+y,-z
-x,-y,-z
x,1/2-y,z
loop_
_atom_site_type_symbol
_atom_site_label
_atom_site_fract_x
_atom_site_fract_y
_atom_site_fract_z
Si Si1 0.627973 0.065578 0.430815
Si Si2 0.123312 0.834190 0.563529
Si Si3 0.796877 0.834692 0.258295
Si Si4 0.881648 0.666388 0.642213
Si Si5 0.395781 0.100381 0.647333
Si Si6 0.232297 0.077042 0.212708
Si Si7 0.109129 0.335280 0.943637
Si Si8 0.761230 0.086463 0.744550
O O1 0.710128 0.116422 0.375489
O O2 0.429237 0.084711 0.347695
O O3 0.720461 0.079316 0.593658
O O4 0.654698 0.982138 0.408744
O O5 0.179785 0.750000 0.580634
O O6 0.981805 0.854374 0.400752
O O7 0.049371 0.851026 0.650583
O O8 0.754886 0.750000 0.260588
O O9 0.651187 0.883645 0.246180
O O10 0.798022 0.852868 0.127671
O O11 0.882797 0.750000 0.683940
O O12 0.712073 0.654938 0.484166
O O13 0.887365 0.615054 0.753697
O O14 0.596215 0.115475 0.730017
O O15 0.179825 0.992105 0.177334
O O16 0.207758 0.115953 0.082237
O O17 0.124327 0.250000 0.982293
O O18 0.909208 0.354985 0.838383
#
# Coordination Sequence:
#
# PCOD8071638 Si02
#       8
#     4   4   4   4   4   4   4   4
#     4  11  20  36  60  87 116 145 189 238 284 336
#     4   9  19  33  52  82 113 144 187 235 278 332
#     4   9  19  36  55  80 116 151 188 231 278 337
#     4  10  19  33  55  84 118 147 183 236 289 329
#     4  10  19  35  57  87 113 142 189 236 286 328
#     4  11  22  40  57  85 117 152 186 234 289 341
#     4  11  24  40  58  82 114 154 194 229 281 345
#     4  11  21  39  59  85 117 148 192 236 278 338
#
# _framework density 18.827207000000001
#
# number of rings (size 3 to 8) (size 9 to 14) (size 15 to 20)
#    0.000    1.750    3.750    2.625    0.000    5.000 
#    0.000    3.750    0.000    1.500    0.000    0.000 
#    0.000    0.000    0.000    0.000    0.000    0.000 
#
# Total GULP energy -396904.894602 kJ/mol
# GULP energy per Si atom -12403.277956 kJ/mol
# Density = 1.878436 g / cm^3
# Si number density = 18.827207 Si / 1000 Ang^3
#
#
#
# Elastic Constant Matrix: (Units=GPa)
#
#
# Indices 1 2 3 4 5 6 
#
# 1 95.0415 38.5951 5.0623 0.0000 -15.1018 0.0000
# 2 38.5951 43.5810 6.0304 0.0000 -2.6286 0.0000
# 3 5.0623 6.0304 44.9905 0.0000 -14.2800 0.0000
# 4 0.0000 0.0000 0.0000 21.9151 0.0000 -5.7512
# 5 -15.1018 -2.6286 -14.2800 0.0000 22.7355 0.0000
# 6 0.0000 0.0000 0.0000 -5.7512 0.0000 36.0701
#
#
#
# Elastic Compliance Matrix: (Units=1/GPa)
#
#
# Indices 1 2 3 4 5 6 
#
# 1 0.019317 -0.016896 0.004426 0.000000 0.013658 0.000000
# 2 -0.016896 0.038173 -0.006716 0.000000 -0.011028 0.000000
# 3 0.004426 -0.006716 0.029121 0.000000 0.020454 0.000000
# 4 0.000000 0.000000 0.000000 0.047623 0.000000 0.007593
# 5 0.013658 -0.011028 0.020454 0.000000 0.064628 0.000000
# 6 0.000000 0.000000 0.000000 0.007593 0.000000 0.028935
#
#
# Mechanical properties :
#
#
# Convention : Reuss Voigt Hill
#
# Bulk Modulus (GPa) = 20.72944 31.44317 26.08631
# Shear Modulus (GPa) = 17.71480 25.07248 21.39364
#
# Velocity S-wave (km/s) = 3.07076 3.65323 3.37458
# Velocity P-wave (km/s) = 4.85871 5.87639 5.39161
#
# Compressibility (1/GPa) = 0.04824057
#
# Stress axis : x y z
#
# Youngs Moduli (GPa) = 51.76655 26.19646 34.33916
#
# Poissons Ratio (x) = 0.44262 -0.15199
# Poissons Ratio (y) = 0.87466 0.23061
# Poissons Ratio (z) = -0.22913 0.17593
#
# Static dielectric constant tensor:
#      x y z
#    x 3.575650 0.000000 -0.153160 
#    y 0.000000 3.488640 0.000000 
#    z -0.153160 0.000000 3.198300 
# 
# 
# High freq. dielectric constant tensor:
#      x y z
#    x 1.739990 0.000000 -0.015120 
#    y 0.000000 1.736490 0.000000 
#    z -0.015120 0.000000 1.704060 
# 
# From -- ./inp_files/32668.got.cif
#   From: 2010.06.25/outbox.cif.g09.slc.cpg/sg11_17_cif.got.tgz:32668.got - 2010.06.27 23:14:04.
