data_PCOD8071588
_publ_section_title
;
Structure prediction by ZEFSAII (Michael W. Deem and Ramdas Pophale) SiO2 
 PCOD8071588
Probable space group: P 21/M
;
_chemical_formula_sum "Si O2"
_cell_formula_units_Z 28
_cell_length_a 10.395749
_cell_length_b 18.051842
_cell_length_c 18.115647
_cell_angle_alpha 90.000000
_cell_angle_beta 153.304975
_cell_angle_gamma 90.000000
_cell_volume 1527.252887
_symmetry_space_group_name_H-M "P 21/M"
_symmetry_group_IT_number 11
_symmetry_cell_setting 'monoclinic'
loop_
_space_group_symop_operation_xyz
x,y,z
-x,1/2+y,-z
-x,-y,-z
x,1/2-y,z
loop_
_atom_site_type_symbol
_atom_site_label
_atom_site_fract_x
_atom_site_fract_y
_atom_site_fract_z
Si Si1 0.105087 0.960809 0.845796
Si Si2 0.650871 0.095793 0.248713
Si Si3 0.748807 0.952060 0.219762
Si Si4 0.960224 0.664162 0.433184
Si Si5 0.008225 0.050535 0.933042
Si Si6 0.022919 0.165649 0.319703
Si Si7 0.492493 0.833230 0.315149
O O1 0.954277 0.885428 0.741214
O O2 0.100936 0.020524 0.777753
O O3 0.934825 0.997730 0.825974
O O4 0.418998 0.936803 0.033111
O O5 0.769101 0.128800 0.385644
O O6 0.744379 0.146329 0.226851
O O7 0.775829 0.013496 0.298457
O O8 0.308260 0.092799 0.076337
O O9 0.908504 0.878013 0.329390
O O10 0.027005 0.750000 0.451104
O O11 0.674656 0.654143 0.334692
O O12 0.770303 0.112216 0.818911
O O13 0.000000 0.000000 0.000000
O O14 0.995701 0.250000 0.279412
O O15 0.307889 0.151711 0.512491
O O16 0.371787 0.750000 0.255314
#
# Coordination Sequence:
#
# PCOD8071588 Si02
#       7
#     4   4   4   4   4   4   4
#     4   9  19  33  52  78 104 134 177 213 253 311
#     4   9  18  33  55  78 103 135 175 212 253 309
#     4   9  17  32  51  76 104 131 167 219 260 295
#     4  10  19  33  55  81 104 133 176 219 261 305
#     4  11  22  36  54  77 106 140 175 214 262 311
#     4   9  18  35  58  80 103 135 174 217 261 305
#     4   9  19  34  52  76 107 141 174 210 259 317
#
# _framework density 18.333572
#
# number of rings (size 3 to 8) (size 9 to 14) (size 15 to 20)
#    0.000    2.571    0.000    4.286    0.000    4.571 
#    0.000    1.429    0.000    1.714    0.000    0.000 
#    0.000    0.000    0.000    0.000    0.000    0.000 
#
# Total GULP energy -347190.150543 kJ/mol
# GULP energy per Si atom -12399.648234 kJ/mol
# Density = 1.829184 g / cm^3
# Si number density = 18.333572 Si / 1000 Ang^3
#
#
#
# Elastic Constant Matrix: (Units=GPa)
#
#
# Indices 1 2 3 4 5 6 
#
# 1 70.6767 54.3591 43.0365 0.0000 -14.3715 0.0000
# 2 54.3591 136.6625 71.6736 0.0000 -16.7570 0.0000
# 3 43.0365 71.6736 81.4706 0.0000 -4.4797 0.0000
# 4 0.0000 0.0000 0.0000 34.1028 0.0000 2.1698
# 5 -14.3715 -16.7570 -4.4797 0.0000 32.3311 0.0000
# 6 0.0000 0.0000 0.0000 2.1698 0.0000 16.1787
#
#
#
# Elastic Compliance Matrix: (Units=1/GPa)
#
#
# Indices 1 2 3 4 5 6 
#
# 1 0.024125 -0.004122 -0.008712 0.000000 0.007380 0.000000
# 2 -0.004122 0.015305 -0.011036 0.000000 0.004571 0.000000
# 3 -0.008712 -0.011036 0.026258 0.000000 -0.005954 0.000000
# 4 0.000000 0.000000 0.000000 0.029576 0.000000 -0.003966
# 5 0.007380 0.004571 -0.005954 0.000000 0.035755 0.000000
# 6 0.000000 0.000000 0.000000 -0.003966 0.000000 0.062342
#
#
# Mechanical properties :
#
#
# Convention : Reuss Voigt Hill
#
# Bulk Modulus (GPa) = 55.71516 69.66092 62.68804
# Shear Modulus (GPa) = 20.23622 24.50521 22.37071
#
# Velocity S-wave (km/s) = 3.32592 3.65996 3.49693
# Velocity P-wave (km/s) = 6.72344 7.47926 7.11140
#
# Compressibility (1/GPa) = 0.01794844
#
# Stress axis : x y z
#
# Youngs Moduli (GPa) = 41.45132 65.33674 38.08409
#
# Poissons Ratio (x) = 0.26933 0.33177
# Poissons Ratio (y) = 0.17087 0.42030
# Poissons Ratio (z) = 0.36110 0.72106
#
# Static dielectric constant tensor:
#      x y z
#    x 3.281390 0.000000 -0.195660 
#    y 0.000000 1.207740 0.000000 
#    z -0.195660 0.000000 21.770310 
# 
# 
# High freq. dielectric constant tensor:
#      x y z
#    x 1.692420 0.000000 -0.015290 
#    y 0.000000 1.716060 0.000000 
#    z -0.015290 0.000000 1.703200 
# 
# From -- ./inp_files/25260.got.cif
#   From: 2010.06.25/outbox.cif.g09.slc.cpg/sg11_13_cif.got.tgz:25260.got - 2010.06.27 23:14:04.
