data_PCOD8071179
_publ_section_title
;
Structure prediction by ZEFSAII (Michael W. Deem and Ramdas Pophale) SiO2 
 PCOD8071179
Probable space group: P 21/M
;
_chemical_formula_sum "Si O2"
_cell_formula_units_Z 28
_cell_length_a 17.429404
_cell_length_b 8.882576
_cell_length_c 14.119274
_cell_angle_alpha 90.000000
_cell_angle_beta 136.506170
_cell_angle_gamma 90.000000
_cell_volume 1504.515791
_symmetry_space_group_name_H-M "P 21/M"
_symmetry_group_IT_number 11
_symmetry_cell_setting 'monoclinic'
loop_
_space_group_symop_operation_xyz
x,y,z
-x,1/2+y,-z
-x,-y,-z
x,1/2-y,z
loop_
_atom_site_type_symbol
_atom_site_label
_atom_site_fract_x
_atom_site_fract_y
_atom_site_fract_z
Si Si1 0.360801 0.576792 0.637425
Si Si2 0.832830 0.072362 0.673519
Si Si3 0.732830 0.425325 0.086295
Si Si4 0.224485 0.571896 0.169604
Si Si5 0.393439 0.077191 0.194268
Si Si6 0.937608 0.423128 0.142848
Si Si7 0.387337 0.072266 0.860205
O O1 0.341529 0.750000 0.651022
O O2 0.261366 0.514785 0.482805
O O3 0.473657 0.562464 0.677474
O O4 0.364530 0.473078 0.732519
O O5 0.832205 0.250000 0.677582
O O6 0.808112 0.009387 0.756473
O O7 0.952178 0.019480 0.743429
O O8 0.708563 0.250000 0.080394
O O9 0.858247 0.452609 0.161942
O O10 0.716333 0.513812 0.169635
O O11 0.643996 0.484404 0.930874
O O12 0.245392 0.750000 0.186042
O O13 0.338459 0.491143 0.239594
O O14 0.125701 0.526108 0.009342
O O15 0.356320 0.250000 0.148441
O O16 0.972385 0.250000 0.166636
O O17 0.397398 0.250000 0.877949
O O18 0.500000 0.000000 0.000000
#
# Coordination Sequence:
#
# PCOD8071179 Si02
#       7
#     4   4   4   4   4   4   4
#     4  10  22  38  54  79 115 148 184 229 277 328
#     4  10  21  37  56  78 110 152 189 229 278 327
#     4  10  20  36  58  84 113 142 179 230 281 322
#     4   9  19  35  55  80 111 146 186 233 281 323
#     4  10  19  32  53  81 111 144 184 228 276 330
#     4   9  19  35  56  82 111 143 183 232 277 324
#     4  12  23  36  59  87 112 143 182 223 272 330
#
# _framework density 18.610638000000002
#
# number of rings (size 3 to 8) (size 9 to 14) (size 15 to 20)
#    0.000    2.000    1.429    3.429    0.000    5.143 
#    0.000    0.714    0.000    0.000    0.000    0.000 
#    0.000    0.000    0.000    0.000    0.000    0.000 
#
# Total GULP energy -347284.281880 kJ/mol
# GULP energy per Si atom -12403.010067 kJ/mol
# Density = 1.856828 g / cm^3
# Si number density = 18.610638 Si / 1000 Ang^3
#
#
#
# Elastic Constant Matrix: (Units=GPa)
#
#
# Indices 1 2 3 4 5 6 
#
# 1 122.7675 49.1607 61.5609 0.0000 4.5955 0.0000
# 2 49.1607 84.3310 41.4247 0.0000 2.3065 0.0000
# 3 61.5609 41.4247 106.9628 0.0000 10.6161 0.0000
# 4 0.0000 0.0000 0.0000 24.5565 0.0000 2.7015
# 5 4.5955 2.3065 10.6161 0.0000 18.7292 0.0000
# 6 0.0000 0.0000 0.0000 2.7015 0.0000 35.5037
#
#
#
# Elastic Compliance Matrix: (Units=1/GPa)
#
#
# Indices 1 2 3 4 5 6 
#
# 1 0.012836 -0.004743 -0.005612 0.000000 0.000615 0.000000
# 2 -0.004743 0.016436 -0.003762 0.000000 0.001272 0.000000
# 3 -0.005612 -0.003762 0.014679 0.000000 -0.006480 0.000000
# 4 0.000000 0.000000 0.000000 0.041066 0.000000 -0.003125
# 5 0.000615 0.001272 -0.006480 0.000000 0.056758 0.000000
# 6 0.000000 0.000000 0.000000 -0.003125 0.000000 0.028404
#
#
# Mechanical properties :
#
#
# Convention : Reuss Voigt Hill
#
# Bulk Modulus (GPa) = 63.62278 68.70600 66.16439
# Shear Modulus (GPa) = 24.55193 26.55223 25.55208
#
# Velocity S-wave (km/s) = 3.63608 3.78130 3.70940
# Velocity P-wave (km/s) = 7.20337 7.48746 7.34679
#
# Compressibility (1/GPa) = 0.01571764
#
# Stress axis : x y z
#
# Youngs Moduli (GPa) = 77.90881 60.84215 68.12547
#
# Poissons Ratio (x) = 0.28856 0.38229
# Poissons Ratio (y) = 0.36950 0.25628
# Poissons Ratio (z) = 0.43719 0.22889
#
# Static dielectric constant tensor:
#      x y z
#    x 3.686230 0.000000 -0.023580 
#    y 0.000000 3.399450 0.000000 
#    z -0.023580 0.000000 3.283860 
# 
# 
# High freq. dielectric constant tensor:
#      x y z
#    x 1.735030 0.000000 0.003040 
#    y 0.000000 1.723060 0.000000 
#    z 0.003040 0.000000 1.699790 
# 
# From -- ./inp_files/53267.got.cif
#   From: 2010.06.25/outbox.cif.g09.slc.cpg/sg11_27_cif.got.tgz:53267.got - 2010.06.27 23:14:04.
