data_PCOD8071223
_publ_section_title
;
Structure prediction by ZEFSAII (Michael W. Deem and Ramdas Pophale) SiO2 
 PCOD8071223
Probable space group: P 21/M
;
_chemical_formula_sum "Si O2"
_cell_formula_units_Z 28
_cell_length_a 21.704753
_cell_length_b 8.572039
_cell_length_c 14.794131
_cell_angle_alpha 90.000000
_cell_angle_beta 146.105319
_cell_angle_gamma 90.000000
_cell_volume 1534.985270
_symmetry_space_group_name_H-M "P 21/M"
_symmetry_group_IT_number 11
_symmetry_cell_setting 'monoclinic'
loop_
_space_group_symop_operation_xyz
x,y,z
-x,1/2+y,-z
-x,-y,-z
x,1/2-y,z
loop_
_atom_site_type_symbol
_atom_site_label
_atom_site_fract_x
_atom_site_fract_y
_atom_site_fract_z
Si Si1 0.661414 0.570789 0.758050
Si Si2 0.356858 0.069791 0.958248
Si Si3 0.783796 0.071054 0.058619
Si Si4 0.245578 0.568448 0.649980
Si Si5 0.412544 0.070057 0.718635
Si Si6 0.561863 0.569821 0.453561
Si Si7 0.981615 0.932187 0.576369
O O1 0.692324 0.750000 0.809833
O O2 0.652981 0.528401 0.641151
O O3 0.544663 0.537677 0.663884
O O4 0.757520 0.468425 0.921967
O O5 0.342115 0.250000 0.914514
O O6 0.296235 0.035077 0.978386
O O7 0.301521 0.965578 0.813982
O O8 0.486074 0.032687 0.122268
O O9 0.755985 0.250000 0.046262
O O10 0.911206 0.034380 0.232497
O O11 0.254755 0.750000 0.639947
O O12 0.303562 0.473398 0.640735
O O13 0.118255 0.518781 0.496207
O O14 0.443123 0.250000 0.771691
O O15 0.386635 0.036764 0.581839
O O16 0.524644 0.750000 0.418819
O O17 0.954946 0.750000 0.535278
O O18 0.000000 0.000000 0.500000
#
# Coordination Sequence:
#
# PCOD8071223 Si02
#       7
#     4   4   4   4   4   4   4
#     4  10  19  32  54  84 113 145 184 227 277 333
#     4  12  23  36  56  83 114 149 189 228 276 333
#     4  11  22  36  56  83 115 148 182 229 282 331
#     4  12  25  40  57  80 113 150 191 232 279 334
#     4  11  22  38  58  81 115 152 188 229 279 333
#     4   9  19  34  54  80 113 148 183 227 278 330
#     4  11  23  39  60  82 109 146 191 234 279 327
#
# _framework density 18.241216999999999
#
# number of rings (size 3 to 8) (size 9 to 14) (size 15 to 20)
#    0.000    1.143    2.857    4.714    0.000    2.857 
#    0.000    0.000    0.000    0.857    0.000    0.000 
#    0.000    0.000    0.000    0.000    0.000    0.000 
#
# Total GULP energy -347334.998824 kJ/mol
# GULP energy per Si atom -12404.821387 kJ/mol
# Density = 1.819970 g / cm^3
# Si number density = 18.241217 Si / 1000 Ang^3
#
#
#
# Elastic Constant Matrix: (Units=GPa)
#
#
# Indices 1 2 3 4 5 6 
#
# 1 71.0369 13.5514 51.9323 0.0000 2.3773 0.0000
# 2 13.5514 62.3123 29.7685 0.0000 -3.3543 0.0000
# 3 51.9323 29.7685 118.9969 0.0000 -11.1380 0.0000
# 4 0.0000 0.0000 0.0000 29.9890 0.0000 -1.4712
# 5 2.3773 -3.3543 -11.1380 0.0000 29.7570 0.0000
# 6 0.0000 0.0000 0.0000 -1.4712 0.0000 24.5682
#
#
#
# Elastic Compliance Matrix: (Units=1/GPa)
#
#
# Indices 1 2 3 4 5 6 
#
# 1 0.021487 -0.000275 -0.009816 0.000000 -0.005422 0.000000
# 2 -0.000275 0.018234 -0.004401 0.000000 0.000430 0.000000
# 3 -0.009816 -0.004401 0.014317 0.000000 0.005647 0.000000
# 4 0.000000 0.000000 0.000000 0.033444 0.000000 0.002003
# 5 -0.005422 0.000430 0.005647 0.000000 0.036201 0.000000
# 6 0.000000 0.000000 0.000000 0.002003 0.000000 0.040823
#
#
# Mechanical properties :
#
#
# Convention : Reuss Voigt Hill
#
# Bulk Modulus (GPa) = 39.91497 49.20560 44.56029
# Shear Modulus (GPa) = 24.77195 27.33577 26.05386
#
# Velocity S-wave (km/s) = 3.68913 3.87534 3.78338
# Velocity P-wave (km/s) = 6.33052 6.85987 6.60051
#
# Compressibility (1/GPa) = 0.02505326
#
# Stress axis : x y z
#
# Youngs Moduli (GPa) = 46.53916 54.84352 69.84736
#
# Poissons Ratio (x) = 0.01510 0.68562
# Poissons Ratio (y) = 0.01282 0.30739
# Poissons Ratio (z) = 0.45683 0.24136
#
# Static dielectric constant tensor:
#      x y z
#    x 3.310310 0.000000 -0.148600 
#    y 0.000000 3.461550 0.000000 
#    z -0.148600 0.000000 3.459100 
# 
# 
# High freq. dielectric constant tensor:
#      x y z
#    x 1.689480 0.000000 -0.014830 
#    y 0.000000 1.721460 0.000000 
#    z -0.014830 0.000000 1.703730 
# 
# From -- ./inp_files/54585.got.cif
#   From: 2010.06.25/outbox.cif.g09.slc.cpg/sg11_28_cif.got.tgz:54585.got - 2010.06.27 23:14:04.
