data_PCOD8071593
_publ_section_title
;
Structure prediction by ZEFSAII (Michael W. Deem and Ramdas Pophale) SiO2 
 PCOD8071593
Probable space group: P 21/M
;
_chemical_formula_sum "Si O2"
_cell_formula_units_Z 32
_cell_length_a 19.953814
_cell_length_b 9.159283
_cell_length_c 12.134854
_cell_angle_alpha 90.000000
_cell_angle_beta 54.860987
_cell_angle_gamma 90.000000
_cell_volume 1813.621921
_symmetry_space_group_name_H-M "P 21/M"
_symmetry_group_IT_number 11
_symmetry_cell_setting 'monoclinic'
loop_
_space_group_symop_operation_xyz
x,y,z
-x,1/2+y,-z
-x,-y,-z
x,1/2-y,z
loop_
_atom_site_type_symbol
_atom_site_label
_atom_site_fract_x
_atom_site_fract_y
_atom_site_fract_z
Si Si1 0.017158 0.420569 0.309372
Si Si2 0.542517 0.079696 0.860495
Si Si3 0.495184 0.419430 0.668695
Si Si4 0.783303 0.919303 0.363412
Si Si5 0.723749 0.419163 0.635491
Si Si6 0.966697 0.924098 0.140172
Si Si7 0.622122 0.580950 0.405018
Si Si8 0.881586 0.083154 0.615515
O O1 0.028587 0.250000 0.271552
O O2 0.094472 0.476145 0.307617
O O3 0.015102 0.511985 0.198908
O O4 0.934522 0.451743 0.456104
O O5 0.544235 0.250000 0.885609
O O6 0.487813 0.043233 0.804479
O O7 0.635127 0.020785 0.756228
O O8 0.500000 0.000000 0.000000
O O9 0.513183 0.250000 0.635252
O O10 0.574364 0.498824 0.546201
O O11 0.411924 0.467418 0.683328
O O12 0.784861 0.750000 0.392369
O O13 0.871756 0.970744 0.238683
O O14 0.718732 0.953155 0.325571
O O15 0.756536 0.000720 0.497793
O O16 0.717509 0.250000 0.609628
O O17 0.786671 0.444501 0.676726
O O18 0.978796 0.750000 0.122832
O O19 0.000000 0.000000 0.000000
O O20 0.604214 0.750000 0.441027
O O21 0.897696 0.250000 0.637002
#
# Coordination Sequence:
#
# PCOD8071593 Si02
#       8
#     4   4   4   4   4   4   4   4
#     4  10  19  33  55  81 108 140 177 220 272 325
#     4  10  21  35  52  75 107 145 180 218 262 315
#     4   9  17  31  51  75 104 137 172 210 260 313
#     4  10  20  33  53  81 108 135 174 224 268 313
#     4  10  19  34  55  79 107 140 180 223 264 314
#     4  11  23  38  55  77 110 148 183 222 271 326
#     4   9  17  30  51  79 106 132 166 216 264 308
#     4   9  18  32  53  80 109 139 174 223 272 319
#
# _framework density 17.64425
#
# number of rings (size 3 to 8) (size 9 to 14) (size 15 to 20)
#    0.000    2.250    2.500    0.750    0.000    2.500 
#    0.000    1.250    0.000    1.500    0.000    0.000 
#    0.000    0.000    0.000    0.000    0.000    0.000 
#
# Total GULP energy -396758.091479 kJ/mol
# GULP energy per Si atom -12398.690359 kJ/mol
# Density = 1.760409 g / cm^3
# Si number density = 17.644250 Si / 1000 Ang^3
#
#
#
# Elastic Constant Matrix: (Units=GPa)
#
#
# Indices 1 2 3 4 5 6 
#
# 1 119.1824 45.8023 67.5705 0.0000 3.4291 0.0000
# 2 45.8023 60.5536 52.3230 0.0000 5.8175 0.0000
# 3 67.5705 52.3230 121.7585 0.0000 5.1469 0.0000
# 4 0.0000 0.0000 0.0000 30.7737 0.0000 4.4403
# 5 3.4291 5.8175 5.1469 0.0000 25.4864 0.0000
# 6 0.0000 0.0000 0.0000 4.4403 0.0000 26.0321
#
#
#
# Elastic Compliance Matrix: (Units=1/GPa)
#
#
# Indices 1 2 3 4 5 6 
#
# 1 0.013466 -0.005982 -0.004926 0.000000 0.000548 0.000000
# 2 -0.005982 0.029286 -0.009094 0.000000 -0.004043 0.000000
# 3 -0.004926 -0.009094 0.014866 0.000000 -0.000264 0.000000
# 4 0.000000 0.000000 0.000000 0.033315 0.000000 -0.005683
# 5 0.000548 -0.004043 -0.000264 0.000000 0.040139 0.000000
# 6 0.000000 0.000000 0.000000 -0.005683 0.000000 0.039383
#
#
# Mechanical properties :
#
#
# Convention : Reuss Voigt Hill
#
# Bulk Modulus (GPa) = 56.77439 70.32070 63.54755
# Shear Modulus (GPa) = 23.11280 25.51169 24.31225
#
# Velocity S-wave (km/s) = 3.62323 3.80661 3.71605
# Velocity P-wave (km/s) = 7.05343 7.69816 7.38284
#
# Compressibility (1/GPa) = 0.01761358
#
# Stress axis : x y z
#
# Youngs Moduli (GPa) = 74.25904 34.14637 67.26980
#
# Poissons Ratio (x) = 0.20428 0.33134
# Poissons Ratio (y) = 0.44425 0.61175
# Poissons Ratio (z) = 0.36577 0.31053
#
# Static dielectric constant tensor:
#      x y z
#    x 3.835810 0.000000 -0.056480 
#    y 0.000000 3.274580 0.000000 
#    z -0.056480 0.000000 3.047930 
# 
# 
# High freq. dielectric constant tensor:
#      x y z
#    x 1.701010 0.000000 0.005610 
#    y 0.000000 1.683240 0.000000 
#    z 0.005610 0.000000 1.650120 
# 
# From -- ./inp_files/42747.got.cif
#   From: 2010.06.25/outbox.cif.g09.slc.cpg/sg11_22_cif.got.tgz:42747.got - 2010.06.27 23:14:04.
