data_PCOD8071526
_publ_section_title
;
Structure prediction by ZEFSAII (Michael W. Deem and Ramdas Pophale) SiO2 
 PCOD8071526
Probable space group: P 21/M
;
_chemical_formula_sum "Si O2"
_cell_formula_units_Z 32
_cell_length_a 13.138500
_cell_length_b 22.963618
_cell_length_c 10.843687
_cell_angle_alpha 90.000000
_cell_angle_beta 149.049624
_cell_angle_gamma 90.000000
_cell_volume 1682.580247
_symmetry_space_group_name_H-M "P 21/M"
_symmetry_group_IT_number 11
_symmetry_cell_setting 'monoclinic'
loop_
_space_group_symop_operation_xyz
x,y,z
-x,1/2+y,-z
-x,-y,-z
x,1/2-y,z
loop_
_atom_site_type_symbol
_atom_site_label
_atom_site_fract_x
_atom_site_fract_y
_atom_site_fract_z
Si Si1 0.524219 0.684613 0.781914
Si Si2 0.437893 0.418523 0.020543
Si Si3 0.724341 0.018410 0.489413
Si Si4 0.473059 0.817914 0.339917
Si Si5 0.539324 0.419139 0.849404
Si Si6 0.895061 0.497784 0.260057
Si Si7 0.170835 0.184897 0.117206
Si Si8 0.766986 0.127149 0.691778
O O1 0.514802 0.750000 0.816936
O O2 0.564516 0.649170 0.947769
O O3 0.696345 0.672195 0.863346
O O4 0.316042 0.668026 0.503175
O O5 0.637270 0.448050 0.279592
O O6 0.426057 0.424340 0.861961
O O7 0.252556 0.447594 0.896706
O O8 0.723186 0.059675 0.610068
O O9 0.587325 0.961497 0.373646
O O10 0.949145 0.001397 0.689903
O O11 0.405086 0.750000 0.254425
O O12 0.465168 0.852446 0.202207
O O13 0.695597 0.820182 0.621900
O O14 0.328265 0.854422 0.278016
O O15 0.766711 0.439181 0.103376
O O16 0.000000 0.500000 0.500000
O O17 0.079868 0.250000 0.015984
O O18 0.001111 0.136748 0.945683
#
# Coordination Sequence:
#
# PCOD8071526 Si02
#       8
#     4   4   4   4   4   4   4   4
#     4   9  18  31  52  82 108 135 178 230 275 317
#     4  10  19  33  54  80 111 143 177 217 270 332
#     4  10  20  35  57  86 107 137 181 227 277 319
#     4  10  23  40  56  77 110 151 186 218 265 323
#     4  11  22  36  55  81 112 146 182 217 265 334
#     4  11  18  35  59  79 106 143 178 220 274 326
#     4   9  17  34  56  76 101 139 184 227 271 319
#     4  10  19  35  59  79 106 141 183 231 274 318
#
# _framework density 19.018408999999998
#
# number of rings (size 3 to 8) (size 9 to 14) (size 15 to 20)
#    0.000    2.000    2.500    3.375    0.000    3.000 
#    0.000    1.250    0.000    0.750    0.000    0.000 
#    0.000    0.000    0.000    0.000    0.000    0.000 
#
# Total GULP energy -396725.125598 kJ/mol
# GULP energy per Si atom -12397.660175 kJ/mol
# Density = 1.897512 g / cm^3
# Si number density = 19.018409 Si / 1000 Ang^3
#
#
#
# Elastic Constant Matrix: (Units=GPa)
#
#
# Indices 1 2 3 4 5 6 
#
# 1 47.3894 36.5833 19.4646 0.0000 -0.1484 0.0000
# 2 36.5833 104.3187 30.1905 0.0000 -7.0689 0.0000
# 3 19.4646 30.1905 84.2611 0.0000 12.5661 0.0000
# 4 0.0000 0.0000 0.0000 27.0746 0.0000 -3.7240
# 5 -0.1484 -7.0689 12.5661 0.0000 20.9627 0.0000
# 6 0.0000 0.0000 0.0000 -3.7240 0.0000 31.0752
#
#
#
# Elastic Compliance Matrix: (Units=1/GPa)
#
#
# Indices 1 2 3 4 5 6 
#
# 1 0.029855 -0.009582 -0.003309 0.000000 -0.001037 0.000000
# 2 -0.009582 0.014638 -0.004126 0.000000 0.007342 0.000000
# 3 -0.003309 -0.004126 0.015728 0.000000 -0.010843 0.000000
# 4 0.000000 0.000000 0.000000 0.037554 0.000000 0.004500
# 5 -0.001037 0.007342 -0.010843 0.000000 0.056672 0.000000
# 6 0.000000 0.000000 0.000000 0.004500 0.000000 0.032719
#
#
# Mechanical properties :
#
#
# Convention : Reuss Voigt Hill
#
# Bulk Modulus (GPa) = 38.18810 45.38290 41.78550
# Shear Modulus (GPa) = 21.74589 25.80456 23.77523
#
# Velocity S-wave (km/s) = 3.38511 3.68750 3.53953
# Velocity P-wave (km/s) = 5.94994 6.48418 6.22280
#
# Compressibility (1/GPa) = 0.02618617
#
# Stress axis : x y z
#
# Youngs Moduli (GPa) = 33.49535 68.31498 63.58278
#
# Poissons Ratio (x) = 0.65463 0.21037
# Poissons Ratio (y) = 0.32097 0.26235
# Poissons Ratio (z) = 0.11082 0.28187
#
# Static dielectric constant tensor:
#      x y z
#    x 3.188410 0.000000 0.086780 
#    y 0.000000 3.503890 0.000000 
#    z 0.086780 0.000000 3.566800 
# 
# 
# High freq. dielectric constant tensor:
#      x y z
#    x 1.715280 0.000000 0.008630 
#    y 0.000000 1.736570 0.000000 
#    z 0.008630 0.000000 1.740100 
# 
# From -- ./inp_files/36583.got.cif
#   From: 2010.06.25/outbox.cif.g09.slc.cpg/sg11_19_cif.got.tgz:36583.got - 2010.06.27 23:14:04.
