data_PCOD8071707
_publ_section_title
;
Structure prediction by ZEFSAII (Michael W. Deem and Ramdas Pophale) SiO2 
 PCOD8071707
Probable space group: P 21/M
;
_chemical_formula_sum "Si O2"
_cell_formula_units_Z 28
_cell_length_a 11.094628
_cell_length_b 19.468386
_cell_length_c 8.474002
_cell_angle_alpha 90.000000
_cell_angle_beta 127.646555
_cell_angle_gamma 90.000000
_cell_volume 1449.249807
_symmetry_space_group_name_H-M "P 21/M"
_symmetry_group_IT_number 11
_symmetry_cell_setting 'monoclinic'
loop_
_space_group_symop_operation_xyz
x,y,z
-x,1/2+y,-z
-x,-y,-z
x,1/2-y,z
loop_
_atom_site_type_symbol
_atom_site_label
_atom_site_fract_x
_atom_site_fract_y
_atom_site_fract_z
Si Si1 0.610356 0.082293 0.291001
Si Si2 0.510375 0.827806 0.546488
Si Si3 0.355549 0.067567 0.567017
Si Si4 0.129281 0.962220 0.703845
Si Si5 0.305437 0.407066 0.870932
Si Si6 0.949865 0.564463 0.858280
Si Si7 0.832858 0.674475 0.975614
O O1 0.611050 0.139527 0.429006
O O2 0.774760 0.087048 0.336701
O O3 0.573050 0.006437 0.331552
O O4 0.480361 0.100466 0.060998
O O5 0.460259 0.750000 0.458048
O O6 0.519761 0.879806 0.404906
O O7 0.674865 0.825171 0.756755
O O8 0.289819 0.104610 0.671040
O O9 0.221714 0.052170 0.336737
O O10 0.058571 0.921333 0.794855
O O11 0.247136 0.017142 0.869875
O O12 0.000000 0.000000 0.500000
O O13 0.196097 0.353233 0.871234
O O14 0.956458 0.629976 0.978833
O O15 0.000000 0.500000 0.000000
O O16 0.902816 0.750000 0.046018
#
# Coordination Sequence:
#
# PCOD8071707 Si02
#       7
#     4   4   4   4   4   4   4
#     4  10  20  35  55  83 108 140 181 228 270 317
#     4   9  19  35  53  76 109 145 180 222 271 320
#     4  10  19  33  56  86 107 136 184 226 270 319
#     4  11  19  34  54  82 111 139 179 224 270 322
#     4  10  19  34  56  83 107 139 179 229 274 312
#     4  11  20  33  56  81 109 145 178 222 273 321
#     4   9  19  34  53  78 108 144 185 221 268 327
#
# _framework density 19.320340999999999
#
# number of rings (size 3 to 8) (size 9 to 14) (size 15 to 20)
#    0.000    2.000    4.286    2.143    0.000    0.571 
#    2.571    0.714    0.000    3.429    0.000    0.000 
#    0.000    0.000    0.000    0.000    0.000    0.000 
#
# Total GULP energy -347086.515750 kJ/mol
# GULP energy per Si atom -12395.946991 kJ/mol
# Density = 1.927637 g / cm^3
# Si number density = 19.320341 Si / 1000 Ang^3
#
#
#
# Elastic Constant Matrix: (Units=GPa)
#
#
# Indices 1 2 3 4 5 6 
#
# 1 147.3993 75.9770 30.9552 0.0000 -19.0188 0.0000
# 2 75.9770 124.9407 22.6222 0.0000 -25.7650 0.0000
# 3 30.9552 22.6222 61.4776 0.0000 -14.2931 0.0000
# 4 0.0000 0.0000 0.0000 17.1546 0.0000 -3.3444
# 5 -19.0188 -25.7650 -14.2931 0.0000 27.8291 0.0000
# 6 0.0000 0.0000 0.0000 -3.3444 0.0000 32.0373
#
#
#
# Elastic Compliance Matrix: (Units=1/GPa)
#
#
# Indices 1 2 3 4 5 6 
#
# 1 0.010413 -0.005726 -0.003082 0.000000 0.000232 0.000000
# 2 -0.005726 0.013204 -0.000049 0.000000 0.008286 0.000000
# 3 -0.003082 -0.000049 0.019686 0.000000 0.007959 0.000000
# 4 0.000000 0.000000 0.000000 0.059504 0.000000 0.006212
# 5 0.000232 0.008286 0.007959 0.000000 0.047851 0.000000
# 6 0.000000 0.000000 0.000000 0.006212 0.000000 0.031862
#
#
# Mechanical properties :
#
#
# Convention : Reuss Voigt Hill
#
# Bulk Modulus (GPa) = 39.08029 65.88070 52.48049
# Shear Modulus (GPa) = 23.95035 29.02174 26.48604
#
# Velocity S-wave (km/s) = 3.52468 3.87994 3.70657
# Velocity P-wave (km/s) = 6.06926 7.36513 6.74837
#
# Compressibility (1/GPa) = 0.02558835
#
# Stress axis : x y z
#
# Youngs Moduli (GPa) = 96.03227 75.73718 50.79625
#
# Poissons Ratio (x) = 0.43370 0.15656
# Poissons Ratio (y) = 0.54992 0.00248
# Poissons Ratio (z) = 0.29599 0.00370
#
# Static dielectric constant tensor:
#      x y z
#    x 3.808150 0.000000 -0.264770 
#    y 0.000000 3.599420 0.000000 
#    z -0.264770 0.000000 3.382610 
# 
# 
# High freq. dielectric constant tensor:
#      x y z
#    x 1.757590 0.000000 -0.019460 
#    y 0.000000 1.726270 0.000000 
#    z -0.019460 0.000000 1.735740 
# 
# From -- ./inp_files/19238.got.cif
#   From: 2010.06.25/outbox.cif.g09.slc.cpg/sg11_10_cif.got.tgz:19238.got - 2010.06.27 23:14:04.
