data_PCOD8071777
_publ_section_title
;
Structure prediction by ZEFSAII (Michael W. Deem and Ramdas Pophale) SiO2 
 PCOD8071777
Probable space group: P 21/M
;
_chemical_formula_sum "Si O2"
_cell_formula_units_Z 32
_cell_length_a 19.545272
_cell_length_b 13.842364
_cell_length_c 14.598965
_cell_angle_alpha 90.000000
_cell_angle_beta 21.539980
_cell_angle_gamma 90.000000
_cell_volume 1450.166998
_symmetry_space_group_name_H-M "P 21/M"
_symmetry_group_IT_number 11
_symmetry_cell_setting 'monoclinic'
loop_
_space_group_symop_operation_xyz
x,y,z
-x,1/2+y,-z
-x,-y,-z
x,1/2-y,z
loop_
_atom_site_type_symbol
_atom_site_label
_atom_site_fract_x
_atom_site_fract_y
_atom_site_fract_z
Si Si1 0.132663 0.637278 0.856961
Si Si2 0.771606 0.541483 0.713692
Si Si3 0.726510 0.856901 0.290766
Si Si4 0.541765 0.643993 0.703114
Si Si5 0.174202 0.996360 0.967396
Si Si6 0.243106 0.545486 0.539354
Si Si7 0.176699 0.948397 0.166816
Si Si8 0.389498 0.861506 0.185125
O O1 0.176329 0.750000 0.796027
O O2 0.259570 0.580470 0.624374
O O3 0.178185 0.602341 0.903126
O O4 0.915768 0.612353 0.108793
O O5 0.797640 0.533939 0.791009
O O6 0.739849 0.433349 0.713299
O O7 0.961919 0.586639 0.434065
O O8 0.605496 0.613752 0.894996
O O9 0.748827 0.750000 0.222164
O O10 0.557718 0.863276 0.572799
O O11 0.688062 0.927432 0.253709
O O12 0.615223 0.750000 0.643819
O O13 0.661919 0.558544 0.598894
O O14 0.325618 0.636221 0.003216
O O15 0.242585 0.984875 0.985365
O O16 0.969618 0.042364 0.226200
O O17 0.346930 0.622899 0.345514
O O18 0.351717 0.750000 0.205183
#
# Coordination Sequence:
#
# PCOD8071777 Si02
#       8
#     4   4   4   4   4   4   4   4
#     4  10  19  33  59  93 130 164 209 264 312 368
#     4  10  24  47  65  93 128 161 208 274 324 367
#     4   9  18  35  58  90 126 166 214 257 305 370
#     4  11  22  38  63  92 128 174 213 251 313 382
#     4  11  20  36  63  91 124 172 206 261 316 368
#     4  11  19  40  64  98 127 163 211 270 313 362
#     4  11  24  42  63  86 134 171 203 258 324 381
#     4  11  23  44  76  99 116 159 220 267 318 380
#
# _framework density 22.066424000000001
#
# number of rings (size 3 to 8) (size 9 to 14) (size 15 to 20)
#    0.000    1.500    5.000    1.125    0.000    2.500 
#    0.000    2.500    0.000    0.000    0.000    0.000 
#    0.000    0.000    0.000    0.000    0.000    0.000 
#
# Total GULP energy -396737.433063 kJ/mol
# GULP energy per Si atom -12398.044783 kJ/mol
# Density = 2.201620 g / cm^3
# Si number density = 22.066424 Si / 1000 Ang^3
#
#
#
# Elastic Constant Matrix: (Units=GPa)
#
#
# Indices 1 2 3 4 5 6 
#
# 1 66.1292 9.0528 2.8913 0.0000 24.0729 0.0000
# 2 9.0528 111.9245 32.6539 0.0000 6.4811 0.0000
# 3 2.8913 32.6539 101.1690 0.0000 2.0043 0.0000
# 4 0.0000 0.0000 0.0000 26.7745 0.0000 1.9896
# 5 24.0729 6.4811 2.0043 0.0000 30.1873 0.0000
# 6 0.0000 0.0000 0.0000 1.9896 0.0000 16.1769
#
#
#
# Elastic Compliance Matrix: (Units=1/GPa)
#
#
# Indices 1 2 3 4 5 6 
#
# 1 0.021370 -0.000740 -0.000037 0.000000 -0.016880 0.000000
# 2 -0.000740 0.010000 -0.003180 0.000000 -0.001346 0.000000
# 3 -0.000037 -0.003180 0.010912 0.000000 -0.000012 0.000000
# 4 0.000000 0.000000 0.000000 0.037693 0.000000 -0.004636
# 5 -0.016880 -0.001346 -0.000012 0.000000 0.046877 0.000000
# 6 0.000000 0.000000 0.000000 -0.004636 0.000000 0.062387
#
#
# Mechanical properties :
#
#
# Convention : Reuss Voigt Hill
#
# Bulk Modulus (GPa) = 29.09769 40.93543 35.01656
# Shear Modulus (GPa) = 23.96824 30.26939 27.11882
#
# Velocity S-wave (km/s) = 3.29931 3.70772 3.50946
# Velocity P-wave (km/s) = 5.26583 6.07625 5.68550
#
# Compressibility (1/GPa) = 0.03436699
#
# Stress axis : x y z
#
# Youngs Moduli (GPa) = 46.79551 99.99895 91.64124
#
# Poissons Ratio (x) = 0.07401 0.00343
# Poissons Ratio (y) = 0.03463 0.29141
# Poissons Ratio (z) = 0.00175 0.31799
#
# Static dielectric constant tensor:
#      x y z
#    x 3.788900 0.000000 0.264130 
#    y 0.000000 3.803910 0.000000 
#    z 0.264130 0.000000 4.225890 
# 
# 
# High freq. dielectric constant tensor:
#      x y z
#    x 1.848700 0.000000 0.019200 
#    y 0.000000 1.848610 0.000000 
#    z 0.019200 0.000000 1.881340 
# 
# From -- ./inp_files/55004.got.cif
#   From: 2010.06.25/outbox.cif.g09.slc.cpg/sg11_28_cif.got.tgz:55004.got - 2010.06.27 23:14:04.
