data_PCOD8071661
_publ_section_title
;
Structure prediction by ZEFSAII (Michael W. Deem and Ramdas Pophale) SiO2 
 PCOD8071661
Probable space group: P 21/M
;
_chemical_formula_sum "Si O2"
_cell_formula_units_Z 28
_cell_length_a 24.333445
_cell_length_b 8.981657
_cell_length_c 22.015834
_cell_angle_alpha 90.000000
_cell_angle_beta 162.288184
_cell_angle_gamma 90.000000
_cell_volume 1463.849937
_symmetry_space_group_name_H-M "P 21/M"
_symmetry_group_IT_number 11
_symmetry_cell_setting 'monoclinic'
loop_
_space_group_symop_operation_xyz
x,y,z
-x,1/2+y,-z
-x,-y,-z
x,1/2-y,z
loop_
_atom_site_type_symbol
_atom_site_label
_atom_site_fract_x
_atom_site_fract_y
_atom_site_fract_z
Si Si1 0.980370 0.575897 0.043780
Si Si2 0.886720 0.580163 0.521006
Si Si3 0.379226 0.573341 0.672458
Si Si4 0.296144 0.574680 0.916697
Si Si5 0.188887 0.078575 0.691132
Si Si6 0.577875 0.924000 0.641248
Si Si7 0.679647 0.426467 0.525239
O O1 0.006704 0.750000 0.060315
O O2 0.129984 0.514190 0.248034
O O3 0.000000 0.500000 0.000000
O O4 0.787884 0.538117 0.870604
O O5 0.877740 0.750000 0.534798
O O6 0.799836 0.471766 0.479039
O O7 0.763960 0.564615 0.330634
O O8 0.095339 0.534675 0.729384
O O9 0.403880 0.750000 0.701632
O O10 0.352384 0.512163 0.575929
O O11 0.558968 0.494962 0.885700
O O12 0.326232 0.750000 0.943483
O O13 0.327926 0.504770 0.882705
O O14 0.174269 0.250000 0.695516
O O15 0.000000 0.000000 0.500000
O O16 0.542571 0.750000 0.595961
O O17 0.478523 0.984579 0.596803
O O18 0.500000 0.000000 0.500000
O O19 0.680935 0.250000 0.523681
#
# Coordination Sequence:
#
# PCOD8071661 Si02
#       7
#     4   4   4   4   4   4   4
#     4  10  19  33  56  82 107 138 173 216 270 322
#     4   9  20  38  58  81 113 150 186 232 288 337
#     4  11  23  37  57  83 110 150 196 236 280 335
#     4  10  21  38  59  82 114 152 190 238 290 338
#     4   9  17  32  56  85 114 147 189 237 289 340
#     4  10  19  33  56  82 108 139 174 217 271 324
#     4   9  20  37  53  77 113 144 180 227 273 328
#
# _framework density 19.127642999999999
#
# number of rings (size 3 to 8) (size 9 to 14) (size 15 to 20)
#    0.000    2.286    1.429    2.143    0.000    5.143 
#    0.000    5.714    0.000    0.000    0.000    0.000 
#    0.000    0.000    0.000    0.000    0.000    0.000 
#
# Total GULP energy -347133.158533 kJ/mol
# GULP energy per Si atom -12397.612805 kJ/mol
# Density = 1.908411 g / cm^3
# Si number density = 19.127643 Si / 1000 Ang^3
#
#
#
# Elastic Constant Matrix: (Units=GPa)
#
#
# Indices 1 2 3 4 5 6 
#
# 1 121.9298 42.5035 56.6170 0.0000 -11.6392 0.0000
# 2 42.5035 73.3243 38.9706 0.0000 -4.7416 0.0000
# 3 56.6170 38.9706 128.7488 0.0000 -11.8885 0.0000
# 4 0.0000 0.0000 0.0000 29.7107 0.0000 -0.2505
# 5 -11.6392 -4.7416 -11.8885 0.0000 36.5950 0.0000
# 6 0.0000 0.0000 0.0000 -0.2505 0.0000 28.3678
#
#
#
# Elastic Compliance Matrix: (Units=1/GPa)
#
#
# Indices 1 2 3 4 5 6 
#
# 1 0.011685 -0.004781 -0.003511 0.000000 0.001956 0.000000
# 2 -0.004781 0.018219 -0.003438 0.000000 -0.000277 0.000000
# 3 -0.003511 -0.003438 0.010523 0.000000 0.001857 0.000000
# 4 0.000000 0.000000 0.000000 0.033660 0.000000 0.000297
# 5 0.001956 -0.000277 0.001857 0.000000 0.028516 0.000000
# 6 0.000000 0.000000 0.000000 0.000297 0.000000 0.035254
#
#
# Mechanical properties :
#
#
# Convention : Reuss Voigt Hill
#
# Bulk Modulus (GPa) = 58.93521 66.68724 62.81122
# Shear Modulus (GPa) = 29.94537 31.32882 30.63710
#
# Velocity S-wave (km/s) = 3.96100 4.05147 4.00649
# Velocity P-wave (km/s) = 7.19707 7.53829 7.36966
#
# Compressibility (1/GPa) = 0.01696779
#
# Stress axis : x y z
#
# Youngs Moduli (GPa) = 85.58029 54.88899 95.03156
#
# Poissons Ratio (x) = 0.26242 0.33362
# Poissons Ratio (y) = 0.40916 0.32669
# Poissons Ratio (z) = 0.30044 0.18869
#
# Static dielectric constant tensor:
#      x y z
#    x 3.849850 0.000000 0.270260 
#    y 0.000000 3.075910 0.000000 
#    z 0.270260 0.000000 4.275460 
# 
# 
# High freq. dielectric constant tensor:
#      x y z
#    x 1.742540 0.000000 -0.000870 
#    y 0.000000 1.732420 0.000000 
#    z -0.000870 0.000000 1.749570 
# 
# From -- ./inp_files/66735.got.cif
#   From: 2010.06.25/outbox.cif.g09.slc.cpg/sg11_34_cif.got.tgz:66735.got - 2010.06.27 23:14:04.
