data_PCOD8071325
_publ_section_title
;
Structure prediction by ZEFSAII (Michael W. Deem and Ramdas Pophale) SiO2 
 PCOD8071325
Probable space group: P 21/M
;
_chemical_formula_sum "Si O2"
_cell_formula_units_Z 32
_cell_length_a 14.190069
_cell_length_b 8.765591
_cell_length_c 26.050519
_cell_angle_alpha 90.000000
_cell_angle_beta 144.671834
_cell_angle_gamma 90.000000
_cell_volume 1873.718350
_symmetry_space_group_name_H-M "P 21/M"
_symmetry_group_IT_number 11
_symmetry_cell_setting 'monoclinic'
loop_
_space_group_symop_operation_xyz
x,y,z
-x,1/2+y,-z
-x,-y,-z
x,1/2-y,z
loop_
_atom_site_type_symbol
_atom_site_label
_atom_site_fract_x
_atom_site_fract_y
_atom_site_fract_z
Si Si1 0.747686 0.928825 0.587686
Si Si2 0.054597 0.922751 0.864014
Si Si3 0.727064 0.922108 0.777532
Si Si4 0.320625 0.424491 0.045399
Si Si5 0.595120 0.427805 0.090156
Si Si6 0.055440 0.069465 0.759478
Si Si7 0.179043 0.572089 0.080556
Si Si8 0.539312 0.930176 0.594119
O O1 0.780017 0.750000 0.597775
O O2 0.664601 0.974855 0.604785
O O3 0.630985 0.982866 0.489556
O O4 0.919737 0.017460 0.657709
O O5 0.117664 0.750000 0.884038
O O6 0.913682 0.925537 0.843115
O O7 0.990588 0.990269 0.782467
O O8 0.199663 0.031152 0.945959
O O9 0.675932 0.750000 0.769069
O O10 0.611581 0.985213 0.680891
O O11 0.715095 0.025220 0.822745
O O12 0.290700 0.250000 0.047996
O O13 0.499785 0.449916 0.101558
O O14 0.288592 0.528457 0.080432
O O15 0.620616 0.250000 0.089228
O O16 0.766707 0.509073 0.175994
O O17 0.500000 0.500000 0.000000
O O18 0.060696 0.250000 0.767205
O O19 0.150471 0.750000 0.067774
O O20 0.000000 0.500000 0.000000
O O21 0.509482 0.750000 0.580570
#
# Coordination Sequence:
#
# PCOD8071325 Si02
#       8
#     4   4   4   4   4   4   4   4
#     4  10  19  33  51  75 106 139 176 217 261 312
#     4  11  20  32  52  75 105 142 178 219 262 305
#     4  10  20  35  53  75 105 141 179 217 261 312
#     4  11  23  38  54  75 103 138 179 221 266 312
#     4  11  23  37  55  77 104 138 178 221 264 316
#     4  12  23  34  51  76 107 144 182 218 260 313
#     4  12  24  36  53  76 105 140 180 221 262 310
#     4   9  18  33  51  75 105 138 173 214 265 314
#
# _framework density 17.078341000000002
#
# number of rings (size 3 to 8) (size 9 to 14) (size 15 to 20)
#    0.000    1.250    3.750    3.750    0.000    3.000 
#    0.000    0.000    0.000    0.000    0.000    0.875 
#    0.000    0.000    0.000    0.000    0.000    0.000 
#
# Total GULP energy -396833.721499 kJ/mol
# GULP energy per Si atom -12401.053797 kJ/mol
# Density = 1.703947 g / cm^3
# Si number density = 17.078341 Si / 1000 Ang^3
#
#
#
# Elastic Constant Matrix: (Units=GPa)
#
#
# Indices 1 2 3 4 5 6 
#
# 1 67.1727 37.9197 36.8850 0.0000 -0.8922 0.0000
# 2 37.9197 90.3251 40.4321 0.0000 -2.7638 0.0000
# 3 36.8850 40.4321 114.7443 0.0000 2.0242 0.0000
# 4 0.0000 0.0000 0.0000 31.2770 0.0000 -1.0512
# 5 -0.8922 -2.7638 2.0242 0.0000 24.3501 0.0000
# 6 0.0000 0.0000 0.0000 -1.0512 0.0000 24.7586
#
#
#
# Elastic Compliance Matrix: (Units=1/GPa)
#
#
# Indices 1 2 3 4 5 6 
#
# 1 0.021211 -0.006932 -0.004382 0.000000 0.000355 0.000000
# 2 -0.006932 0.015497 -0.003263 0.000000 0.001776 0.000000
# 3 -0.004382 -0.003263 0.011299 0.000000 -0.001470 0.000000
# 4 0.000000 0.000000 0.000000 0.032018 0.000000 0.001359
# 5 0.000355 0.001776 -0.001470 0.000000 0.041404 0.000000
# 6 0.000000 0.000000 0.000000 0.001359 0.000000 0.040448
#
#
# Mechanical properties :
#
#
# Convention : Reuss Voigt Hill
#
# Bulk Modulus (GPa) = 53.04519 55.85727 54.45123
# Shear Modulus (GPa) = 25.33994 26.54416 25.94205
#
# Velocity S-wave (km/s) = 3.85612 3.94669 3.90167
# Velocity P-wave (km/s) = 7.13818 7.31751 7.22840
#
# Compressibility (1/GPa) = 0.01885185
#
# Stress axis : x y z
#
# Youngs Moduli (GPa) = 47.14463 64.53039 88.49984
#
# Poissons Ratio (x) = 0.44735 0.38780
# Poissons Ratio (y) = 0.32683 0.28881
# Poissons Ratio (z) = 0.20659 0.21058
#
# Static dielectric constant tensor:
#      x y z
#    x 3.213760 0.000000 0.132140 
#    y 0.000000 3.297680 0.000000 
#    z 0.132140 0.000000 3.354320 
# 
# 
# High freq. dielectric constant tensor:
#      x y z
#    x 1.629500 0.000000 0.000330 
#    y 0.000000 1.672160 0.000000 
#    z 0.000330 0.000000 1.654240 
# 
# From -- ./inp_files/71615.got.cif
#   From: 2010.06.25/outbox.cif.g09.slc.cpg/sg11_36_cif.got.tgz:71615.got - 2010.06.27 23:14:04.
