data_PCOD8071031
_publ_section_title
;
Structure prediction by ZEFSAII (Michael W. Deem and Ramdas Pophale) SiO2 
 PCOD8071031
Probable space group: P 21/M
;
_chemical_formula_sum "Si O2"
_cell_formula_units_Z 32
_cell_length_a 21.213182
_cell_length_b 9.112165
_cell_length_c 21.173694
_cell_angle_alpha 90.000000
_cell_angle_beta 26.323525
_cell_angle_gamma 90.000000
_cell_volume 1814.922763
_symmetry_space_group_name_H-M "P 21/M"
_symmetry_group_IT_number 11
_symmetry_cell_setting 'monoclinic'
loop_
_space_group_symop_operation_xyz
x,y,z
-x,1/2+y,-z
-x,-y,-z
x,1/2-y,z
loop_
_atom_site_type_symbol
_atom_site_label
_atom_site_fract_x
_atom_site_fract_y
_atom_site_fract_z
Si Si1 0.237697 0.418043 0.431783
Si Si2 0.690083 0.579334 0.871849
Si Si3 0.942926 0.577397 0.112993
Si Si4 0.009347 0.581638 0.809072
Si Si5 0.720228 0.915158 0.468496
Si Si6 0.381141 0.415584 0.569435
Si Si7 0.951383 0.920477 0.724246
Si Si8 0.625432 0.078108 0.807047
O O1 0.225204 0.250000 0.420368
O O2 0.330795 0.428700 0.413185
O O3 0.319750 0.511981 0.307042
O O4 0.079800 0.478910 0.584972
O O5 0.696305 0.750000 0.848955
O O6 0.812498 0.533039 0.810275
O O7 0.712569 0.489776 0.787182
O O8 0.540390 0.538054 0.038185
O O9 0.966051 0.750000 0.086559
O O10 0.032612 0.518511 0.093133
O O11 0.777996 0.532555 0.269814
O O12 0.000000 0.500000 0.000000
O O13 0.002320 0.750000 0.837208
O O14 0.167089 0.542536 0.644552
O O15 0.913335 0.553203 0.832729
O O16 0.786505 0.750000 0.398229
O O17 0.596435 0.935580 0.526874
O O18 0.500000 0.500000 0.500000
O O19 0.401185 0.250000 0.572856
O O20 0.991834 0.750000 0.676913
O O21 0.653645 0.250000 0.781057
#
# Coordination Sequence:
#
# PCOD8071031 Si02
#       8
#     4   4   4   4   4   4   4   4
#     4  10  19  32  52  75  99 128 162 201 243 286
#     4   9  19  36  54  71  96 131 165 198 241 291
#     4  10  20  34  51  72  99 131 166 203 242 287
#     4   9  16  28  49  74  98 126 159 197 244 293
#     4   8  16  31  48  68  97 130 163 199 238 284
#     4   9  18  32  50  72  98 127 161 200 241 286
#     4   9  18  33  53  76 100 125 159 203 245 287
#     4  10  20  34  52  73  98 129 164 200 240 289
#
# _framework density 17.631605
#
# number of rings (size 3 to 8) (size 9 to 14) (size 15 to 20)
#    0.000    2.750    0.000    2.250    0.000    5.000 
#    0.000    1.250    0.000    4.500    0.000    0.000 
#    0.000    0.000    0.000    0.000    0.000    0.000 
#
# Total GULP energy -396588.283022 kJ/mol
# GULP energy per Si atom -12393.383844 kJ/mol
# Density = 1.759147 g / cm^3
# Si number density = 17.631605 Si / 1000 Ang^3
#
#
#
# Elastic Constant Matrix: (Units=GPa)
#
#
# Indices 1 2 3 4 5 6 
#
# 1 162.0008 62.1125 61.9481 0.0000 11.6827 0.0000
# 2 62.1125 78.6966 39.4652 0.0000 10.3276 0.0000
# 3 61.9481 39.4652 63.4918 0.0000 16.6358 0.0000
# 4 0.0000 0.0000 0.0000 26.1010 0.0000 3.5052
# 5 11.6827 10.3276 16.6358 0.0000 30.1275 0.0000
# 6 0.0000 0.0000 0.0000 3.5052 0.0000 31.3434
#
#
#
# Elastic Compliance Matrix: (Units=1/GPa)
#
#
# Indices 1 2 3 4 5 6 
#
# 1 0.011053 -0.004817 -0.008301 0.000000 0.001949 0.000000
# 2 -0.004817 0.020561 -0.007860 0.000000 -0.000840 0.000000
# 3 -0.008301 -0.007860 0.031785 0.000000 -0.011637 0.000000
# 4 0.000000 0.000000 0.000000 0.038897 0.000000 -0.004350
# 5 0.001949 -0.000840 -0.011637 0.000000 0.039150 0.000000
# 6 0.000000 0.000000 0.000000 -0.004350 0.000000 0.032391
#
#
# Mechanical properties :
#
#
# Convention : Reuss Voigt Hill
#
# Bulk Modulus (GPa) = 46.63780 70.13788 58.38784
# Shear Modulus (GPa) = 22.42739 26.89193 24.65966
#
# Velocity S-wave (km/s) = 3.57038 3.90963 3.74385
# Velocity P-wave (km/s) = 6.59587 7.76185 7.20249
#
# Compressibility (1/GPa) = 0.02144183
#
# Stress axis : x y z
#
# Youngs Moduli (GPa) = 90.46941 48.63585 31.46187
#
# Poissons Ratio (x) = 0.23427 0.26117
# Poissons Ratio (y) = 0.43578 0.24730
# Poissons Ratio (z) = 0.75101 0.38230
#
# Static dielectric constant tensor:
#      x y z
#    x 3.610280 0.000000 0.168530 
#    y 0.000000 3.368520 0.000000 
#    z 0.168530 0.000000 2.960050 
# 
# 
# High freq. dielectric constant tensor:
#      x y z
#    x 1.697520 0.000000 0.018840 
#    y 0.000000 1.692140 0.000000 
#    z 0.018840 0.000000 1.641110 
# 
# From -- ./inp_files/66406.got.cif
#   From: 2010.06.25/outbox.cif.g09.slc.cpg/sg11_34_cif.got.tgz:66406.got - 2010.06.27 23:14:04.
