data_PCOD8071763
_publ_section_title
;
Structure prediction by ZEFSAII (Michael W. Deem and Ramdas Pophale) SiO2 
 PCOD8071763
Probable space group: P 21/M
;
_chemical_formula_sum "Si O2"
_cell_formula_units_Z 32
_cell_length_a 15.224057
_cell_length_b 9.142738
_cell_length_c 25.963606
_cell_angle_alpha 90.000000
_cell_angle_beta 153.115314
_cell_angle_gamma 90.000000
_cell_volume 1634.175604
_symmetry_space_group_name_H-M "P 21/M"
_symmetry_group_IT_number 11
_symmetry_cell_setting 'monoclinic'
loop_
_space_group_symop_operation_xyz
x,y,z
-x,1/2+y,-z
-x,-y,-z
x,1/2-y,z
loop_
_atom_site_type_symbol
_atom_site_label
_atom_site_fract_x
_atom_site_fract_y
_atom_site_fract_z
Si Si1 0.664291 0.576367 0.118868
Si Si2 0.570114 0.418419 0.283212
Si Si3 0.851470 0.920889 0.501460
Si Si4 0.164290 0.423632 0.118868
Si Si5 0.648529 0.579111 0.498540
Si Si6 0.289997 0.918065 0.752913
Si Si7 0.929885 0.081582 0.716788
Si Si8 0.210005 0.918065 0.247088
O O1 0.639356 0.750000 0.102855
O O2 0.644327 0.523864 0.167088
O O3 0.870469 0.524076 0.203625
O O4 0.500000 0.500000 0.000000
O O5 0.602073 0.250000 0.313707
O O6 0.754766 0.503150 0.401938
O O7 0.370468 0.475924 0.203624
O O8 0.562212 0.441202 0.217350
O O9 0.816135 0.750000 0.476592
O O10 0.750004 0.980738 0.500003
O O11 0.076984 0.961636 0.621589
O O12 0.139353 0.250000 0.102854
O O13 0.144324 0.476138 0.167087
O O14 0.000000 0.500000 0.000000
O O15 0.683856 0.750000 0.523404
O O16 0.745232 0.503152 0.598063
O O17 0.423017 0.538358 0.378411
O O18 0.292920 0.750000 0.773919
O O19 0.897923 0.250000 0.686291
O O20 0.937789 0.058801 0.782651
O O21 0.207091 0.750000 0.226087
#
# Coordination Sequence:
#
# PCOD8071763 Si02
#       8
#     4   4   4   4   4   4   4   4
#     4  11  24  41  60  83 111 149 194 239 285 333
#     4  10  22  38  59  86 116 151 189 231 281 337
#     4  10  19  33  58  89 119 151 184 226 281 335
#     4  11  24  41  60  83 111 149 194 239 285 333
#     4  10  19  33  58  89 119 151 184 226 281 335
#     4  10  21  39  60  85 118 152 186 229 282 338
#     4  10  22  38  59  86 116 151 189 231 281 337
#     4  10  21  39  60  85 118 152 186 229 282 338
#
# _framework density 19.581738000000001
#
# number of rings (size 3 to 8) (size 9 to 14) (size 15 to 20)
#    0.000    1.750    2.500    1.500    0.000    4.500 
#    0.000    5.000    0.000    0.000    0.000    0.000 
#    0.000    0.000    0.000    0.000    0.000    0.000 
#
# Total GULP energy -396940.916205 kJ/mol
# GULP energy per Si atom -12404.403631 kJ/mol
# Density = 1.953717 g / cm^3
# Si number density = 19.581738 Si / 1000 Ang^3
#
#
#
# Elastic Constant Matrix: (Units=GPa)
#
#
# Indices 1 2 3 4 5 6 
#
# 1 87.7967 26.4254 32.8491 0.0000 -19.6989 0.0000
# 2 26.4254 64.0800 54.2818 0.0000 -13.0695 0.0000
# 3 32.8491 54.2818 114.8124 0.0000 -18.9689 0.0000
# 4 0.0000 0.0000 0.0000 38.7995 0.0000 -7.4438
# 5 -19.6989 -13.0695 -18.9689 0.0000 19.8114 0.0000
# 6 0.0000 0.0000 0.0000 -7.4438 0.0000 31.0547
#
#
#
# Elastic Compliance Matrix: (Units=1/GPa)
#
#
# Indices 1 2 3 4 5 6 
#
# 1 0.015449 -0.003050 -0.000918 0.000000 0.012471 0.000000
# 2 -0.003050 0.027335 -0.011371 0.000000 0.004112 0.000000
# 3 -0.000918 -0.011371 0.015394 0.000000 0.006325 0.000000
# 4 0.000000 0.000000 0.000000 0.027016 0.000000 0.006476
# 5 0.012471 0.004112 0.006325 0.000000 0.071644 0.000000
# 6 0.000000 0.000000 0.000000 0.006476 0.000000 0.033753
#
#
# Mechanical properties :
#
#
# Convention : Reuss Voigt Hill
#
# Bulk Modulus (GPa) = 36.36490 54.86685 45.61587
# Shear Modulus (GPa) = 21.69795 28.14196 24.91996
#
# Velocity S-wave (km/s) = 3.33238 3.79509 3.57124
# Velocity P-wave (km/s) = 5.78079 6.87633 6.35222
#
# Compressibility (1/GPa) = 0.02749905
#
# Stress axis : x y z
#
# Youngs Moduli (GPa) = 64.72731 36.58370 64.96168
#
# Poissons Ratio (x) = 0.11158 0.05963
# Poissons Ratio (y) = 0.19742 0.73871
# Poissons Ratio (z) = 0.05941 0.41601
#
# Static dielectric constant tensor:
#      x y z
#    x 3.809560 0.000000 0.038570 
#    y 0.000000 3.588350 0.000000 
#    z 0.038570 0.000000 3.449990 
# 
# 
# High freq. dielectric constant tensor:
#      x y z
#    x 1.776540 0.000000 -0.001590 
#    y 0.000000 1.755680 0.000000 
#    z -0.001590 0.000000 1.756860 
# 
# From -- ./inp_files/55719.got.cif
#   From: 2010.06.25/outbox.cif.g09.slc.cpg/sg11_28_cif.got.tgz:55719.got - 2010.06.27 23:14:04.
