data_PCOD8071888
_publ_section_title
;
Structure prediction by ZEFSAII (Michael W. Deem and Ramdas Pophale) SiO2 
 PCOD8071888
Probable space group: P 21/M
;
_chemical_formula_sum "Si O2"
_cell_formula_units_Z 28
_cell_length_a 8.599191
_cell_length_b 9.960934
_cell_length_c 27.539231
_cell_angle_alpha 90.000000
_cell_angle_beta 141.896475
_cell_angle_gamma 90.000000
_cell_volume 1455.639915
_symmetry_space_group_name_H-M "P 21/M"
_symmetry_group_IT_number 11
_symmetry_cell_setting 'monoclinic'
loop_
_space_group_symop_operation_xyz
x,y,z
-x,1/2+y,-z
-x,-y,-z
x,1/2-y,z
loop_
_atom_site_type_symbol
_atom_site_label
_atom_site_fract_x
_atom_site_fract_y
_atom_site_fract_z
Si Si1 0.653033 0.098126 0.404735
Si Si2 0.752731 0.520558 0.328182
Si Si3 0.295622 0.904472 0.475264
Si Si4 0.642561 0.401583 0.202785
Si Si5 0.088268 0.099735 0.240709
Si Si6 0.186448 0.907813 0.076500
Si Si7 0.197277 0.893886 0.188724
O O1 0.739229 0.250000 0.422101
O O2 0.740167 0.041479 0.478271
O O3 0.354785 0.078329 0.331127
O O4 0.781765 0.029687 0.390332
O O5 0.708975 0.406404 0.276497
O O6 0.503107 0.611834 0.264306
O O7 0.019312 0.592569 0.381806
O O8 0.394788 0.750000 0.498564
O O9 0.500000 0.000000 0.500000
O O10 0.541325 0.250000 0.167357
O O11 0.454415 0.517768 0.139288
O O12 0.889319 0.435083 0.232847
O O13 0.054841 0.250000 0.212491
O O14 0.063919 0.006619 0.187774
O O15 0.202335 0.750000 0.063031
O O16 0.093052 0.913320 0.108905
O O17 0.000000 0.000000 0.000000
O O18 0.107736 0.750000 0.186956
#
# Coordination Sequence:
#
# PCOD8071888 Si02
#       7
#     4   4   4   4   4   4   4
#     4   9  18  33  53  77 105 139 180 225 271 320
#     4  10  19  34  55  79 104 138 180 226 272 322
#     4  11  23  37  52  74 107 143 182 229 277 325
#     4  10  20  35  58  84 110 141 177 219 267 319
#     4   9  18  33  53  79 108 139 178 220 264 318
#     4  10  21  37  58  84 113 143 179 219 261 313
#     4   9  19  35  55  79 107 139 175 218 265 315
#
# _framework density 19.235527000000001
#
# number of rings (size 3 to 8) (size 9 to 14) (size 15 to 20)
#    0.000    2.286    0.000    2.571    0.000    7.429 
#    0.000    7.143    0.000    0.000    0.000    0.000 
#    0.000    0.000    0.000    0.000    0.000    0.000 
#
# Total GULP energy -346909.624440 kJ/mol
# GULP energy per Si atom -12389.629444 kJ/mol
# Density = 1.919175 g / cm^3
# Si number density = 19.235527 Si / 1000 Ang^3
#
#
#
# Elastic Constant Matrix: (Units=GPa)
#
#
# Indices 1 2 3 4 5 6 
#
# 1 98.8803 56.3397 40.8654 0.0000 -0.6539 0.0000
# 2 56.3397 124.5638 50.1784 0.0000 -4.1676 0.0000
# 3 40.8654 50.1784 82.8924 0.0000 -12.7415 0.0000
# 4 0.0000 0.0000 0.0000 27.0669 0.0000 -2.6510
# 5 -0.6539 -4.1676 -12.7415 0.0000 22.2769 0.0000
# 6 0.0000 0.0000 0.0000 -2.6510 0.0000 27.8665
#
#
#
# Elastic Compliance Matrix: (Units=1/GPa)
#
#
# Indices 1 2 3 4 5 6 
#
# 1 0.014891 -0.004873 -0.004895 0.000000 -0.003274 0.000000
# 2 -0.004873 0.012282 -0.005154 0.000000 -0.000793 0.000000
# 3 -0.004895 -0.005154 0.019106 0.000000 0.009820 0.000000
# 4 0.000000 0.000000 0.000000 0.037293 0.000000 0.003548
# 5 -0.003274 -0.000793 0.009820 0.000000 0.050262 0.000000
# 6 0.000000 0.000000 0.000000 0.003548 0.000000 0.036223
#
#
# Mechanical properties :
#
#
# Convention : Reuss Voigt Hill
#
# Bulk Modulus (GPa) = 60.84413 66.78930 63.81672
# Shear Modulus (GPa) = 24.34525 26.03893 25.19209
#
# Velocity S-wave (km/s) = 3.56144 3.68324 3.62286
# Velocity P-wave (km/s) = 6.97220 7.27225 7.12381
#
# Compressibility (1/GPa) = 0.01643544
#
# Stress axis : x y z
#
# Youngs Moduli (GPa) = 67.15508 81.42109 52.33839
#
# Poissons Ratio (x) = 0.39676 0.25617
# Poissons Ratio (y) = 0.32724 0.26977
# Poissons Ratio (z) = 0.32869 0.41967
#
# Static dielectric constant tensor:
#      x y z
#    x 3.695520 0.000000 -0.097750 
#    y 0.000000 3.558610 0.000000 
#    z -0.097750 0.000000 3.482340 
# 
# 
# High freq. dielectric constant tensor:
#      x y z
#    x 1.744820 0.000000 -0.005800 
#    y 0.000000 1.748060 0.000000 
#    z -0.005800 0.000000 1.740120 
# 
# From -- ./inp_files/72756.got.cif
#   From: 2010.06.25/outbox.cif.g09.slc.cpg/sg11_37_cif.got.tgz:72756.got - 2010.06.27 23:14:04.
