data_PCOD8071541
_publ_section_title
;
Structure prediction by ZEFSAII (Michael W. Deem and Ramdas Pophale) SiO2 
 PCOD8071541
Probable space group: P 21/M
;
_chemical_formula_sum "Si O2"
_cell_formula_units_Z 28
_cell_length_a 15.328843
_cell_length_b 8.685365
_cell_length_c 19.608634
_cell_angle_alpha 90.000000
_cell_angle_beta 144.376096
_cell_angle_gamma 90.000000
_cell_volume 1520.591289
_symmetry_space_group_name_H-M "P 21/M"
_symmetry_group_IT_number 11
_symmetry_cell_setting 'monoclinic'
loop_
_space_group_symop_operation_xyz
x,y,z
-x,1/2+y,-z
-x,-y,-z
x,1/2-y,z
loop_
_atom_site_type_symbol
_atom_site_label
_atom_site_fract_x
_atom_site_fract_y
_atom_site_fract_z
Si Si1 0.390722 0.072549 0.256197
Si Si2 0.296655 0.569121 0.600156
Si Si3 0.911837 0.572891 0.006536
Si Si4 0.001798 0.067746 0.665375
Si Si5 0.863751 0.431172 0.372134
Si Si6 0.351964 0.569308 0.374383
Si Si7 0.048280 0.068407 0.225275
O O1 0.409885 0.250000 0.291328
O O2 0.546435 0.000488 0.327162
O O3 0.335086 0.974523 0.284847
O O4 0.266015 0.058784 0.118363
O O5 0.300434 0.750000 0.592105
O O6 0.156008 0.506349 0.466632
O O7 0.280042 0.532307 0.670856
O O8 0.962028 0.750000 0.046041
O O9 0.947251 0.483176 0.097917
O O10 0.000000 0.500000 0.000000
O O11 0.004529 0.250000 0.675476
O O12 0.031180 0.988109 0.756317
O O13 0.139122 0.015092 0.703156
O O14 0.884439 0.250000 0.374413
O O15 0.000000 0.500000 0.500000
O O16 0.500000 0.500000 0.500000
O O17 0.355833 0.750000 0.385913
O O18 0.212261 0.505406 0.327539
O O19 0.064324 0.250000 0.234472
#
# Coordination Sequence:
#
# PCOD8071541 Si02
#       7
#     4   4   4   4   4   4   4
#     4  10  20  36  57  79 105 141 184 226 270 322
#     4   8  16  31  53  80 109 140 174 216 267 322
#     4  11  22  37  58  79 105 141 186 232 275 324
#     4  10  19  33  54  81 112 143 177 222 276 332
#     4   9  16  29  50  77 110 145 179 218 265 323
#     4  12  24  37  54  78 111 144 178 220 272 327
#     4  12  24  38  56  78 107 143 185 229 275 327
#
# _framework density 18.413888
#
# number of rings (size 3 to 8) (size 9 to 14) (size 15 to 20)
#    0.000    1.714    1.429    5.571    0.000    1.714 
#    0.000    3.571    0.000    0.857    0.000    0.000 
#    0.000    0.000    0.000    0.000    0.000    0.000 
#
# Total GULP energy -347161.104949 kJ/mol
# GULP energy per Si atom -12398.610891 kJ/mol
# Density = 1.837198 g / cm^3
# Si number density = 18.413888 Si / 1000 Ang^3
#
#
#
# Elastic Constant Matrix: (Units=GPa)
#
#
# Indices 1 2 3 4 5 6 
#
# 1 98.7841 31.5173 22.7488 0.0000 -28.7009 0.0000
# 2 31.5173 117.7254 29.6215 0.0000 -13.0635 0.0000
# 3 22.7488 29.6215 68.2903 0.0000 -19.9646 0.0000
# 4 0.0000 0.0000 0.0000 26.3665 0.0000 -6.4993
# 5 -28.7009 -13.0635 -19.9646 0.0000 29.0605 0.0000
# 6 0.0000 0.0000 0.0000 -6.4993 0.0000 29.3328
#
#
#
# Elastic Compliance Matrix: (Units=1/GPa)
#
#
# Indices 1 2 3 4 5 6 
#
# 1 0.014851 -0.002493 0.000118 0.000000 0.013627 0.000000
# 2 -0.002493 0.010030 -0.003656 0.000000 -0.000466 0.000000
# 3 0.000118 -0.003656 0.019700 0.000000 0.012008 0.000000
# 4 0.000000 0.000000 0.000000 0.040118 0.000000 0.008889
# 5 0.013627 -0.000466 0.012008 0.000000 0.055910 0.000000
# 6 0.000000 0.000000 0.000000 0.008889 0.000000 0.036061
#
#
# Mechanical properties :
#
#
# Convention : Reuss Voigt Hill
#
# Bulk Modulus (GPa) = 30.75143 50.28611 40.51877
# Shear Modulus (GPa) = 25.05364 30.34610 27.69987
#
# Velocity S-wave (km/s) = 3.69261 4.06396 3.88273
# Velocity P-wave (km/s) = 5.90905 7.02774 6.49253
#
# Compressibility (1/GPa) = 0.03251881
#
# Stress axis : x y z
#
# Youngs Moduli (GPa) = 67.33705 99.69920 50.76087
#
# Poissons Ratio (x) = 0.24859 -0.00601
# Poissons Ratio (y) = 0.16790 0.18559
# Poissons Ratio (z) = -0.00798 0.36452
#
# Static dielectric constant tensor:
#      x y z
#    x 3.938870 0.000000 -0.083170 
#    y 0.000000 3.480440 0.000000 
#    z -0.083170 0.000000 3.336160 
# 
# 
# High freq. dielectric constant tensor:
#      x y z
#    x 1.722440 0.000000 -0.012270 
#    y 0.000000 1.715720 0.000000 
#    z -0.012270 0.000000 1.688400 
# 
# From -- ./inp_files/42315.got.cif
#   From: 2010.06.25/outbox.cif.g09.slc.cpg/sg11_22_cif.got.tgz:42315.got - 2010.06.27 23:14:04.
