data_PCOD8071145
_publ_section_title
;
Structure prediction by ZEFSAII (Michael W. Deem and Ramdas Pophale) SiO2 
 PCOD8071145
Probable space group: P 21/M
;
_chemical_formula_sum "Si O2"
_cell_formula_units_Z 32
_cell_length_a 11.325199
_cell_length_b 9.114856
_cell_length_c 30.649456
_cell_angle_alpha 90.000000
_cell_angle_beta 146.923725
_cell_angle_gamma 90.000000
_cell_volume 1726.697154
_symmetry_space_group_name_H-M "P 21/M"
_symmetry_group_IT_number 11
_symmetry_cell_setting 'monoclinic'
loop_
_space_group_symop_operation_xyz
x,y,z
-x,1/2+y,-z
-x,-y,-z
x,1/2-y,z
loop_
_atom_site_type_symbol
_atom_site_label
_atom_site_fract_x
_atom_site_fract_y
_atom_site_fract_z
Si Si1 0.005159 0.078554 0.104189
Si Si2 0.175676 0.080497 0.800894
Si Si3 0.392432 0.079059 0.055843
Si Si4 0.368408 0.080917 0.148604
Si Si5 0.680769 0.918616 0.400766
Si Si6 0.186193 0.918651 0.242592
Si Si7 0.801221 0.578259 0.291212
Si Si8 0.037474 0.920956 0.579529
O O1 0.959763 0.250000 0.094426
O O2 0.152465 0.041768 0.107984
O O3 0.125091 0.023688 0.184244
O O4 0.777444 0.996887 0.028887
O O5 0.244417 0.250000 0.825547
O O6 0.128400 0.037846 0.736129
O O7 0.960716 0.044644 0.761204
O O8 0.370874 0.985049 0.880813
O O9 0.395730 0.250000 0.046191
O O10 0.323969 0.045219 0.084321
O O11 0.436229 0.250000 0.176013
O O12 0.560666 0.980794 0.226497
O O13 0.720037 0.750000 0.399321
O O14 0.430853 0.951722 0.332843
O O15 0.812300 0.955876 0.485519
O O16 0.761094 0.019286 0.386133
O O17 0.157062 0.750000 0.218826
O O18 0.803702 0.750000 0.300924
O O19 0.969986 0.500935 0.376044
O O20 0.073559 0.750000 0.598336
#
# Coordination Sequence:
#
# PCOD8071145 Si02
#       8
#     4   4   4   4   4   4   4   4
#     4  11  22  34  51  77 106 134 167 209 258 309
#     4   9  20  38  56  73  98 134 174 217 257 294
#     4  10  20  35  55  77 102 134 171 210 254 304
#     4   9  19  34  52  77 107 135 166 209 257 303
#     4   9  19  35  55  79 106 137 170 206 251 302
#     4  10  21  38  56  73  98 134 176 216 254 298
#     4  10  19  32  53  78 103 135 173 209 251 304
#     4  10  19  32  53  81 111 137 164 204 253 304
#
# _framework density 18.532491
#
# number of rings (size 3 to 8) (size 9 to 14) (size 15 to 20)
#    0.000    2.250    0.000    2.625    0.000    6.000 
#    0.000    0.625    0.000    0.000    0.000    0.000 
#    0.000    0.000    0.000    0.000    0.000    0.000 
#
# Total GULP energy -396944.856585 kJ/mol
# GULP energy per Si atom -12404.526768 kJ/mol
# Density = 1.849031 g / cm^3
# Si number density = 18.532491 Si / 1000 Ang^3
#
#
#
# Elastic Constant Matrix: (Units=GPa)
#
#
# Indices 1 2 3 4 5 6 
#
# 1 81.9276 41.2710 51.5029 0.0000 20.7839 0.0000
# 2 41.2710 86.4771 56.3327 0.0000 5.2619 0.0000
# 3 51.5029 56.3327 120.1107 0.0000 10.4294 0.0000
# 4 0.0000 0.0000 0.0000 34.4687 0.0000 -3.9907
# 5 20.7839 5.2619 10.4294 0.0000 20.2617 0.0000
# 6 0.0000 0.0000 0.0000 -3.9907 0.0000 25.1360
#
#
#
# Elastic Compliance Matrix: (Units=1/GPa)
#
#
# Indices 1 2 3 4 5 6 
#
# 1 0.024158 -0.006760 -0.005432 0.000000 -0.020229 0.000000
# 2 -0.006760 0.018545 -0.006263 0.000000 0.005342 0.000000
# 3 -0.005432 -0.006263 0.013574 0.000000 0.000211 0.000000
# 4 0.000000 0.000000 0.000000 0.029555 0.000000 0.004692
# 5 -0.020229 0.005342 0.000211 0.000000 0.068608 0.000000
# 6 0.000000 0.000000 0.000000 0.004692 0.000000 0.040529
#
#
# Mechanical properties :
#
#
# Convention : Reuss Voigt Hill
#
# Bulk Modulus (GPa) = 51.63424 65.19208 58.41316
# Shear Modulus (GPa) = 20.97914 25.26720 23.12317
#
# Velocity S-wave (km/s) = 3.36820 3.69643 3.53613
# Velocity P-wave (km/s) = 6.56112 7.31243 6.94694
#
# Compressibility (1/GPa) = 0.01936699
#
# Stress axis : x y z
#
# Youngs Moduli (GPa) = 41.39490 53.92424 73.67219
#
# Poissons Ratio (x) = 0.36453 0.40017
# Poissons Ratio (y) = 0.27983 0.46139
# Poissons Ratio (z) = 0.22484 0.33771
#
# Static dielectric constant tensor:
#      x y z
#    x 3.334000 0.000000 -0.062040 
#    y 0.000000 3.452930 0.000000 
#    z -0.062040 0.000000 3.416030 
# 
# 
# High freq. dielectric constant tensor:
#      x y z
#    x 1.706660 0.000000 -0.005350 
#    y 0.000000 1.725680 0.000000 
#    z -0.005350 0.000000 1.721400 
# 
# From -- ./inp_files/64436.got.cif
#   From: 2010.06.25/outbox.cif.g09.slc.cpg/sg11_33_cif.got.tgz:64436.got - 2010.06.27 23:14:04.
