data_PCOD8071533
_publ_section_title
;
Structure prediction by ZEFSAII (Michael W. Deem and Ramdas Pophale) SiO2 
 PCOD8071533
Probable space group: P 21/M
;
_chemical_formula_sum "Si O2"
_cell_formula_units_Z 32
_cell_length_a 13.495513
_cell_length_b 9.020007
_cell_length_c 13.967000
_cell_angle_alpha 90.000000
_cell_angle_beta 96.870520
_cell_angle_gamma 90.000000
_cell_volume 1687.988548
_symmetry_space_group_name_H-M "P 21/M"
_symmetry_group_IT_number 11
_symmetry_cell_setting 'monoclinic'
loop_
_space_group_symop_operation_xyz
x,y,z
-x,1/2+y,-z
-x,-y,-z
x,1/2-y,z
loop_
_atom_site_type_symbol
_atom_site_label
_atom_site_fract_x
_atom_site_fract_y
_atom_site_fract_z
Si Si1 0.321856 0.415423 0.319860
Si Si2 0.675693 0.426433 0.176934
Si Si3 0.136272 0.086897 0.156827
Si Si4 0.021036 0.922605 0.292668
Si Si5 0.200785 0.923780 0.453065
Si Si6 0.723981 0.926493 0.991085
Si Si7 0.809489 0.573329 0.345320
Si Si8 0.449733 0.425751 0.165445
O O1 0.344242 0.250000 0.363086
O O2 0.229022 0.406554 0.238405
O O3 0.298584 0.527471 0.404070
O O4 0.414486 0.478804 0.267589
O O5 0.684422 0.250000 0.181794
O O6 0.734459 0.489869 0.092609
O O7 0.720784 0.496325 0.277578
O O8 0.561132 0.481267 0.157873
O O9 0.090360 0.250000 0.138241
O O10 0.178084 0.028431 0.059648
O O11 0.049209 0.986761 0.191632
O O12 0.016425 0.750000 0.277095
O O13 0.914190 0.983593 0.313684
O O14 0.101611 0.965359 0.382517
O O15 0.207577 0.750000 0.477473
O O16 0.197348 0.020526 0.547218
O O17 0.720308 0.750000 0.006896
O O18 0.623902 0.985499 0.926102
O O19 0.799563 0.750000 0.339689
O O20 0.441940 0.250000 0.164744
#
# Coordination Sequence:
#
# PCOD8071533 Si02
#       8
#     4   4   4   4   4   4   4   4
#     4   8  14  29  52  77 103 132 162 199 248 303
#     4  11  22  35  51  75 104 136 173 215 253 289
#     4   8  15  28  51  79 104 129 162 202 248 300
#     4   9  19  34  54  78 103 129 164 209 255 299
#     4  10  19  33  54  81 105 126 160 211 257 298
#     4   9  17  33  55  79 105 135 167 203 250 307
#     4  11  23  38  52  70 100 140 175 205 248 305
#     4   8  16  32  55  79 104 133 169 208 249 297
#
# _framework density 18.957474999999999
#
# number of rings (size 3 to 8) (size 9 to 14) (size 15 to 20)
#    0.000    2.750    0.000    3.375    0.000    2.000 
#    0.000    5.000    0.000    0.000    0.000    0.000 
#    0.000    0.000    0.000    0.000    0.000    0.000 
#
# Total GULP energy -396694.801801 kJ/mol
# GULP energy per Si atom -12396.712556 kJ/mol
# Density = 1.891433 g / cm^3
# Si number density = 18.957475 Si / 1000 Ang^3
#
#
#
# Elastic Constant Matrix: (Units=GPa)
#
#
# Indices 1 2 3 4 5 6 
#
# 1 34.5033 18.2573 36.5201 0.0000 -14.2795 0.0000
# 2 18.2573 49.1413 28.7965 0.0000 -3.9689 0.0000
# 3 36.5201 28.7965 52.3918 0.0000 -23.6443 0.0000
# 4 0.0000 0.0000 0.0000 34.3147 0.0000 -4.0267
# 5 -14.2795 -3.9689 -23.6443 0.0000 28.1212 0.0000
# 6 0.0000 0.0000 0.0000 -4.0267 0.0000 23.1950
#
#
#
# Elastic Compliance Matrix: (Units=1/GPa)
#
#
# Indices 1 2 3 4 5 6 
#
# 1 0.118146 0.012187 -0.098626 0.000000 -0.021212 0.000000
# 2 0.012187 0.036168 -0.037511 0.000000 -0.020247 0.000000
# 3 -0.098626 -0.037511 0.134497 0.000000 0.057710 0.000000
# 4 0.000000 0.000000 0.000000 0.029748 0.000000 0.005164
# 5 -0.021212 -0.020247 0.057710 0.000000 0.070455 0.000000
# 6 0.000000 0.000000 0.000000 0.005164 0.000000 0.044009
#
#
# Mechanical properties :
#
#
# Convention : Reuss Voigt Hill
#
# Bulk Modulus (GPa) = 24.44389 33.68713 29.06551
# Shear Modulus (GPa) = 7.19879 20.62367 13.91123
#
# Velocity S-wave (km/s) = 1.95079 3.30190 2.71184
# Velocity P-wave (km/s) = 4.24219 5.68728 5.01704
#
# Compressibility (1/GPa) = 0.04091002
#
# Stress axis : x y z
#
# Youngs Moduli (GPa) = 8.46408 27.64864 7.43510
#
# Poissons Ratio (x) = -0.33694 0.73329
# Poissons Ratio (y) = -0.10315 0.27890
# Poissons Ratio (z) = 0.83478 1.03714
#
# Static dielectric constant tensor:
#      x y z
#    x 3.723830 0.000000 -0.354470 
#    y 0.000000 3.338550 0.000000 
#    z -0.354470 0.000000 3.474450 
# 
# 
# High freq. dielectric constant tensor:
#      x y z
#    x 1.724330 0.000000 -0.025190 
#    y 0.000000 1.722070 0.000000 
#    z -0.025190 0.000000 1.734340 
# 
# From -- ./inp_files/38266.got.cif
#   From: 2010.06.25/outbox.cif.g09.slc.cpg/sg11_20_cif.got.tgz:38266.got - 2010.06.27 23:14:04.
