data_PCOD8071232
_publ_section_title
;
Structure prediction by ZEFSAII (Michael W. Deem and Ramdas Pophale) SiO2 
 PCOD8071232
Probable space group: P 21/M
;
_chemical_formula_sum "Si O2"
_cell_formula_units_Z 32
_cell_length_a 14.134397
_cell_length_b 13.702881
_cell_length_c 11.749122
_cell_angle_alpha 90.000000
_cell_angle_beta 45.612092
_cell_angle_gamma 90.000000
_cell_volume 1626.184992
_symmetry_space_group_name_H-M "P 21/M"
_symmetry_group_IT_number 11
_symmetry_cell_setting 'monoclinic'
loop_
_space_group_symop_operation_xyz
x,y,z
-x,1/2+y,-z
-x,-y,-z
x,1/2-y,z
loop_
_atom_site_type_symbol
_atom_site_label
_atom_site_fract_x
_atom_site_fract_y
_atom_site_fract_z
Si Si1 0.886483 0.636970 0.417747
Si Si2 0.370651 0.137489 0.258825
Si Si3 0.535481 0.039309 0.709787
Si Si4 0.729252 0.012274 0.142806
Si Si5 0.248430 0.135644 0.698613
Si Si6 0.415341 0.636310 0.098094
Si Si7 0.174818 0.634275 0.138647
Si Si8 0.559097 0.136702 0.458745
O O1 0.896429 0.750000 0.386034
O O2 0.788803 0.616708 0.608302
O O3 0.820329 0.595156 0.358107
O O4 0.036149 0.600297 0.314233
O O5 0.400620 0.250000 0.264536
O O6 0.431468 0.076443 0.312553
O O7 0.443230 0.108955 0.079634
O O8 0.598911 0.083899 0.770209
O O9 0.599309 0.091137 0.547024
O O10 0.376487 0.050167 0.842782
O O11 0.648325 0.086537 0.289620
O O12 0.810072 0.932360 0.149718
O O13 0.822567 0.075709 0.982546
O O14 0.219506 0.250000 0.747317
O O15 0.405701 0.115220 0.561168
O O16 0.406424 0.750000 0.129745
O O17 0.295458 0.602211 0.117784
O O18 0.181164 0.750000 0.108511
O O19 0.592447 0.250000 0.433710
#
# Coordination Sequence:
#
# PCOD8071232 Si02
#       8
#     4   4   4   4   4   4   4   4
#     4   9  18  34  53  75 106 141 178 220 264 313
#     4  10  19  32  55  80 103 139 185 220 256 310
#     4  11  20  34  55  79 114 139 173 220 274 315
#     4  11  20  31  54  79 108 139 178 219 267 318
#     4   9  18  31  48  74 106 140 178 219 265 313
#     4  10  21  36  56  81 108 141 177 222 269 314
#     4  10  21  35  53  80 109 137 175 223 270 313
#     4  10  20  33  52  83 112 140 175 218 269 320
#
# _framework density 19.677958
#
# number of rings (size 3 to 8) (size 9 to 14) (size 15 to 20)
#    0.000    2.000    1.250    4.125    0.000    2.500 
#    0.000    0.625    0.000    0.000    0.000    0.875 
#    0.000    0.000    0.000    0.000    0.000    0.000 
#
# Total GULP energy -396526.619641 kJ/mol
# GULP energy per Si atom -12391.456864 kJ/mol
# Density = 1.963317 g / cm^3
# Si number density = 19.677958 Si / 1000 Ang^3
#
#
#
# Elastic Constant Matrix: (Units=GPa)
#
#
# Indices 1 2 3 4 5 6 
#
# 1 72.5557 19.5350 58.3945 0.0000 5.9897 0.0000
# 2 19.5350 48.8914 23.0916 0.0000 6.8675 0.0000
# 3 58.3945 23.0916 107.8610 0.0000 -7.0753 0.0000
# 4 0.0000 0.0000 0.0000 16.9930 0.0000 4.3896
# 5 5.9897 6.8675 -7.0753 0.0000 24.3666 0.0000
# 6 0.0000 0.0000 0.0000 4.3896 0.0000 22.9198
#
#
#
# Elastic Compliance Matrix: (Units=1/GPa)
#
#
# Indices 1 2 3 4 5 6 
#
# 1 0.027328 -0.002392 -0.014964 0.000000 -0.010388 0.000000
# 2 -0.002392 0.024595 -0.004472 0.000000 -0.007642 0.000000
# 3 -0.014964 -0.004472 0.019016 0.000000 0.010460 0.000000
# 4 0.000000 0.000000 0.000000 0.061911 0.000000 -0.011857
# 5 -0.010388 -0.007642 0.010460 0.000000 0.048785 0.000000
# 6 0.000000 0.000000 0.000000 -0.011857 0.000000 0.045901
#
#
# Mechanical properties :
#
#
# Convention : Reuss Voigt Hill
#
# Bulk Modulus (GPa) = 36.65345 47.92782 42.29063
# Shear Modulus (GPa) = 17.83895 21.40833 19.62364
#
# Velocity S-wave (km/s) = 3.01415 3.30196 3.16134
# Velocity P-wave (km/s) = 5.54803 6.24069 5.90453
#
# Compressibility (1/GPa) = 0.02728256
#
# Stress axis : x y z
#
# Youngs Moduli (GPa) = 36.59285 40.65914 52.58711
#
# Poissons Ratio (x) = 0.09727 0.78692
# Poissons Ratio (y) = 0.08754 0.23515
# Poissons Ratio (z) = 0.54758 0.18181
#
# Static dielectric constant tensor:
#      x y z
#    x 3.568740 0.000000 -0.124150 
#    y 0.000000 3.768990 0.000000 
#    z -0.124150 0.000000 3.645090 
# 
# 
# High freq. dielectric constant tensor:
#      x y z
#    x 1.745900 0.000000 0.009400 
#    y 0.000000 1.769320 0.000000 
#    z 0.009400 0.000000 1.752220 
# 
# From -- ./inp_files/39655.got.cif
#   From: 2010.06.25/outbox.cif.g09.slc.cpg/sg11_20_cif.got.tgz:39655.got - 2010.06.27 23:14:04.
