data_PCOD8071447
_publ_section_title
;
Structure prediction by ZEFSAII (Michael W. Deem and Ramdas Pophale) SiO2 
 PCOD8071447
Probable space group: P 21/M
;
_chemical_formula_sum "Si O2"
_cell_formula_units_Z 32
_cell_length_a 16.454625
_cell_length_b 9.370720
_cell_length_c 12.768874
_cell_angle_alpha 90.000000
_cell_angle_beta 118.960266
_cell_angle_gamma 90.000000
_cell_volume 1722.660201
_symmetry_space_group_name_H-M "P 21/M"
_symmetry_group_IT_number 11
_symmetry_cell_setting 'monoclinic'
loop_
_space_group_symop_operation_xyz
x,y,z
-x,1/2+y,-z
-x,-y,-z
x,1/2-y,z
loop_
_atom_site_type_symbol
_atom_site_label
_atom_site_fract_x
_atom_site_fract_y
_atom_site_fract_z
Si Si1 0.907173 0.913894 0.424606
Si Si2 0.727125 0.416459 0.009116
Si Si3 0.574903 0.416182 0.327373
Si Si4 0.904900 0.417189 0.230127
Si Si5 0.713223 0.416161 0.596087
Si Si6 0.412114 0.916912 0.903359
Si Si7 0.387824 0.919567 0.256547
Si Si8 0.883125 0.911867 0.641577
O O1 0.927582 0.750000 0.407293
O O2 0.852298 0.922646 0.500149
O O3 0.858400 0.994213 0.297275
O O4 0.000000 0.000000 0.500000
O O5 0.712035 0.250000 0.989562
O O6 0.837446 0.450554 0.089105
O O7 0.674907 0.469456 0.081523
O O8 0.682403 0.482341 0.876104
O O9 0.548821 0.250000 0.323133
O O10 0.658947 0.457652 0.456665
O O11 0.607409 0.453872 0.230109
O O12 0.486865 0.508809 0.304052
O O13 0.903210 0.250000 0.259641
O O14 0.010631 0.465833 0.272711
O O15 0.735119 0.250000 0.615698
O O16 0.652431 0.466115 0.656752
O O17 0.812672 0.493382 0.664177
O O18 0.431901 0.750000 0.929939
O O19 0.500000 0.000000 0.000000
O O20 0.401051 0.750000 0.257507
O O21 0.875187 0.750000 0.676323
#
# Coordination Sequence:
#
# PCOD8071447 Si02
#       8
#     4   4   4   4   4   4   4   4
#     4   9  17  30  48  73 103 136 171 210 258 310
#     4   9  18  33  55  78 104 141 177 209 256 316
#     4  10  21  35  53  80 108 135 172 214 265 319
#     4   9  18  33  54  77 104 141 179 214 258 314
#     4  10  22  36  54  78 103 137 179 220 260 311
#     4  10  19  33  53  78 107 138 172 211 260 315
#     4  10  20  37  57  77 102 137 180 217 259 314
#     4   9  19  34  50  74 105 136 174 216 260 306
#
# _framework density 18.575921000000001
#
# number of rings (size 3 to 8) (size 9 to 14) (size 15 to 20)
#    0.000    2.500    1.250    1.500    1.750    3.500 
#    0.000    1.875    0.000    0.000    0.000    0.000 
#    0.000    0.000    0.000    0.000    0.000    0.000 
#
# Total GULP energy -396605.775379 kJ/mol
# GULP energy per Si atom -12393.930481 kJ/mol
# Density = 1.853364 g / cm^3
# Si number density = 18.575921 Si / 1000 Ang^3
#
#
#
# Elastic Constant Matrix: (Units=GPa)
#
#
# Indices 1 2 3 4 5 6 
#
# 1 93.4874 31.2118 57.9991 0.0000 1.5119 0.0000
# 2 31.2118 44.7365 26.0150 0.0000 1.2928 0.0000
# 3 57.9991 26.0150 100.6763 0.0000 -0.2274 0.0000
# 4 0.0000 0.0000 0.0000 20.6185 0.0000 1.7389
# 5 1.5119 1.2928 -0.2274 0.0000 29.9783 0.0000
# 6 0.0000 0.0000 0.0000 1.7389 0.0000 29.6780
#
#
#
# Elastic Compliance Matrix: (Units=1/GPa)
#
#
# Indices 1 2 3 4 5 6 
#
# 1 0.018828 -0.008012 -0.008778 0.000000 -0.000671 0.000000
# 2 -0.008012 0.029758 -0.003076 0.000000 -0.000903 0.000000
# 3 -0.008778 -0.003076 0.015786 0.000000 0.000695 0.000000
# 4 0.000000 0.000000 0.000000 0.048741 0.000000 -0.002856
# 5 -0.000671 -0.000903 0.000695 0.000000 0.033436 0.000000
# 6 0.000000 0.000000 0.000000 -0.002856 0.000000 0.033862
#
#
# Mechanical properties :
#
#
# Convention : Reuss Voigt Hill
#
# Bulk Modulus (GPa) = 40.58397 52.15022 46.36709
# Shear Modulus (GPa) = 21.89561 24.29990 23.09775
#
# Velocity S-wave (km/s) = 3.43696 3.62075 3.53005
# Velocity P-wave (km/s) = 6.13558 6.75387 6.45213
#
# Compressibility (1/GPa) = 0.02464027
#
# Stress axis : x y z
#
# Youngs Moduli (GPa) = 53.11163 33.60474 63.34666
#
# Poissons Ratio (x) = 0.26925 0.55606
# Poissons Ratio (y) = 0.42554 0.19484
# Poissons Ratio (z) = 0.46622 0.10336
#
# Static dielectric constant tensor:
#      x y z
#    x 3.439100 0.000000 -0.315970 
#    y 0.000000 3.452240 0.000000 
#    z -0.315970 0.000000 4.593010 
# 
# 
# High freq. dielectric constant tensor:
#      x y z
#    x 1.709610 0.000000 0.002600 
#    y 0.000000 1.703900 0.000000 
#    z 0.002600 0.000000 1.723280 
# 
# From -- ./inp_files/51741.got.cif
#   From: 2010.06.25/outbox.cif.g09.slc.cpg/sg11_26_cif.got.tgz:51741.got - 2010.06.27 23:14:04.
