data_PCOD8071203
_publ_section_title
;
Structure prediction by ZEFSAII (Michael W. Deem and Ramdas Pophale) SiO2 
 PCOD8071203
Probable space group: P 21/M
;
_chemical_formula_sum "Si O2"
_cell_formula_units_Z 32
_cell_length_a 24.852140
_cell_length_b 9.213755
_cell_length_c 19.942740
_cell_angle_alpha 90.000000
_cell_angle_beta 156.575328
_cell_angle_gamma 90.000000
_cell_volume 1815.387913
_symmetry_space_group_name_H-M "P 21/M"
_symmetry_group_IT_number 11
_symmetry_cell_setting 'monoclinic'
loop_
_space_group_symop_operation_xyz
x,y,z
-x,1/2+y,-z
-x,-y,-z
x,1/2-y,z
loop_
_atom_site_type_symbol
_atom_site_label
_atom_site_fract_x
_atom_site_fract_y
_atom_site_fract_z
Si Si1 0.333177 0.918050 0.060684
Si Si2 0.103697 0.580994 0.530121
Si Si3 0.641420 0.580284 0.423199
Si Si4 0.865804 0.921923 0.068159
Si Si5 0.833696 0.419505 0.543389
Si Si6 0.120470 0.918777 0.051307
Si Si7 0.818277 0.917098 0.750039
Si Si8 0.161822 0.915941 0.741711
O O1 0.314625 0.750000 0.060812
O O2 0.486423 0.970274 0.245576
O O3 0.237907 0.018622 0.995915
O O4 0.295937 0.940152 0.939460
O O5 0.071560 0.750000 0.489221
O O6 0.184847 0.535494 0.556036
O O7 0.188448 0.539174 0.694228
O O8 0.958358 0.506745 0.363633
O O9 0.656346 0.750000 0.426732
O O10 0.719246 0.502076 0.452758
O O11 0.702394 0.538444 0.565134
O O12 0.849159 0.750000 0.043122
O O13 0.828454 0.995325 0.954995
O O14 0.017339 0.966819 0.262121
O O15 0.811629 0.250000 0.530001
O O16 0.155811 0.750000 0.083811
O O17 0.200355 0.981193 0.206787
O O18 0.961130 0.946296 0.877641
O O19 0.806818 0.750000 0.759693
O O20 0.114072 0.750000 0.689496
#
# Coordination Sequence:
#
# PCOD8071203 Si02
#       8
#     4   4   4   4   4   4   4   4
#     4  10  21  36  54  78 107 141 177 216 263 313
#     4   9  17  31  50  76 106 135 172 218 263 306
#     4  10  21  37  55  76 107 142 176 214 260 315
#     4  11  21  34  54  80 108 138 175 219 260 308
#     4  10  20  33  52  78 106 137 176 219 260 306
#     4  10  19  32  54  81 106 133 170 219 264 308
#     4   9  18  33  52  76 105 137 170 212 263 311
#     4   9  17  30  51  76 104 137 173 215 262 308
#
# _framework density 17.627087
#
# number of rings (size 3 to 8) (size 9 to 14) (size 15 to 20)
#    0.000    2.250    2.500    0.750    0.000    2.500 
#    0.000    1.250    0.000    0.000    0.000    0.000 
#    0.000    0.000    0.000    0.000    0.000    0.000 
#
# Total GULP energy -396797.488921 kJ/mol
# GULP energy per Si atom -12399.921529 kJ/mol
# Density = 1.758697 g / cm^3
# Si number density = 17.627087 Si / 1000 Ang^3
#
#
#
# Elastic Constant Matrix: (Units=GPa)
#
#
# Indices 1 2 3 4 5 6 
#
# 1 115.8928 50.7438 54.6696 0.0000 -15.4487 0.0000
# 2 50.7438 60.3235 33.1011 0.0000 -6.0500 0.0000
# 3 54.6696 33.1011 100.4870 0.0000 -14.7901 0.0000
# 4 0.0000 0.0000 0.0000 18.4152 0.0000 -0.5410
# 5 -15.4487 -6.0500 -14.7901 0.0000 24.9980 0.0000
# 6 0.0000 0.0000 0.0000 -0.5410 0.0000 32.8043
#
#
#
# Elastic Compliance Matrix: (Units=1/GPa)
#
#
# Indices 1 2 3 4 5 6 
#
# 1 0.015989 -0.010480 -0.004563 0.000000 0.004645 0.000000
# 2 -0.010480 0.027129 -0.003529 0.000000 -0.001999 0.000000
# 3 -0.004563 -0.003529 0.014301 0.000000 0.004787 0.000000
# 4 0.000000 0.000000 0.000000 0.054329 0.000000 0.000896
# 5 0.004645 -0.001999 0.004787 0.000000 0.045223 0.000000
# 6 0.000000 0.000000 0.000000 0.000896 0.000000 0.030499
#
#
# Mechanical properties :
#
#
# Convention : Reuss Voigt Hill
#
# Bulk Modulus (GPa) = 49.32162 61.52581 55.42371
# Shear Modulus (GPa) = 21.61018 24.45609 23.03314
#
# Velocity S-wave (km/s) = 3.50518 3.72884 3.61874
# Velocity P-wave (km/s) = 6.66506 7.31566 6.99793
#
# Compressibility (1/GPa) = 0.02027508
#
# Stress axis : x y z
#
# Youngs Moduli (GPa) = 62.54261 36.86054 69.92510
#
# Poissons Ratio (x) = 0.38631 0.31906
# Poissons Ratio (y) = 0.65547 0.24677
# Poissons Ratio (z) = 0.28537 0.13008
#
# Static dielectric constant tensor:
#      x y z
#    x 3.314440 0.000000 -0.302430 
#    y 0.000000 3.263350 0.000000 
#    z -0.302430 0.000000 3.296010 
# 
# 
# High freq. dielectric constant tensor:
#      x y z
#    x 1.682550 0.000000 -0.025160 
#    y 0.000000 1.682810 0.000000 
#    z -0.025160 0.000000 1.665170 
# 
# From -- ./inp_files/67214.got.cif
#   From: 2010.06.25/outbox.cif.g09.slc.cpg/sg11_34_cif.got.tgz:67214.got - 2010.06.27 23:14:04.
