data_PCOD8071897
_publ_section_title
;
Structure prediction by ZEFSAII (Michael W. Deem and Ramdas Pophale) SiO2 
 PCOD8071897
Probable space group: P 21/M
;
_chemical_formula_sum "Si O2"
_cell_formula_units_Z 32
_cell_length_a 22.610320
_cell_length_b 8.720566
_cell_length_c 9.356702
_cell_angle_alpha 90.000000
_cell_angle_beta 88.186056
_cell_angle_gamma 90.000000
_cell_volume 1843.981224
_symmetry_space_group_name_H-M "P 21/M"
_symmetry_group_IT_number 11
_symmetry_cell_setting 'monoclinic'
loop_
_space_group_symop_operation_xyz
x,y,z
-x,1/2+y,-z
-x,-y,-z
x,1/2-y,z
loop_
_atom_site_type_symbol
_atom_site_label
_atom_site_fract_x
_atom_site_fract_y
_atom_site_fract_z
Si Si1 0.448508 0.068384 0.907482
Si Si2 0.643711 0.569306 0.594752
Si Si3 0.944108 0.929053 0.428320
Si Si4 0.447459 0.567995 0.596728
Si Si5 0.748396 0.074785 0.714089
Si Si6 0.989688 0.071115 0.847423
Si Si7 0.879580 0.068976 0.672213
Si Si8 0.637963 0.425852 0.883141
O O1 0.453917 0.250000 0.894473
O O2 0.454097 0.991544 0.754985
O O3 0.500000 0.000000 0.000000
O O4 0.385074 0.022546 0.980663
O O5 0.634304 0.750000 0.589402
O O6 0.615262 0.491124 0.458502
O O7 0.713855 0.525951 0.596479
O O8 0.611309 0.499580 0.738758
O O9 0.942001 0.750000 0.457652
O O10 0.952733 0.962814 0.257896
O O11 0.887190 0.005216 0.508909
O O12 0.000000 0.000000 0.500000
O O13 0.500000 0.500000 0.500000
O O14 0.450055 0.750000 0.593513
O O15 0.749861 0.250000 0.659324
O O16 0.815078 0.014640 0.733004
O O17 0.710180 0.063869 0.865328
O O18 0.981029 0.250000 0.870592
O O19 0.929849 0.004405 0.776782
O O20 0.000000 0.000000 0.000000
O O21 0.885149 0.250000 0.663772
O O22 0.616491 0.250000 0.897300
#
# Coordination Sequence:
#
# PCOD8071897 Si02
#       8
#     4   4   4   4   4   4   4   4
#     4  12  24  38  56  81 109 139 175 216 262 316
#     4  10  19  34  55  80 107 135 170 215 263 310
#     4   9  17  29  46  72 100 130 167 211 257 304
#     4  12  24  39  57  80 108 139 174 215 265 319
#     4   8  17  33  56  78 103 136 177 217 258 310
#     4   9  18  30  47  72 106 138 170 211 258 305
#     4   9  17  32  53  77 102 135 178 218 253 306
#     4   9  18  35  56  78 104 138 174 214 261 311
#
# _framework density 17.353755
#
# number of rings (size 3 to 8) (size 9 to 14) (size 15 to 20)
#    0.750    1.500    0.000    5.250    0.000    3.000 
#    0.000    0.000    2.750    0.000    0.000    0.000 
#    0.000    0.000    0.000    0.000    0.000    0.000 
#
# Total GULP energy -396473.220143 kJ/mol
# GULP energy per Si atom -12389.788129 kJ/mol
# Density = 1.731426 g / cm^3
# Si number density = 17.353755 Si / 1000 Ang^3
#
#
#
# Elastic Constant Matrix: (Units=GPa)
#
#
# Indices 1 2 3 4 5 6 
#
# 1 107.5612 35.8482 54.7678 0.0000 -7.7177 0.0000
# 2 35.8482 100.9086 41.8918 0.0000 0.2170 0.0000
# 3 54.7678 41.8918 120.8208 0.0000 -3.1614 0.0000
# 4 0.0000 0.0000 0.0000 33.1629 0.0000 -2.5095
# 5 -7.7177 0.2170 -3.1614 0.0000 22.6215 0.0000
# 6 0.0000 0.0000 0.0000 -2.5095 0.0000 24.5657
#
#
#
# Elastic Compliance Matrix: (Units=1/GPa)
#
#
# Indices 1 2 3 4 5 6 
#
# 1 0.012896 -0.002574 -0.004855 0.000000 0.003746 0.000000
# 2 -0.002574 0.012100 -0.003066 0.000000 -0.001423 0.000000
# 3 -0.004855 -0.003066 0.011540 0.000000 -0.000014 0.000000
# 4 0.000000 0.000000 0.000000 0.030389 0.000000 0.003104
# 5 0.003746 -0.001423 -0.000014 0.000000 0.045495 0.000000
# 6 0.000000 0.000000 0.000000 0.003104 0.000000 0.041024
#
#
# Mechanical properties :
#
#
# Convention : Reuss Voigt Hill
#
# Bulk Modulus (GPa) = 64.32397 66.03402 65.17900
# Shear Modulus (GPa) = 27.83699 29.18886 28.51293
#
# Velocity S-wave (km/s) = 4.00945 4.10566 4.05784
# Velocity P-wave (km/s) = 7.65383 7.78521 7.71980
#
# Compressibility (1/GPa) = 0.01554630
#
# Stress axis : x y z
#
# Youngs Moduli (GPa) = 77.54497 82.64339 86.65294
#
# Poissons Ratio (x) = 0.21270 0.42072
# Poissons Ratio (y) = 0.19958 0.26568
# Poissons Ratio (z) = 0.37650 0.25339
#
# Static dielectric constant tensor:
#      x y z
#    x 3.358880 0.000000 -0.194130 
#    y 0.000000 3.345980 0.000000 
#    z -0.194130 0.000000 3.400500 
# 
# 
# High freq. dielectric constant tensor:
#      x y z
#    x 1.655520 0.000000 -0.015270 
#    y 0.000000 1.680450 0.000000 
#    z -0.015270 0.000000 1.654030 
# 
# From -- ./inp_files/27300.got.cif
#   From: 2010.06.25/outbox.cif.g09.slc.cpg/sg11_14_cif.got.tgz:27300.got - 2010.06.27 23:14:04.
