data_PCOD8071632
_publ_section_title
;
Structure prediction by ZEFSAII (Michael W. Deem and Ramdas Pophale) SiO2 
 PCOD8071632
Probable space group: P 21/M
;
_chemical_formula_sum "Si O2"
_cell_formula_units_Z 22
_cell_length_a 9.039416
_cell_length_b 14.227356
_cell_length_c 9.603425
_cell_angle_alpha 90.000000
_cell_angle_beta 80.127891
_cell_angle_gamma 90.000000
_cell_volume 1216.779812
_symmetry_space_group_name_H-M "P 21/M"
_symmetry_group_IT_number 11
_symmetry_cell_setting 'monoclinic'
loop_
_space_group_symop_operation_xyz
x,y,z
-x,1/2+y,-z
-x,-y,-z
x,1/2-y,z
loop_
_atom_site_type_symbol
_atom_site_label
_atom_site_fract_x
_atom_site_fract_y
_atom_site_fract_z
Si Si1 0.721758 0.750000 0.654955
Si Si2 0.964704 0.610873 0.665754
Si Si3 0.995606 0.250000 0.815072
Si Si4 0.395697 0.750000 0.678944
Si Si5 0.873545 0.095745 0.639733
Si Si6 0.672719 0.750000 0.343958
Si Si7 0.558950 0.402315 0.554919
Si Si8 0.096873 0.750000 0.854297
O O1 0.799496 0.655522 0.695774
O O2 0.552347 0.750000 0.736248
O O3 0.733569 0.750000 0.488518
O O4 0.953205 0.499762 0.674961
O O5 0.051308 0.639499 0.510438
O O6 0.049565 0.654276 0.783828
O O7 0.910851 0.161595 0.762958
O O8 0.177823 0.250000 0.774359
O O9 0.967085 0.250000 0.982576
O O10 0.380587 0.841495 0.583935
O O11 0.276966 0.750000 0.822567
O O12 0.695766 0.081117 0.641076
O O13 0.571742 0.844833 0.340706
O O14 0.500000 0.500000 0.500000
#
# Coordination Sequence:
#
# PCOD8071632 Si02
#       8
#     2   4   2   2   4   2   4   2
#     4   9  16  33  56  83 111 137 182 250 282 323
#     4  10  20  35  60  82 113 142 200 239 281 326
#     4  12  24  37  58  81 126 155 188 225 283 350
#     4  10  19  33  55  84 113 142 189 229 283 347
#     4  11  20  36  59  87 109 151 191 245 281 333
#     4  10  20  33  53  87 115 143 187 230 287 341
#     4  10  20  34  60  88 114 138 185 250 293 318
#     4  11  23  40  54  83 119 161 184 228 281 355
#
# _framework density 18.08051
#
# number of rings (size 3 to 8) (size 9 to 14) (size 15 to 20)
#    0.000    1.818    3.636    3.818    2.545    0.727 
#    0.000    3.636    0.000    3.273    0.000    0.000 
#    0.000    0.000    0.000    0.000    0.000    0.000 
#
# Total GULP energy -272666.527500 kJ/mol
# GULP energy per Si atom -12393.933068 kJ/mol
# Density = 1.803936 g / cm^3
# Si number density = 18.080510 Si / 1000 Ang^3
#
#
#
# Elastic Constant Matrix: (Units=GPa)
#
#
# Indices 1 2 3 4 5 6 
#
# 1 144.8535 38.9617 55.9024 0.0000 -9.2441 0.0000
# 2 38.9617 118.5205 44.3253 0.0000 2.4769 0.0000
# 3 55.9024 44.3253 101.2840 0.0000 -9.3157 0.0000
# 4 0.0000 0.0000 0.0000 13.1806 0.0000 26.7082
# 5 -9.2441 2.4769 -9.3157 0.0000 24.1387 0.0000
# 6 0.0000 0.0000 0.0000 26.7082 0.0000 605.9694
#
#
#
# Elastic Compliance Matrix: (Units=1/GPa)
#
#
# Indices 1 2 3 4 5 6 
#
# 1 0.009029 -0.001453 -0.004164 0.000000 0.002000 0.000000
# 2 -0.001453 0.010514 -0.004095 0.000000 -0.003216 0.000000
# 3 -0.004164 -0.004095 0.014365 0.000000 0.004370 0.000000
# 4 0.000000 0.000000 0.000000 0.083310 0.000000 -0.003672
# 5 0.002000 -0.003216 0.004370 0.000000 0.044209 0.000000
# 6 0.000000 0.000000 0.000000 -0.003672 0.000000 0.001812
#
#
# Mechanical properties :
#
#
# Convention : Reuss Voigt Hill
#
# Bulk Modulus (GPa) = 69.03730 71.44853 70.24292
# Shear Modulus (GPa) = 26.66812 143.68897 85.17855
#
# Velocity S-wave (km/s) = 3.84469 8.92436 6.87117
# Velocity P-wave (km/s) = 7.61414 12.07456 10.09381
#
# Compressibility (1/GPa) = 0.01448492
#
# Stress axis : x y z
#
# Youngs Moduli (GPa) = 110.75766 95.11476 69.61213
#
# Poissons Ratio (x) = 0.13817 0.28984
# Poissons Ratio (y) = 0.16090 0.28507
# Poissons Ratio (z) = 0.46115 0.38950
#
# Static dielectric constant tensor:
#      x y z
#    x 3.665530 0.000000 0.023740 
#    y 0.000000 3.449240 0.000000 
#    z 0.023740 0.000000 2.883730 
# 
# 
# High freq. dielectric constant tensor:
#      x y z
#    x 1.720970 0.000000 0.008010 
#    y 0.000000 1.712760 0.000000 
#    z 0.008010 0.000000 1.646890 
# 
# From -- ./inp_files/12307.got.cif
#   From: 2010.06.25/outbox.cif.g09.slc.cpg/sg11_7_cif.got.tgz:12307.got - 2010.06.27 23:14:04.
