data_PCOD8071276
_publ_section_title
;
Structure prediction by ZEFSAII (Michael W. Deem and Ramdas Pophale) SiO2 
 PCOD8071276
Probable space group: P 21/M
;
_chemical_formula_sum "Si O2"
_cell_formula_units_Z 32
_cell_length_a 14.774159
_cell_length_b 8.830725
_cell_length_c 12.678726
_cell_angle_alpha 90.000000
_cell_angle_beta 81.020384
_cell_angle_gamma 90.000000
_cell_volume 1633.876085
_symmetry_space_group_name_H-M "P 21/M"
_symmetry_group_IT_number 11
_symmetry_cell_setting 'monoclinic'
loop_
_space_group_symop_operation_xyz
x,y,z
-x,1/2+y,-z
-x,-y,-z
x,1/2-y,z
loop_
_atom_site_type_symbol
_atom_site_label
_atom_site_fract_x
_atom_site_fract_y
_atom_site_fract_z
Si Si1 0.920883 0.428574 0.305189
Si Si2 0.596287 0.074662 0.459041
Si Si3 0.155128 0.074724 0.872431
Si Si4 0.876931 0.570544 0.686987
Si Si5 0.779688 0.570338 0.914778
Si Si6 0.406169 0.921299 0.990641
Si Si7 0.219320 0.069785 0.508435
Si Si8 0.668453 0.081453 0.219588
O O1 0.909421 0.250000 0.315790
O O2 0.918104 0.478527 0.182278
O O3 0.838220 0.506025 0.383119
O O4 0.017613 0.484041 0.335334
O O5 0.595669 0.250000 0.492229
O O6 0.608752 0.051132 0.332798
O O7 0.500000 0.000000 0.500000
O O8 0.677416 0.991939 0.508012
O O9 0.129510 0.250000 0.867981
O O10 0.254111 0.045896 0.802291
O O11 0.159671 0.020739 0.993937
O O12 0.873295 0.750000 0.692745
O O13 0.828353 0.506287 0.801069
O O14 0.826214 0.510386 0.591944
O O15 0.769829 0.750000 0.915783
O O16 0.678394 0.502650 0.937112
O O17 0.407997 0.750000 0.031534
O O18 0.399384 0.930105 0.866128
O O19 0.500000 0.000000 0.000000
O O20 0.219894 0.250000 0.514193
O O21 0.714159 0.250000 0.215593
#
# Coordination Sequence:
#
# PCOD8071276 Si02
#       8
#     4   4   4   4   4   4   4   4
#     4  11  21  36  59  85 115 155 196 235 288 351
#     4  11  23  39  59  85 114 150 189 236 291 345
#     4  10  19  32  57  86 111 143 188 238 282 330
#     4   9  21  39  59  83 117 158 194 234 291 350
#     4   9  19  38  58  80 113 151 190 236 288 341
#     4  10  20  35  56  83 110 145 189 233 282 341
#     4  11  22  39  61  85 114 151 197 246 289 339
#     4   9  19  36  56  76 107 147 185 226 281 341
#
# _framework density 19.585328000000001
#
# number of rings (size 3 to 8) (size 9 to 14) (size 15 to 20)
#    0.000    2.000    1.250    2.250    0.000    3.000 
#    0.000    9.375    0.000    0.000    0.000    0.000 
#    0.000    0.000    0.000    0.000    0.000    0.000 
#
# Total GULP energy -396802.086672 kJ/mol
# GULP energy per Si atom -12400.065209 kJ/mol
# Density = 1.954075 g / cm^3
# Si number density = 19.585328 Si / 1000 Ang^3
#
#
#
# Elastic Constant Matrix: (Units=GPa)
#
#
# Indices 1 2 3 4 5 6 
#
# 1 127.8856 34.7295 45.0243 0.0000 14.9086 0.0000
# 2 34.7295 69.5685 29.5212 0.0000 5.6720 0.0000
# 3 45.0243 29.5212 101.8377 0.0000 8.2809 0.0000
# 4 0.0000 0.0000 0.0000 24.7460 0.0000 3.9969
# 5 14.9086 5.6720 8.2809 0.0000 29.8904 0.0000
# 6 0.0000 0.0000 0.0000 3.9969 0.0000 29.9917
#
#
#
# Elastic Compliance Matrix: (Units=1/GPa)
#
#
# Indices 1 2 3 4 5 6 
#
# 1 0.010333 -0.003479 -0.003268 0.000000 -0.003588 0.000000
# 2 -0.003479 0.017661 -0.003530 0.000000 -0.000638 0.000000
# 3 -0.003268 -0.003530 0.012380 0.000000 -0.001130 0.000000
# 4 0.000000 0.000000 0.000000 0.041299 0.000000 -0.005504
# 5 -0.003588 -0.000638 -0.001130 0.000000 0.035679 0.000000
# 6 0.000000 0.000000 0.000000 -0.005504 0.000000 0.034076
#
#
# Mechanical properties :
#
#
# Convention : Reuss Voigt Hill
#
# Bulk Modulus (GPa) = 50.45414 57.53798 53.99606
# Shear Modulus (GPa) = 27.99724 29.59341 28.79533
#
# Velocity S-wave (km/s) = 3.78498 3.89137 3.83854
# Velocity P-wave (km/s) = 6.70213 7.04502 6.87571
#
# Compressibility (1/GPa) = 0.01981998
#
# Stress axis : x y z
#
# Youngs Moduli (GPa) = 96.77516 56.62216 80.77869
#
# Poissons Ratio (x) = 0.19699 0.26400
# Poissons Ratio (y) = 0.33669 0.28511
# Poissons Ratio (z) = 0.31628 0.19985
#
# Static dielectric constant tensor:
#      x y z
#    x 3.523090 0.000000 0.180330 
#    y 0.000000 3.550080 0.000000 
#    z 0.180330 0.000000 3.870750 
# 
# 
# High freq. dielectric constant tensor:
#      x y z
#    x 1.761030 0.000000 0.011540 
#    y 0.000000 1.757250 0.000000 
#    z 0.011540 0.000000 1.770190 
# 
# From -- ./inp_files/38111.got.cif
#   From: 2010.06.25/outbox.cif.g09.slc.cpg/sg11_20_cif.got.tgz:38111.got - 2010.06.27 23:14:04.
