data_PCOD8071519
_publ_section_title
;
Structure prediction by ZEFSAII (Michael W. Deem and Ramdas Pophale) SiO2 
 PCOD8071519
Probable space group: P 21/M
;
_chemical_formula_sum "Si O2"
_cell_formula_units_Z 32
_cell_length_a 20.613075
_cell_length_b 8.919242
_cell_length_c 14.543664
_cell_angle_alpha 90.000000
_cell_angle_beta 137.257001
_cell_angle_gamma 90.000000
_cell_volume 1814.802880
_symmetry_space_group_name_H-M "P 21/M"
_symmetry_group_IT_number 11
_symmetry_cell_setting 'monoclinic'
loop_
_space_group_symop_operation_xyz
x,y,z
-x,1/2+y,-z
-x,-y,-z
x,1/2-y,z
loop_
_atom_site_type_symbol
_atom_site_label
_atom_site_fract_x
_atom_site_fract_y
_atom_site_fract_z
Si Si1 0.515260 0.076708 0.114218
Si Si2 0.165434 0.084552 0.962643
Si Si3 0.978961 0.424755 0.073978
Si Si4 0.192555 0.924849 0.708693
Si Si5 0.703675 0.578346 0.349027
Si Si6 0.686102 0.577560 0.018025
Si Si7 0.895439 0.577131 0.626590
Si Si8 0.964689 0.579774 0.352597
O O1 0.531213 0.250000 0.110049
O O2 0.426784 0.047759 0.090696
O O3 0.607746 0.015828 0.264556
O O4 0.500000 0.000000 0.000000
O O5 0.153440 0.250000 0.993222
O O6 0.276517 0.055193 0.048823
O O7 0.107437 0.071197 0.807673
O O8 0.126281 0.968581 0.997595
O O9 0.982936 0.250000 0.062427
O O10 0.058741 0.480599 0.230364
O O11 0.000000 0.500000 0.000000
O O12 0.192877 0.750000 0.682771
O O13 0.240273 0.026803 0.681960
O O14 0.082601 0.978450 0.614644
O O15 0.258925 0.953745 0.865532
O O16 0.672841 0.750000 0.304506
O O17 0.780013 0.557969 0.512059
O O18 0.709794 0.750000 0.073900
O O19 0.924536 0.750000 0.641081
O O20 0.934021 0.484000 0.578476
O O21 0.978887 0.750000 0.401556
#
# Coordination Sequence:
#
# PCOD8071519 Si02
#       8
#     4   4   4   4   4   4   4   4
#     4  11  21  33  50  72  97 131 174 218 256 294
#     4   8  15  29  48  72  98 127 158 194 241 291
#     4  10  19  33  54  80 104 127 155 191 239 299
#     4  11  20  29  45  67  92 127 171 210 247 292
#     4  11  22  35  48  65  95 131 169 213 252 288
#     4   9  18  32  49  68  97 131 167 211 255 290
#     4   9  20  36  51  69  96 129 164 201 242 294
#     4   9  17  30  48  67  93 127 163 203 246 290
#
# _framework density 17.632769
#
# number of rings (size 3 to 8) (size 9 to 14) (size 15 to 20)
#    0.000    2.250    1.250    3.375    0.000    5.500 
#    0.000    0.000    0.000    0.000    0.000    0.875 
#    0.000    0.000    0.000    0.000    0.000    0.000 
#
# Total GULP energy -396654.311365 kJ/mol
# GULP energy per Si atom -12395.447230 kJ/mol
# Density = 1.759264 g / cm^3
# Si number density = 17.632769 Si / 1000 Ang^3
#
#
#
# Elastic Constant Matrix: (Units=GPa)
#
#
# Indices 1 2 3 4 5 6 
#
# 1 104.7100 31.5548 42.4851 0.0000 19.0143 0.0000
# 2 31.5548 76.0479 23.7899 0.0000 9.6984 0.0000
# 3 42.4851 23.7899 56.1123 0.0000 21.0899 0.0000
# 4 0.0000 0.0000 0.0000 20.7009 0.0000 3.7991
# 5 19.0143 9.6984 21.0899 0.0000 31.6461 0.0000
# 6 0.0000 0.0000 0.0000 3.7991 0.0000 29.5998
#
#
#
# Elastic Compliance Matrix: (Units=1/GPa)
#
#
# Indices 1 2 3 4 5 6 
#
# 1 0.014407 -0.002938 -0.009003 0.000000 -0.001756 0.000000
# 2 -0.002938 0.015765 -0.004412 0.000000 -0.000126 0.000000
# 3 -0.009003 -0.004412 0.031977 0.000000 -0.014549 0.000000
# 4 0.000000 0.000000 0.000000 0.049472 0.000000 -0.006350
# 5 -0.001756 -0.000126 -0.014549 0.000000 0.042389 0.000000
# 6 0.000000 0.000000 0.000000 -0.006350 0.000000 0.034599
#
#
# Mechanical properties :
#
#
# Convention : Reuss Voigt Hill
#
# Bulk Modulus (GPa) = 33.96345 48.05886 41.01115
# Shear Modulus (GPa) = 21.63294 25.65872 23.64583
#
# Velocity S-wave (km/s) = 3.50646 3.81881 3.66596
# Velocity P-wave (km/s) = 5.97470 6.83806 6.42090
#
# Compressibility (1/GPa) = 0.02944342
#
# Stress axis : x y z
#
# Youngs Moduli (GPa) = 69.40988 63.43214 31.27287
#
# Poissons Ratio (x) = 0.18635 0.28154
# Poissons Ratio (y) = 0.20391 0.13798
# Poissons Ratio (z) = 0.62487 0.27988
#
# Static dielectric constant tensor:
#      x y z
#    x 3.390770 0.000000 0.328330 
#    y 0.000000 3.346600 0.000000 
#    z 0.328330 0.000000 3.247300 
# 
# 
# High freq. dielectric constant tensor:
#      x y z
#    x 1.668230 0.000000 0.026570 
#    y 0.000000 1.691270 0.000000 
#    z 0.026570 0.000000 1.650280 
# 
# From -- ./inp_files/54293.got.cif
#   From: 2010.06.25/outbox.cif.g09.slc.cpg/sg11_28_cif.got.tgz:54293.got - 2010.06.27 23:14:04.
