data_PCOD8071994
_publ_section_title
;
Structure prediction by ZEFSAII (Michael W. Deem and Ramdas Pophale) SiO2 
 PCOD8071994
Probable space group: P 21/M
;
_chemical_formula_sum "Si O2"
_cell_formula_units_Z 28
_cell_length_a 11.483075
_cell_length_b 19.917624
_cell_length_c 17.514969
_cell_angle_alpha 90.000000
_cell_angle_beta 19.281278
_cell_angle_gamma 90.000000
_cell_volume 1322.787358
_symmetry_space_group_name_H-M "P 21/M"
_symmetry_group_IT_number 11
_symmetry_cell_setting 'monoclinic'
loop_
_space_group_symop_operation_xyz
x,y,z
-x,1/2+y,-z
-x,-y,-z
x,1/2-y,z
loop_
_atom_site_type_symbol
_atom_site_label
_atom_site_fract_x
_atom_site_fract_y
_atom_site_fract_z
Si Si1 0.043529 0.043039 0.397829
Si Si2 0.414019 0.824744 0.743208
Si Si3 0.881005 0.133765 0.765934
Si Si4 0.617482 0.554996 0.026484
Si Si5 0.585974 0.674996 0.807686
Si Si6 0.258600 0.500814 0.559871
Si Si7 0.964190 0.049022 0.092475
O O1 0.093421 0.122456 0.378402
O O2 0.720208 0.025250 0.542157
O O3 0.000000 0.000000 0.500000
O O4 0.408977 0.014055 0.133735
O O5 0.257568 0.750000 0.826952
O O6 0.404606 0.842659 0.839051
O O7 0.172968 0.878403 0.848825
O O8 0.813388 0.823782 0.464199
O O9 0.593817 0.117932 0.876926
O O10 0.699820 0.173580 0.947396
O O11 0.050626 0.068206 0.697573
O O12 0.022181 0.557625 0.746828
O O13 0.670220 0.559178 0.086682
O O14 0.748338 0.750000 0.704233
O O15 0.666352 0.488439 0.332328
O O16 0.000000 0.000000 0.000000
#
# Coordination Sequence:
#
# PCOD8071994 Si02
#       7
#     4   4   4   4   4   4   4
#     4  11  19  34  59  86 116 151 198 249 301 349
#     4  10  23  41  59  85 119 158 201 245 299 368
#     4  10  19  37  63  88 114 150 195 249 304 352
#     4  11  19  35  56  89 119 146 192 251 302 344
#     4  11  20  34  59  87 115 149 198 250 298 354
#     4  10  19  34  56  83 118 149 190 246 286 353
#     4  11  23  36  58  88 118 160 201 242 301 353
#
# _framework density 21.167424
#
# number of rings (size 3 to 8) (size 9 to 14) (size 15 to 20)
#    0.000    1.429    2.857    6.000    0.000    0.000 
#    0.000    1.429    0.000    3.429    0.000    0.000 
#    0.000    0.000    0.000    0.000    0.000    0.000 
#
# Total GULP energy -346979.847107 kJ/mol
# GULP energy per Si atom -12392.137397 kJ/mol
# Density = 2.111925 g / cm^3
# Si number density = 21.167424 Si / 1000 Ang^3
#
#
#
# Elastic Constant Matrix: (Units=GPa)
#
#
# Indices 1 2 3 4 5 6 
#
# 1 50.2138 -0.7519 7.4115 0.0000 -12.2931 0.0000
# 2 -0.7519 95.5743 6.4673 0.0000 -8.3531 0.0000
# 3 7.4115 6.4673 38.9381 0.0000 -0.7139 0.0000
# 4 0.0000 0.0000 0.0000 24.6185 0.0000 4.4640
# 5 -12.2931 -8.3531 -0.7139 0.0000 40.2534 0.0000
# 6 0.0000 0.0000 0.0000 4.4640 0.0000 24.5753
#
#
#
# Elastic Compliance Matrix: (Units=1/GPa)
#
#
# Indices 1 2 3 4 5 6 
#
# 1 0.022264 0.001072 -0.004289 0.000000 0.006946 0.000000
# 2 0.001072 0.010826 -0.001956 0.000000 0.002539 0.000000
# 3 -0.004289 -0.001956 0.026800 0.000000 -0.001240 0.000000
# 4 0.000000 0.000000 0.000000 0.042003 0.000000 -0.007630
# 5 0.006946 0.002539 -0.001240 0.000000 0.027469 0.000000
# 6 0.000000 0.000000 0.000000 -0.007630 0.000000 0.042077
#
#
# Mechanical properties :
#
#
# Convention : Reuss Voigt Hill
#
# Bulk Modulus (GPa) = 20.18300 23.44222 21.81261
# Shear Modulus (GPa) = 25.21449 29.32940 27.27195
#
# Velocity S-wave (km/s) = 3.45511 3.72639 3.59331
# Velocity P-wave (km/s) = 5.04705 5.44182 5.24815
#
# Compressibility (1/GPa) = 0.04954665
#
# Stress axis : x y z
#
# Youngs Moduli (GPa) = 44.91490 92.37219 37.31317
#
# Poissons Ratio (x) = -0.09906 0.16002
# Poissons Ratio (y) = -0.04817 0.07297
# Poissons Ratio (z) = 0.19262 0.18065
#
# Static dielectric constant tensor:
#      x y z
#    x 3.977060 0.000000 0.207870 
#    y 0.000000 3.582280 0.000000 
#    z 0.207870 0.000000 4.266440 
# 
# 
# High freq. dielectric constant tensor:
#      x y z
#    x 1.841810 0.000000 0.020340 
#    y 0.000000 1.800490 0.000000 
#    z 0.020340 0.000000 1.836050 
# 
# From -- ./inp_files/59709.got.cif
#   From: 2010.06.25/outbox.cif.g09.slc.cpg/sg11_30_cif.got.tgz:59709.got - 2010.06.27 23:14:04.
