data_PCOD8071411
_publ_section_title
;
Structure prediction by ZEFSAII (Michael W. Deem and Ramdas Pophale) SiO2 
 PCOD8071411
Probable space group: P 21/M
;
_chemical_formula_sum "Si O2"
_cell_formula_units_Z 24
_cell_length_a 11.733718
_cell_length_b 12.266885
_cell_length_c 11.550177
_cell_angle_alpha 90.000000
_cell_angle_beta 128.019885
_cell_angle_gamma 90.000000
_cell_volume 1309.703301
_symmetry_space_group_name_H-M "P 21/M"
_symmetry_group_IT_number 11
_symmetry_cell_setting 'monoclinic'
loop_
_space_group_symop_operation_xyz
x,y,z
-x,1/2+y,-z
-x,-y,-z
x,1/2-y,z
loop_
_atom_site_type_symbol
_atom_site_label
_atom_site_fract_x
_atom_site_fract_y
_atom_site_fract_z
Si Si1 0.610188 0.374794 0.833128
Si Si2 0.797620 0.487109 0.769668
Si Si3 0.289792 0.374215 0.711775
Si Si4 0.117929 0.375129 0.377159
Si Si5 0.068291 0.128365 0.959159
Si Si6 0.805687 0.476414 0.143709
O O1 0.639502 0.250000 0.815971
O O2 0.655961 0.453842 0.754057
O O3 0.442175 0.396700 0.746129
O O4 0.695408 0.397814 0.006153
O O5 0.774166 0.546157 0.631066
O O6 0.897634 0.379348 0.820866
O O7 0.900521 0.574041 0.898212
O O8 0.286101 0.250000 0.760959
O O9 0.163806 0.387169 0.538701
O O10 0.268423 0.470233 0.790848
O O11 0.135197 0.250000 0.346718
O O12 0.950594 0.410282 0.264607
O O13 0.119960 0.250000 0.002267
O O14 0.163367 0.077648 0.918330
#
# Coordination Sequence:
#
# PCOD8071411 Si02
#       6
#     4   4   4   4   4   4
#     4  10  20  34  53  75 101 133 166 205 249 294
#     4   9  18  29  48  74  98 130 166 202 248 298
#     4  10  21  35  51  74 104 135 166 201 246 298
#     4  10  20  34  53  75 101 133 166 205 249 294
#     4   9  16  27  46  72  99 123 160 214 253 283
#     4  10  19  33  53  75  97 129 170 206 245 292
#
# _framework density 18.324762
#
# number of rings (size 3 to 8) (size 9 to 14) (size 15 to 20)
#    0.000    2.333    0.000    4.000    0.000    0.667 
#    0.000    0.000    0.000    6.000    0.000    0.000 
#    0.000    0.000    0.000    0.000    0.000    0.000 
#
# Total GULP energy -297441.540077 kJ/mol
# GULP energy per Si atom -12393.397503 kJ/mol
# Density = 1.828305 g / cm^3
# Si number density = 18.324762 Si / 1000 Ang^3
#
#
#
# Elastic Constant Matrix: (Units=GPa)
#
#
# Indices 1 2 3 4 5 6 
#
# 1 65.3463 28.1531 5.8976 0.0000 -1.7557 0.0000
# 2 28.1531 77.5564 10.3873 0.0000 -1.9093 0.0000
# 3 5.8976 10.3873 35.9017 0.0000 8.1810 0.0000
# 4 0.0000 0.0000 0.0000 23.2599 0.0000 -2.8832
# 5 -1.7557 -1.9093 8.1810 0.0000 24.6034 0.0000
# 6 0.0000 0.0000 0.0000 -2.8832 0.0000 24.9861
#
#
#
# Elastic Compliance Matrix: (Units=1/GPa)
#
#
# Indices 1 2 3 4 5 6 
#
# 1 0.018220 -0.006390 -0.001436 0.000000 0.001282 0.000000
# 2 -0.006390 0.015801 -0.004001 0.000000 0.002100 0.000000
# 3 -0.001436 -0.004001 0.031747 0.000000 -0.010969 0.000000
# 4 0.000000 0.000000 0.000000 0.043616 0.000000 0.005033
# 5 0.001282 0.002100 -0.010969 0.000000 0.044547 0.000000
# 6 0.000000 0.000000 0.000000 0.005033 0.000000 0.040603
#
#
# Mechanical properties :
#
#
# Convention : Reuss Voigt Hill
#
# Bulk Modulus (GPa) = 23.74505 29.74226 26.74366
# Shear Modulus (GPa) = 21.53079 23.52767 22.52923
#
# Velocity S-wave (km/s) = 3.43148 3.58708 3.51014
# Velocity P-wave (km/s) = 5.35594 5.78118 5.57262
#
# Compressibility (1/GPa) = 0.04211404
#
# Stress axis : x y z
#
# Youngs Moduli (GPa) = 54.88430 63.28739 31.49925
#
# Poissons Ratio (x) = 0.40441 0.04524
# Poissons Ratio (y) = 0.35071 0.12601
# Poissons Ratio (z) = 0.07883 0.25318
#
# Static dielectric constant tensor:
#      x y z
#    x 3.327890 0.000000 -0.038760 
#    y 0.000000 3.408920 0.000000 
#    z -0.038760 0.000000 3.350470 
# 
# 
# High freq. dielectric constant tensor:
#      x y z
#    x 1.707820 0.000000 -0.004620 
#    y 0.000000 1.713000 0.000000 
#    z -0.004620 0.000000 1.696180 
# 
# From -- ./inp_files/34208.got.cif
#   From: 2010.06.25/outbox.cif.g09.slc.cpg/sg11_18_cif.got.tgz:34208.got - 2010.06.27 23:14:04.
