data_PCOD8071950
_publ_section_title
;
Structure prediction by ZEFSAII (Michael W. Deem and Ramdas Pophale) SiO2 
 PCOD8071950
Probable space group: P 21/M
;
_chemical_formula_sum "Si O2"
_cell_formula_units_Z 32
_cell_length_a 12.208097
_cell_length_b 8.896009
_cell_length_c 32.626710
_cell_angle_alpha 90.000000
_cell_angle_beta 150.157754
_cell_angle_gamma 90.000000
_cell_volume 1763.229157
_symmetry_space_group_name_H-M "P 21/M"
_symmetry_group_IT_number 11
_symmetry_cell_setting 'monoclinic'
loop_
_space_group_symop_operation_xyz
x,y,z
-x,1/2+y,-z
-x,-y,-z
x,1/2-y,z
loop_
_atom_site_type_symbol
_atom_site_label
_atom_site_fract_x
_atom_site_fract_y
_atom_site_fract_z
Si Si1 0.192291 0.572547 0.156553
Si Si2 0.039719 0.422854 0.677497
Si Si3 0.329992 0.072151 0.283584
Si Si4 0.225014 0.576075 0.330991
Si Si5 0.212614 0.079553 0.552053
Si Si6 0.150754 0.077261 0.016693
Si Si7 0.506931 0.073806 0.191490
Si Si8 0.302201 0.419052 0.487913
O O1 0.228056 0.750000 0.174368
O O2 0.201736 0.488321 0.202572
O O3 0.378914 0.513561 0.185810
O O4 0.942739 0.534499 0.058727
O O5 0.098267 0.250000 0.688284
O O6 0.241337 0.524234 0.728575
O O7 0.984993 0.449010 0.707826
O O8 0.824119 0.465165 0.581877
O O9 0.340995 0.250000 0.285701
O O10 0.195892 0.021134 0.280487
O O11 0.574951 0.007329 0.362699
O O12 0.253145 0.750000 0.326968
O O13 0.444790 0.526722 0.426863
O O14 0.225533 0.250000 0.572601
O O15 0.193194 0.075466 0.497079
O O16 0.000000 0.000000 0.500000
O O17 0.106346 0.250000 0.008966
O O18 0.402067 0.038801 0.111838
O O19 0.000000 0.000000 0.000000
O O20 0.497613 0.250000 0.198927
O O21 0.286490 0.250000 0.464762
#
# Coordination Sequence:
#
# PCOD8071950 Si02
#       8
#     4   4   4   4   4   4   4   4
#     4  10  19  34  56  80 107 138 174 213 257 314
#     4  11  22  34  53  79 106 138 175 217 264 312
#     4  11  22  35  54  79 104 135 175 216 263 314
#     4   9  20  39  56  73 101 137 180 223 262 306
#     4  10  21  36  52  72 104 142 176 215 261 308
#     4   8  16  31  52  76 103 137 170 207 256 308
#     4  10  20  34  52  79 112 139 170 212 260 313
#     4   9  19  35  53  73  99 134 176 220 262 304
#
# _framework density 18.148520000000001
#
# number of rings (size 3 to 8) (size 9 to 14) (size 15 to 20)
#    0.000    2.250    0.000    3.750    1.750    4.500 
#    0.000    0.000    0.000    0.750    0.000    0.000 
#    0.000    0.000    0.000    0.000    0.000    0.000 
#
# Total GULP energy -396620.054022 kJ/mol
# GULP energy per Si atom -12394.376688 kJ/mol
# Density = 1.810721 g / cm^3
# Si number density = 18.148520 Si / 1000 Ang^3
#
#
#
# Elastic Constant Matrix: (Units=GPa)
#
#
# Indices 1 2 3 4 5 6 
#
# 1 50.5310 25.6371 27.6737 0.0000 -7.1482 0.0000
# 2 25.6371 94.4263 37.1366 0.0000 -14.6483 0.0000
# 3 27.6737 37.1366 80.4335 0.0000 -24.2471 0.0000
# 4 0.0000 0.0000 0.0000 24.8662 0.0000 -4.9209
# 5 -7.1482 -14.6483 -24.2471 0.0000 22.4962 0.0000
# 6 0.0000 0.0000 0.0000 -4.9209 0.0000 25.5057
#
#
#
# Elastic Compliance Matrix: (Units=1/GPa)
#
#
# Indices 1 2 3 4 5 6 
#
# 1 0.025866 -0.004440 -0.007767 0.000000 -0.003044 0.000000
# 2 -0.004440 0.013835 -0.003806 0.000000 0.003495 0.000000
# 3 -0.007767 -0.003806 0.022769 0.000000 0.019595 0.000000
# 4 0.000000 0.000000 0.000000 0.041812 0.000000 0.008067
# 5 -0.003044 0.003495 0.019595 0.000000 0.066881 0.000000
# 6 0.000000 0.000000 0.000000 0.008067 0.000000 0.040763
#
#
# Mechanical properties :
#
#
# Convention : Reuss Voigt Hill
#
# Bulk Modulus (GPa) = 32.84796 45.14283 38.99540
# Shear Modulus (GPa) = 19.67730 23.56983 21.62356
#
# Velocity S-wave (km/s) = 3.29635 3.60768 3.45552
# Velocity P-wave (km/s) = 5.71198 6.50246 6.11999
#
# Compressibility (1/GPa) = 0.03044329
#
# Stress axis : x y z
#
# Youngs Moduli (GPa) = 38.66151 72.28034 43.91886
#
# Poissons Ratio (x) = 0.32094 0.34110
# Poissons Ratio (y) = 0.17167 0.16717
# Poissons Ratio (z) = 0.30027 0.27513
#
# Static dielectric constant tensor:
#      x y z
#    x 3.192200 0.000000 -0.059670 
#    y 0.000000 3.414590 0.000000 
#    z -0.059670 0.000000 4.330190 
# 
# 
# High freq. dielectric constant tensor:
#      x y z
#    x 1.682890 0.000000 -0.010580 
#    y 0.000000 1.714690 0.000000 
#    z -0.010580 0.000000 1.700280 
# 
# From -- ./inp_files/73141.got.cif
#   From: 2010.06.25/outbox.cif.g09.slc.cpg/sg11_37_cif.got.tgz:73141.got - 2010.06.27 23:14:04.
