data_PCOD8071441
_publ_section_title
;
Structure prediction by ZEFSAII (Michael W. Deem and Ramdas Pophale) SiO2 
 PCOD8071441
Probable space group: P 21/M
;
_chemical_formula_sum "Si O2"
_cell_formula_units_Z 28
_cell_length_a 18.570751
_cell_length_b 8.779706
_cell_length_c 23.273375
_cell_angle_alpha 90.000000
_cell_angle_beta 24.216843
_cell_angle_gamma 90.000000
_cell_volume 1556.521385
_symmetry_space_group_name_H-M "P 21/M"
_symmetry_group_IT_number 11
_symmetry_cell_setting 'monoclinic'
loop_
_space_group_symop_operation_xyz
x,y,z
-x,1/2+y,-z
-x,-y,-z
x,1/2-y,z
loop_
_atom_site_type_symbol
_atom_site_label
_atom_site_fract_x
_atom_site_fract_y
_atom_site_fract_z
Si Si1 0.553250 0.931132 0.720683
Si Si2 0.186256 0.074267 0.372147
Si Si3 0.116616 0.572058 0.726687
Si Si4 0.574776 0.430750 0.580895
Si Si5 0.725529 0.931692 0.995995
Si Si6 0.364296 0.928751 0.642464
Si Si7 0.498625 0.071307 0.063314
O O1 0.532557 0.750000 0.736436
O O2 0.716115 0.985375 0.641701
O O3 0.590685 0.992370 0.630684
O O4 0.376183 0.003201 0.874934
O O5 0.149667 0.250000 0.405392
O O6 0.307486 0.038671 0.229007
O O7 0.000000 0.000000 0.500000
O O8 0.109406 0.750000 0.720830
O O9 0.259465 0.508391 0.577084
O O10 0.174314 0.539705 0.751201
O O11 0.924204 0.503619 0.855728
O O12 0.569055 0.250000 0.591311
O O13 0.393320 0.487578 0.682493
O O14 0.717396 0.750000 0.003183
O O15 0.647606 0.992094 0.993064
O O16 0.398390 0.750000 0.625264
O O17 0.500000 0.000000 0.500000
O O18 0.539293 0.250000 0.031289
O O19 0.500000 0.000000 0.000000
#
# Coordination Sequence:
#
# PCOD8071441 Si02
#       7
#     4   4   4   4   4   4   4
#     4  10  21  37  52  74 106 138 169 208 253 303
#     4   9  20  36  54  75 102 132 168 209 253 301
#     4   8  17  32  52  77 104 131 168 212 255 300
#     4  10  19  33  53  78 103 134 173 214 255 300
#     4  10  19  35  56  77 102 136 170 207 254 305
#     4   9  16  30  50  74 104 136 167 209 256 301
#     4  10  21  37  54  77 105 135 169 209 252 300
#
# _framework density 17.988831000000001
#
# number of rings (size 3 to 8) (size 9 to 14) (size 15 to 20)
#    0.000    2.571    0.000    3.857    0.000    4.571 
#    0.000   13.571    0.000    0.000    0.000    0.000 
#    0.000    0.000    0.000    0.000    0.000    0.000 
#
# Total GULP energy -347061.344620 kJ/mol
# GULP energy per Si atom -12395.048022 kJ/mol
# Density = 1.794789 g / cm^3
# Si number density = 17.988831 Si / 1000 Ang^3
#
#
#
# Elastic Constant Matrix: (Units=GPa)
#
#
# Indices 1 2 3 4 5 6 
#
# 1 128.4980 44.2416 70.1350 0.0000 5.1978 0.0000
# 2 44.2416 74.9486 38.2271 0.0000 -3.0695 0.0000
# 3 70.1350 38.2271 102.3586 0.0000 -13.5909 0.0000
# 4 0.0000 0.0000 0.0000 25.5243 0.0000 1.2010
# 5 5.1978 -3.0695 -13.5909 0.0000 27.1576 0.0000
# 6 0.0000 0.0000 0.0000 1.2010 0.0000 36.3688
#
#
#
# Elastic Compliance Matrix: (Units=1/GPa)
#
#
# Indices 1 2 3 4 5 6 
#
# 1 0.014833 -0.004143 -0.009700 0.000000 -0.008161 0.000000
# 2 -0.004143 0.017682 -0.003636 0.000000 0.000972 0.000000
# 3 -0.009700 -0.003636 0.019244 0.000000 0.011076 0.000000
# 4 0.000000 0.000000 0.000000 0.039239 0.000000 -0.001296
# 5 -0.008161 0.000972 0.011076 0.000000 0.044037 0.000000
# 6 0.000000 0.000000 0.000000 -0.001296 0.000000 0.027539
#
#
# Mechanical properties :
#
#
# Convention : Reuss Voigt Hill
#
# Bulk Modulus (GPa) = 59.51561 67.89028 63.70295
# Shear Modulus (GPa) = 24.61442 28.02359 26.31900
#
# Velocity S-wave (km/s) = 3.70309 3.95122 3.82917
# Velocity P-wave (km/s) = 7.17220 7.65757 7.41885
#
# Compressibility (1/GPa) = 0.01680231
#
# Stress axis : x y z
#
# Youngs Moduli (GPa) = 67.41764 56.55394 51.96297
#
# Poissons Ratio (x) = 0.23428 0.50403
# Poissons Ratio (y) = 0.27929 0.18894
# Poissons Ratio (z) = 0.65394 0.20564
#
# Static dielectric constant tensor:
#      x y z
#    x 3.893390 0.000000 -0.461490 
#    y 0.000000 3.385000 0.000000 
#    z -0.461490 0.000000 3.659460 
# 
# 
# High freq. dielectric constant tensor:
#      x y z
#    x 1.709060 0.000000 -0.008980 
#    y 0.000000 1.698640 0.000000 
#    z -0.008980 0.000000 1.679460 
# 
# From -- ./inp_files/65386.got.cif
#   From: 2010.06.25/outbox.cif.g09.slc.cpg/sg11_33_cif.got.tgz:65386.got - 2010.06.27 23:14:04.
