data_PCOD8071230
_publ_section_title
;
Structure prediction by ZEFSAII (Michael W. Deem and Ramdas Pophale) SiO2 
 PCOD8071230
Probable space group: P 21/M
;
_chemical_formula_sum "Si O2"
_cell_formula_units_Z 28
_cell_length_a 14.374540
_cell_length_b 8.911869
_cell_length_c 16.450368
_cell_angle_alpha 90.000000
_cell_angle_beta 138.826788
_cell_angle_gamma 90.000000
_cell_volume 1387.353169
_symmetry_space_group_name_H-M "P 21/M"
_symmetry_group_IT_number 11
_symmetry_cell_setting 'monoclinic'
loop_
_space_group_symop_operation_xyz
x,y,z
-x,1/2+y,-z
-x,-y,-z
x,1/2-y,z
loop_
_atom_site_type_symbol
_atom_site_label
_atom_site_fract_x
_atom_site_fract_y
_atom_site_fract_z
Si Si1 0.366857 0.426389 0.734252
Si Si2 0.438886 0.577373 0.381259
Si Si3 0.329665 0.573314 0.553536
Si Si4 0.647431 0.922025 0.100141
Si Si5 0.674559 0.927008 0.942784
Si Si6 0.159868 0.578071 0.281435
Si Si7 0.932830 0.427026 0.034946
O O1 0.387675 0.250000 0.732981
O O2 0.273013 0.498331 0.599711
O O3 0.283975 0.458683 0.765812
O O4 0.517974 0.507947 0.833027
O O5 0.500000 0.500000 0.500000
O O6 0.486283 0.750000 0.409364
O O7 0.509230 0.489812 0.351948
O O8 0.269146 0.564358 0.276936
O O9 0.336973 0.750000 0.567172
O O10 0.230179 0.525887 0.412745
O O11 0.607731 0.750000 0.071691
O O12 0.734539 0.960311 0.074985
O O13 0.500000 0.000000 0.000000
O O14 0.673642 0.750000 0.922795
O O15 0.775199 0.011145 0.945155
O O16 0.108190 0.750000 0.255066
O O17 0.027793 0.471946 0.175532
O O18 0.926843 0.250000 0.020136
O O19 0.000000 0.500000 0.000000
#
# Coordination Sequence:
#
# PCOD8071230 Si02
#       7
#     4   4   4   4   4   4   4
#     4  10  19  32  54  86 118 143 176 222 271 325
#     4   9  17  30  49  72 100 134 173 217 264 315
#     4  10  20  33  52  79 110 143 178 219 272 323
#     4   8  16  31  53  80 109 142 176 218 271 322
#     4  10  20  37  58  80 110 146 184 224 271 323
#     4   9  20  38  55  73 103 141 183 225 268 318
#     4  12  26  41  58  79 106 143 186 227 269 319
#
# _framework density 20.182316
#
# number of rings (size 3 to 8) (size 9 to 14) (size 15 to 20)
#    0.000    2.286    0.000    3.857    2.000    4.571 
#    0.000    0.000    0.000    0.857    0.000    0.000 
#    0.000    0.000    0.000    0.000    0.000    0.000 
#
# Total GULP energy -346887.056744 kJ/mol
# GULP energy per Si atom -12388.823455 kJ/mol
# Density = 2.013638 g / cm^3
# Si number density = 20.182316 Si / 1000 Ang^3
#
#
#
# Elastic Constant Matrix: (Units=GPa)
#
#
# Indices 1 2 3 4 5 6 
#
# 1 72.9878 31.0673 15.3032 0.0000 -23.4869 0.0000
# 2 31.0673 105.7860 23.7379 0.0000 -8.5741 0.0000
# 3 15.3032 23.7379 50.2629 0.0000 -13.4211 0.0000
# 4 0.0000 0.0000 0.0000 32.2112 0.0000 -4.1451
# 5 -23.4869 -8.5741 -13.4211 0.0000 33.1161 0.0000
# 6 0.0000 0.0000 0.0000 -4.1451 0.0000 26.4023
#
#
#
# Elastic Compliance Matrix: (Units=1/GPa)
#
#
# Indices 1 2 3 4 5 6 
#
# 1 0.019888 -0.004713 -0.000436 0.000000 0.012708 0.000000
# 2 -0.004713 0.011709 -0.004685 0.000000 -0.002210 0.000000
# 3 -0.000436 -0.004685 0.024484 0.000000 0.008400 0.000000
# 4 0.000000 0.000000 0.000000 0.031685 0.000000 0.004975
# 5 0.012708 -0.002210 0.008400 0.000000 0.042042 0.000000
# 6 0.000000 0.000000 0.000000 0.004975 0.000000 0.038656
#
#
# Mechanical properties :
#
#
# Convention : Reuss Voigt Hill
#
# Bulk Modulus (GPa) = 27.46280 41.02818 34.24549
# Shear Modulus (GPa) = 24.96626 28.94114 26.95370
#
# Velocity S-wave (km/s) = 3.52097 3.79091 3.65843
# Velocity P-wave (km/s) = 5.49241 6.28762 5.90342
#
# Compressibility (1/GPa) = 0.03641290
#
# Stress axis : x y z
#
# Youngs Moduli (GPa) = 50.28240 85.40201 40.84317
#
# Poissons Ratio (x) = 0.40248 0.01781
# Poissons Ratio (y) = 0.23697 0.19136
# Poissons Ratio (z) = 0.02193 0.40012
#
# Static dielectric constant tensor:
#      x y z
#    x 4.312730 0.000000 -0.527330 
#    y 0.000000 3.730840 0.000000 
#    z -0.527330 0.000000 3.651980 
# 
# 
# High freq. dielectric constant tensor:
#      x y z
#    x 1.779460 0.000000 -0.037780 
#    y 0.000000 1.795680 0.000000 
#    z -0.037780 0.000000 1.766190 
# 
# From -- ./inp_files/60123.got.cif
#   From: 2010.06.25/outbox.cif.g09.slc.cpg/sg11_31_cif.got.tgz:60123.got - 2010.06.27 23:14:04.
