data_PCOD8071855
_publ_section_title
;
Structure prediction by ZEFSAII (Michael W. Deem and Ramdas Pophale) SiO2 
 PCOD8071855
Probable space group: P 21/M
;
_chemical_formula_sum "Si O2"
_cell_formula_units_Z 28
_cell_length_a 31.553495
_cell_length_b 8.557996
_cell_length_c 31.553484
_cell_angle_alpha 90.000000
_cell_angle_beta 9.455644
_cell_angle_gamma 90.000000
_cell_volume 1399.787716
_symmetry_space_group_name_H-M "P 21/M"
_symmetry_group_IT_number 11
_symmetry_cell_setting 'monoclinic'
loop_
_space_group_symop_operation_xyz
x,y,z
-x,1/2+y,-z
-x,-y,-z
x,1/2-y,z
loop_
_atom_site_type_symbol
_atom_site_label
_atom_site_fract_x
_atom_site_fract_y
_atom_site_fract_z
Si Si1 0.596095 0.564553 0.596080
Si Si2 0.165304 0.935939 0.165360
Si Si3 0.118609 0.433680 0.118594
Si Si4 0.547961 0.564253 0.547971
Si Si5 0.690556 0.565263 0.690594
Si Si6 0.261402 0.435844 0.261406
Si Si7 0.976456 0.064420 0.976460
O O1 0.596623 0.750000 0.596599
O O2 0.571993 0.500481 0.571989
O O3 0.858251 0.504863 0.357424
O O4 0.357438 0.504863 0.858236
O O5 0.161536 0.750000 0.161608
O O6 0.930248 0.993978 0.426393
O O7 0.143201 0.023716 0.143162
O O8 0.426304 0.993957 0.930349
O O9 0.115532 0.250000 0.115518
O O10 0.548095 0.750000 0.548129
O O11 0.786540 0.499785 0.285191
O O12 0.285183 0.499773 0.786550
O O13 0.691503 0.750000 0.691449
O O14 0.714504 0.499401 0.714484
O O15 0.260711 0.250000 0.260722
O O16 0.000000 0.500000 0.500000
O O17 0.500000 0.500000 0.000000
O O18 0.977185 0.250000 0.977241
O O19 0.000000 0.000000 0.000000
#
# Coordination Sequence:
#
# PCOD8071855 Si02
#       7
#     4   4   4   4   4   4   4
#     4  11  22  41  66  87 110 157 210 241 275 348
#     4  10  19  36  60  83 107 151 204 239 273 342
#     4  12  25  40  58  90 128 153 180 243 313 351
#     4   9  19  35  57  80 106 141 190 239 273 317
#     4   9  19  35  58  83 111 148 197 244 280 328
#     4  11  22  39  61  89 121 156 195 242 294 347
#     4  10  19  34  54  80 110 142 179 228 282 333
#
# _framework density 20.003034
#
# number of rings (size 3 to 8) (size 9 to 14) (size 15 to 20)
#    0.000    1.714    0.000    5.143    0.000    5.714 
#    0.000    8.571    0.000    0.000    0.000    0.000 
#    0.000    0.000    0.000    0.000    0.000    0.000 
#
# Total GULP energy -347300.775987 kJ/mol
# GULP energy per Si atom -12403.599142 kJ/mol
# Density = 1.995751 g / cm^3
# Si number density = 20.003034 Si / 1000 Ang^3
#
#
#
# Elastic Constant Matrix: (Units=GPa)
#
#
# Indices 1 2 3 4 5 6 
#
# 1 210.3137 36.3910 115.8898 0.0000 -0.3975 0.0000
# 2 36.3910 62.3067 36.2563 0.0000 0.0132 0.0000
# 3 115.8898 36.2563 226.8187 0.0000 -1.0167 0.0000
# 4 0.0000 0.0000 0.0000 22.6618 0.0000 0.6298
# 5 -0.3975 0.0132 -1.0167 0.0000 49.6363 0.0000
# 6 0.0000 0.0000 0.0000 0.6298 0.0000 29.8083
#
#
#
# Elastic Compliance Matrix: (Units=1/GPa)
#
#
# Indices 1 2 3 4 5 6 
#
# 1 0.006875 -0.002174 -0.003165 0.000000 -0.000009 0.000000
# 2 -0.002174 0.018383 -0.001828 0.000000 -0.000060 0.000000
# 3 -0.003165 -0.001828 0.006319 0.000000 0.000105 0.000000
# 4 0.000000 0.000000 0.000000 0.044153 0.000000 -0.000933
# 5 -0.000009 -0.000060 0.000105 0.000000 0.020149 0.000000
# 6 0.000000 0.000000 0.000000 -0.000933 0.000000 0.033567
#
#
# Mechanical properties :
#
#
# Convention : Reuss Voigt Hill
#
# Bulk Modulus (GPa) = 57.99561 97.39038 77.69300
# Shear Modulus (GPa) = 33.43862 41.14807 37.29335
#
# Velocity S-wave (km/s) = 4.09305 4.54044 4.32254
# Velocity P-wave (km/s) = 7.16894 8.73390 7.98983
#
# Compressibility (1/GPa) = 0.01724268
#
# Stress axis : x y z
#
# Youngs Moduli (GPa) = 145.45277 54.39817 158.25822
#
# Poissons Ratio (x) = 0.11824 0.50094
# Poissons Ratio (y) = 0.31615 0.28932
# Poissons Ratio (z) = 0.46041 0.09945
#
# Static dielectric constant tensor:
#      x y z
#    x 3.950960 0.000000 -0.009550 
#    y 0.000000 3.375900 0.000000 
#    z -0.009550 0.000000 4.058680 
# 
# 
# High freq. dielectric constant tensor:
#      x y z
#    x 1.803160 0.000000 -0.000160 
#    y 0.000000 1.752120 0.000000 
#    z -0.000160 0.000000 1.804930 
# 
# From -- ./inp_files/73834.got.cif
#   From: 2010.06.25/outbox.cif.g09.slc.cpg/sg11_37_cif.got.tgz:73834.got - 2010.06.27 23:14:04.
