data_PCOD8071120
_publ_section_title
;
Structure prediction by ZEFSAII (Michael W. Deem and Ramdas Pophale) SiO2 
 PCOD8071120
Probable space group: P 21/M
;
_chemical_formula_sum "Si O2"
_cell_formula_units_Z 32
_cell_length_a 9.401632
_cell_length_b 19.139446
_cell_length_c 11.543869
_cell_angle_alpha 90.000000
_cell_angle_beta 56.798495
_cell_angle_gamma 90.000000
_cell_volume 1738.119713
_symmetry_space_group_name_H-M "P 21/M"
_symmetry_group_IT_number 11
_symmetry_cell_setting 'monoclinic'
loop_
_space_group_symop_operation_xyz
x,y,z
-x,1/2+y,-z
-x,-y,-z
x,1/2-y,z
loop_
_atom_site_type_symbol
_atom_site_label
_atom_site_fract_x
_atom_site_fract_y
_atom_site_fract_z
Si Si1 0.557278 0.610287 0.438716
Si Si2 0.361546 0.535045 0.976883
Si Si3 0.267058 0.826492 0.142244
Si Si4 0.310160 0.671723 0.381713
Si Si5 0.014220 0.020794 0.206442
Si Si6 0.996905 0.423390 0.447981
Si Si7 0.088863 0.124636 0.637088
Si Si8 0.347947 0.535283 0.718013
O O1 0.477199 0.664669 0.384822
O O2 0.729668 0.649824 0.398877
O O3 0.439069 0.596285 0.603676
O O4 0.598473 0.538537 0.356510
O O5 0.418807 0.537173 0.817916
O O6 0.500000 0.500000 0.000000
O O7 0.331807 0.614997 0.026179
O O8 0.184547 0.491936 0.057604
O O9 0.316046 0.750000 0.070815
O O10 0.356691 0.839470 0.226165
O O11 0.062712 0.826318 0.251025
O O12 0.233164 0.750000 0.433546
O O13 0.191844 0.608287 0.475712
O O14 0.950400 0.953020 0.302112
O O15 0.857805 0.047130 0.195585
O O16 0.064732 0.076378 0.285530
O O17 0.100983 0.374349 0.490610
O O18 0.000000 0.500000 0.500000
#
# Coordination Sequence:
#
# PCOD8071120 Si02
#       8
#     4   4   4   4   4   4   4   4
#     4  10  19  32  52  82 113 139 175 228 277 320
#     4  11  22  33  53  82 105 138 191 232 268 323
#     4   9  19  37  56  74 106 143 177 220 273 328
#     4  10  19  33  53  79 108 141 178 221 272 329
#     4   9  17  32  49  73 105 141 171 222 273 314
#     4   9  16  29  51  76 103 138 177 217 270 319
#     4   8  17  28  51  81 103 132 177 217 262 321
#     4  10  20  32  51  78 113 141 176 227 278 320
#
# _framework density 18.410701
#
# number of rings (size 3 to 8) (size 9 to 14) (size 15 to 20)
#    0.000    2.500    1.250    1.875    3.500    0.500 
#    0.000    0.625    0.000    0.750    0.000    0.000 
#    0.000    0.000    0.000    0.000    0.000    0.000 
#
# Total GULP energy -396516.590467 kJ/mol
# GULP energy per Si atom -12391.143452 kJ/mol
# Density = 1.836880 g / cm^3
# Si number density = 18.410701 Si / 1000 Ang^3
#
#
#
# Elastic Constant Matrix: (Units=GPa)
#
#
# Indices 1 2 3 4 5 6 
#
# 1 133.6088 19.6547 40.0360 0.0000 7.0184 0.0000
# 2 19.6547 52.3739 19.1383 0.0000 -1.8199 0.0000
# 3 40.0360 19.1383 79.4436 0.0000 10.6814 0.0000
# 4 0.0000 0.0000 0.0000 13.1997 0.0000 1.9847
# 5 7.0184 -1.8199 10.6814 0.0000 27.9893 0.0000
# 6 0.0000 0.0000 0.0000 1.9847 0.0000 13.9046
#
#
#
# Elastic Compliance Matrix: (Units=1/GPa)
#
#
# Indices 1 2 3 4 5 6 
#
# 1 0.009002 -0.001968 -0.003944 0.000000 -0.000880 0.000000
# 2 -0.001968 0.021690 -0.004732 0.000000 0.003710 0.000000
# 3 -0.003944 -0.004732 0.016469 0.000000 -0.005604 0.000000
# 4 0.000000 0.000000 0.000000 0.077421 0.000000 -0.011051
# 5 -0.000880 0.003710 -0.005604 0.000000 0.038328 0.000000
# 6 0.000000 0.000000 0.000000 -0.011051 0.000000 0.073496
#
#
# Mechanical properties :
#
#
# Convention : Reuss Voigt Hill
#
# Bulk Modulus (GPa) = 38.65138 47.00935 42.83036
# Shear Modulus (GPa) = 18.77448 23.45853 21.11651
#
# Velocity S-wave (km/s) = 3.19683 3.57344 3.39037
# Velocity P-wave (km/s) = 5.88777 6.52802 6.21615
#
# Compressibility (1/GPa) = 0.02587230
#
# Stress axis : x y z
#
# Youngs Moduli (GPa) = 111.08485 46.10406 60.72085
#
# Poissons Ratio (x) = 0.09071 0.23951
# Poissons Ratio (y) = 0.21856 0.28736
# Poissons Ratio (z) = 0.43816 0.21819
#
# Static dielectric constant tensor:
#      x y z
#    x 3.727080 0.000000 0.126610 
#    y 0.000000 3.018920 0.000000 
#    z 0.126610 0.000000 3.210690 
# 
# 
# High freq. dielectric constant tensor:
#      x y z
#    x 1.729570 0.000000 0.014860 
#    y 0.000000 1.684080 0.000000 
#    z 0.014860 0.000000 1.689620 
# 
# From -- ./inp_files/32648.got.cif
#   From: 2010.06.25/outbox.cif.g09.slc.cpg/sg11_17_cif.got.tgz:32648.got - 2010.06.27 23:14:04.
