data_PCOD8071317
_publ_section_title
;
Structure prediction by ZEFSAII (Michael W. Deem and Ramdas Pophale) SiO2 
 PCOD8071317
Probable space group: P 21/M
;
_chemical_formula_sum "Si O2"
_cell_formula_units_Z 32
_cell_length_a 12.701400
_cell_length_b 12.986379
_cell_length_c 11.533669
_cell_angle_alpha 90.000000
_cell_angle_beta 66.548288
_cell_angle_gamma 90.000000
_cell_volume 1745.275136
_symmetry_space_group_name_H-M "P 21/M"
_symmetry_group_IT_number 11
_symmetry_cell_setting 'monoclinic'
loop_
_space_group_symop_operation_xyz
x,y,z
-x,1/2+y,-z
-x,-y,-z
x,1/2-y,z
loop_
_atom_site_type_symbol
_atom_site_label
_atom_site_fract_x
_atom_site_fract_y
_atom_site_fract_z
Si Si1 0.728866 0.011559 0.131038
Si Si2 0.854862 0.866292 0.901429
Si Si3 0.119741 0.868839 0.759579
Si Si4 0.579236 0.136831 0.657577
Si Si5 0.746826 0.632858 0.702151
Si Si6 0.510599 0.971390 0.861971
Si Si7 0.647734 0.866495 0.362283
Si Si8 0.768736 0.494760 0.484186
O O1 0.800585 0.099050 0.166751
O O2 0.612790 0.066632 0.133919
O O3 0.706225 0.916585 0.225513
O O4 0.796762 0.959033 0.996216
O O5 0.817242 0.750000 0.957092
O O6 0.822578 0.882671 0.782338
O O7 0.990215 0.878911 0.858278
O O8 0.147939 0.750000 0.712625
O O9 0.135186 0.948926 0.644446
O O10 0.590408 0.250000 0.701896
O O11 0.489479 0.129070 0.590723
O O12 0.539661 0.077001 0.787249
O O13 0.701531 0.105066 0.555471
O O14 0.752328 0.750000 0.655138
O O15 0.612589 0.608455 0.788261
O O16 0.809236 0.559424 0.579082
O O17 0.500000 0.000000 0.000000
O O18 0.693161 0.750000 0.352961
O O19 0.679363 0.928022 0.463118
#
# Coordination Sequence:
#
# PCOD8071317 Si02
#       8
#     4   4   4   4   4   4   4   4
#     4  10  19  34  57  79 108 138 171 218 270 320
#     4  10  20  36  57  79 106 141 182 222 263 317
#     4  10  22  37  55  78 104 142 186 226 267 309
#     4   9  18  30  47  70 100 137 172 207 255 316
#     4  10  21  35  55  82 109 142 177 216 266 321
#     4  10  19  33  52  80 110 135 169 212 265 327
#     4   9  17  29  48  76 102 132 171 213 261 312
#     4  10  19  33  51  73 105 139 176 223 263 309
#
# _framework density 18.335218000000001
#
# number of rings (size 3 to 8) (size 9 to 14) (size 15 to 20)
#    0.000    2.250    1.250    1.875    0.000    3.000 
#    0.000    0.000    0.000    0.750    0.000    0.000 
#    0.000    0.000    0.000    0.000    0.000    0.000 
#
# Total GULP energy -396607.959227 kJ/mol
# GULP energy per Si atom -12393.998726 kJ/mol
# Density = 1.829349 g / cm^3
# Si number density = 18.335218 Si / 1000 Ang^3
#
#
#
# Elastic Constant Matrix: (Units=GPa)
#
#
# Indices 1 2 3 4 5 6 
#
# 1 79.0818 20.8312 7.0530 0.0000 6.7212 0.0000
# 2 20.8312 79.0429 8.5851 0.0000 2.2185 0.0000
# 3 7.0530 8.5851 47.4724 0.0000 10.2383 0.0000
# 4 0.0000 0.0000 0.0000 21.2671 0.0000 0.8983
# 5 6.7212 2.2185 10.2383 0.0000 20.3738 0.0000
# 6 0.0000 0.0000 0.0000 0.8983 0.0000 22.6725
#
#
#
# Elastic Compliance Matrix: (Units=1/GPa)
#
#
# Indices 1 2 3 4 5 6 
#
# 1 0.013954 -0.003503 -0.000593 0.000000 -0.003924 0.000000
# 2 -0.003503 0.013785 -0.002129 0.000000 0.000724 0.000000
# 3 -0.000593 -0.002129 0.024053 0.000000 -0.011659 0.000000
# 4 0.000000 0.000000 0.000000 0.047100 0.000000 -0.001866
# 5 -0.003924 0.000724 -0.011659 0.000000 0.056157 0.000000
# 6 0.000000 0.000000 0.000000 -0.001866 0.000000 0.044180
#
#
# Mechanical properties :
#
#
# Convention : Reuss Voigt Hill
#
# Bulk Modulus (GPa) = 25.41819 30.94840 28.18330
# Shear Modulus (GPa) = 22.24256 24.13785 23.19021
#
# Velocity S-wave (km/s) = 3.48675 3.63226 3.56025
# Velocity P-wave (km/s) = 5.48662 5.87426 5.68375
#
# Compressibility (1/GPa) = 0.03934190
#
# Stress axis : x y z
#
# Youngs Moduli (GPa) = 71.66262 72.54038 41.57550
#
# Poissons Ratio (x) = 0.25411 0.02467
# Poissons Ratio (y) = 0.25103 0.08850
# Poissons Ratio (z) = 0.04253 0.15442
#
# Static dielectric constant tensor:
#      x y z
#    x 3.441210 0.000000 0.055500 
#    y 0.000000 3.464450 0.000000 
#    z 0.055500 0.000000 3.303810 
# 
# 
# High freq. dielectric constant tensor:
#      x y z
#    x 1.702580 0.000000 0.007130 
#    y 0.000000 1.712040 0.000000 
#    z 0.007130 0.000000 1.710560 
# 
# From -- ./inp_files/35041.got.cif
#   From: 2010.06.25/outbox.cif.g09.slc.cpg/sg11_18_cif.got.tgz:35041.got - 2010.06.27 23:14:04.
