data_PCOD8071187
_publ_section_title
;
Structure prediction by ZEFSAII (Michael W. Deem and Ramdas Pophale) SiO2 
 PCOD8071187
Probable space group: P 21/M
;
_chemical_formula_sum "Si O2"
_cell_formula_units_Z 32
_cell_length_a 28.380176
_cell_length_b 8.876749
_cell_length_c 21.870119
_cell_angle_alpha 90.000000
_cell_angle_beta 161.242216
_cell_angle_gamma 90.000000
_cell_volume 1771.712063
_symmetry_space_group_name_H-M "P 21/M"
_symmetry_group_IT_number 11
_symmetry_cell_setting 'monoclinic'
loop_
_space_group_symop_operation_xyz
x,y,z
-x,1/2+y,-z
-x,-y,-z
x,1/2-y,z
loop_
_atom_site_type_symbol
_atom_site_label
_atom_site_fract_x
_atom_site_fract_y
_atom_site_fract_z
Si Si1 0.343683 0.925642 0.817148
Si Si2 0.082670 0.924192 0.412550
Si Si3 0.816641 0.073701 0.149077
Si Si4 0.057737 0.426404 0.882295
Si Si5 0.677042 0.077227 0.853996
Si Si6 0.087951 0.428230 0.053452
Si Si7 0.160363 0.071122 0.699700
Si Si8 0.417010 0.424363 0.453319
O O1 0.361920 0.750000 0.855330
O O2 0.249865 0.947788 0.639438
O O3 0.261928 0.007823 0.771479
O O4 0.500000 0.000000 0.000000
O O5 0.035000 0.750000 0.362690
O O6 0.064263 0.973485 0.318472
O O7 0.979311 0.026482 0.327724
O O8 0.818747 0.250000 0.167954
O O9 0.767435 0.978079 0.147390
O O10 0.699425 0.032602 0.952330
O O11 0.074003 0.250000 0.905124
O O12 0.217237 0.484636 0.060110
O O13 0.018816 0.482373 0.903133
O O14 0.721959 0.250000 0.899929
O O15 0.508946 0.046686 0.628672
O O16 0.081481 0.250000 0.053146
O O17 0.254432 0.489758 0.262343
O O18 0.000000 0.500000 0.000000
O O19 0.149383 0.250000 0.681093
O O20 0.000000 0.000000 0.500000
O O21 0.500000 0.500000 0.500000
O O22 0.406566 0.250000 0.424286
#
# Coordination Sequence:
#
# PCOD8071187 Si02
#       8
#     4   4   4   4   4   4   4   4
#     4  11  23  39  58  83 114 150 187 230 281 335
#     4   9  18  33  55  79 107 141 181 226 274 325
#     4  10  19  32  53  82 113 144 181 226 277 329
#     4   9  17  32  53  78 105 137 178 225 269 320
#     4   9  18  31  51  80 111 140 175 225 276 324
#     4  10  21  35  52  76 108 144 181 222 269 322
#     4  12  23  37  58  84 113 146 185 231 279 331
#     4  10  19  33  53  79 108 138 177 223 272 322
#
# _framework density 18.061626
#
# number of rings (size 3 to 8) (size 9 to 14) (size 15 to 20)
#    0.000    2.000    2.500    1.875    0.000    2.000 
#    0.000    1.250    0.000    3.000    0.000    0.000 
#    0.000    0.000    0.000    0.000    0.000    0.000 
#
# Total GULP energy -396708.021616 kJ/mol
# GULP energy per Si atom -12397.125676 kJ/mol
# Density = 1.802052 g / cm^3
# Si number density = 18.061626 Si / 1000 Ang^3
#
#
#
# Elastic Constant Matrix: (Units=GPa)
#
#
# Indices 1 2 3 4 5 6 
#
# 1 150.5802 50.9386 79.3589 0.0000 -7.8798 0.0000
# 2 50.9386 71.7701 44.3110 0.0000 -1.1084 0.0000
# 3 79.3589 44.3110 127.1520 0.0000 -5.5400 0.0000
# 4 0.0000 0.0000 0.0000 23.7781 0.0000 2.2222
# 5 -7.8798 -1.1084 -5.5400 0.0000 29.5209 0.0000
# 6 0.0000 0.0000 0.0000 2.2222 0.0000 32.1358
#
#
#
# Elastic Compliance Matrix: (Units=1/GPa)
#
#
# Indices 1 2 3 4 5 6 
#
# 1 0.011031 -0.004586 -0.005209 0.000000 0.001795 0.000000
# 2 -0.004586 0.019667 -0.004046 0.000000 -0.001245 0.000000
# 3 -0.005209 -0.004046 0.012561 0.000000 0.000815 0.000000
# 4 0.000000 0.000000 0.000000 0.042329 0.000000 -0.002927
# 5 0.001795 -0.001245 0.000815 0.000000 0.034460 0.000000
# 6 0.000000 0.000000 0.000000 -0.002927 0.000000 0.031320
#
#
# Mechanical properties :
#
#
# Convention : Reuss Voigt Hill
#
# Bulk Modulus (GPa) = 64.19098 77.63545 70.91322
# Shear Modulus (GPa) = 27.13837 28.74656 27.94247
#
# Velocity S-wave (km/s) = 3.88047 3.99379 3.93754
# Velocity P-wave (km/s) = 7.46288 8.02148 7.74721
#
# Compressibility (1/GPa) = 0.01557851
#
# Stress axis : x y z
#
# Youngs Moduli (GPa) = 90.65162 50.84710 79.61279
#
# Poissons Ratio (x) = 0.23318 0.41467
# Poissons Ratio (y) = 0.41572 0.32209
# Poissons Ratio (z) = 0.47216 0.20571
#
# Static dielectric constant tensor:
#      x y z
#    x 3.660300 0.000000 -0.531140 
#    y 0.000000 3.381510 0.000000 
#    z -0.531140 0.000000 3.747570 
# 
# 
# High freq. dielectric constant tensor:
#      x y z
#    x 1.692160 0.000000 -0.029990 
#    y 0.000000 1.701730 0.000000 
#    z -0.029990 0.000000 1.694830 
# 
# From -- ./inp_files/67179.got.cif
#   From: 2010.06.25/outbox.cif.g09.slc.cpg/sg11_34_cif.got.tgz:67179.got - 2010.06.27 23:14:04.
