data_PCOD8071493
_publ_section_title
;
Structure prediction by ZEFSAII (Michael W. Deem and Ramdas Pophale) SiO2 
 PCOD8071493
Probable space group: P 21/M
;
_chemical_formula_sum "Si O2"
_cell_formula_units_Z 24
_cell_length_a 8.797444
_cell_length_b 9.630051
_cell_length_c 19.283442
_cell_angle_alpha 90.000000
_cell_angle_beta 129.536027
_cell_angle_gamma 90.000000
_cell_volume 1259.941716
_symmetry_space_group_name_H-M "P 21/M"
_symmetry_group_IT_number 11
_symmetry_cell_setting 'monoclinic'
loop_
_space_group_symop_operation_xyz
x,y,z
-x,1/2+y,-z
-x,-y,-z
x,1/2-y,z
loop_
_atom_site_type_symbol
_atom_site_label
_atom_site_fract_x
_atom_site_fract_y
_atom_site_fract_z
Si Si1 0.967873 0.097479 0.750147
Si Si2 0.587884 0.911676 0.087601
Si Si3 0.543764 0.403317 0.202324
Si Si4 0.940604 0.502684 0.370089
Si Si5 0.620447 0.911455 0.698593
Si Si6 0.271207 0.098627 0.559066
O O1 0.887110 0.250000 0.747483
O O2 0.177410 0.072158 0.847565
O O3 0.825447 0.977175 0.734897
O O4 0.991034 0.097555 0.673850
O O5 0.523340 0.750000 0.065276
O O6 0.504359 0.977416 0.134578
O O7 0.500000 0.000000 0.000000
O O8 0.498666 0.250000 0.158271
O O9 0.769314 0.399338 0.294444
O O10 0.400041 0.434750 0.225060
O O11 0.856547 0.596951 0.407631
O O12 0.128346 0.417519 0.451712
O O13 0.619539 0.750000 0.678280
O O14 0.439626 0.982199 0.605341
O O15 0.371920 0.250000 0.583331
#
# Coordination Sequence:
#
# PCOD8071493 Si02
#       6
#     4   4   4   4   4   4
#     4  10  21  37  56  78 106 138 174 216 263 315
#     4  10  21  37  60  87 108 132 169 213 261 316
#     4   9  18  35  56  78 107 140 176 218 262 310
#     4   9  19  32  53  80 105 137 182 227 267 308
#     4  10  22  36  52  77 109 145 180 217 263 311
#     4  10  19  33  54  77 105 142 184 225 266 312
#
# _framework density 19.048501999999999
#
# number of rings (size 3 to 8) (size 9 to 14) (size 15 to 20)
#    0.000    2.333    0.000    2.000    0.000   14.000 
#    0.000    0.833    0.000    0.000    0.000    0.000 
#    0.000    0.000    0.000    0.000    0.000    0.000 
#
# Total GULP energy -297568.318665 kJ/mol
# GULP energy per Si atom -12398.679944 kJ/mol
# Density = 1.900515 g / cm^3
# Si number density = 19.048502 Si / 1000 Ang^3
#
#
#
# Elastic Constant Matrix: (Units=GPa)
#
#
# Indices 1 2 3 4 5 6 
#
# 1 78.7031 49.9128 38.9314 0.0000 5.2345 0.0000
# 2 49.9128 156.4470 62.4055 0.0000 0.9605 0.0000
# 3 38.9314 62.4055 108.7213 0.0000 -10.8021 0.0000
# 4 0.0000 0.0000 0.0000 24.9204 0.0000 2.6863
# 5 5.2345 0.9605 -10.8021 0.0000 16.5762 0.0000
# 6 0.0000 0.0000 0.0000 2.6863 0.0000 27.9720
#
#
#
# Elastic Compliance Matrix: (Units=1/GPa)
#
#
# Indices 1 2 3 4 5 6 
#
# 1 0.018260 -0.003636 -0.005350 0.000000 -0.009042 0.000000
# 2 -0.003636 0.009248 -0.004218 0.000000 -0.002137 0.000000
# 3 -0.005350 -0.004218 0.014677 0.000000 0.011498 0.000000
# 4 0.000000 0.000000 0.000000 0.040548 0.000000 -0.003894
# 5 -0.009042 -0.002137 0.011498 0.000000 0.070800 0.000000
# 6 0.000000 0.000000 0.000000 -0.003894 0.000000 0.036124
#
#
# Mechanical properties :
#
#
# Convention : Reuss Voigt Hill
#
# Bulk Modulus (GPa) = 63.38671 71.81899 67.60285
# Shear Modulus (GPa) = 22.59142 26.73518 24.66330
#
# Velocity S-wave (km/s) = 3.44756 3.75044 3.60219
# Velocity P-wave (km/s) = 7.01401 7.51927 7.27103
#
# Compressibility (1/GPa) = 0.01577618
#
# Stress axis : x y z
#
# Youngs Moduli (GPa) = 54.76581 108.13357 68.13231
#
# Poissons Ratio (x) = 0.39318 0.36449
# Poissons Ratio (y) = 0.19913 0.28742
# Poissons Ratio (z) = 0.29298 0.45616
#
# Static dielectric constant tensor:
#      x y z
#    x 3.364810 0.000000 -0.076980 
#    y 0.000000 3.540190 0.000000 
#    z -0.076980 0.000000 3.395030 
# 
# 
# High freq. dielectric constant tensor:
#      x y z
#    x 1.726910 0.000000 -0.006090 
#    y 0.000000 1.750920 0.000000 
#    z -0.006090 0.000000 1.728130 
# 
# From -- ./inp_files/46607.got.cif
#   From: 2010.06.25/outbox.cif.g09.slc.cpg/sg11_24_cif.got.tgz:46607.got - 2010.06.27 23:14:04.
