data_PCOD8071455
_publ_section_title
;
Structure prediction by ZEFSAII (Michael W. Deem and Ramdas Pophale) SiO2 
 PCOD8071455
Probable space group: P 21/M
;
_chemical_formula_sum "Si O2"
_cell_formula_units_Z 28
_cell_length_a 10.067385
_cell_length_b 12.504465
_cell_length_c 15.082963
_cell_angle_alpha 90.000000
_cell_angle_beta 43.230950
_cell_angle_gamma 90.000000
_cell_volume 1300.533317
_symmetry_space_group_name_H-M "P 21/M"
_symmetry_group_IT_number 11
_symmetry_cell_setting 'monoclinic'
loop_
_space_group_symop_operation_xyz
x,y,z
-x,1/2+y,-z
-x,-y,-z
x,1/2-y,z
loop_
_atom_site_type_symbol
_atom_site_label
_atom_site_fract_x
_atom_site_fract_y
_atom_site_fract_z
Si Si1 0.126289 0.492539 0.743234
Si Si2 0.132104 0.131921 0.016600
Si Si3 0.390132 0.371133 0.056927
Si Si4 0.603356 0.625646 0.274558
Si Si5 0.795654 0.123564 0.612976
Si Si6 0.983925 0.876516 0.663024
Si Si7 0.801063 0.375412 0.808908
O O1 0.334088 0.441894 0.668365
O O2 0.035254 0.550402 0.873618
O O3 0.147054 0.574854 0.650264
O O4 0.984276 0.396539 0.781697
O O5 0.038323 0.250000 0.063635
O O6 0.315392 0.128346 0.993100
O O7 0.216814 0.107117 0.879034
O O8 0.414880 0.250000 0.080465
O O9 0.225173 0.425642 0.201710
O O10 0.605139 0.426917 0.950089
O O11 0.576678 0.750000 0.312555
O O12 0.405424 0.577679 0.329790
O O13 0.773304 0.250000 0.627849
O O14 0.839938 0.079111 0.689764
O O15 0.972207 0.092560 0.460241
O O16 0.986419 0.750000 0.676618
O O17 0.760882 0.250000 0.820771
#
# Coordination Sequence:
#
# PCOD8071455 Si02
#       7
#     4   4   4   4   4   4   4
#     4  11  21  30  51  81 109 130 166 214 269 296
#     4   9  17  32  52  73 100 137 173 206 248 306
#     4   8  14  29  51  74  98 127 166 212 246 287
#     4  10  19  34  53  75 104 136 172 211 253 305
#     4   9  18  35  56  73  98 142 179 205 246 306
#     4   9  19  34  52  76 102 136 177 211 249 305
#     4  10  19  33  53  79 106 133 170 212 255 303
#
# _framework density 21.529627999999999
#
# number of rings (size 3 to 8) (size 9 to 14) (size 15 to 20)
#    0.000    2.571    1.429    2.143    0.000    3.429 
#    0.000    0.000    0.000    0.000    0.000    2.000 
#    0.000    0.000    0.000    0.000    0.000    0.000 
#
# Total GULP energy -347070.855551 kJ/mol
# GULP energy per Si atom -12395.387698 kJ/mol
# Density = 2.148063 g / cm^3
# Si number density = 21.529628 Si / 1000 Ang^3
#
#
#
# Elastic Constant Matrix: (Units=GPa)
#
#
# Indices 1 2 3 4 5 6 
#
# 1 74.8349 18.2994 32.4695 0.0000 -1.0232 0.0000
# 2 18.2994 39.8938 35.5984 0.0000 7.5959 0.0000
# 3 32.4695 35.5984 96.7717 0.0000 10.5312 0.0000
# 4 0.0000 0.0000 0.0000 30.8339 0.0000 4.3091
# 5 -1.0232 7.5959 10.5312 0.0000 23.1092 0.0000
# 6 0.0000 0.0000 0.0000 4.3091 0.0000 24.5422
#
#
#
# Elastic Compliance Matrix: (Units=1/GPa)
#
#
# Indices 1 2 3 4 5 6 
#
# 1 0.016379 -0.004461 -0.004307 0.000000 0.004154 0.000000
# 2 -0.004461 0.039430 -0.012180 0.000000 -0.007607 0.000000
# 3 -0.004307 -0.012180 0.016671 0.000000 -0.003784 0.000000
# 4 0.000000 0.000000 0.000000 0.033248 0.000000 -0.005838
# 5 0.004154 -0.007607 -0.003784 0.000000 0.047682 0.000000
# 6 0.000000 0.000000 0.000000 -0.005838 0.000000 0.041771
#
#
# Mechanical properties :
#
#
# Convention : Reuss Voigt Hill
#
# Bulk Modulus (GPa) = 32.69641 42.69277 37.69459
# Shear Modulus (GPa) = 20.22077 24.03926 22.13002
#
# Velocity S-wave (km/s) = 3.06797 3.34513 3.20955
# Velocity P-wave (km/s) = 5.26969 5.89853 5.59296
#
# Compressibility (1/GPa) = 0.03058440
#
# Stress axis : x y z
#
# Youngs Moduli (GPa) = 61.05390 25.36152 59.98472
#
# Poissons Ratio (x) = 0.11314 0.25833
# Poissons Ratio (y) = 0.27237 0.73061
# Poissons Ratio (z) = 0.26293 0.30890
#
# Static dielectric constant tensor:
#      x y z
#    x 3.528630 0.000000 0.118590 
#    y 0.000000 3.906830 0.000000 
#    z 0.118590 0.000000 3.997970 
# 
# 
# High freq. dielectric constant tensor:
#      x y z
#    x 1.813990 0.000000 0.008990 
#    y 0.000000 1.866250 0.000000 
#    z 0.008990 0.000000 1.842270 
# 
# From -- ./inp_files/39481.got.cif
#   From: 2010.06.25/outbox.cif.g09.slc.cpg/sg11_20_cif.got.tgz:39481.got - 2010.06.27 23:14:04.
