data_PCOD8071605
_publ_section_title
;
Structure prediction by ZEFSAII (Michael W. Deem and Ramdas Pophale) SiO2 
 PCOD8071605
Probable space group: P 21/M
;
_chemical_formula_sum "Si O2"
_cell_formula_units_Z 32
_cell_length_a 24.715569
_cell_length_b 9.275502
_cell_length_c 19.867173
_cell_angle_alpha 90.000000
_cell_angle_beta 156.444512
_cell_angle_gamma 90.000000
_cell_volume 1820.161014
_symmetry_space_group_name_H-M "P 21/M"
_symmetry_group_IT_number 11
_symmetry_cell_setting 'monoclinic'
loop_
_space_group_symop_operation_xyz
x,y,z
-x,1/2+y,-z
-x,-y,-z
x,1/2-y,z
loop_
_atom_site_type_symbol
_atom_site_label
_atom_site_fract_x
_atom_site_fract_y
_atom_site_fract_z
Si Si1 0.375841 0.418861 0.078460
Si Si2 0.858054 0.583767 0.081339
Si Si3 0.869156 0.582166 0.584935
Si Si4 0.406031 0.414631 0.479260
Si Si5 0.671788 0.581971 0.753210
Si Si6 0.681611 0.914729 0.248596
Si Si7 0.619415 0.416883 0.049081
Si Si8 0.358188 0.082694 0.572975
O O1 0.399492 0.250000 0.092693
O O2 0.513452 0.488111 0.261814
O O3 0.259076 0.448382 0.998896
O O4 0.328826 0.494699 0.956022
O O5 0.899681 0.750000 0.128745
O O6 0.988838 0.495398 0.249825
O O7 0.804489 0.533886 0.946313
O O8 0.896339 0.750000 0.624221
O O9 0.802060 0.546559 0.436668
O O10 0.771473 0.527742 0.533475
O O11 0.453388 0.250000 0.525918
O O12 0.540681 0.507853 0.634881
O O13 0.311984 0.456619 0.307657
O O14 0.323590 0.438045 0.454338
O O15 0.648396 0.750000 0.739027
O O16 0.690436 0.750000 0.233184
O O17 0.694773 0.020935 0.200560
O O18 0.541518 0.938978 0.128403
O O19 0.659012 0.250000 0.086398
O O20 0.390350 0.250000 0.627219
#
# Coordination Sequence:
#
# PCOD8071605 Si02
#       8
#     4   4   4   4   4   4   4   4
#     4  11  21  34  54  80 108 140 177 221 266 311
#     4  10  22  37  52  75 110 145 180 218 262 319
#     4  10  21  37  55  76 108 143 177 219 264 315
#     4   9  17  29  53  80 104 136 174 220 268 313
#     4   9  17  32  50  75 109 140 173 217 266 312
#     4   9  18  34  53  78 109 138 171 216 267 314
#     4  10  19  33  55  82 109 135 172 221 265 313
#     4  10  19  34  54  81 108 134 178 226 266 313
#
# _framework density 17.580862
#
# number of rings (size 3 to 8) (size 9 to 14) (size 15 to 20)
#    0.000    2.250    2.500    0.750    0.000    3.000 
#    0.000    1.250    0.000    0.000    0.000    0.000 
#    0.000    0.000    0.000    0.000    0.000    0.000 
#
# Total GULP energy -396787.958571 kJ/mol
# GULP energy per Si atom -12399.623705 kJ/mol
# Density = 1.754085 g / cm^3
# Si number density = 17.580862 Si / 1000 Ang^3
#
#
#
# Elastic Constant Matrix: (Units=GPa)
#
#
# Indices 1 2 3 4 5 6 
#
# 1 94.2321 51.5731 52.0958 0.0000 -15.7130 0.0000
# 2 51.5731 76.8744 55.2461 0.0000 -6.7203 0.0000
# 3 52.0958 55.2461 120.9888 0.0000 -11.5390 0.0000
# 4 0.0000 0.0000 0.0000 27.3597 0.0000 -1.4426
# 5 -15.7130 -6.7203 -11.5390 0.0000 21.5995 0.0000
# 6 0.0000 0.0000 0.0000 -1.4426 0.0000 25.6723
#
#
#
# Elastic Compliance Matrix: (Units=1/GPa)
#
#
# Indices 1 2 3 4 5 6 
#
# 1 0.019231 -0.010082 -0.002783 0.000000 0.009366 0.000000
# 2 -0.010082 0.024687 -0.007268 0.000000 -0.003537 0.000000
# 3 -0.002783 -0.007268 0.013038 0.000000 0.002679 0.000000
# 4 0.000000 0.000000 0.000000 0.036659 0.000000 0.002060
# 5 0.009366 -0.003537 0.002679 0.000000 0.053442 0.000000
# 6 0.000000 0.000000 0.000000 0.002060 0.000000 0.039068
#
#
# Mechanical properties :
#
#
# Convention : Reuss Voigt Hill
#
# Bulk Modulus (GPa) = 59.92662 67.76946 63.84804
# Shear Modulus (GPa) = 21.55597 23.80499 22.68048
#
# Velocity S-wave (km/s) = 3.50538 3.68370 3.59565
# Velocity P-wave (km/s) = 7.10942 7.53153 7.32351
#
# Compressibility (1/GPa) = 0.01668707
#
# Stress axis : x y z
#
# Youngs Moduli (GPa) = 52.00039 40.50794 76.69813
#
# Poissons Ratio (x) = 0.40841 0.21348
# Poissons Ratio (y) = 0.52428 0.55748
# Poissons Ratio (z) = 0.14473 0.29443
#
# Static dielectric constant tensor:
#      x y z
#    x 3.471660 0.000000 -0.282790 
#    y 0.000000 3.295710 0.000000 
#    z -0.282790 0.000000 3.127360 
# 
# 
# High freq. dielectric constant tensor:
#      x y z
#    x 1.683180 0.000000 -0.025930 
#    y 0.000000 1.681810 0.000000 
#    z -0.025930 0.000000 1.661760 
# 
# From -- ./inp_files/66449.got.cif
#   From: 2010.06.25/outbox.cif.g09.slc.cpg/sg11_34_cif.got.tgz:66449.got - 2010.06.27 23:14:04.
