data_PCOD8071911
_publ_section_title
;
Structure prediction by ZEFSAII (Michael W. Deem and Ramdas Pophale) SiO2 
 PCOD8071911
Probable space group: P 21/M
;
_chemical_formula_sum "Si O2"
_cell_formula_units_Z 20
_cell_length_a 9.450604
_cell_length_b 8.638585
_cell_length_c 27.179589
_cell_angle_alpha 90.000000
_cell_angle_beta 148.789385
_cell_angle_gamma 90.000000
_cell_volume 1149.821152
_symmetry_space_group_name_H-M "P 21/M"
_symmetry_group_IT_number 11
_symmetry_cell_setting 'monoclinic'
loop_
_space_group_symop_operation_xyz
x,y,z
-x,1/2+y,-z
-x,-y,-z
x,1/2-y,z
loop_
_atom_site_type_symbol
_atom_site_label
_atom_site_fract_x
_atom_site_fract_y
_atom_site_fract_z
Si Si1 0.222414 0.925349 0.900027
Si Si2 0.675437 0.067431 0.731890
Si Si3 0.114435 0.933064 0.584349
Si Si4 0.927609 0.573810 0.718309
Si Si5 0.799797 0.432645 0.582468
O O1 0.209727 0.750000 0.915553
O O2 0.201606 0.930914 0.833848
O O3 0.958978 0.017616 0.843444
O O4 0.500000 0.000000 0.000000
O O5 0.640554 0.250000 0.721596
O O6 0.423344 0.990349 0.685196
O O7 0.682141 0.004017 0.677372
O O8 0.105156 0.750000 0.579463
O O9 0.000000 0.000000 0.500000
O O10 0.932185 0.991484 0.574582
O O11 0.844232 0.750000 0.680770
O O12 0.977209 0.478031 0.683361
O O13 0.500000 0.500000 0.500000
O O14 0.791905 0.250000 0.573631
#
# Coordination Sequence:
#
# PCOD8071911 Si02
#       5
#     4   4   4   4   4
#     4   9  18  32  56  85 114 145 185 231 278 327
#     4  10  19  34  55  81 111 143 183 227 274 327
#     4  12  24  39  56  78 110 147 187 230 277 331
#     4   9  19  35  54  80 111 143 182 226 273 324
#     4  12  24  38  56  79 109 147 187 228 277 331
#
# _framework density 17.394009
#
# number of rings (size 3 to 8) (size 9 to 14) (size 15 to 20)
#    1.200    0.400    0.000    7.200    0.000    0.000 
#    0.000    0.000    0.000    1.200    0.000    0.000 
#    0.000    0.000    0.000    0.000    0.000    0.000 
#
# Total GULP energy -247882.207099 kJ/mol
# GULP energy per Si atom -12394.110355 kJ/mol
# Density = 1.735442 g / cm^3
# Si number density = 17.394009 Si / 1000 Ang^3
#
#
#
# Elastic Constant Matrix: (Units=GPa)
#
#
# Indices 1 2 3 4 5 6 
#
# 1 114.1232 54.6366 54.6445 0.0000 14.3944 0.0000
# 2 54.6366 178.6390 54.6365 0.0000 11.8214 0.0000
# 3 54.6445 54.6365 111.1491 0.0000 14.9584 0.0000
# 4 0.0000 0.0000 0.0000 34.3786 0.0000 1.3354
# 5 14.3944 11.8214 14.9584 0.0000 23.5124 0.0000
# 6 0.0000 0.0000 0.0000 1.3354 0.0000 32.5891
#
#
#
# Elastic Compliance Matrix: (Units=1/GPa)
#
#
# Indices 1 2 3 4 5 6 
#
# 1 0.012443 -0.002170 -0.004563 0.000000 -0.003624 0.000000
# 2 -0.002170 0.007008 -0.002277 0.000000 -0.000746 0.000000
# 3 -0.004563 -0.002277 0.012937 0.000000 -0.004292 0.000000
# 4 0.000000 0.000000 0.000000 0.029134 0.000000 -0.001194
# 5 -0.003624 -0.000746 -0.004292 0.000000 0.047855 0.000000
# 6 0.000000 0.000000 0.000000 -0.001194 0.000000 0.030734
#
#
# Mechanical properties :
#
#
# Convention : Reuss Voigt Hill
#
# Bulk Modulus (GPa) = 69.60424 81.30518 75.45471
# Shear Modulus (GPa) = 30.68959 34.09561 32.39260
#
# Velocity S-wave (km/s) = 4.20501 4.43221 4.32010
# Velocity P-wave (km/s) = 7.97992 8.54619 8.26791
#
# Compressibility (1/GPa) = 0.01436694
#
# Stress axis : x y z
#
# Youngs Moduli (GPa) = 80.36326 142.70353 77.29598
#
# Poissons Ratio (x) = 0.30973 0.35270
# Poissons Ratio (y) = 0.17442 0.17602
# Poissons Ratio (z) = 0.36670 0.32497
#
# Static dielectric constant tensor:
#      x y z
#    x 3.216060 0.000000 0.013460 
#    y 0.000000 3.448680 0.000000 
#    z 0.013460 0.000000 3.221850 
# 
# 
# High freq. dielectric constant tensor:
#      x y z
#    x 1.648620 0.000000 0.002260 
#    y 0.000000 1.698440 0.000000 
#    z 0.002260 0.000000 1.661640 
# 
# From -- ./inp_files/27356.got.cif
#   From: 2010.06.25/outbox.cif.g09.slc.cpg/sg11_14_cif.got.tgz:27356.got - 2010.06.27 23:14:04.
