data_PCOD8071665
_publ_section_title
;
Structure prediction by ZEFSAII (Michael W. Deem and Ramdas Pophale) SiO2 
 PCOD8071665
Probable space group: P 21/M
;
_chemical_formula_sum "Si O2"
_cell_formula_units_Z 32
_cell_length_a 27.758615
_cell_length_b 9.174644
_cell_length_c 21.455016
_cell_angle_alpha 90.000000
_cell_angle_beta 18.842942
_cell_angle_gamma 90.000000
_cell_volume 1764.756935
_symmetry_space_group_name_H-M "P 21/M"
_symmetry_group_IT_number 11
_symmetry_cell_setting 'monoclinic'
loop_
_space_group_symop_operation_xyz
x,y,z
-x,1/2+y,-z
-x,-y,-z
x,1/2-y,z
loop_
_atom_site_type_symbol
_atom_site_label
_atom_site_fract_x
_atom_site_fract_y
_atom_site_fract_z
Si Si1 0.685886 0.417518 0.663028
Si Si2 0.162044 0.077930 0.410768
Si Si3 0.177655 0.917762 0.169202
Si Si4 0.649866 0.416138 0.302417
Si Si5 0.828328 0.083936 0.964981
Si Si6 0.958303 0.423552 0.987022
Si Si7 0.921487 0.417984 0.274635
Si Si8 0.651249 0.577775 0.935846
O O1 0.690597 0.250000 0.678896
O O2 0.773941 0.510836 0.605135
O O3 0.759409 0.435600 0.504657
O O4 0.517605 0.476058 0.865880
O O5 0.175405 0.250000 0.401461
O O6 0.252825 0.019619 0.239970
O O7 0.991158 0.029063 0.612419
O O8 0.194929 0.750000 0.167207
O O9 0.287995 0.012569 0.074893
O O10 0.225624 0.944083 0.038998
O O11 0.500000 0.500000 0.500000
O O12 0.615430 0.250000 0.359745
O O13 0.689387 0.440572 0.181433
O O14 0.789590 0.467517 0.173978
O O15 0.889410 0.250000 0.897908
O O16 0.958878 0.971800 0.821139
O O17 0.977177 0.250000 0.969081
O O18 0.071481 0.483892 0.796020
O O19 0.000000 0.500000 0.000000
O O20 0.954326 0.250000 0.217216
O O21 0.660944 0.750000 0.929607
#
# Coordination Sequence:
#
# PCOD8071665 Si02
#       8
#     4   4   4   4   4   4   4   4
#     4  10  21  36  54  79 111 142 178 224 270 320
#     4  10  20  35  58  80 102 139 184 225 269 324
#     4  10  20  35  55  79 106 139 182 227 268 318
#     4   9  19  35  56  81 110 141 174 218 265 314
#     4   9  18  35  56  78 108 140 181 227 263 308
#     4  10  21  38  59  84 113 144 179 222 266 314
#     4  10  19  33  56  82 108 142 183 221 263 317
#     4  10  22  37  51  77 113 143 175 223 277 323
#
# _framework density 18.132809999999999
#
# number of rings (size 3 to 8) (size 9 to 14) (size 15 to 20)
#    0.000    2.250    1.250    2.250    0.000    5.000 
#    2.250    0.000    0.000    0.000    0.000    0.000 
#    0.000    0.000    0.000    0.000    0.000    0.000 
#
# Total GULP energy -396841.750753 kJ/mol
# GULP energy per Si atom -12401.304711 kJ/mol
# Density = 1.809154 g / cm^3
# Si number density = 18.132810 Si / 1000 Ang^3
#
#
#
# Elastic Constant Matrix: (Units=GPa)
#
#
# Indices 1 2 3 4 5 6 
#
# 1 97.8602 34.8180 30.2698 0.0000 10.2925 0.0000
# 2 34.8180 54.3779 26.8803 0.0000 2.7502 0.0000
# 3 30.2698 26.8803 83.4520 0.0000 9.4171 0.0000
# 4 0.0000 0.0000 0.0000 24.5412 0.0000 -0.5651
# 5 10.2925 2.7502 9.4171 0.0000 25.5964 0.0000
# 6 0.0000 0.0000 0.0000 -0.5651 0.0000 36.8582
#
#
#
# Elastic Compliance Matrix: (Units=1/GPa)
#
#
# Indices 1 2 3 4 5 6 
#
# 1 0.014061 -0.007734 -0.002154 0.000000 -0.004030 0.000000
# 2 -0.007734 0.026128 -0.005889 0.000000 0.002469 0.000000
# 3 -0.002154 -0.005889 0.015120 0.000000 -0.004064 0.000000
# 4 0.000000 0.000000 0.000000 0.040762 0.000000 0.000625
# 5 -0.004030 0.002469 -0.004064 0.000000 0.041918 0.000000
# 6 0.000000 0.000000 0.000000 0.000625 0.000000 0.027141
#
#
# Mechanical properties :
#
#
# Convention : Reuss Voigt Hill
#
# Bulk Modulus (GPa) = 42.09910 46.62513 44.36211
# Shear Modulus (GPa) = 24.43750 26.98062 25.70906
#
# Velocity S-wave (km/s) = 3.67508 3.86157 3.76948
# Velocity P-wave (km/s) = 6.42462 6.75657 6.59269
#
# Compressibility (1/GPa) = 0.02375348
#
# Stress axis : x y z
#
# Youngs Moduli (GPa) = 71.12036 38.27240 66.13842
#
# Poissons Ratio (x) = 0.29601 0.14246
# Poissons Ratio (y) = 0.55007 0.38951
# Poissons Ratio (z) = 0.15319 0.22540
#
# Static dielectric constant tensor:
#      x y z
#    x 3.337840 0.000000 0.176920 
#    y 0.000000 3.272010 0.000000 
#    z 0.176920 0.000000 3.492310 
# 
# 
# High freq. dielectric constant tensor:
#      x y z
#    x 1.700550 0.000000 0.013330 
#    y 0.000000 1.702140 0.000000 
#    z 0.013330 0.000000 1.703820 
# 
# From -- ./inp_files/66935.got.cif
#   From: 2010.06.25/outbox.cif.g09.slc.cpg/sg11_34_cif.got.tgz:66935.got - 2010.06.27 23:14:04.
