data_PCOD8071639
_publ_section_title
;
Structure prediction by ZEFSAII (Michael W. Deem and Ramdas Pophale) SiO2 
 PCOD8071639
Probable space group: P 21/M
;
_chemical_formula_sum "Si O2"
_cell_formula_units_Z 28
_cell_length_a 9.955758
_cell_length_b 8.484944
_cell_length_c 28.720931
_cell_angle_alpha 90.000000
_cell_angle_beta 145.183976
_cell_angle_gamma 90.000000
_cell_volume 1385.207162
_symmetry_space_group_name_H-M "P 21/M"
_symmetry_group_IT_number 11
_symmetry_cell_setting 'monoclinic'
loop_
_space_group_symop_operation_xyz
x,y,z
-x,1/2+y,-z
-x,-y,-z
x,1/2-y,z
loop_
_atom_site_type_symbol
_atom_site_label
_atom_site_fract_x
_atom_site_fract_y
_atom_site_fract_z
Si Si1 0.835829 0.568435 0.185496
Si Si2 0.173772 0.069132 0.352895
Si Si3 0.020742 0.566777 0.405157
Si Si4 0.551412 0.066654 0.307079
Si Si5 0.397616 0.434157 0.576948
Si Si6 0.932269 0.432632 0.847428
Si Si7 0.372287 0.566651 0.008221
O O1 0.887253 0.750000 0.212175
O O2 0.552982 0.537634 0.102599
O O3 0.940248 0.461865 0.256093
O O4 0.958683 0.524392 0.171723
O O5 0.250514 0.250000 0.369539
O O6 0.120882 0.034450 0.391302
O O7 0.387819 0.959532 0.397512
O O8 0.054316 0.750000 0.403826
O O9 0.161830 0.517654 0.491588
O O10 0.747984 0.530434 0.335461
O O11 0.613128 0.250000 0.322322
O O12 0.530631 0.010258 0.354045
O O13 0.303192 0.032853 0.211483
O O14 0.348917 0.250000 0.569776
O O15 0.869470 0.250000 0.833473
O O16 0.120870 0.478860 0.941553
O O17 0.323681 0.750000 0.987337
O O18 0.500000 0.500000 0.000000
#
# Coordination Sequence:
#
# PCOD8071639 Si02
#       7
#     4   4   4   4   4   4   4
#     4   9  18  33  54  82 117 154 193 237 288 343
#     4  12  24  39  61  89 119 155 198 243 292 347
#     4  12  26  44  62  84 117 156 196 242 297 351
#     4  12  24  40  62  89 119 154 197 242 292 349
#     4  12  24  42  64  88 118 152 196 244 293 347
#     4  10  19  33  55  84 118 153 193 237 290 344
#     4   9  17  29  49  79 116 151 190 238 290 341
#
# _framework density 20.213581000000001
#
# number of rings (size 3 to 8) (size 9 to 14) (size 15 to 20)
#    0.000    1.143    1.429    7.714    0.000    2.857 
#    0.000    0.000    0.000    0.857    0.000    0.000 
#    0.000    0.000    0.000    0.000    0.000    0.000 
#
# Total GULP energy -347293.442362 kJ/mol
# GULP energy per Si atom -12403.337227 kJ/mol
# Density = 2.016757 g / cm^3
# Si number density = 20.213581 Si / 1000 Ang^3
#
#
#
# Elastic Constant Matrix: (Units=GPa)
#
#
# Indices 1 2 3 4 5 6 
#
# 1 42.7844 -0.8411 10.6941 0.0000 12.3948 0.0000
# 2 -0.8411 90.4415 27.7873 0.0000 -0.3317 0.0000
# 3 10.6941 27.7873 90.3083 0.0000 25.8547 0.0000
# 4 0.0000 0.0000 0.0000 32.0812 0.0000 4.9436
# 5 12.3948 -0.3317 25.8547 0.0000 23.0015 0.0000
# 6 0.0000 0.0000 0.0000 4.9436 0.0000 27.1875
#
#
#
# Elastic Compliance Matrix: (Units=1/GPa)
#
#
# Indices 1 2 3 4 5 6 
#
# 1 0.027836 -0.000297 0.001608 0.000000 -0.016812 0.000000
# 2 -0.000297 0.012908 -0.005951 0.000000 0.007035 0.000000
# 3 0.001608 -0.005951 0.019149 0.000000 -0.022476 0.000000
# 4 0.000000 0.000000 0.000000 0.032069 0.000000 -0.005831
# 5 -0.016812 0.007035 -0.022476 0.000000 0.077900 0.000000
# 6 0.000000 0.000000 0.000000 -0.005831 0.000000 0.037842
#
#
# Mechanical properties :
#
#
# Convention : Reuss Voigt Hill
#
# Bulk Modulus (GPa) = 19.75756 33.20166 26.47961
# Shear Modulus (GPa) = 21.38084 28.84696 25.11390
#
# Velocity S-wave (km/s) = 3.25583 3.78181 3.52863
# Velocity P-wave (km/s) = 4.89178 5.96075 5.45252
#
# Compressibility (1/GPa) = 0.05061353
#
# Stress axis : x y z
#
# Youngs Moduli (GPa) = 35.92522 77.47010 52.22334
#
# Poissons Ratio (x) = 0.02300 -0.08399
# Poissons Ratio (y) = 0.01067 0.31077
# Poissons Ratio (z) = -0.05777 0.46100
#
# Static dielectric constant tensor:
#      x y z
#    x 3.302520 0.000000 0.211330 
#    y 0.000000 3.739890 0.000000 
#    z 0.211330 0.000000 4.185820 
# 
# 
# High freq. dielectric constant tensor:
#      x y z
#    x 1.747770 0.000000 0.018520 
#    y 0.000000 1.801030 0.000000 
#    z 0.018520 0.000000 1.807650 
# 
# From -- ./inp_files/70885.got.cif
#   From: 2010.06.25/outbox.cif.g09.slc.cpg/sg11_36_cif.got.tgz:70885.got - 2010.06.27 23:14:04.
