data_PCOD8071939
_publ_section_title
;
Structure prediction by ZEFSAII (Michael W. Deem and Ramdas Pophale) SiO2 
 PCOD8071939
Probable space group: P 21/M
;
_chemical_formula_sum "Si O2"
_cell_formula_units_Z 32
_cell_length_a 25.815925
_cell_length_b 9.281498
_cell_length_c 21.073177
_cell_angle_alpha 90.000000
_cell_angle_beta 20.191613
_cell_angle_gamma 90.000000
_cell_volume 1742.839004
_symmetry_space_group_name_H-M "P 21/M"
_symmetry_group_IT_number 11
_symmetry_cell_setting 'monoclinic'
loop_
_space_group_symop_operation_xyz
x,y,z
-x,1/2+y,-z
-x,-y,-z
x,1/2-y,z
loop_
_atom_site_type_symbol
_atom_site_label
_atom_site_fract_x
_atom_site_fract_y
_atom_site_fract_z
Si Si1 0.987834 0.420954 0.822822
Si Si2 0.396519 0.418242 0.532893
Si Si3 0.283540 0.581458 0.779684
Si Si4 0.586197 0.078919 0.090949
Si Si5 0.597543 0.088854 0.935725
Si Si6 0.686499 0.921693 0.511552
Si Si7 0.939436 0.086837 0.510417
Si Si8 0.095776 0.921050 0.221674
O O1 0.989387 0.250000 0.822968
O O2 0.150989 0.482637 0.654619
O O3 0.943705 0.472831 0.803540
O O4 0.862620 0.478094 0.015789
O O5 0.362431 0.250000 0.578941
O O6 0.292455 0.500030 0.702758
O O7 0.571509 0.451982 0.343611
O O8 0.353081 0.476110 0.513396
O O9 0.270832 0.750000 0.779884
O O10 0.582810 0.250000 0.093167
O O11 0.439347 0.017429 0.295468
O O12 0.592196 0.018293 0.012249
O O13 0.734699 0.029784 0.957858
O O14 0.531661 0.250000 0.015158
O O15 0.762253 0.090820 0.718298
O O16 0.500000 0.000000 0.000000
O O17 0.684989 0.750000 0.515066
O O18 0.004097 0.250000 0.436238
O O19 0.000000 0.000000 0.500000
O O20 0.981684 0.004055 0.398040
O O21 0.074488 0.750000 0.255509
#
# Coordination Sequence:
#
# PCOD8071939 Si02
#       8
#     4   4   4   4   4   4   4   4
#     4   9  18  30  49  77 102 131 171 212 253 302
#     4   9  17  30  50  74  99 131 165 206 254 300
#     4   9  17  31  50  74 101 130 168 209 248 298
#     4   9  17  32  51  74 103 133 168 213 258 304
#     4  10  22  37  54  79 108 139 175 217 266 315
#     4   9  17  29  48  75 103 130 170 214 253 302
#     4  11  22  38  57  81 109 139 178 222 266 315
#     4  10  19  34  56  79 104 135 173 218 264 310
#
# _framework density 18.360845999999999
#
# number of rings (size 3 to 8) (size 9 to 14) (size 15 to 20)
#    0.000    2.500    1.250    1.125    1.750    4.500 
#    0.000    0.625    0.000    3.750    0.000    0.000 
#    0.000    0.000    0.000    0.000    0.000    0.000 
#
# Total GULP energy -396789.168166 kJ/mol
# GULP energy per Si atom -12399.661505 kJ/mol
# Density = 1.831906 g / cm^3
# Si number density = 18.360846 Si / 1000 Ang^3
#
#
#
# Elastic Constant Matrix: (Units=GPa)
#
#
# Indices 1 2 3 4 5 6 
#
# 1 156.5233 31.0803 89.0033 0.0000 4.5147 0.0000
# 2 31.0803 40.1112 32.0835 0.0000 2.9101 0.0000
# 3 89.0033 32.0835 152.1220 0.0000 18.4111 0.0000
# 4 0.0000 0.0000 0.0000 23.9483 0.0000 4.9242
# 5 4.5147 2.9101 18.4111 0.0000 32.0741 0.0000
# 6 0.0000 0.0000 0.0000 4.9242 0.0000 24.7468
#
#
#
# Elastic Compliance Matrix: (Units=1/GPa)
#
#
# Indices 1 2 3 4 5 6 
#
# 1 0.010128 -0.003680 -0.005392 0.000000 0.002003 0.000000
# 2 -0.003680 0.031356 -0.004490 0.000000 0.000251 0.000000
# 3 -0.005392 -0.004490 0.011321 0.000000 -0.005332 0.000000
# 4 0.000000 0.000000 0.000000 0.043538 0.000000 -0.008663
# 5 0.002003 0.000251 -0.005332 0.000000 0.033934 0.000000
# 6 0.000000 0.000000 0.000000 -0.008663 0.000000 0.042133
#
#
# Mechanical properties :
#
#
# Convention : Reuss Voigt Hill
#
# Bulk Modulus (GPa) = 38.94137 72.56564 55.75350
# Shear Modulus (GPa) = 24.02769 29.25978 26.64374
#
# Velocity S-wave (km/s) = 3.62143 3.99632 3.81349
# Velocity P-wave (km/s) = 6.22425 7.80396 7.05844
#
# Compressibility (1/GPa) = 0.02567963
#
# Stress axis : x y z
#
# Youngs Moduli (GPa) = 98.73888 31.89211 88.33418
#
# Poissons Ratio (x) = 0.11737 0.47628
# Poissons Ratio (y) = 0.36337 0.39665
# Poissons Ratio (z) = 0.53238 0.14320
#
# Static dielectric constant tensor:
#      x y z
#    x 3.525760 0.000000 0.064220 
#    y 0.000000 3.097180 0.000000 
#    z 0.064220 0.000000 3.536790 
# 
# 
# High freq. dielectric constant tensor:
#      x y z
#    x 1.721500 0.000000 0.004750 
#    y 0.000000 1.665390 0.000000 
#    z 0.004750 0.000000 1.723110 
# 
# From -- ./inp_files/67044.got.cif
#   From: 2010.06.25/outbox.cif.g09.slc.cpg/sg11_34_cif.got.tgz:67044.got - 2010.06.27 23:14:04.
