data_PCOD8071846
_publ_section_title
;
Structure prediction by ZEFSAII (Michael W. Deem and Ramdas Pophale) SiO2 
 PCOD8071846
Probable space group: P 21/M
;
_chemical_formula_sum "Si O2"
_cell_formula_units_Z 24
_cell_length_a 9.223951
_cell_length_b 8.515868
_cell_length_c 33.231140
_cell_angle_alpha 90.000000
_cell_angle_beta 29.966621
_cell_angle_gamma 90.000000
_cell_volume 1303.834998
_symmetry_space_group_name_H-M "P 21/M"
_symmetry_group_IT_number 11
_symmetry_cell_setting 'monoclinic'
loop_
_space_group_symop_operation_xyz
x,y,z
-x,1/2+y,-z
-x,-y,-z
x,1/2-y,z
loop_
_atom_site_type_symbol
_atom_site_label
_atom_site_fract_x
_atom_site_fract_y
_atom_site_fract_z
Si Si1 0.910651 0.062456 0.233843
Si Si2 0.865979 0.433498 0.737246
Si Si3 0.192797 0.565131 0.086888
Si Si4 0.677123 0.076225 0.168179
Si Si5 0.652038 0.921814 0.669106
Si Si6 0.185498 0.936833 0.585092
O O1 0.911605 0.250000 0.239849
O O2 0.577943 0.997530 0.306124
O O3 0.029636 0.972500 0.243400
O O4 0.109298 0.021922 0.148089
O O5 0.873166 0.250000 0.727480
O O6 0.535399 0.493534 0.812731
O O7 0.088201 0.513445 0.652846
O O8 0.203049 0.750000 0.091846
O O9 0.965884 0.526358 0.105639
O O10 0.500000 0.500000 0.000000
O O11 0.762154 0.250000 0.131754
O O12 0.507681 0.093717 0.250213
O O13 0.721090 0.750000 0.634887
O O14 0.960185 0.006682 0.605073
O O15 0.181283 0.750000 0.584022
O O16 0.500000 0.000000 0.500000
#
# Coordination Sequence:
#
# PCOD8071846 Si02
#       6
#     4   4   4   4   4   4
#     4  10  19  35  56  78 104 139 177 218 264 313
#     4  11  21  34  53  80 108 138 175 218 264 316
#     4  11  21  35  55  81 109 140 176 217 261 311
#     4   9  17  33  54  76 102 138 177 214 256 311
#     4   7  14  29  51  73  97 130 171 210 252 306
#     4  10  19  34  54  78 105 137 175 219 266 317
#
# _framework density 18.407236999999999
#
# number of rings (size 3 to 8) (size 9 to 14) (size 15 to 20)
#    0.000    2.333    0.000    6.500    0.000    0.000 
#    0.000    4.167    0.000    0.000    0.000    0.000 
#    0.000    0.000    0.000    0.000    0.000    0.000 
#
# Total GULP energy -297377.252659 kJ/mol
# GULP energy per Si atom -12390.718861 kJ/mol
# Density = 1.836534 g / cm^3
# Si number density = 18.407237 Si / 1000 Ang^3
#
#
#
# Elastic Constant Matrix: (Units=GPa)
#
#
# Indices 1 2 3 4 5 6 
#
# 1 140.3703 17.3689 48.8649 0.0000 -25.0758 0.0000
# 2 17.3689 77.9616 12.3542 0.0000 -10.0165 0.0000
# 3 48.8649 12.3542 85.1413 0.0000 -27.6924 0.0001
# 4 0.0000 0.0000 0.0000 28.0905 0.0000 -3.1875
# 5 -25.0758 -10.0165 -27.6924 0.0000 29.1185 0.0000
# 6 0.0000 0.0000 0.0001 -3.1875 0.0000 29.6060
#
#
#
# Elastic Compliance Matrix: (Units=1/GPa)
#
#
# Indices 1 2 3 4 5 6 
#
# 1 0.009314 -0.000944 -0.003917 0.000000 0.003971 0.000000
# 2 -0.000944 0.013540 -0.000250 0.000000 0.003607 0.000000
# 3 -0.003917 -0.000250 0.018684 0.000000 0.014310 0.000000
# 4 0.000000 0.000000 0.000000 0.036040 0.000000 0.003880
# 5 0.003971 0.003607 0.014310 0.000000 0.052612 0.000000
# 6 0.000000 0.000000 0.000000 0.003880 0.000000 0.034195
#
#
# Mechanical properties :
#
#
# Convention : Reuss Voigt Hill
#
# Bulk Modulus (GPa) = 31.93216 51.18325 41.55771
# Shear Modulus (GPa) = 27.02069 32.35534 29.68802
#
# Velocity S-wave (km/s) = 3.83552 4.19710 4.02038
# Velocity P-wave (km/s) = 6.08279 7.16617 6.64659
#
# Compressibility (1/GPa) = 0.03131639
#
# Stress axis : x y z
#
# Youngs Moduli (GPa) = 107.36870 73.85429 53.52273
#
# Poissons Ratio (x) = 0.06973 0.20964
# Poissons Ratio (y) = 0.10137 0.01336
# Poissons Ratio (z) = 0.42055 0.01843
#
# Static dielectric constant tensor:
#      x y z
#    x 5.937300 0.000000 -2.919030 
#    y 0.000000 3.416280 0.000000 
#    z -2.919030 0.000000 6.049440 
# 
# 
# High freq. dielectric constant tensor:
#      x y z
#    x 1.724160 0.000000 -0.030250 
#    y 0.000000 1.713430 0.000000 
#    z -0.030250 0.000000 1.684270 
# 
# From -- ./inp_files/25610.got.cif
#   From: 2010.06.25/outbox.cif.g09.slc.cpg/sg11_13_cif.got.tgz:25610.got - 2010.06.27 23:14:04.
