data_PCOD8071418
_publ_section_title
;
Structure prediction by ZEFSAII (Michael W. Deem and Ramdas Pophale) SiO2 
 PCOD8071418
Probable space group: P 21/M
;
_chemical_formula_sum "Si O2"
_cell_formula_units_Z 32
_cell_length_a 16.267817
_cell_length_b 9.332806
_cell_length_c 22.013261
_cell_angle_alpha 90.000000
_cell_angle_beta 30.976680
_cell_angle_gamma 90.000000
_cell_volume 1720.168211
_symmetry_space_group_name_H-M "P 21/M"
_symmetry_group_IT_number 11
_symmetry_cell_setting 'monoclinic'
loop_
_space_group_symop_operation_xyz
x,y,z
-x,1/2+y,-z
-x,-y,-z
x,1/2-y,z
loop_
_atom_site_type_symbol
_atom_site_label
_atom_site_fract_x
_atom_site_fract_y
_atom_site_fract_z
Si Si1 0.708054 0.409573 0.020797
Si Si2 0.020862 0.407816 0.286666
Si Si3 0.061548 0.004882 0.788821
Si Si4 0.364518 0.077602 0.048139
Si Si5 0.381798 0.089156 0.534699
Si Si6 0.692637 0.422245 0.536245
Si Si7 0.567238 0.416188 0.239590
Si Si8 0.128033 0.912487 0.881014
O O1 0.649191 0.250000 0.040291
O O2 0.649201 0.454085 0.124238
O O3 0.629814 0.524891 0.024960
O O4 0.900397 0.405172 0.900012
O O5 0.048075 0.250000 0.293894
O O6 0.194661 0.481711 0.182921
O O7 0.966432 0.398109 0.250392
O O8 0.879747 0.473826 0.418310
O O9 0.106154 0.923747 0.822529
O O10 0.208893 0.105366 0.676181
O O11 0.381720 0.250000 0.039094
O O12 0.500000 0.000000 0.000000
O O13 0.446263 0.250000 0.481736
O O14 0.500000 0.000000 0.500000
O O15 0.385773 0.999717 0.470901
O O16 0.679523 0.250000 0.540134
O O17 0.592473 0.484929 0.656176
O O18 0.517096 0.250000 0.275506
O O19 0.692746 0.459230 0.213232
O O20 0.101506 0.750000 0.918272
O O21 0.000000 0.000000 0.000000
#
# Coordination Sequence:
#
# PCOD8071418 Si02
#       8
#     4   4   4   4   4   4   4   4
#     4  10  20  36  56  79 109 142 176 218 268 320
#     4   8  17  33  53  79 109 139 173 216 268 315
#     4  10  19  33  53  76 102 140 182 228 272 322
#     4  10  20  36  60  89 116 139 167 209 263 325
#     4  11  22  34  51  72  98 134 179 231 278 322
#     4  10  20  35  54  76 103 139 182 223 263 317
#     4  10  21  36  52  75 110 149 186 229 272 316
#     4  11  22  34  49  71 104 145 187 232 276 319
#
# _framework density 18.602833
#
# number of rings (size 3 to 8) (size 9 to 14) (size 15 to 20)
#    0.000    2.000    1.250    2.625    0.000    4.500 
#    0.000    1.875    0.000    0.750    0.000    0.000 
#    0.000    0.000    0.000    0.000    0.000    0.000 
#
# Total GULP energy -396480.665393 kJ/mol
# GULP energy per Si atom -12390.020794 kJ/mol
# Density = 1.856049 g / cm^3
# Si number density = 18.602833 Si / 1000 Ang^3
#
#
#
# Elastic Constant Matrix: (Units=GPa)
#
#
# Indices 1 2 3 4 5 6 
#
# 1 82.5505 31.5448 42.7219 0.0000 -17.6200 0.0000
# 2 31.5448 93.5339 42.9016 0.0000 -7.7667 0.0000
# 3 42.7219 42.9016 130.5276 0.0000 -6.8950 0.0000
# 4 0.0000 0.0000 0.0000 27.2219 0.0000 1.4483
# 5 -17.6200 -7.7667 -6.8950 0.0000 23.5456 0.0000
# 6 0.0000 0.0000 0.0000 1.4483 0.0000 25.5732
#
#
#
# Elastic Compliance Matrix: (Units=1/GPa)
#
#
# Indices 1 2 3 4 5 6 
#
# 1 0.017880 -0.003171 -0.004224 0.000000 0.011097 0.000000
# 2 -0.003171 0.013362 -0.003297 0.000000 0.001069 0.000000
# 3 -0.004224 -0.003297 0.010059 0.000000 -0.001303 0.000000
# 4 0.000000 0.000000 0.000000 0.036846 0.000000 -0.002087
# 5 0.011097 0.001069 -0.001303 0.000000 0.050747 0.000000
# 6 0.000000 0.000000 0.000000 -0.002087 0.000000 0.039222
#
#
# Mechanical properties :
#
#
# Convention : Reuss Voigt Hill
#
# Bulk Modulus (GPa) = 50.21087 60.10540 55.15813
# Shear Modulus (GPa) = 25.49219 27.89772 26.69496
#
# Velocity S-wave (km/s) = 3.70583 3.87673 3.79224
# Velocity P-wave (km/s) = 6.73501 7.24007 6.99211
#
# Compressibility (1/GPa) = 0.01991601
#
# Stress axis : x y z
#
# Youngs Moduli (GPa) = 55.92770 74.83891 99.41784
#
# Poissons Ratio (x) = 0.23735 0.41990
# Poissons Ratio (y) = 0.17737 0.32781
# Poissons Ratio (z) = 0.23622 0.24677
#
# Static dielectric constant tensor:
#      x y z
#    x 3.137000 0.000000 -0.120790 
#    y 0.000000 3.348180 0.000000 
#    z -0.120790 0.000000 3.777850 
# 
# 
# High freq. dielectric constant tensor:
#      x y z
#    x 1.687260 0.000000 -0.004990 
#    y 0.000000 1.715610 0.000000 
#    z -0.004990 0.000000 1.738100 
# 
# From -- ./inp_files/69436.got.cif
#   From: 2010.06.25/outbox.cif.g09.slc.cpg/sg11_35_cif.got.tgz:69436.got - 2010.06.27 23:14:04.
