data_PCOD8071803
_publ_section_title
;
Structure prediction by ZEFSAII (Michael W. Deem and Ramdas Pophale) SiO2 
 PCOD8071803
Probable space group: P 21/M
;
_chemical_formula_sum "Si O2"
_cell_formula_units_Z 32
_cell_length_a 21.364473
_cell_length_b 8.976589
_cell_length_c 14.064320
_cell_angle_alpha 90.000000
_cell_angle_beta 134.906678
_cell_angle_gamma 90.000000
_cell_volume 1910.352383
_symmetry_space_group_name_H-M "P 21/M"
_symmetry_group_IT_number 11
_symmetry_cell_setting 'monoclinic'
loop_
_space_group_symop_operation_xyz
x,y,z
-x,1/2+y,-z
-x,-y,-z
x,1/2-y,z
loop_
_atom_site_type_symbol
_atom_site_label
_atom_site_fract_x
_atom_site_fract_y
_atom_site_fract_z
Si Si1 0.509941 0.075530 0.611689
Si Si2 0.601031 0.077485 0.016542
Si Si3 0.313075 0.922000 0.088786
Si Si4 0.157708 0.076515 0.023960
Si Si5 0.395637 0.423158 0.788906
Si Si6 0.992374 0.921386 0.892030
Si Si7 0.798532 0.579904 0.711774
Si Si8 0.355933 0.574009 0.560324
O O1 0.488767 0.250000 0.581527
O O2 0.608654 0.046149 0.753323
O O3 0.500000 0.000000 0.500000
O O4 0.443196 0.003019 0.613918
O O5 0.612891 0.250000 0.055739
O O6 0.635557 0.978837 0.141146
O O7 0.657422 0.032093 0.985242
O O8 0.499006 0.043122 0.885070
O O9 0.285518 0.750000 0.062956
O O10 0.229666 0.021283 0.026242
O O11 0.143332 0.250000 0.995116
O O12 0.187980 0.036955 0.163408
O O13 0.063557 0.998068 0.898234
O O14 0.373137 0.250000 0.754088
O O15 0.341291 0.514317 0.651439
O O16 0.018165 0.750000 0.931535
O O17 0.890055 0.938129 0.750124
O O18 0.000000 0.000000 0.000000
O O19 0.764179 0.750000 0.666975
O O20 0.727946 0.466974 0.593579
O O21 0.368592 0.750000 0.573442
#
# Coordination Sequence:
#
# PCOD8071803 Si02
#       8
#     4   4   4   4   4   4   4   4
#     4  11  22  36  49  67  97 135 172 206 243 286
#     4   9  18  34  52  72  95 125 164 209 254 295
#     4  10  20  34  50  69  98 133 167 203 246 292
#     4  10  20  32  49  74 102 132 167 206 246 292
#     4  10  19  34  53  72  96 127 162 209 255 295
#     4   9  17  31  51  72  96 128 164 205 251 292
#     4   9  19  34  50  70  99 133 168 208 247 289
#     4  12  23  33  49  73  99 133 169 204 246 296
#
# _framework density 16.750837000000001
#
# number of rings (size 3 to 8) (size 9 to 14) (size 15 to 20)
#    0.000    2.000    1.250    4.125    0.000    7.000 
#    0.000    0.000    0.000    0.000    0.000    0.875 
#    0.000    0.000    0.000    0.000    0.000    0.000 
#
# Total GULP energy -396815.754005 kJ/mol
# GULP energy per Si atom -12400.492313 kJ/mol
# Density = 1.671271 g / cm^3
# Si number density = 16.750837 Si / 1000 Ang^3
#
#
#
# Elastic Constant Matrix: (Units=GPa)
#
#
# Indices 1 2 3 4 5 6 
#
# 1 102.3085 46.1237 28.5003 0.0000 2.1646 0.0000
# 2 46.1237 96.2675 22.7324 0.0000 1.4447 0.0000
# 3 28.5003 22.7324 21.1143 0.0000 -4.1188 0.0000
# 4 0.0000 0.0000 0.0000 25.6411 0.0000 -0.2172
# 5 2.1646 1.4447 -4.1188 0.0000 23.8074 0.0000
# 6 0.0000 0.0000 0.0000 -0.2172 0.0000 32.7463
#
#
#
# Elastic Compliance Matrix: (Units=1/GPa)
#
#
# Indices 1 2 3 4 5 6 
#
# 1 0.017046 -0.003265 -0.020447 0.000000 -0.004889 0.000000
# 2 -0.003265 0.014852 -0.012109 0.000000 -0.002699 0.000000
# 3 -0.020447 -0.012109 0.091595 0.000000 0.018440 0.000000
# 4 0.000000 0.000000 0.000000 0.039002 0.000000 0.000259
# 5 -0.004889 -0.002699 0.018440 0.000000 0.045802 0.000000
# 6 0.000000 0.000000 0.000000 0.000259 0.000000 0.030539
#
#
# Mechanical properties :
#
#
# Convention : Reuss Voigt Hill
#
# Bulk Modulus (GPa) = 19.28639 46.04480 32.66560
# Shear Modulus (GPa) = 15.25493 24.59457 19.92475
#
# Velocity S-wave (km/s) = 3.02105 3.83594 3.45262
# Velocity P-wave (km/s) = 4.86905 6.86783 5.95293
#
# Compressibility (1/GPa) = 0.05185004
#
# Stress axis : x y z
#
# Youngs Moduli (GPa) = 58.66537 67.33010 10.91765
#
# Poissons Ratio (x) = 0.21986 0.22323
# Poissons Ratio (y) = 0.19157 0.13220
# Poissons Ratio (z) = 1.19952 0.81532
#
# Static dielectric constant tensor:
#      x y z
#    x 3.189550 0.000000 0.095260 
#    y 0.000000 3.259650 0.000000 
#    z 0.095260 0.000000 3.047640 
# 
# 
# High freq. dielectric constant tensor:
#      x y z
#    x 1.638170 0.000000 0.005340 
#    y 0.000000 1.658620 0.000000 
#    z 0.005340 0.000000 1.618390 
# 
# From -- ./inp_files/54301.got.cif
#   From: 2010.06.25/outbox.cif.g09.slc.cpg/sg11_28_cif.got.tgz:54301.got - 2010.06.27 23:14:04.
