data_PCOD8071289
_publ_section_title
;
Structure prediction by ZEFSAII (Michael W. Deem and Ramdas Pophale) SiO2 
 PCOD8071289
Probable space group: P 21/M
;
_chemical_formula_sum "Si O2"
_cell_formula_units_Z 28
_cell_length_a 27.495807
_cell_length_b 9.307758
_cell_length_c 13.154931
_cell_angle_alpha 90.000000
_cell_angle_beta 153.763412
_cell_angle_gamma 90.000000
_cell_volume 1488.331773
_symmetry_space_group_name_H-M "P 21/M"
_symmetry_group_IT_number 11
_symmetry_cell_setting 'monoclinic'
loop_
_space_group_symop_operation_xyz
x,y,z
-x,1/2+y,-z
-x,-y,-z
x,1/2-y,z
loop_
_atom_site_type_symbol
_atom_site_label
_atom_site_fract_x
_atom_site_fract_y
_atom_site_fract_z
Si Si1 0.235854 0.411832 0.501404
Si Si2 0.480063 0.584342 0.610743
Si Si3 0.887606 0.082110 0.570039
Si Si4 0.878806 0.588589 0.910693
Si Si5 0.660358 0.082300 0.844898
Si Si6 0.677569 0.418026 0.507881
Si Si7 0.897572 0.417356 0.353349
O O1 0.276878 0.250000 0.602759
O O2 0.208103 0.493029 0.553560
O O3 0.127576 0.408331 0.225121
O O4 0.331030 0.498522 0.616801
O O5 0.510528 0.750000 0.653442
O O6 0.387834 0.539220 0.355051
O O7 0.590770 0.494078 0.803510
O O8 0.432611 0.554028 0.633989
O O9 0.868900 0.250000 0.556904
O O10 0.881680 0.043815 0.441153
O O11 0.004742 0.029796 0.833161
O O12 0.858925 0.750000 0.916618
O O13 0.781744 0.481956 0.767375
O O14 0.652116 0.250000 0.852392
O O15 0.787299 0.033166 0.087873
O O16 0.697536 0.250000 0.526511
O O17 0.921248 0.250000 0.383191
O O18 0.000000 0.500000 0.500000
#
# Coordination Sequence:
#
# PCOD8071289 Si02
#       7
#     4   4   4   4   4   4   4
#     4   9  18  30  46  72 102 132 171 211 253 304
#     4   9  18  33  55  80 103 132 171 215 263 307
#     4  10  19  33  49  68  99 139 174 207 251 303
#     4   8  17  29  43  69 101 131 168 208 249 301
#     4   9  19  36  54  76 105 136 173 215 258 305
#     4   9  17  28  47  75 103 129 159 207 260 306
#     4  10  23  38  54  77 106 141 177 211 253 308
#
# _framework density 18.813009000000001
#
# number of rings (size 3 to 8) (size 9 to 14) (size 15 to 20)
#    0.857    2.000    0.000    0.857    2.000    2.857 
#    0.000    0.000    0.000    0.857    0.000    0.000 
#    0.000    0.000    0.000    0.000    0.000    0.000 
#
# Total GULP energy -347007.515634 kJ/mol
# GULP energy per Si atom -12393.125558 kJ/mol
# Density = 1.877019 g / cm^3
# Si number density = 18.813009 Si / 1000 Ang^3
#
#
#
# Elastic Constant Matrix: (Units=GPa)
#
#
# Indices 1 2 3 4 5 6 
#
# 1 113.1660 62.5012 39.8224 0.0000 21.8417 0.0000
# 2 62.5012 89.3620 29.8976 0.0000 18.2092 0.0000
# 3 39.8224 29.8976 63.5608 0.0000 14.1167 0.0000
# 4 0.0000 0.0000 0.0000 20.4347 0.0000 7.3606
# 5 21.8417 18.2092 14.1167 0.0000 24.0056 0.0000
# 6 0.0000 0.0000 0.0000 7.3606 0.0000 35.4651
#
#
#
# Elastic Compliance Matrix: (Units=1/GPa)
#
#
# Indices 1 2 3 4 5 6 
#
# 1 0.016471 -0.008743 -0.005005 0.000000 -0.005411 0.000000
# 2 -0.008743 0.019158 -0.002384 0.000000 -0.005175 0.000000
# 3 -0.005005 -0.002384 0.021368 0.000000 -0.006203 0.000000
# 4 0.000000 0.000000 0.000000 0.052890 0.000000 -0.010977
# 5 -0.005411 -0.005175 -0.006203 0.000000 0.054153 0.000000
# 6 0.000000 0.000000 0.000000 -0.010977 0.000000 0.030475
#
#
# Mechanical properties :
#
#
# Convention : Reuss Voigt Hill
#
# Bulk Modulus (GPa) = 40.43390 58.94791 49.69091
# Shear Modulus (GPa) = 21.27447 24.90559 23.09003
#
# Velocity S-wave (km/s) = 3.36644 3.64242 3.50715
# Velocity P-wave (km/s) = 6.05390 7.00652 6.54756
#
# Compressibility (1/GPa) = 0.02473172
#
# Stress axis : x y z
#
# Youngs Moduli (GPa) = 60.71323 52.19882 46.79877
#
# Poissons Ratio (x) = 0.45637 0.23424
# Poissons Ratio (y) = 0.53081 0.11158
# Poissons Ratio (z) = 0.30388 0.12446
#
# Static dielectric constant tensor:
#      x y z
#    x 3.299630 0.000000 0.004510 
#    y 0.000000 3.404350 0.000000 
#    z 0.004510 0.000000 3.198160 
# 
# 
# High freq. dielectric constant tensor:
#      x y z
#    x 1.723800 0.000000 0.003620 
#    y 0.000000 1.730790 0.000000 
#    z 0.003620 0.000000 1.698640 
# 
# From -- ./inp_files/44149.got.cif
#   From: 2010.06.25/outbox.cif.g09.slc.cpg/sg11_23_cif.got.tgz:44149.got - 2010.06.27 23:14:04.
