data_PCOD8071244
_publ_section_title
;
Structure prediction by ZEFSAII (Michael W. Deem and Ramdas Pophale) SiO2 
 PCOD8071244
Probable space group: P 21/M
;
_chemical_formula_sum "Si O2"
_cell_formula_units_Z 28
_cell_length_a 27.582512
_cell_length_b 8.702120
_cell_length_c 9.650946
_cell_angle_alpha 90.000000
_cell_angle_beta 139.062459
_cell_angle_gamma 90.000000
_cell_volume 1517.841650
_symmetry_space_group_name_H-M "P 21/M"
_symmetry_group_IT_number 11
_symmetry_cell_setting 'monoclinic'
loop_
_space_group_symop_operation_xyz
x,y,z
-x,1/2+y,-z
-x,-y,-z
x,1/2-y,z
loop_
_atom_site_type_symbol
_atom_site_label
_atom_site_fract_x
_atom_site_fract_y
_atom_site_fract_z
Si Si1 0.076839 0.430634 0.117466
Si Si2 0.644519 0.429924 0.132865
Si Si3 0.934772 0.427833 0.189938
Si Si4 0.510328 0.930996 0.673976
Si Si5 0.565695 0.428981 0.225569
Si Si6 0.811004 0.428985 0.432783
Si Si7 0.896782 0.926767 0.387038
O O1 0.066969 0.250000 0.075074
O O2 0.140919 0.463476 0.364608
O O3 0.101471 0.511854 0.028883
O O4 0.000000 0.500000 0.000000
O O5 0.630572 0.250000 0.078360
O O6 0.637287 0.469372 0.284308
O O7 0.726196 0.478935 0.264234
O O8 0.587262 0.518830 0.910928
O O9 0.916284 0.250000 0.174360
O O10 0.897173 0.527322 0.228095
O O11 0.022711 0.456158 0.372701
O O12 0.511638 0.750000 0.657292
O O13 0.441421 0.983996 0.628155
O O14 0.500000 0.000000 0.500000
O O15 0.552508 0.250000 0.201226
O O16 0.500000 0.500000 0.000000
O O17 0.822849 0.250000 0.493766
O O18 0.837081 0.465018 0.333203
O O19 0.873324 0.750000 0.351393
#
# Coordination Sequence:
#
# PCOD8071244 Si02
#       7
#     4   4   4   4   4   4   4
#     4  12  23  36  55  79 107 140 182 232 278 326
#     4   9  19  36  56  79 108 143 181 222 269 325
#     4  10  20  35  55  78 104 136 178 227 277 328
#     4  10  19  32  55  84 112 144 180 223 267 317
#     4   8  15  30  52  77 104 136 176 215 256 308
#     4  11  22  36  56  80 109 145 183 227 281 334
#     4  10  20  34  54  78 106 140 177 223 275 330
#
# _framework density 18.447247000000001
#
# number of rings (size 3 to 8) (size 9 to 14) (size 15 to 20)
#    0.000    2.000    1.429    3.000    0.000    2.857 
#    0.000    1.429    0.000    6.857    0.000    0.000 
#    0.000    0.000    0.000    0.000    0.000    0.000 
#
# Total GULP energy -347000.366586 kJ/mol
# GULP energy per Si atom -12392.870235 kJ/mol
# Density = 1.840526 g / cm^3
# Si number density = 18.447247 Si / 1000 Ang^3
#
#
#
# Elastic Constant Matrix: (Units=GPa)
#
#
# Indices 1 2 3 4 5 6 
#
# 1 142.5605 39.2234 55.6909 0.0000 -11.6478 0.0000
# 2 39.2234 51.8503 22.8851 0.0000 -2.8689 0.0000
# 3 55.6909 22.8851 71.1057 0.0000 -12.9940 0.0000
# 4 0.0000 0.0000 0.0000 28.7533 0.0000 -5.5800
# 5 -11.6478 -2.8689 -12.9940 0.0000 30.7105 0.0000
# 6 0.0000 0.0000 0.0000 -5.5800 0.0000 29.3065
#
#
#
# Elastic Compliance Matrix: (Units=1/GPa)
#
#
# Indices 1 2 3 4 5 6 
#
# 1 0.011288 -0.005430 -0.006940 0.000000 0.000838 0.000000
# 2 -0.005430 0.025122 -0.004097 0.000000 -0.001446 0.000000
# 3 -0.006940 -0.004097 0.021966 0.000000 0.006279 0.000000
# 4 0.000000 0.000000 0.000000 0.036113 0.000000 0.006876
# 5 0.000838 -0.001446 0.006279 0.000000 0.035401 0.000000
# 6 0.000000 0.000000 0.000000 0.006876 0.000000 0.035431
#
#
# Mechanical properties :
#
#
# Convention : Reuss Voigt Hill
#
# Bulk Modulus (GPa) = 39.30632 55.67947 47.49290
# Shear Modulus (GPa) = 24.18541 27.60185 25.89363
#
# Velocity S-wave (km/s) = 3.62478 3.87235 3.75061
# Velocity P-wave (km/s) = 6.23477 7.08816 6.67512
#
# Compressibility (1/GPa) = 0.02544120
#
# Stress axis : x y z
#
# Youngs Moduli (GPa) = 88.58861 39.80582 45.52591
#
# Poissons Ratio (x) = 0.21613 0.31597
# Poissons Ratio (y) = 0.48099 0.18653
# Poissons Ratio (z) = 0.61485 0.16309
#
# Static dielectric constant tensor:
#      x y z
#    x 4.153730 0.000000 -0.099570 
#    y 0.000000 3.383230 0.000000 
#    z -0.099570 0.000000 3.199220 
# 
# 
# High freq. dielectric constant tensor:
#      x y z
#    x 1.732240 0.000000 -0.022280 
#    y 0.000000 1.724840 0.000000 
#    z -0.022280 0.000000 1.679280 
# 
# From -- ./inp_files/28596.got.cif
#   From: 2010.06.25/outbox.cif.g09.slc.cpg/sg11_15_cif.got.tgz:28596.got - 2010.06.27 23:14:04.
