data_PCOD8071542
_publ_section_title
;
Structure prediction by ZEFSAII (Michael W. Deem and Ramdas Pophale) SiO2 
 PCOD8071542
Probable space group: P 21/M
;
_chemical_formula_sum "Si O2"
_cell_formula_units_Z 28
_cell_length_a 14.005971
_cell_length_b 8.713487
_cell_length_c 12.242324
_cell_angle_alpha 90.000000
_cell_angle_beta 96.549292
_cell_angle_gamma 90.000000
_cell_volume 1484.313469
_symmetry_space_group_name_H-M "P 21/M"
_symmetry_group_IT_number 11
_symmetry_cell_setting 'monoclinic'
loop_
_space_group_symop_operation_xyz
x,y,z
-x,1/2+y,-z
-x,-y,-z
x,1/2-y,z
loop_
_atom_site_type_symbol
_atom_site_label
_atom_site_fract_x
_atom_site_fract_y
_atom_site_fract_z
Si Si1 0.446104 0.430178 0.298415
Si Si2 0.754655 0.429213 0.120876
Si Si3 0.660717 0.432051 0.334762
Si Si4 0.148104 0.931244 0.245358
Si Si5 0.282288 0.431992 0.436485
Si Si6 0.974604 0.430551 0.113087
Si Si7 0.296575 0.429756 0.103341
O O1 0.456944 0.250000 0.310545
O O2 0.552472 0.501965 0.318808
O O3 0.379229 0.491763 0.388425
O O4 0.396493 0.472813 0.176440
O O5 0.737113 0.250000 0.098791
O O6 0.713460 0.482738 0.231378
O O7 0.866207 0.472651 0.130826
O O8 0.695523 0.521292 0.021228
O O9 0.661319 0.250000 0.349244
O O10 0.719302 0.507218 0.441024
O O11 0.145861 0.750000 0.255277
O O12 0.190034 0.002021 0.361871
O O13 0.209616 0.978453 0.147481
O O14 0.040790 0.995043 0.215310
O O15 0.276051 0.250000 0.432604
O O16 0.991903 0.250000 0.111041
O O17 0.000000 0.500000 0.000000
O O18 0.274473 0.250000 0.112776
#
# Coordination Sequence:
#
# PCOD8071542 Si02
#       7
#     4   4   4   4   4   4   4
#     4   8  17  33  55  81 109 142 182 225 271 317
#     4  10  22  36  53  79 113 147 182 221 271 329
#     4  10  20  37  56  77 110 150 185 223 268 322
#     4  11  21  35  57  84 109 139 181 228 277 325
#     4  10  20  36  57  83 111 141 182 229 271 320
#     4  11  21  35  56  83 111 143 181 225 273 326
#     4  10  19  33  54  81 112 144 180 225 272 322
#
# _framework density 18.863941000000001
#
# number of rings (size 3 to 8) (size 9 to 14) (size 15 to 20)
#    0.000    2.000    1.429    3.857    0.000    1.714 
#    0.000    4.286    0.000    0.000    0.000    0.000 
#    0.000    0.000    0.000    0.000    0.000    0.000 
#
# Total GULP energy -347264.041879 kJ/mol
# GULP energy per Si atom -12402.287210 kJ/mol
# Density = 1.882101 g / cm^3
# Si number density = 18.863941 Si / 1000 Ang^3
#
#
#
# Elastic Constant Matrix: (Units=GPa)
#
#
# Indices 1 2 3 4 5 6 
#
# 1 60.7170 22.1049 49.4942 0.0000 5.5481 0.0000
# 2 22.1049 68.1714 44.9773 0.0000 0.5742 0.0000
# 3 49.4942 44.9773 157.7832 0.0000 5.9099 0.0000
# 4 0.0000 0.0000 0.0000 34.6174 0.0000 2.9896
# 5 5.5481 0.5742 5.9099 0.0000 27.2065 0.0000
# 6 0.0000 0.0000 0.0000 2.9896 0.0000 19.7944
#
#
#
# Elastic Compliance Matrix: (Units=1/GPa)
#
#
# Indices 1 2 3 4 5 6 
#
# 1 0.022996 -0.003388 -0.006125 0.000000 -0.003288 0.000000
# 2 -0.003388 0.018581 -0.004280 0.000000 0.001228 0.000000
# 3 -0.006125 -0.004280 0.009506 0.000000 -0.000726 0.000000
# 4 0.000000 0.000000 0.000000 0.029269 0.000000 -0.004421
# 5 -0.003288 0.001228 -0.000726 0.000000 0.037558 0.000000
# 6 0.000000 0.000000 0.000000 -0.004421 0.000000 0.051187
#
#
# Mechanical properties :
#
#
# Convention : Reuss Voigt Hill
#
# Bulk Modulus (GPa) = 42.55648 57.75826 50.15737
# Shear Modulus (GPa) = 24.44804 27.66333 26.05568
#
# Velocity S-wave (km/s) = 3.60393 3.83360 3.72054
# Velocity P-wave (km/s) = 6.31874 7.09085 6.71590
#
# Compressibility (1/GPa) = 0.02349818
#
# Stress axis : x y z
#
# Youngs Moduli (GPa) = 43.48516 53.81874 105.19460
#
# Poissons Ratio (x) = 0.18235 0.64428
# Poissons Ratio (y) = 0.14733 0.45021
# Poissons Ratio (z) = 0.26633 0.23033
#
# Static dielectric constant tensor:
#      x y z
#    x 3.600300 0.000000 0.168930 
#    y 0.000000 3.321900 0.000000 
#    z 0.168930 0.000000 3.522700 
# 
# 
# High freq. dielectric constant tensor:
#      x y z
#    x 1.721960 0.000000 0.017450 
#    y 0.000000 1.725880 0.000000 
#    z 0.017450 0.000000 1.738550 
# 
# From -- ./inp_files/37639.got.cif
#   From: 2010.06.25/outbox.cif.g09.slc.cpg/sg11_19_cif.got.tgz:37639.got - 2010.06.27 23:14:04.
