data_PCOD8071063
_publ_section_title
;
Structure prediction by ZEFSAII (Michael W. Deem and Ramdas Pophale) SiO2 
 PCOD8071063
Probable space group: P 21/M
;
_chemical_formula_sum "Si O2"
_cell_formula_units_Z 32
_cell_length_a 12.220766
_cell_length_b 8.962495
_cell_length_c 20.664458
_cell_angle_alpha 90.000000
_cell_angle_beta 127.745129
_cell_angle_gamma 90.000000
_cell_volume 1789.723625
_symmetry_space_group_name_H-M "P 21/M"
_symmetry_group_IT_number 11
_symmetry_cell_setting 'monoclinic'
loop_
_space_group_symop_operation_xyz
x,y,z
-x,1/2+y,-z
-x,-y,-z
x,1/2-y,z
loop_
_atom_site_type_symbol
_atom_site_label
_atom_site_fract_x
_atom_site_fract_y
_atom_site_fract_z
Si Si1 0.351568 0.423631 0.767690
Si Si2 0.076934 0.926847 0.212323
Si Si3 0.905321 0.072323 0.520261
Si Si4 0.916752 0.575078 0.026882
Si Si5 0.352110 0.073844 0.268287
Si Si6 0.627426 0.576520 0.872907
Si Si7 0.365842 0.425274 0.622058
Si Si8 0.940949 0.926688 0.295218
O O1 0.365869 0.250000 0.785624
O O2 0.488674 0.496932 0.847490
O O3 0.337746 0.459415 0.686934
O O4 0.215005 0.490331 0.752856
O O5 0.103143 0.750000 0.222517
O O6 0.976300 0.974769 0.117421
O O7 0.005083 0.985513 0.251668
O O8 0.221884 0.010709 0.259740
O O9 0.905923 0.250000 0.511620
O O10 0.963815 0.021972 0.610875
O O11 0.750872 0.008513 0.461387
O O12 0.000000 0.000000 0.500000
O O13 0.931011 0.750000 0.021006
O O14 0.755451 0.527454 0.964611
O O15 0.000000 0.500000 0.000000
O O16 0.363941 0.250000 0.282952
O O17 0.335260 0.030151 0.186952
O O18 0.487697 0.994242 0.346296
O O19 0.597393 0.750000 0.866415
O O20 0.363554 0.250000 0.606153
O O21 0.930997 0.750000 0.291003
#
# Coordination Sequence:
#
# PCOD8071063 Si02
#       8
#     4   4   4   4   4   4   4   4
#     4   9  17  32  52  74 102 137 172 210 256 308
#     4  10  20  35  56  77 103 143 181 213 259 317
#     4  11  20  34  55  80 108 138 176 222 268 311
#     4  10  19  32  52  78 105 136 175 218 261 307
#     4  10  19  33  52  77 110 140 170 216 271 313
#     4   9  18  31  48  75 107 134 165 215 263 302
#     4  10  19  33  54  81 107 134 177 221 262 314
#     4   9  19  36  54  76 107 140 175 216 261 313
#
# _framework density 17.879854999999999
#
# number of rings (size 3 to 8) (size 9 to 14) (size 15 to 20)
#    0.000    2.250    2.500    1.125    0.000    1.500 
#    0.000    3.125    0.000    0.000    0.000    0.000 
#    0.000    0.000    0.000    0.000    0.000    0.000 
#
# Total GULP energy -396823.389021 kJ/mol
# GULP energy per Si atom -12400.730907 kJ/mol
# Density = 1.783916 g / cm^3
# Si number density = 17.879855 Si / 1000 Ang^3
#
#
#
# Elastic Constant Matrix: (Units=GPa)
#
#
# Indices 1 2 3 4 5 6 
#
# 1 152.2930 47.2714 89.9639 0.0000 20.9120 0.0000
# 2 47.2714 52.3958 44.5413 0.0000 8.1984 0.0000
# 3 89.9639 44.5413 137.3456 0.0000 19.2298 0.0000
# 4 0.0000 0.0000 0.0000 25.2397 0.0000 9.6909
# 5 20.9120 8.1984 19.2298 0.0000 35.6043 0.0000
# 6 0.0000 0.0000 0.0000 9.6909 0.0000 27.5447
#
#
#
# Elastic Compliance Matrix: (Units=1/GPa)
#
#
# Indices 1 2 3 4 5 6 
#
# 1 0.012037 -0.005600 -0.005689 0.000000 -0.002708 0.000000
# 2 -0.005600 0.029036 -0.005704 0.000000 -0.000316 0.000000
# 3 -0.005689 -0.005704 0.013204 0.000000 -0.002476 0.000000
# 4 0.000000 0.000000 0.000000 0.045808 0.000000 -0.016116
# 5 -0.002708 -0.000316 -0.002476 0.000000 0.031087 0.000000
# 6 0.000000 0.000000 0.000000 -0.016116 0.000000 0.041975
#
#
# Mechanical properties :
#
#
# Convention : Reuss Voigt Hill
#
# Bulk Modulus (GPa) = 49.28372 78.39862 63.84117
# Shear Modulus (GPa) = 23.37565 28.36162 25.86864
#
# Velocity S-wave (km/s) = 3.61968 3.98708 3.80781
# Velocity P-wave (km/s) = 6.71514 8.07083 7.42400
#
# Compressibility (1/GPa) = 0.02029068
#
# Stress axis : x y z
#
# Youngs Moduli (GPa) = 83.07616 34.43988 75.73323
#
# Poissons Ratio (x) = 0.19285 0.43088
# Poissons Ratio (y) = 0.46520 0.43200
# Poissons Ratio (z) = 0.47266 0.19646
#
# Static dielectric constant tensor:
#      x y z
#    x 2.618900 0.000000 -0.176950 
#    y 0.000000 3.203060 0.000000 
#    z -0.176950 0.000000 3.305540 
# 
# 
# High freq. dielectric constant tensor:
#      x y z
#    x 1.685270 0.000000 0.024520 
#    y 0.000000 1.682340 0.000000 
#    z 0.024520 0.000000 1.689600 
# 
# From -- ./inp_files/42883.got.cif
#   From: 2010.06.25/outbox.cif.g09.slc.cpg/sg11_22_cif.got.tgz:42883.got - 2010.06.27 23:14:04.
