data_PCOD8071704
_publ_section_title
;
Structure prediction by ZEFSAII (Michael W. Deem and Ramdas Pophale) SiO2 
 PCOD8071704
Probable space group: P 21/M
;
_chemical_formula_sum "Si O2"
_cell_formula_units_Z 32
_cell_length_a 11.339052
_cell_length_b 15.945017
_cell_length_c 13.258707
_cell_angle_alpha 90.000000
_cell_angle_beta 136.528057
_cell_angle_gamma 90.000000
_cell_volume 1649.266718
_symmetry_space_group_name_H-M "P 21/M"
_symmetry_group_IT_number 11
_symmetry_cell_setting 'monoclinic'
loop_
_space_group_symop_operation_xyz
x,y,z
-x,1/2+y,-z
-x,-y,-z
x,1/2-y,z
loop_
_atom_site_type_symbol
_atom_site_label
_atom_site_fract_x
_atom_site_fract_y
_atom_site_fract_z
Si Si1 0.694680 0.151462 0.782514
Si Si2 0.976021 0.657692 0.309906
Si Si3 0.318995 0.954292 0.773325
Si Si4 0.016415 0.154602 0.455580
Si Si5 0.690089 0.930331 0.039054
Si Si6 0.344307 0.432222 0.593361
Si Si7 0.204288 0.531924 0.339919
Si Si8 0.087911 0.538522 0.958836
O O1 0.716008 0.250000 0.769953
O O2 0.501267 0.132900 0.698377
O O3 0.729914 0.091907 0.708369
O O4 0.828151 0.127848 0.956056
O O5 0.054603 0.750000 0.342828
O O6 0.919696 0.644265 0.390168
O O7 0.117846 0.590091 0.370506
O O8 0.809348 0.650219 0.133844
O O9 0.163356 0.890963 0.669913
O O10 0.286324 0.012457 0.848204
O O11 0.345285 0.006496 0.688579
O O12 0.494796 0.902063 0.900406
O O13 0.985872 0.250000 0.405301
O O14 0.165028 0.117385 0.477938
O O15 0.756169 0.980019 0.981698
O O16 0.355775 0.484184 0.494429
O O17 0.065092 0.460917 0.218519
O O18 0.000000 0.500000 0.000000
#
# Coordination Sequence:
#
# PCOD8071704 Si02
#       8
#     4   4   4   4   4   4   4   4
#     4  11  23  40  61  89 118 151 196 253 301 347
#     4  10  19  33  56  85 116 150 191 244 293 342
#     4  11  21  36  59  80 117 157 198 238 292 357
#     4  11  22  36  55  86 120 154 193 244 301 345
#     4  10  20  36  57  85 111 155 202 238 287 359
#     4  12  21  39  60  87 117 159 199 243 295 360
#     4  10  21  38  64  85 115 155 204 237 293 360
#     4   9  19  37  59  86 114 151 194 240 286 352
#
# _framework density 19.402563000000001
#
# number of rings (size 3 to 8) (size 9 to 14) (size 15 to 20)
#    0.000    1.500    3.750    3.000    0.000    0.500 
#    0.000    3.125    0.000    0.000    0.000    0.000 
#    0.000    0.000    0.000    0.000    0.000    0.000 
#
# Total GULP energy -396593.873194 kJ/mol
# GULP energy per Si atom -12393.558537 kJ/mol
# Density = 1.935840 g / cm^3
# Si number density = 19.402563 Si / 1000 Ang^3
#
#
#
# Elastic Constant Matrix: (Units=GPa)
#
#
# Indices 1 2 3 4 5 6 
#
# 1 69.6615 28.0249 34.6790 0.0000 -5.7047 0.0000
# 2 28.0249 92.7848 56.9662 0.0000 -0.7835 0.0000
# 3 34.6790 56.9662 89.6292 0.0000 9.3148 0.0000
# 4 0.0000 0.0000 0.0000 26.9403 0.0000 -0.7689
# 5 -5.7047 -0.7835 9.3148 0.0000 29.6392 0.0000
# 6 0.0000 0.0000 0.0000 -0.7689 0.0000 22.9751
#
#
#
# Elastic Compliance Matrix: (Units=1/GPa)
#
#
# Indices 1 2 3 4 5 6 
#
# 1 0.018883 -0.001307 -0.007081 0.000000 0.005825 0.000000
# 2 -0.001307 0.018269 -0.011505 0.000000 0.003847 0.000000
# 3 -0.007081 -0.011505 0.022104 0.000000 -0.008614 0.000000
# 4 0.000000 0.000000 0.000000 0.037155 0.000000 0.001243
# 5 0.005825 0.003847 -0.008614 0.000000 0.037669 0.000000
# 6 0.000000 0.000000 0.000000 0.001243 0.000000 0.043567
#
#
# Mechanical properties :
#
#
# Convention : Reuss Voigt Hill
#
# Bulk Modulus (GPa) = 51.36117 54.60175 52.98146
# Shear Modulus (GPa) = 22.32912 24.73794 23.53353
#
# Velocity S-wave (km/s) = 3.39607 3.57456 3.48646
# Velocity P-wave (km/s) = 6.47353 6.72602 6.60098
#
# Compressibility (1/GPa) = 0.01946996
#
# Stress axis : x y z
#
# Youngs Moduli (GPa) = 52.95792 54.73861 45.23967
#
# Poissons Ratio (x) = 0.07154 0.32034
# Poissons Ratio (y) = 0.06921 0.52050
# Poissons Ratio (z) = 0.37499 0.62978
#
# Static dielectric constant tensor:
#      x y z
#    x 3.679420 0.000000 -0.010730 
#    y 0.000000 3.426100 0.000000 
#    z -0.010730 0.000000 3.939810 
# 
# 
# High freq. dielectric constant tensor:
#      x y z
#    x 1.767340 0.000000 0.000530 
#    y 0.000000 1.730010 0.000000 
#    z 0.000530 0.000000 1.762460 
# 
# From -- ./inp_files/50406.got.cif
#   From: 2010.06.25/outbox.cif.g09.slc.cpg/sg11_26_cif.got.tgz:50406.got - 2010.06.27 23:14:04.
