data_PCOD8071280
_publ_section_title
;
Structure prediction by ZEFSAII (Michael W. Deem and Ramdas Pophale) SiO2 
 PCOD8071280
Probable space group: P 21/M
;
_chemical_formula_sum "Si O2"
_cell_formula_units_Z 24
_cell_length_a 11.940746
_cell_length_b 18.032931
_cell_length_c 9.091351
_cell_angle_alpha 90.000000
_cell_angle_beta 140.430663
_cell_angle_gamma 90.000000
_cell_volume 1247.020257
_symmetry_space_group_name_H-M "P 21/M"
_symmetry_group_IT_number 11
_symmetry_cell_setting 'monoclinic'
loop_
_space_group_symop_operation_xyz
x,y,z
-x,1/2+y,-z
-x,-y,-z
x,1/2-y,z
loop_
_atom_site_type_symbol
_atom_site_label
_atom_site_fract_x
_atom_site_fract_y
_atom_site_fract_z
Si Si1 0.164224 0.904151 0.077525
Si Si2 0.922378 0.919523 0.375796
Si Si3 0.541928 0.577412 0.474572
Si Si4 0.865165 0.579564 0.977553
Si Si5 0.791212 0.336971 0.181523
Si Si6 0.557107 0.572386 0.149097
O O1 0.362822 0.874558 0.308608
O O2 0.146811 0.992385 0.061718
O O3 0.116672 0.872624 0.869352
O O4 0.032114 0.878724 0.072278
O O5 0.744415 0.899202 0.281554
O O6 0.072595 0.858230 0.552584
O O7 0.867368 0.909604 0.152136
O O8 0.000000 0.000000 0.500000
O O9 0.500000 0.500000 0.500000
O O10 0.697152 0.616753 0.724332
O O11 0.589880 0.558886 0.354534
O O12 0.773928 0.250000 0.145428
O O13 0.598008 0.367705 0.025175
O O14 0.500000 0.500000 0.000000
#
# Coordination Sequence:
#
# PCOD8071280 Si02
#       6
#     4   4   4   4   4   4
#     4   9  18  34  56  83 116 152 197 249 302 362
#     4  12  22  36  62  93 125 161 206 261 304 369
#     4   9  18  29  51  84 116 148 195 255 303 342
#     4  10  19  32  57  89 118 148 199 257 300 350
#     4  11  24  41  60  88 125 165 206 255 321 376
#     4  11  21  37  62  89 122 162 211 259 306 368
#
# _framework density 19.245875999999999
#
# number of rings (size 3 to 8) (size 9 to 14) (size 15 to 20)
#    0.000    1.667    3.333    3.000    4.667    2.000 
#    0.000    0.833    0.000    4.000    0.000    0.000 
#    0.000    0.000    0.000    0.000    0.000    0.000 
#
# Total GULP energy -297351.844983 kJ/mol
# GULP energy per Si atom -12389.660208 kJ/mol
# Density = 1.920207 g / cm^3
# Si number density = 19.245876 Si / 1000 Ang^3
#
#
#
# Elastic Constant Matrix: (Units=GPa)
#
#
# Indices 1 2 3 4 5 6 
#
# 1 165.3844 16.2461 85.5208 0.0000 13.3177 0.0000
# 2 16.2461 35.2663 21.4026 0.0000 18.3974 0.0000
# 3 85.5208 21.4026 159.6815 0.0000 -6.6273 0.0000
# 4 0.0000 0.0000 0.0000 16.6153 0.0000 4.3407
# 5 13.3177 18.3974 -6.6273 0.0000 31.6029 0.0000
# 6 0.0000 0.0000 0.0000 4.3407 0.0000 8.9770
#
#
#
# Elastic Compliance Matrix: (Units=1/GPa)
#
#
# Indices 1 2 3 4 5 6 
#
# 1 0.009177 0.002504 -0.005519 0.000000 -0.006482 0.000000
# 2 0.002504 0.049404 -0.009281 0.000000 -0.031761 0.000000
# 3 -0.005519 -0.009281 0.010878 0.000000 0.010010 0.000000
# 4 0.000000 0.000000 0.000000 0.068888 0.000000 -0.033309
# 5 -0.006482 -0.031761 0.010010 0.000000 0.054963 0.000000
# 6 0.000000 0.000000 0.000000 -0.033309 0.000000 0.127501
#
#
# Mechanical properties :
#
#
# Convention : Reuss Voigt Hill
#
# Bulk Modulus (GPa) = 22.28897 67.40791 44.84844
# Shear Modulus (GPa) = 13.87509 27.24988 20.56249
#
# Velocity S-wave (km/s) = 2.68794 3.76690 3.27220
# Velocity P-wave (km/s) = 4.60865 7.34983 6.13432
#
# Compressibility (1/GPa) = 0.04486524
#
# Stress axis : x y z
#
# Youngs Moduli (GPa) = 108.97275 20.24139 91.93007
#
# Poissons Ratio (x) = -0.05068 0.50739
# Poissons Ratio (y) = -0.27284 0.85319
# Poissons Ratio (z) = 0.60146 0.18786
#
# Static dielectric constant tensor:
#      x y z
#    x 4.036570 0.000000 0.544600 
#    y 0.000000 2.952280 0.000000 
#    z 0.544600 0.000000 5.248950 
# 
# 
# High freq. dielectric constant tensor:
#      x y z
#    x 1.765860 0.000000 0.007170 
#    y 0.000000 1.682090 0.000000 
#    z 0.007170 0.000000 1.773860 
# 
# From -- ./inp_files/19257.got.cif
#   From: 2010.06.25/outbox.cif.g09.slc.cpg/sg11_10_cif.got.tgz:19257.got - 2010.06.27 23:14:04.
