data_PCOD8071761
_publ_section_title
;
Structure prediction by ZEFSAII (Michael W. Deem and Ramdas Pophale) SiO2 
 PCOD8071761
Probable space group: P 21/M
;
_chemical_formula_sum "Si O2"
_cell_formula_units_Z 28
_cell_length_a 13.946422
_cell_length_b 9.454986
_cell_length_c 20.405252
_cell_angle_alpha 90.000000
_cell_angle_beta 31.656182
_cell_angle_gamma 90.000000
_cell_volume 1412.136614
_symmetry_space_group_name_H-M "P 21/M"
_symmetry_group_IT_number 11
_symmetry_cell_setting 'monoclinic'
loop_
_space_group_symop_operation_xyz
x,y,z
-x,1/2+y,-z
-x,-y,-z
x,1/2-y,z
loop_
_atom_site_type_symbol
_atom_site_label
_atom_site_fract_x
_atom_site_fract_y
_atom_site_fract_z
Si Si1 0.118677 0.084360 0.879307
Si Si2 0.504903 0.421334 0.336403
Si Si3 0.327862 0.597217 0.090622
Si Si4 0.200957 0.588260 0.583641
Si Si5 0.930423 0.030285 0.644419
Si Si6 0.002404 0.588125 0.195438
Si Si7 0.256200 0.098154 0.368129
O O1 0.147629 0.250000 0.881851
O O2 0.010268 0.073099 0.874606
O O3 0.306625 0.000929 0.763475
O O4 0.000000 0.000000 0.000000
O O5 0.520439 0.250000 0.334989
O O6 0.369723 0.486473 0.468783
O O7 0.425176 0.465911 0.311144
O O8 0.413716 0.750000 0.027751
O O9 0.191744 0.612178 0.232027
O O10 0.209630 0.549241 0.096427
O O11 0.500000 0.500000 0.000000
O O12 0.265220 0.750000 0.556791
O O13 0.130576 0.524134 0.692858
O O14 0.043180 0.589801 0.618981
O O15 0.787615 0.984734 0.672011
O O16 0.082814 0.120592 0.517700
O O17 0.956692 0.750000 0.244238
O O18 0.317578 0.250000 0.307084
#
# Coordination Sequence:
#
# PCOD8071761 Si02
#       7
#     4   4   4   4   4   4   4
#     4  11  24  43  63  82 108 144 187 232 277 327
#     4  10  21  37  57  83 115 151 188 227 275 330
#     4  10  21  37  56  80 111 146 184 223 267 324
#     4  10  19  33  58  89 116 142 181 234 281 324
#     4   9  18  32  51  79 114 149 183 224 273 325
#     4   9  21  41  61  80 108 148 185 223 278 337
#     4   9  17  31  53  79 110 148 184 220 270 329
#
# _framework density 19.828109000000001
#
# number of rings (size 3 to 8) (size 9 to 14) (size 15 to 20)
#    0.000    2.286    0.000    2.143    0.000    9.143 
#    0.000    6.429    0.000    0.000    0.000    0.000 
#    0.000    0.000    0.000    0.000    0.000    0.000 
#
# Total GULP energy -346870.326893 kJ/mol
# GULP energy per Si atom -12388.225960 kJ/mol
# Density = 1.978298 g / cm^3
# Si number density = 19.828109 Si / 1000 Ang^3
#
#
#
# Elastic Constant Matrix: (Units=GPa)
#
#
# Indices 1 2 3 4 5 6 
#
# 1 125.2225 52.0586 51.4824 0.0000 -4.5850 0.0000
# 2 52.0586 129.7655 51.0804 0.0000 -5.1540 0.0000
# 3 51.4824 51.0804 81.3822 0.0000 -10.0418 0.0000
# 4 0.0000 0.0000 0.0000 29.8603 0.0000 -5.5403
# 5 -4.5850 -5.1540 -10.0418 0.0000 30.3598 0.0000
# 6 0.0000 0.0000 0.0000 -5.5403 0.0000 19.9245
#
#
#
# Elastic Compliance Matrix: (Units=1/GPa)
#
#
# Indices 1 2 3 4 5 6 
#
# 1 0.011289 -0.002274 -0.005787 0.000000 -0.000595 0.000000
# 2 -0.002274 0.010698 -0.005311 0.000000 -0.000284 0.000000
# 3 -0.005787 -0.005311 0.019874 0.000000 0.004798 0.000000
# 4 0.000000 0.000000 0.000000 0.035311 0.000000 0.009819
# 5 -0.000595 -0.000284 0.004798 0.000000 0.034387 0.000000
# 6 0.000000 0.000000 0.000000 0.009819 0.000000 0.052920
#
#
# Mechanical properties :
#
#
# Convention : Reuss Voigt Hill
#
# Bulk Modulus (GPa) = 66.15581 71.73476 68.94529
# Shear Modulus (GPa) = 25.47611 28.14552 26.81081
#
# Velocity S-wave (km/s) = 3.58837 3.77168 3.68116
# Velocity P-wave (km/s) = 7.11376 7.43130 7.27427
#
# Compressibility (1/GPa) = 0.01511583
#
# Stress axis : x y z
#
# Youngs Moduli (GPa) = 88.58343 93.47614 50.31651
#
# Poissons Ratio (x) = 0.21260 0.29119
# Poissons Ratio (y) = 0.20147 0.26723
# Poissons Ratio (z) = 0.51265 0.49645
#
# Static dielectric constant tensor:
#      x y z
#    x 3.805160 0.000000 -0.079890 
#    y 0.000000 3.555480 0.000000 
#    z -0.079890 0.000000 3.557960 
# 
# 
# High freq. dielectric constant tensor:
#      x y z
#    x 1.781940 0.000000 -0.001420 
#    y 0.000000 1.770380 0.000000 
#    z -0.001420 0.000000 1.758240 
# 
# From -- ./inp_files/65352.got.cif
#   From: 2010.06.25/outbox.cif.g09.slc.cpg/sg11_33_cif.got.tgz:65352.got - 2010.06.27 23:14:04.
