data_PCOD8071296
_publ_section_title
;
Structure prediction by ZEFSAII (Michael W. Deem and Ramdas Pophale) SiO2 
 PCOD8071296
Probable space group: P 21/M
;
_chemical_formula_sum "Si O2"
_cell_formula_units_Z 32
_cell_length_a 12.818898
_cell_length_b 9.272504
_cell_length_c 16.770627
_cell_angle_alpha 90.000000
_cell_angle_beta 89.363813
_cell_angle_gamma 90.000000
_cell_volume 1993.288901
_symmetry_space_group_name_H-M "P 21/M"
_symmetry_group_IT_number 11
_symmetry_cell_setting 'monoclinic'
loop_
_space_group_symop_operation_xyz
x,y,z
-x,1/2+y,-z
-x,-y,-z
x,1/2-y,z
loop_
_atom_site_type_symbol
_atom_site_label
_atom_site_fract_x
_atom_site_fract_y
_atom_site_fract_z
Si Si1 0.594698 0.583070 0.592832
Si Si2 0.119929 0.415912 0.153958
Si Si3 0.119709 0.914540 0.831686
Si Si4 0.011299 0.578616 0.416368
Si Si5 0.189147 0.080506 0.684696
Si Si6 0.807718 0.916780 0.673510
Si Si7 0.892643 0.083304 0.992714
Si Si8 0.608243 0.919041 0.410281
O O1 0.565541 0.750000 0.598476
O O2 0.691236 0.543491 0.648294
O O3 0.494595 0.494899 0.623888
O O4 0.624773 0.539460 0.502476
O O5 0.122645 0.250000 0.127056
O O6 0.187639 0.443968 0.232021
O O7 0.169028 0.510641 0.080971
O O8 0.000957 0.464315 0.171599
O O9 0.128171 0.750000 0.803028
O O10 0.188057 0.010617 0.772056
O O11 0.165565 0.932545 0.921362
O O12 0.018269 0.750000 0.429064
O O13 0.114466 0.522414 0.372405
O O14 0.000000 0.500000 0.500000
O O15 0.912319 0.534346 0.364071
O O16 0.193590 0.250000 0.696184
O O17 0.290991 0.023560 0.637671
O O18 0.835057 0.750000 0.652381
O O19 0.913719 0.250000 0.972998
O O20 0.000000 0.000000 0.000000
O O21 0.593893 0.750000 0.398871
#
# Coordination Sequence:
#
# PCOD8071296 Si02
#       8
#     4   4   4   4   4   4   4   4
#     4   9  18  33  52  69  89 121 158 198 240 279
#     4   9  17  29  45  67  95 126 155 188 232 278
#     4   9  17  29  44  66  94 124 156 189 227 274
#     4  11  22  33  46  67  95 128 162 191 231 284
#     4  10  20  32  47  68  94 125 157 193 235 279
#     4  10  19  33  50  69  97 126 156 195 237 282
#     4   9  17  28  43  64  92 125 159 191 228 273
#     4   9  18  33  49  67  92 119 156 201 239 275
#
# _framework density 16.05387
#
# number of rings (size 3 to 8) (size 9 to 14) (size 15 to 20)
#    0.000    2.500    1.250    2.250    0.000    6.500 
#    0.000    2.500    0.000    0.000    0.000    0.875 
#    0.000    0.000    0.000    0.000    0.000    0.000 
#
# Total GULP energy -396757.923408 kJ/mol
# GULP energy per Si atom -12398.685107 kJ/mol
# Density = 1.601733 g / cm^3
# Si number density = 16.053870 Si / 1000 Ang^3
#
#
#
# Elastic Constant Matrix: (Units=GPa)
#
#
# Indices 1 2 3 4 5 6 
#
# 1 80.1293 31.9321 48.7626 0.0000 8.1200 0.0000
# 2 31.9321 59.6459 49.3126 0.0000 1.5604 0.0000
# 3 48.7626 49.3126 111.4654 0.0000 5.2279 0.0000
# 4 0.0000 0.0000 0.0000 32.1415 0.0000 -2.4352
# 5 8.1200 1.5604 5.2279 0.0000 16.4983 0.0000
# 6 0.0000 0.0000 0.0000 -2.4352 0.0000 23.9174
#
#
#
# Elastic Compliance Matrix: (Units=1/GPa)
#
#
# Indices 1 2 3 4 5 6 
#
# 1 0.018617 -0.005236 -0.005503 0.000000 -0.006924 0.000000
# 2 -0.005236 0.027931 -0.010215 0.000000 0.003172 0.000000
# 3 -0.005503 -0.010215 0.015963 0.000000 -0.001384 0.000000
# 4 0.000000 0.000000 0.000000 0.031354 0.000000 0.003192
# 5 -0.006924 0.003172 -0.001384 0.000000 0.064159 0.000000
# 6 0.000000 0.000000 0.000000 0.003192 0.000000 0.042136
#
#
# Mechanical properties :
#
#
# Convention : Reuss Voigt Hill
#
# Bulk Modulus (GPa) = 48.53729 56.80613 52.67171
# Shear Modulus (GPa) = 20.08554 22.59363 21.33958
#
# Velocity S-wave (km/s) = 3.54097 3.75555 3.64984
# Velocity P-wave (km/s) = 6.85694 7.36662 7.11635
#
# Compressibility (1/GPa) = 0.02060272
#
# Stress axis : x y z
#
# Youngs Moduli (GPa) = 53.71444 35.80246 62.64496
#
# Poissons Ratio (x) = 0.18745 0.34475
# Poissons Ratio (y) = 0.28124 0.63992
# Poissons Ratio (z) = 0.29561 0.36572
#
# Static dielectric constant tensor:
#      x y z
#    x 2.861390 0.000000 0.076980 
#    y 0.000000 3.105400 0.000000 
#    z 0.076980 0.000000 3.359590 
# 
# 
# High freq. dielectric constant tensor:
#      x y z
#    x 1.579710 0.000000 0.003620 
#    y 0.000000 1.621460 0.000000 
#    z 0.003620 0.000000 1.622090 
# 
# From -- ./inp_files/40686.got.cif
#   From: 2010.06.25/outbox.cif.g09.slc.cpg/sg11_21_cif.got.tgz:40686.got - 2010.06.27 23:14:04.
