data_PCOD8071174
_publ_section_title
;
Structure prediction by ZEFSAII (Michael W. Deem and Ramdas Pophale) SiO2 
 PCOD8071174
Probable space group: P 21/M
;
_chemical_formula_sum "Si O2"
_cell_formula_units_Z 28
_cell_length_a 27.027582
_cell_length_b 13.569924
_cell_length_c 21.249499
_cell_angle_alpha 90.000000
_cell_angle_beta 11.375922
_cell_angle_gamma 90.000000
_cell_volume 1537.234523
_symmetry_space_group_name_H-M "P 21/M"
_symmetry_group_IT_number 11
_symmetry_cell_setting 'monoclinic'
loop_
_space_group_symop_operation_xyz
x,y,z
-x,1/2+y,-z
-x,-y,-z
x,1/2-y,z
loop_
_atom_site_type_symbol
_atom_site_label
_atom_site_fract_x
_atom_site_fract_y
_atom_site_fract_z
Si Si1 0.220026 0.484594 0.822720
Si Si2 0.935845 0.365475 0.078688
Si Si3 0.683737 0.363237 0.713215
Si Si4 0.056251 0.454913 0.332571
Si Si5 0.490795 0.359074 0.726820
Si Si6 0.877481 0.862417 0.619715
Si Si7 0.911495 0.358703 0.298343
O O1 0.500000 0.500000 0.500000
O O2 0.097705 0.586476 0.948873
O O3 0.077362 0.445004 0.061858
O O4 0.175048 0.407880 0.820180
O O5 0.978588 0.250000 0.017191
O O6 0.678677 0.391298 0.436726
O O7 0.695002 0.250000 0.720362
O O8 0.782687 0.432664 0.645354
O O9 0.870503 0.381891 0.422032
O O10 0.402374 0.394050 0.049011
O O11 0.093444 0.377492 0.342381
O O12 0.066864 0.567131 0.344494
O O13 0.266298 0.437009 0.016558
O O14 0.380178 0.250000 0.849672
O O15 0.638745 0.355553 0.607549
O O16 0.940404 0.750000 0.523625
O O17 0.038584 0.250000 0.130182
#
# Coordination Sequence:
#
# PCOD8071174 Si02
#       7
#     4   4   4   4   4   4   4
#     4  10  20  33  52  82 110 138 173 216 271 326
#     4   9  20  36  54  78 109 142 177 222 268 313
#     4  10  19  32  53  81 106 130 169 218 261 302
#     4  11  20  31  55  80 101 136 173 209 256 311
#     4   9  16  31  53  78 105 131 169 217 259 301
#     4  10  21  36  50  75 109 136 168 213 256 302
#     4   9  18  33  54  80 109 132 163 221 269 301
#
# _framework density 18.214527
#
# number of rings (size 3 to 8) (size 9 to 14) (size 15 to 20)
#    0.000    2.286    1.429    3.000    2.000    1.143 
#    0.000    0.000    0.000    9.429    0.000    0.000 
#    0.000    0.000    0.000    0.000    0.000    0.000 
#
# Total GULP energy -346983.834866 kJ/mol
# GULP energy per Si atom -12392.279817 kJ/mol
# Density = 1.817307 g / cm^3
# Si number density = 18.214527 Si / 1000 Ang^3
#
#
#
# Elastic Constant Matrix: (Units=GPa)
#
#
# Indices 1 2 3 4 5 6 
#
# 1 50.9762 37.9333 32.6038 0.0000 -15.7898 0.0000
# 2 37.9333 113.3011 47.2266 0.0000 2.9048 0.0000
# 3 32.6038 47.2266 77.3330 0.0000 -6.5938 0.0000
# 4 0.0000 0.0000 0.0000 25.9626 0.0000 3.0815
# 5 -15.7898 2.9048 -6.5938 0.0000 30.4408 0.0000
# 6 0.0000 0.0000 0.0000 3.0815 0.0000 22.0511
#
#
#
# Elastic Compliance Matrix: (Units=1/GPa)
#
#
# Indices 1 2 3 4 5 6 
#
# 1 0.038135 -0.009685 -0.008556 0.000000 0.018852 0.000000
# 2 -0.009685 0.014529 -0.005437 0.000000 -0.007588 0.000000
# 3 -0.008556 -0.005437 0.019892 0.000000 0.000389 0.000000
# 4 0.000000 0.000000 0.000000 0.039167 0.000000 -0.005473
# 5 0.018852 -0.007588 0.000389 0.000000 0.043438 0.000000
# 6 0.000000 0.000000 0.000000 -0.005473 0.000000 0.046114
#
#
# Mechanical properties :
#
#
# Convention : Reuss Voigt Hill
#
# Bulk Modulus (GPa) = 39.68073 53.01530 46.34802
# Shear Modulus (GPa) = 19.45296 23.94735 21.70016
#
# Velocity S-wave (km/s) = 3.27156 3.62987 3.45536
# Velocity P-wave (km/s) = 6.00860 6.83646 6.43585
#
# Compressibility (1/GPa) = 0.02520115
#
# Stress axis : x y z
#
# Youngs Moduli (GPa) = 26.22229 68.82719 50.27201
#
# Poissons Ratio (x) = 0.66657 0.43014
# Poissons Ratio (y) = 0.25395 0.27331
# Poissons Ratio (z) = 0.22437 0.37419
#
# Static dielectric constant tensor:
#      x y z
#    x 3.358340 0.000000 -0.155830 
#    y 0.000000 3.291990 0.000000 
#    z -0.155830 0.000000 3.197910 
# 
# 
# High freq. dielectric constant tensor:
#      x y z
#    x 1.709070 0.000000 -0.019600 
#    y 0.000000 1.693670 0.000000 
#    z -0.019600 0.000000 1.687970 
# 
# From -- ./inp_files/70456.got.cif
#   From: 2010.06.25/outbox.cif.g09.slc.cpg/sg11_36_cif.got.tgz:70456.got - 2010.06.27 23:14:04.
