data_PCOD8071330
_publ_section_title
;
Structure prediction by ZEFSAII (Michael W. Deem and Ramdas Pophale) SiO2 
 PCOD8071330
Probable space group: P 21/M
;
_chemical_formula_sum "Si O2"
_cell_formula_units_Z 32
_cell_length_a 22.293404
_cell_length_b 9.116250
_cell_length_c 13.100778
_cell_angle_alpha 90.000000
_cell_angle_beta 140.939835
_cell_angle_gamma 90.000000
_cell_volume 1677.737710
_symmetry_space_group_name_H-M "P 21/M"
_symmetry_group_IT_number 11
_symmetry_cell_setting 'monoclinic'
loop_
_space_group_symop_operation_xyz
x,y,z
-x,1/2+y,-z
-x,-y,-z
x,1/2-y,z
loop_
_atom_site_type_symbol
_atom_site_label
_atom_site_fract_x
_atom_site_fract_y
_atom_site_fract_z
Si Si1 0.231859 0.077502 0.755172
Si Si2 0.084497 0.414312 0.731313
Si Si3 0.887665 0.082736 0.551240
Si Si4 0.269595 0.923277 0.323210
Si Si5 0.518770 0.426047 0.414394
Si Si6 0.368176 0.583615 0.077255
Si Si7 0.078809 0.576937 0.175779
Si Si8 0.794570 0.087929 0.971874
O O1 0.252112 0.250000 0.774853
O O2 0.140782 0.036169 0.705011
O O3 0.201926 0.015413 0.604170
O O4 0.327285 0.997101 0.921968
O O5 0.115530 0.250000 0.796764
O O6 0.112889 0.505700 0.867708
O O7 0.970531 0.430684 0.574178
O O8 0.851436 0.250000 0.511861
O O9 0.929628 0.031869 0.716354
O O10 0.270987 0.750000 0.316177
O O11 0.376976 0.972703 0.490969
O O12 0.186765 0.974625 0.290622
O O13 0.245435 0.992514 0.180869
O O14 0.500000 0.500000 0.500000
O O15 0.506765 0.250000 0.410069
O O16 0.451493 0.487720 0.236758
O O17 0.401901 0.750000 0.095015
O O18 0.285098 0.590224 0.048397
O O19 0.065292 0.750000 0.141791
O O20 0.000000 0.500000 0.000000
O O21 0.829286 0.250000 0.989506
#
# Coordination Sequence:
#
# PCOD8071330 Si02
#       8
#     4   4   4   4   4   4   4   4
#     4  10  20  33  51  75 102 138 177 215 265 322
#     4   9  18  30  45  71 104 133 170 215 261 309
#     4  10  20  34  51  73 102 136 175 223 268 308
#     4   9  18  33  51  74 106 143 179 215 262 319
#     4  11  20  33  53  79 111 143 178 218 267 323
#     4  10  19  33  51  76 108 139 170 210 265 322
#     4  10  21  37  57  79 107 143 183 222 264 310
#     4   9  16  28  46  69 100 137 171 203 252 313
#
# _framework density 19.073302999999999
#
# number of rings (size 3 to 8) (size 9 to 14) (size 15 to 20)
#    0.000    2.250    1.250    2.250    0.000    2.000 
#    0.000    1.250    0.000    0.750    0.000    0.000 
#    0.000    0.000    0.000    0.000    0.000    0.000 
#
# Total GULP energy -396467.083805 kJ/mol
# GULP energy per Si atom -12389.596369 kJ/mol
# Density = 1.902989 g / cm^3
# Si number density = 19.073303 Si / 1000 Ang^3
#
#
#
# Elastic Constant Matrix: (Units=GPa)
#
#
# Indices 1 2 3 4 5 6 
#
# 1 45.5368 20.8315 36.6285 0.0000 9.1130 0.0000
# 2 20.8315 83.1145 71.7364 0.0000 -0.3574 0.0000
# 3 36.6285 71.7364 149.5512 0.0000 -8.3229 0.0000
# 4 0.0000 0.0000 0.0000 36.1234 0.0000 -3.4471
# 5 9.1130 -0.3574 -8.3229 0.0000 26.9239 0.0000
# 6 0.0000 0.0000 0.0000 -3.4471 0.0000 14.5014
#
#
#
# Elastic Compliance Matrix: (Units=1/GPa)
#
#
# Indices 1 2 3 4 5 6 
#
# 1 0.031443 -0.001128 -0.007889 0.000000 -0.013096 0.000000
# 2 -0.001128 0.020785 -0.009826 0.000000 -0.002380 0.000000
# 3 -0.007889 -0.009826 0.013709 0.000000 0.006778 0.000000
# 4 0.000000 0.000000 0.000000 0.028325 0.000000 0.006733
# 5 -0.013096 -0.002380 0.006778 0.000000 0.043638 0.000000
# 6 0.000000 0.000000 0.000000 0.006733 0.000000 0.070559
#
#
# Mechanical properties :
#
#
# Convention : Reuss Voigt Hill
#
# Bulk Modulus (GPa) = 35.39712 59.62170 47.50941
# Shear Modulus (GPa) = 19.56460 25.44348 22.50404
#
# Velocity S-wave (km/s) = 3.20622 3.65634 3.43865
# Velocity P-wave (km/s) = 5.68377 7.01086 6.38190
#
# Compressibility (1/GPa) = 0.02825088
#
# Stress axis : x y z
#
# Youngs Moduli (GPa) = 31.80397 48.11093 72.94230
#
# Poissons Ratio (x) = 0.05428 0.57542
# Poissons Ratio (y) = 0.03588 0.71676
# Poissons Ratio (z) = 0.25089 0.47276
#
# Static dielectric constant tensor:
#      x y z
#    x 3.338510 0.000000 0.049550 
#    y 0.000000 3.527670 0.000000 
#    z 0.049550 0.000000 3.636940 
# 
# 
# High freq. dielectric constant tensor:
#      x y z
#    x 1.705940 0.000000 -0.002920 
#    y 0.000000 1.732020 0.000000 
#    z -0.002920 0.000000 1.751190 
# 
# From -- ./inp_files/56197.got.cif
#   From: 2010.06.25/outbox.cif.g09.slc.cpg/sg11_29_cif.got.tgz:56197.got - 2010.06.27 23:14:04.
