data_PCOD8071158
_publ_section_title
;
Structure prediction by ZEFSAII (Michael W. Deem and Ramdas Pophale) SiO2 
 PCOD8071158
Probable space group: P 21/M
;
_chemical_formula_sum "Si O2"
_cell_formula_units_Z 32
_cell_length_a 22.803561
_cell_length_b 9.070876
_cell_length_c 15.307028
_cell_angle_alpha 90.000000
_cell_angle_beta 148.447303
_cell_angle_gamma 90.000000
_cell_volume 1656.834117
_symmetry_space_group_name_H-M "P 21/M"
_symmetry_group_IT_number 11
_symmetry_cell_setting 'monoclinic'
loop_
_space_group_symop_operation_xyz
x,y,z
-x,1/2+y,-z
-x,-y,-z
x,1/2-y,z
loop_
_atom_site_type_symbol
_atom_site_label
_atom_site_fract_x
_atom_site_fract_y
_atom_site_fract_z
Si Si1 0.997400 0.925588 0.729032
Si Si2 0.661986 0.075468 0.058559
Si Si3 0.691286 0.583391 0.573731
Si Si4 0.243840 0.575368 0.006068
Si Si5 0.620166 0.425277 0.652229
Si Si6 0.231174 0.425530 0.645304
Si Si7 0.590418 0.924454 0.268972
Si Si8 0.053226 0.085154 0.146113
O O1 0.993223 0.750000 0.727640
O O2 0.893674 0.980256 0.538206
O O3 0.983291 0.988934 0.808999
O O4 0.115842 0.984755 0.842511
O O5 0.677345 0.250000 0.086939
O O6 0.694700 0.020465 0.003229
O O7 0.743366 0.995184 0.228949
O O8 0.534413 0.026602 0.916480
O O9 0.654921 0.750000 0.554836
O O10 0.686188 0.476063 0.649926
O O11 0.613096 0.519860 0.396649
O O12 0.814017 0.584188 0.689690
O O13 0.241149 0.750000 0.006351
O O14 0.311098 0.517573 0.176101
O O15 0.500000 0.500000 0.500000
O O16 0.607338 0.250000 0.636045
O O17 0.238857 0.250000 0.661740
O O18 0.320534 0.487947 0.687774
O O19 0.603019 0.750000 0.287016
O O20 0.005474 0.250000 0.080662
O O21 0.000000 0.000000 0.000000
#
# Coordination Sequence:
#
# PCOD8071158 Si02
#       8
#     4   4   4   4   4   4   4   4
#     4   9  17  33  55  77 104 141 183 219 259 322
#     4  10  20  34  53  76 103 138 177 224 275 323
#     4  10  19  34  56  81 107 141 183 224 270 324
#     4   9  19  35  54  76 106 145 184 218 263 326
#     4  11  22  37  57  82 111 146 184 224 269 323
#     4  10  19  34  56  79 102 136 180 225 269 322
#     4   9  17  33  55  77 105 141 181 218 269 335
#     4  10  19  32  53  79 107 141 180 223 269 321
#
# _framework density 19.313943999999999
#
# number of rings (size 3 to 8) (size 9 to 14) (size 15 to 20)
#    0.000    2.250    1.250    2.250    0.000    4.000 
#    0.000    4.375    0.000    2.250    0.000    0.000 
#    0.000    0.000    0.000    0.000    0.000    0.000 
#
# Total GULP energy -396777.280031 kJ/mol
# GULP energy per Si atom -12399.290001 kJ/mol
# Density = 1.926998 g / cm^3
# Si number density = 19.313944 Si / 1000 Ang^3
#
#
#
# Elastic Constant Matrix: (Units=GPa)
#
#
# Indices 1 2 3 4 5 6 
#
# 1 112.8106 19.8438 58.0034 0.0000 -2.4133 0.0000
# 2 19.8438 34.5019 28.3105 0.0000 -3.8663 0.0000
# 3 58.0034 28.3105 159.9179 0.0000 -7.1411 0.0000
# 4 0.0000 0.0000 0.0000 28.0556 0.0000 -5.3526
# 5 -2.4133 -3.8663 -7.1411 0.0000 40.3809 0.0000
# 6 0.0000 0.0000 0.0000 -5.3526 0.0000 22.2203
#
#
#
# Elastic Compliance Matrix: (Units=1/GPa)
#
#
# Indices 1 2 3 4 5 6 
#
# 1 0.011282 -0.003689 -0.003452 0.000000 -0.000289 0.000000
# 2 -0.003689 0.035311 -0.004810 0.000000 0.002310 0.000000
# 3 -0.003452 -0.004810 0.008393 0.000000 0.000817 0.000000
# 4 0.000000 0.000000 0.000000 0.037361 0.000000 0.009000
# 5 -0.000289 0.002310 0.000817 0.000000 0.025113 0.000000
# 6 0.000000 0.000000 0.000000 0.009000 0.000000 0.047172
#
#
# Mechanical properties :
#
#
# Convention : Reuss Voigt Hill
#
# Bulk Modulus (GPa) = 32.16999 57.72732 44.94865
# Shear Modulus (GPa) = 25.13891 31.53620 28.33756
#
# Velocity S-wave (km/s) = 3.61168 4.04520 3.83457
# Velocity P-wave (km/s) = 5.83822 7.19528 6.55198
#
# Compressibility (1/GPa) = 0.03108487
#
# Stress axis : x y z
#
# Youngs Moduli (GPa) = 88.63698 28.31956 119.14265
#
# Poissons Ratio (x) = 0.10446 0.41127
# Poissons Ratio (y) = 0.32696 0.57309
# Poissons Ratio (z) = 0.30597 0.13622
#
# Static dielectric constant tensor:
#      x y z
#    x 3.746460 0.000000 0.125020 
#    y 0.000000 2.870710 0.000000 
#    z 0.125020 0.000000 3.965910 
# 
# 
# High freq. dielectric constant tensor:
#      x y z
#    x 1.761880 0.000000 0.000660 
#    y 0.000000 1.700740 0.000000 
#    z 0.000660 0.000000 1.768180 
# 
# From -- ./inp_files/55716.got.cif
#   From: 2010.06.25/outbox.cif.g09.slc.cpg/sg11_28_cif.got.tgz:55716.got - 2010.06.27 23:14:04.
