data_PCOD8071391
_publ_section_title
;
Structure prediction by ZEFSAII (Michael W. Deem and Ramdas Pophale) SiO2 
 PCOD8071391
Probable space group: P 21/M
;
_chemical_formula_sum "Si O2"
_cell_formula_units_Z 32
_cell_length_a 24.255164
_cell_length_b 8.847854
_cell_length_c 17.759774
_cell_angle_alpha 90.000000
_cell_angle_beta 27.799040
_cell_angle_gamma 90.000000
_cell_volume 1777.509366
_symmetry_space_group_name_H-M "P 21/M"
_symmetry_group_IT_number 11
_symmetry_cell_setting 'monoclinic'
loop_
_space_group_symop_operation_xyz
x,y,z
-x,1/2+y,-z
-x,-y,-z
x,1/2-y,z
loop_
_atom_site_type_symbol
_atom_site_label
_atom_site_fract_x
_atom_site_fract_y
_atom_site_fract_z
Si Si1 0.388845 0.429698 0.471860
Si Si2 0.689025 0.928576 0.593465
Si Si3 0.778544 0.570278 0.759307
Si Si4 0.468120 0.571175 0.959549
Si Si5 0.625134 0.426409 0.362940
Si Si6 0.342973 0.926595 0.839288
Si Si7 0.877828 0.928107 0.480406
Si Si8 0.139113 0.929219 0.193514
O O1 0.388262 0.250000 0.479004
O O2 0.318177 0.488611 0.483689
O O3 0.320585 0.497297 0.627472
O O4 0.525003 0.490493 0.304134
O O5 0.700178 0.750000 0.577698
O O6 0.569087 0.976268 0.779406
O O7 0.801390 0.997316 0.503258
O O8 0.770013 0.750000 0.771155
O O9 0.829044 0.509310 0.618897
O O10 0.862927 0.511746 0.723714
O O11 0.651439 0.497824 0.928397
O O12 0.456550 0.750000 0.981917
O O13 0.500000 0.500000 0.000000
O O14 0.500000 0.500000 0.500000
O O15 0.610360 0.250000 0.395522
O O16 0.698776 0.457336 0.196995
O O17 0.347117 0.750000 0.850284
O O18 0.244664 0.996266 0.013963
O O19 0.858827 0.750000 0.504601
O O20 0.014912 0.970259 0.303455
O O21 0.149824 0.750000 0.193307
#
# Coordination Sequence:
#
# PCOD8071391 Si02
#       8
#     4   4   4   4   4   4   4   4
#     4   9  16  28  48  71  95 123 156 190 235 291
#     4   9  17  31  50  71  98 129 160 199 240 283
#     4  11  21  34  49  71 102 128 162 207 252 291
#     4  11  20  33  52  72  98 129 161 198 243 289
#     4   9  16  28  46  69  98 123 149 188 238 289
#     4   8  15  28  46  70  94 120 155 195 237 290
#     4   9  18  32  50  70  94 128 169 209 240 282
#     4  10  19  33  53  72  91 125 173 209 242 286
#
# _framework density 18.002717000000001
#
# number of rings (size 3 to 8) (size 9 to 14) (size 15 to 20)
#    0.000    2.500    1.250    3.000    0.000    2.000 
#    0.000    7.500    0.000    0.750    0.000    0.000 
#    0.000    0.000    0.000    0.000    0.000    0.500 
#
# Total GULP energy -396587.694002 kJ/mol
# GULP energy per Si atom -12393.365438 kJ/mol
# Density = 1.796174 g / cm^3
# Si number density = 18.002717 Si / 1000 Ang^3
#
#
#
# Elastic Constant Matrix: (Units=GPa)
#
#
# Indices 1 2 3 4 5 6 
#
# 1 160.1441 26.2248 56.5775 0.0000 13.2017 0.0000
# 2 26.2248 38.3378 13.3900 0.0000 1.2246 0.0000
# 3 56.5775 13.3900 63.8080 0.0000 -1.2153 0.0000
# 4 0.0000 0.0000 0.0000 16.3826 0.0000 3.3920
# 5 13.2017 1.2246 -1.2153 0.0000 29.1186 0.0000
# 6 0.0000 0.0000 0.0000 3.3920 0.0000 27.4254
#
#
#
# Elastic Compliance Matrix: (Units=1/GPa)
#
#
# Indices 1 2 3 4 5 6 
#
# 1 0.010232 -0.003933 -0.008339 0.000000 -0.004822 0.000000
# 2 -0.003933 0.029718 -0.002741 0.000000 0.000419 0.000000
# 3 -0.008339 -0.002741 0.023735 0.000000 0.004887 0.000000
# 4 0.000000 0.000000 0.000000 0.062644 0.000000 -0.007748
# 5 -0.004822 0.000419 0.004887 0.000000 0.036715 0.000000
# 6 0.000000 0.000000 0.000000 -0.007748 0.000000 0.037421
#
#
# Mechanical properties :
#
#
# Convention : Reuss Voigt Hill
#
# Bulk Modulus (GPa) = 29.71019 50.51940 40.11480
# Shear Modulus (GPa) = 20.68595 25.65850 23.17222
#
# Velocity S-wave (km/s) = 3.39344 3.77935 3.59158
# Velocity P-wave (km/s) = 5.64738 6.86787 6.28731
#
# Compressibility (1/GPa) = 0.03365848
#
# Stress axis : x y z
#
# Youngs Moduli (GPa) = 97.73280 33.64954 42.13272
#
# Poissons Ratio (x) = 0.13233 0.35135
# Poissons Ratio (y) = 0.38434 0.11550
# Poissons Ratio (z) = 0.81501 0.09224
#
# Static dielectric constant tensor:
#      x y z
#    x 3.775600 0.000000 0.232580 
#    y 0.000000 3.080170 0.000000 
#    z 0.232580 0.000000 2.852670 
# 
# 
# High freq. dielectric constant tensor:
#      x y z
#    x 1.707510 0.000000 0.012290 
#    y 0.000000 1.663670 0.000000 
#    z 0.012290 0.000000 1.675540 
# 
# From -- ./inp_files/61756.got.cif
#   From: 2010.06.25/outbox.cif.g09.slc.cpg/sg11_31_cif.got.tgz:61756.got - 2010.06.27 23:14:04.
