data_PCOD8071693
_publ_section_title
;
Structure prediction by ZEFSAII (Michael W. Deem and Ramdas Pophale) SiO2 
 PCOD8071693
Probable space group: P 21/M
;
_chemical_formula_sum "Si O2"
_cell_formula_units_Z 32
_cell_length_a 17.151500
_cell_length_b 14.439926
_cell_length_c 11.598570
_cell_angle_alpha 90.000000
_cell_angle_beta 147.578408
_cell_angle_gamma 90.000000
_cell_volume 1540.117080
_symmetry_space_group_name_H-M "P 21/M"
_symmetry_group_IT_number 11
_symmetry_cell_setting 'monoclinic'
loop_
_space_group_symop_operation_xyz
x,y,z
-x,1/2+y,-z
-x,-y,-z
x,1/2-y,z
loop_
_atom_site_type_symbol
_atom_site_label
_atom_site_fract_x
_atom_site_fract_y
_atom_site_fract_z
Si Si1 0.219567 0.851047 0.756650
Si Si2 0.056171 0.407083 0.711042
Si Si3 0.220049 0.922274 0.994956
Si Si4 0.544804 0.857240 0.160594
Si Si5 0.041440 0.142475 0.949785
Si Si6 0.200635 0.958796 0.218383
Si Si7 0.657782 0.853696 0.059161
Si Si8 0.484235 0.503683 0.696402
O O1 0.188072 0.750000 0.666850
O O2 0.219713 0.842693 0.897645
O O3 0.096519 0.915486 0.547566
O O4 0.379046 0.886993 0.918397
O O5 0.097662 0.510517 0.792587
O O6 0.177723 0.363055 0.779594
O O7 0.045070 0.349663 0.815910
O O8 0.177806 0.897134 0.073152
O O9 0.378532 0.968510 0.204868
O O10 0.546760 0.750000 0.202455
O O11 0.653423 0.875671 0.190306
O O12 0.593152 0.921278 0.327583
O O13 0.062953 0.250000 0.021916
O O14 0.889091 0.096145 0.796938
O O15 0.159811 0.068093 0.146890
O O16 0.367886 0.954682 0.463702
O O17 0.602680 0.750000 0.969004
O O18 0.540642 0.917147 0.851224
#
# Coordination Sequence:
#
# PCOD8071693 Si02
#       8
#     4   4   4   4   4   4   4   4
#     4  10  19  33  56  84 113 149 185 230 287 342
#     4  10  20  37  59  82 112 150 192 234 287 340
#     4   9  20  38  56  82 115 149 185 237 283 335
#     4   9  20  36  54  82 117 148 186 232 282 341
#     4  10  22  40  59  81 114 151 190 241 284 332
#     4  10  22  39  58  85 112 149 198 233 277 345
#     4  10  20  35  54  85 118 146 188 238 283 340
#     4  10  20  36  59  82 111 151 188 233 288 334
#
# _framework density 20.777640999999999
#
# number of rings (size 3 to 8) (size 9 to 14) (size 15 to 20)
#    0.000    2.250    0.000    2.250    1.750    1.500 
#    6.750    0.000    0.000    4.500    0.000    0.000 
#    0.000    0.000    0.000    0.000    0.000    0.000 
#
# Total GULP energy -396531.406431 kJ/mol
# GULP energy per Si atom -12391.606451 kJ/mol
# Density = 2.073035 g / cm^3
# Si number density = 20.777641 Si / 1000 Ang^3
#
#
#
# Elastic Constant Matrix: (Units=GPa)
#
#
# Indices 1 2 3 4 5 6 
#
# 1 121.0337 22.5144 25.5024 0.0000 -3.1631 0.0000
# 2 22.5144 54.6052 -4.2060 0.0000 -8.2127 0.0000
# 3 25.5024 -4.2060 64.5215 0.0000 -2.1691 0.0000
# 4 0.0000 0.0000 0.0000 11.2246 0.0000 -1.9977
# 5 -3.1631 -8.2127 -2.1691 0.0000 17.0646 0.0000
# 6 0.0000 0.0000 0.0000 -1.9977 0.0000 21.5320
#
#
#
# Elastic Compliance Matrix: (Units=1/GPa)
#
#
# Indices 1 2 3 4 5 6 
#
# 1 0.009993 -0.004585 -0.004279 0.000000 -0.000898 0.000000
# 2 -0.004585 0.022015 0.003590 0.000000 0.010201 0.000000
# 3 -0.004279 0.003590 0.017530 0.000000 0.003163 0.000000
# 4 0.000000 0.000000 0.000000 0.090586 0.000000 0.008404
# 5 -0.000898 0.010201 0.003163 0.000000 0.063746 0.000000
# 6 0.000000 0.000000 0.000000 0.008404 0.000000 0.047222
#
#
# Mechanical properties :
#
#
# Convention : Reuss Voigt Hill
#
# Bulk Modulus (GPa) = 25.64706 36.42024 31.03365
# Shear Modulus (GPa) = 18.20587 23.05420 20.63004
#
# Velocity S-wave (km/s) = 2.96332 3.33463 3.15444
# Velocity P-wave (km/s) = 4.90701 5.69148 5.31374
#
# Compressibility (1/GPa) = 0.03899083
#
# Stress axis : x y z
#
# Youngs Moduli (GPa) = 100.06833 45.42447 57.04391
#
# Poissons Ratio (x) = 0.20827 0.24409
# Poissons Ratio (y) = 0.45881 -0.20480
# Poissons Ratio (z) = 0.42819 -0.16309
#
# Static dielectric constant tensor:
#      x y z
#    x 4.014320 0.000000 0.005250 
#    y 0.000000 3.733440 0.000000 
#    z 0.005250 0.000000 3.461490 
# 
# 
# High freq. dielectric constant tensor:
#      x y z
#    x 1.824880 0.000000 0.003100 
#    y 0.000000 1.805260 0.000000 
#    z 0.003100 0.000000 1.793970 
# 
# From -- ./inp_files/41733.got.cif
#   From: 2010.06.25/outbox.cif.g09.slc.cpg/sg11_21_cif.got.tgz:41733.got - 2010.06.27 23:14:04.
