data_PCOD8071745
_publ_section_title
;
Structure prediction by ZEFSAII (Michael W. Deem and Ramdas Pophale) SiO2 
 PCOD8071745
Probable space group: P 21/M
;
_chemical_formula_sum "Si O2"
_cell_formula_units_Z 28
_cell_length_a 18.648047
_cell_length_b 8.361594
_cell_length_c 24.225114
_cell_angle_alpha 90.000000
_cell_angle_beta 22.190861
_cell_angle_gamma 90.000000
_cell_volume 1426.682428
_symmetry_space_group_name_H-M "P 21/M"
_symmetry_group_IT_number 11
_symmetry_cell_setting 'monoclinic'
loop_
_space_group_symop_operation_xyz
x,y,z
-x,1/2+y,-z
-x,-y,-z
x,1/2-y,z
loop_
_atom_site_type_symbol
_atom_site_label
_atom_site_fract_x
_atom_site_fract_y
_atom_site_fract_z
Si Si1 0.860339 0.564517 0.760859
Si Si2 0.886114 0.562335 0.911552
Si Si3 0.061327 0.562593 0.898616
Si Si4 0.416251 0.562105 0.949418
Si Si5 0.469566 0.939379 0.582206
Si Si6 0.164120 0.562868 0.342153
Si Si7 0.845355 0.564614 0.368800
O O1 0.827877 0.750000 0.770450
O O2 0.884772 0.468392 0.686776
O O3 0.057771 0.540591 0.652551
O O4 0.680805 0.505206 0.925329
O O5 0.924034 0.750000 0.874598
O O6 0.911152 0.514190 0.957885
O O7 0.040165 0.458706 0.769273
O O8 0.677672 0.516596 0.038080
O O9 0.082234 0.750000 0.885044
O O10 0.268554 0.486660 0.742580
O O11 0.000000 0.500000 0.000000
O O12 0.381391 0.750000 0.973758
O O13 0.637919 0.525130 0.786961
O O14 0.472210 0.750000 0.579426
O O15 0.631446 0.997388 0.510021
O O16 0.500000 0.000000 0.500000
O O17 0.189185 0.750000 0.334584
O O18 0.000000 0.500000 0.500000
O O19 0.852305 0.750000 0.381325
#
# Coordination Sequence:
#
# PCOD8071745 Si02
#       7
#     4   4   4   4   4   4   4
#     4  11  22  39  63  91 122 158 198 245 292 345
#     4  10  19  35  58  84 117 152 194 246 293 345
#     4  10  22  38  55  80 115 155 197 243 292 349
#     4  11  22  39  64  93 120 155 199 244 293 348
#     4  10  20  35  57  84 114 150 194 244 294 347
#     4  12  25  44  65  90 123 157 194 238 293 355
#     4  10  19  33  57  88 117 149 193 246 297 347
#
# _framework density 19.625952999999999
#
# number of rings (size 3 to 8) (size 9 to 14) (size 15 to 20)
#    0.000    1.429    1.429    6.857    0.000    2.286 
#    2.571    0.000    0.000    0.000    0.000    0.000 
#    0.000    0.000    0.000    0.000    0.000    0.000 
#
# Total GULP energy -347134.822575 kJ/mol
# GULP energy per Si atom -12397.672235 kJ/mol
# Density = 1.958128 g / cm^3
# Si number density = 19.625953 Si / 1000 Ang^3
#
#
#
# Elastic Constant Matrix: (Units=GPa)
#
#
# Indices 1 2 3 4 5 6 
#
# 1 138.5183 9.6499 73.4863 0.0000 -3.2005 0.0000
# 2 9.6499 52.6525 9.4686 0.0000 -2.5479 0.0000
# 3 73.4863 9.4686 127.9608 0.0000 -3.7012 0.0000
# 4 0.0000 0.0000 0.0000 29.1731 0.0000 0.6760
# 5 -3.2005 -2.5479 -3.7012 0.0000 31.3040 0.0000
# 6 0.0000 0.0000 0.0000 0.6760 0.0000 33.0133
#
#
#
# Elastic Compliance Matrix: (Units=1/GPa)
#
#
# Indices 1 2 3 4 5 6 
#
# 1 0.010422 -0.000832 -0.005915 0.000000 0.000298 0.000000
# 2 -0.000832 0.019377 -0.000916 0.000000 0.001384 0.000000
# 3 -0.005915 -0.000916 0.011299 0.000000 0.000657 0.000000
# 4 0.000000 0.000000 0.000000 0.034294 0.000000 -0.000702
# 5 0.000298 0.001384 0.000657 0.000000 0.032166 0.000000
# 6 0.000000 0.000000 0.000000 -0.000702 0.000000 0.030305
#
#
# Mechanical properties :
#
#
# Convention : Reuss Voigt Hill
#
# Bulk Modulus (GPa) = 38.80288 56.03791 47.42039
# Shear Modulus (GPa) = 30.90631 33.79987 32.35309
#
# Velocity S-wave (km/s) = 3.97264 4.15444 4.06456
# Velocity P-wave (km/s) = 6.39192 7.18523 6.80015
#
# Compressibility (1/GPa) = 0.02577129
#
# Stress axis : x y z
#
# Youngs Moduli (GPa) = 95.94901 51.60862 88.50606
#
# Poissons Ratio (x) = 0.04294 0.52353
# Poissons Ratio (y) = 0.07982 0.08107
# Poissons Ratio (z) = 0.56755 0.04727
#
# Static dielectric constant tensor:
#      x y z
#    x 3.750370 0.000000 -0.218720 
#    y 0.000000 3.703720 0.000000 
#    z -0.218720 0.000000 3.514250 
# 
# 
# High freq. dielectric constant tensor:
#      x y z
#    x 1.775190 0.000000 -0.018770 
#    y 0.000000 1.771660 0.000000 
#    z -0.018770 0.000000 1.753020 
# 
# From -- ./inp_files/71928.got.cif
#   From: 2010.06.25/outbox.cif.g09.slc.cpg/sg11_36_cif.got.tgz:71928.got - 2010.06.27 23:14:04.
