data_PCOD8071667
_publ_section_title
;
Structure prediction by ZEFSAII (Michael W. Deem and Ramdas Pophale) SiO2 
 PCOD8071667
Probable space group: P 21/M
;
_chemical_formula_sum "Si O2"
_cell_formula_units_Z 32
_cell_length_a 27.177754
_cell_length_b 8.903907
_cell_length_c 21.158455
_cell_angle_alpha 90.000000
_cell_angle_beta 19.417195
_cell_angle_gamma 90.000000
_cell_volume 1702.146256
_symmetry_space_group_name_H-M "P 21/M"
_symmetry_group_IT_number 11
_symmetry_cell_setting 'monoclinic'
loop_
_space_group_symop_operation_xyz
x,y,z
-x,1/2+y,-z
-x,-y,-z
x,1/2-y,z
loop_
_atom_site_type_symbol
_atom_site_label
_atom_site_fract_x
_atom_site_fract_y
_atom_site_fract_z
Si Si1 0.937571 0.425096 0.483376
Si Si2 0.448709 0.926443 0.497955
Si Si3 0.673649 0.927163 0.117517
Si Si4 0.767977 0.428757 0.444961
Si Si5 0.544925 0.427703 0.151707
Si Si6 0.768506 0.924160 0.794792
Si Si7 0.005607 0.572871 0.724948
Si Si8 0.150046 0.927166 0.794800
O O1 0.896869 0.250000 0.536484
O O2 0.813439 0.517981 0.671043
O O3 0.939534 0.488135 0.409413
O O4 0.098922 0.454553 0.316957
O O5 0.458663 0.750000 0.494604
O O6 0.282755 0.977062 0.680689
O O7 0.500000 0.000000 0.500000
O O8 0.558237 0.979470 0.310131
O O9 0.660709 0.750000 0.118261
O O10 0.836630 0.973272 0.943801
O O11 0.641779 0.017483 0.093017
O O12 0.749100 0.250000 0.469649
O O13 0.616903 0.502872 0.649454
O O14 0.893577 0.489393 0.340582
O O15 0.812051 0.483213 0.321580
O O16 0.533810 0.250000 0.164774
O O17 0.624618 0.484531 0.991530
O O18 0.727234 0.750000 0.840804
O O19 0.017735 0.750000 0.707708
O O20 0.129347 0.750000 0.820204
O O21 0.000000 0.000000 0.000000
#
# Coordination Sequence:
#
# PCOD8071667 Si02
#       8
#     4   4   4   4   4   4   4   4
#     4   9  17  32  54  85 117 142 182 238 285 335
#     4  10  22  38  59  86 117 150 189 237 284 336
#     4  10  19  38  62  84 112 148 192 238 284 340
#     4  10  21  40  62  82 111 152 193 230 282 347
#     4  12  23  36  57  86 115 150 193 239 285 330
#     4  10  19  33  56  82 115 154 188 229 282 339
#     4   9  18  34  61  88 109 143 189 237 286 335
#     4  10  22  39  59  84 115 152 192 232 280 342
#
# _framework density 18.799795
#
# number of rings (size 3 to 8) (size 9 to 14) (size 15 to 20)
#    0.000    2.000    2.500    1.500    1.750    2.000 
#    0.000    1.875    0.000    0.000    0.000    0.000 
#    0.000    0.000    0.000    0.000    0.000    0.000 
#
# Total GULP energy -396857.295534 kJ/mol
# GULP energy per Si atom -12401.790485 kJ/mol
# Density = 1.875701 g / cm^3
# Si number density = 18.799795 Si / 1000 Ang^3
#
#
#
# Elastic Constant Matrix: (Units=GPa)
#
#
# Indices 1 2 3 4 5 6 
#
# 1 110.2259 23.5079 62.9746 0.0000 -5.0094 0.0000
# 2 23.5079 45.8413 42.8827 0.0000 1.1075 0.0000
# 3 62.9746 42.8827 163.0331 0.0000 1.7259 0.0000
# 4 0.0000 0.0000 0.0000 29.0715 0.0000 4.4036
# 5 -5.0094 1.1075 1.7259 0.0000 30.3809 0.0000
# 6 0.0000 0.0000 0.0000 4.4036 0.0000 25.7380
#
#
#
# Elastic Compliance Matrix: (Units=1/GPa)
#
#
# Indices 1 2 3 4 5 6 
#
# 1 0.011991 -0.002452 -0.004011 0.000000 0.002294 0.000000
# 2 -0.002452 0.029447 -0.006787 0.000000 -0.001092 0.000000
# 3 -0.004011 -0.006787 0.009478 0.000000 -0.000952 0.000000
# 4 0.000000 0.000000 0.000000 0.035313 0.000000 -0.006042
# 5 0.002294 -0.001092 -0.000952 0.000000 0.033388 0.000000
# 6 0.000000 0.000000 0.000000 -0.006042 0.000000 0.039887
#
#
# Mechanical properties :
#
#
# Convention : Reuss Voigt Hill
#
# Bulk Modulus (GPa) = 40.95638 64.20342 52.57990
# Shear Modulus (GPa) = 25.75420 29.68708 27.72064
#
# Velocity S-wave (km/s) = 3.70526 3.97812 3.84411
# Velocity P-wave (km/s) = 6.33546 7.43814 6.90883
#
# Compressibility (1/GPa) = 0.02441622
#
# Stress axis : x y z
#
# Youngs Moduli (GPa) = 83.39452 33.95928 105.50500
#
# Poissons Ratio (x) = 0.08328 0.42318
# Poissons Ratio (y) = 0.20452 0.71602
# Poissons Ratio (z) = 0.33450 0.23047
#
# Static dielectric constant tensor:
#      x y z
#    x 3.606490 0.000000 0.020310 
#    y 0.000000 3.282790 0.000000 
#    z 0.020310 0.000000 3.667020 
# 
# 
# High freq. dielectric constant tensor:
#      x y z
#    x 1.727390 0.000000 0.008710 
#    y 0.000000 1.708590 0.000000 
#    z 0.008710 0.000000 1.742990 
# 
# From -- ./inp_files/67068.got.cif
#   From: 2010.06.25/outbox.cif.g09.slc.cpg/sg11_34_cif.got.tgz:67068.got - 2010.06.27 23:14:04.
