data_PCOD8071196
_publ_section_title
;
Structure prediction by ZEFSAII (Michael W. Deem and Ramdas Pophale) SiO2 
 PCOD8071196
Probable space group: P 21/M
;
_chemical_formula_sum "Si O2"
_cell_formula_units_Z 32
_cell_length_a 12.760797
_cell_length_b 22.619584
_cell_length_c 6.221489
_cell_angle_alpha 90.000000
_cell_angle_beta 98.699253
_cell_angle_gamma 90.000000
_cell_volume 1775.135892
_symmetry_space_group_name_H-M "P 21/M"
_symmetry_group_IT_number 11
_symmetry_cell_setting 'monoclinic'
loop_
_space_group_symop_operation_xyz
x,y,z
-x,1/2+y,-z
-x,-y,-z
x,1/2-y,z
loop_
_atom_site_type_symbol
_atom_site_label
_atom_site_fract_x
_atom_site_fract_y
_atom_site_fract_z
Si Si1 0.638451 0.877209 0.091096
Si Si2 0.843096 0.478648 0.520971
Si Si3 0.956753 0.539838 0.175105
Si Si4 0.278074 0.316306 0.496438
Si Si5 0.508072 0.973834 0.232281
Si Si6 0.624511 0.422221 0.494686
Si Si7 0.805812 0.911349 0.818098
Si Si8 0.508305 0.817627 0.704472
O O1 0.715700 0.833870 0.249720
O O2 0.600565 0.924507 0.256927
O O3 0.696338 0.911416 0.915172
O O4 0.543055 0.839898 0.952601
O O5 0.870729 0.505472 0.296307
O O6 0.745602 0.433332 0.463966
O O7 0.812114 0.529413 0.679791
O O8 0.944531 0.441269 0.642159
O O9 0.898940 0.593234 0.028852
O O10 0.000000 0.500000 0.000000
O O11 0.235095 0.250000 0.466480
O O12 0.191326 0.355662 0.342194
O O13 0.394331 0.322514 0.429921
O O14 0.398893 0.938293 0.261882
O O15 0.539189 0.031104 0.377977
O O16 0.500000 0.000000 0.000000
O O17 0.590678 0.356382 0.414029
O O18 0.468879 0.750000 0.710782
#
# Coordination Sequence:
#
# PCOD8071196 Si02
#       8
#     4   4   4   4   4   4   4   4
#     4  11  19  33  51  75 107 143 176 217 260 316
#     4  10  20  34  54  79 108 134 172 217 277 325
#     4   9  19  36  54  78 104 133 166 216 275 335
#     4  10  20  33  49  72 104 143 182 217 256 308
#     4  11  20  30  48  77 111 137 174 215 271 310
#     4  11  21  32  50  78 108 143 175 217 262 320
#     4  10  19  32  54  77 104 135 171 219 269 320
#     4  10  21  35  48  70 107 150 188 215 247 303
#
# _framework density 18.026789000000001
#
# number of rings (size 3 to 8) (size 9 to 14) (size 15 to 20)
#    0.000    1.750    2.500    3.375    3.500    1.500 
#    0.000    0.000    0.000    0.750    0.000    7.000 
#    0.000    0.000    0.000    0.000    0.000    0.000 
#
# Total GULP energy -396462.501162 kJ/mol
# GULP energy per Si atom -12389.453161 kJ/mol
# Density = 1.798576 g / cm^3
# Si number density = 18.026789 Si / 1000 Ang^3
#
#
#
# Elastic Constant Matrix: (Units=GPa)
#
#
# Indices 1 2 3 4 5 6 
#
# 1 84.2251 40.1683 29.1771 0.0000 5.3568 0.0000
# 2 40.1683 109.9847 34.9484 0.0000 10.9432 0.0000
# 3 29.1771 34.9484 88.5438 0.0000 1.7515 0.0000
# 4 0.0000 0.0000 0.0000 24.6999 0.0000 6.2706
# 5 5.3568 10.9432 1.7515 0.0000 31.0270 0.0000
# 6 0.0000 0.0000 0.0000 6.2706 0.0000 21.1025
#
#
#
# Elastic Compliance Matrix: (Units=1/GPa)
#
#
# Indices 1 2 3 4 5 6 
#
# 1 0.015157 -0.004422 -0.003232 0.000000 -0.000875 0.000000
# 2 -0.004422 0.012066 -0.003240 0.000000 -0.003309 0.000000
# 3 -0.003232 -0.003240 0.013619 0.000000 0.000932 0.000000
# 4 0.000000 0.000000 0.000000 0.043789 0.000000 -0.013012
# 5 -0.000875 -0.003309 0.000932 0.000000 0.033496 0.000000
# 6 0.000000 0.000000 0.000000 -0.013012 0.000000 0.051254
#
#
# Mechanical properties :
#
#
# Convention : Reuss Voigt Hill
#
# Bulk Modulus (GPa) = 52.47979 54.59345 53.53662
# Shear Modulus (GPa) = 25.31394 27.26321 26.28857
#
# Velocity S-wave (km/s) = 3.75138 3.89314 3.82292
# Velocity P-wave (km/s) = 6.92381 7.11049 7.01777
#
# Compressibility (1/GPa) = 0.01905495
#
# Stress axis : x y z
#
# Youngs Moduli (GPa) = 65.97641 82.87910 73.42548
#
# Poissons Ratio (x) = 0.36645 0.23731
# Poissons Ratio (y) = 0.29172 0.23789
# Poissons Ratio (z) = 0.21324 0.26852
#
# Static dielectric constant tensor:
#      x y z
#    x 3.257900 0.000000 0.258730 
#    y 0.000000 3.350770 0.000000 
#    z 0.258730 0.000000 3.563180 
# 
# 
# High freq. dielectric constant tensor:
#      x y z
#    x 1.668020 0.000000 -0.005700 
#    y 0.000000 1.671090 0.000000 
#    z -0.005700 0.000000 1.722590 
# 
# From -- ./inp_files/5381.got.cif
#   From: 2010.06.25/outbox.cif.g09.slc.cpg/sg11_3_cif.got.tgz:5381.got - 2010.06.27 23:14:04.
