data_PCOD8071237
_publ_section_title
;
Structure prediction by ZEFSAII (Michael W. Deem and Ramdas Pophale) SiO2 
 PCOD8071237
Probable space group: P 21/M
;
_chemical_formula_sum "Si O2"
_cell_formula_units_Z 32
_cell_length_a 12.477345
_cell_length_b 17.986295
_cell_length_c 16.626641
_cell_angle_alpha 90.000000
_cell_angle_beta 153.231827
_cell_angle_gamma 90.000000
_cell_volume 1680.540972
_symmetry_space_group_name_H-M "P 21/M"
_symmetry_group_IT_number 11
_symmetry_cell_setting 'monoclinic'
loop_
_space_group_symop_operation_xyz
x,y,z
-x,1/2+y,-z
-x,-y,-z
x,1/2-y,z
loop_
_atom_site_type_symbol
_atom_site_label
_atom_site_fract_x
_atom_site_fract_y
_atom_site_fract_z
Si Si1 0.046139 0.161364 0.053607
Si Si2 0.356752 0.165419 0.721958
Si Si3 0.572812 0.661728 0.820400
Si Si4 0.306252 0.582971 0.939035
Si Si5 0.046795 0.663917 0.428030
Si Si6 0.533331 0.163990 0.670081
Si Si7 0.306093 0.409678 0.930333
Si Si8 0.868437 0.661620 0.709270
O O1 0.040042 0.250000 0.052035
O O2 0.249825 0.133199 0.130083
O O3 0.101207 0.131450 0.179999
O O4 0.792707 0.126422 0.855279
O O5 0.442565 0.250000 0.798052
O O6 0.096138 0.151850 0.584375
O O7 0.356441 0.150157 0.626844
O O8 0.542482 0.107830 0.882853
O O9 0.569382 0.750000 0.825329
O O10 0.310508 0.631873 0.621015
O O11 0.667894 0.630473 0.967641
O O12 0.258671 0.495896 0.912532
O O13 0.057782 0.625923 0.774973
O O14 0.449541 0.604614 0.954450
O O15 0.057688 0.750000 0.410646
O O16 0.920987 0.621662 0.270191
O O17 0.588894 0.250000 0.697199
O O18 0.393258 0.135900 0.497153
O O19 0.897696 0.750000 0.723367
#
# Coordination Sequence:
#
# PCOD8071237 Si02
#       8
#     4   4   4   4   4   4   4   4
#     4   9  18  34  53  80 111 136 176 227 270 315
#     4   9  16  31  54  81 111 135 172 228 271 313
#     4  10  21  37  60  81 105 146 186 220 265 325
#     4  10  20  36  54  79 114 147 178 219 275 325
#     4   9  19  35  55  81 108 137 178 228 272 316
#     4   9  17  29  51  83 108 133 173 223 275 316
#     4  10  22  38  52  80 113 146 182 219 269 329
#     4  10  19  32  55  82 106 138 179 225 271 318
#
# _framework density 19.041487
#
# number of rings (size 3 to 8) (size 9 to 14) (size 15 to 20)
#    0.000    2.500    1.250    0.750    1.750    2.500 
#    2.250    6.250    0.000    1.500    0.000    0.000 
#    0.000    0.000    0.000    0.000    0.000    0.000 
#
# Total GULP energy -396699.703702 kJ/mol
# GULP energy per Si atom -12396.865741 kJ/mol
# Density = 1.899815 g / cm^3
# Si number density = 19.041487 Si / 1000 Ang^3
#
#
#
# Elastic Constant Matrix: (Units=GPa)
#
#
# Indices 1 2 3 4 5 6 
#
# 1 116.8283 27.6649 85.6145 0.0000 6.4027 0.0000
# 2 27.6649 33.7523 28.2639 0.0000 -0.6567 0.0000
# 3 85.6145 28.2639 167.1899 0.0000 5.8132 0.0000
# 4 0.0000 0.0000 0.0000 7.5375 0.0000 0.9235
# 5 6.4027 -0.6567 5.8132 0.0000 28.6272 0.0000
# 6 0.0000 0.0000 0.0000 0.9235 0.0000 13.9023
#
#
#
# Elastic Compliance Matrix: (Units=1/GPa)
#
#
# Indices 1 2 3 4 5 6 
#
# 1 0.015068 -0.006986 -0.006458 0.000000 -0.002219 0.000000
# 2 -0.006986 0.037865 -0.002929 0.000000 0.003026 0.000000
# 3 -0.006458 -0.002929 0.009805 0.000000 -0.000614 0.000000
# 4 0.000000 0.000000 0.000000 0.133758 0.000000 -0.008885
# 5 -0.002219 0.003026 -0.000614 0.000000 0.035622 0.000000
# 6 0.000000 0.000000 0.000000 -0.008885 0.000000 0.072521
#
#
# Mechanical properties :
#
#
# Convention : Reuss Voigt Hill
#
# Bulk Modulus (GPa) = 33.34201 66.76193 50.05197
# Shear Modulus (GPa) = 14.39340 21.76190 18.07765
#
# Velocity S-wave (km/s) = 2.75234 3.38430 3.08455
# Velocity P-wave (km/s) = 5.25820 7.09991 6.24730
#
# Compressibility (1/GPa) = 0.02999219
#
# Stress axis : x y z
#
# Youngs Moduli (GPa) = 66.36659 26.40954 101.99228
#
# Poissons Ratio (x) = 0.18449 0.65865
# Poissons Ratio (y) = 0.46362 0.29875
# Poissons Ratio (z) = 0.42858 0.07736
#
# Static dielectric constant tensor:
#      x y z
#    x 3.602310 0.000000 0.112900 
#    y 0.000000 3.148840 0.000000 
#    z 0.112900 0.000000 3.672600 
# 
# 
# High freq. dielectric constant tensor:
#      x y z
#    x 1.741960 0.000000 0.001280 
#    y 0.000000 1.700620 0.000000 
#    z 0.001280 0.000000 1.747450 
# 
# From -- ./inp_files/40059.got.cif
#   From: 2010.06.25/outbox.cif.g09.slc.cpg/sg11_21_cif.got.tgz:40059.got - 2010.06.27 23:14:04.
